data_PCOD8182540
_publ_section_title
;
Structure prediction by ZEFSAII (Michael W. Deem and Ramdas Pophale) SiO2 
 PCOD8182540
Probable space group: A M A 2
;
_chemical_formula_sum "Si O2"
_cell_formula_units_Z 40
_cell_length_a 8.695512
_cell_length_b 15.411559
_cell_length_c 19.068959
_cell_angle_alpha 90.000000
_cell_angle_beta 90.000000
_cell_angle_gamma 90.000000
_cell_volume 2555.457820
_symmetry_space_group_name_H-M "A M A 2"
_symmetry_group_IT_number 40
_symmetry_cell_setting 'orthorhombic'
loop_
_space_group_symop_operation_xyz
x,y,z
-x,-y,z
1/2-x,y,z
1/2+x,-y,z
x,1/2+y,1/2+z
-x,1/2-y,1/2+z
1/2-x,1/2+y,1/2+z
1/2+x,1/2-y,1/2+z
loop_
_atom_site_type_symbol
_atom_site_label
_atom_site_fract_x
_atom_site_fract_y
_atom_site_fract_z
Si Si1 0.928999 0.738190 0.280010
Si Si2 0.922186 0.589139 0.769245
Si Si3 0.077691 0.816181 0.403248
Si Si4 0.933047 0.594207 0.041800
Si Si5 0.068365 0.593862 0.187532
O O1 0.750000 0.722182 0.268584
O O2 0.982184 0.827270 0.240583
O O3 0.969628 0.745540 0.363519
O O4 0.023973 0.658043 0.249808
O O5 0.750000 0.591844 0.737943
O O6 0.917822 0.596959 0.854304
O O7 0.000000 0.500000 0.745216
O O8 0.250000 0.777611 0.409783
O O9 0.012759 0.841194 0.479649
O O10 0.750000 0.588125 0.044931
O O11 0.000000 0.500000 0.026237
O O12 0.998490 0.630676 0.114858
O O13 0.250000 0.586007 0.180359
O O14 0.000000 0.500000 0.205050
#
# Coordination Sequence:
#
# PCOD8182540 Si02
#       5
#     8   8   8   8   8
#     4  10  19  31  47  67  93 126 163 199 238 284
#     4   9  16  27  42  65  93 123 152 188 232 275
#     4   8  17  29  43  65  96 125 154 191 231 278
#     4  10  18  29  45  68  97 127 158 191 237 289
#     4  11  21  34  49  68  96 128 164 201 241 286
#
# _framework density 15.652773
#
# number of rings (size 3 to 8) (size 9 to 14) (size 15 to 20)
#    1.200    1.200    0.000    6.000    0.000    1.600 
#    0.000    0.000    0.000    0.000    0.000    1.400 
#    0.000    9.600    0.000    0.000    0.000    0.000 
#
# Total GULP energy -247790.009984 kJ/mol
# GULP energy per Si atom -12389.500499 kJ/mol
# Density = 1.561715 g / cm^3
# Si number density = 15.652773 Si / 1000 Ang^3
#
#
#
# Elastic Constant Matrix: (Units=GPa)
#
#
# Indices 1 2 3 4 5 6 
#
# 1 94.5602 27.1718 28.6967 0.0000 0.0000 0.0000
# 2 27.1718 73.5483 41.9105 0.0000 0.0000 0.0000
# 3 28.6967 41.9105 75.8511 0.0000 0.0000 0.0000
# 4 0.0000 0.0000 0.0000 25.4916 0.0000 0.0000
# 5 0.0000 0.0000 0.0000 0.0000 22.1990 0.0000
# 6 0.0000 0.0000 0.0000 0.0000 0.0000 26.3360
#
#
#
# Elastic Compliance Matrix: (Units=1/GPa)
#
#
# Indices 1 2 3 4 5 6 
#
# 1 0.012321 -0.002767 -0.003133 0.000000 0.000000 0.000000
# 2 -0.002767 0.020466 -0.010261 0.000000 0.000000 0.000000
# 3 -0.003133 -0.010261 0.020039 0.000000 0.000000 0.000000
# 4 0.000000 0.000000 0.000000 0.039229 0.000000 0.000000
# 5 0.000000 0.000000 0.000000 0.000000 0.045047 0.000000
# 6 0.000000 0.000000 0.000000 0.000000 0.000000 0.037971
#
#
# Mechanical properties :
#
#
# Convention : Reuss Voigt Hill
#
# Bulk Modulus (GPa) = 48.77111 48.83530 48.80320
# Shear Modulus (GPa) = 23.33954 24.55070 23.94512
#
# Velocity S-wave (km/s) = 3.86564 3.96467 3.91547
# Velocity P-wave (km/s) = 7.15192 7.22669 7.18940
#
# Compressibility (1/GPa) = 0.02050394
#
# Stress axis : x y z
#
# Youngs Moduli (GPa) = 81.16230 48.86146 49.90340
#
# Poissons Ratio (x) = 0.13519 0.15633
# Poissons Ratio (y) = 0.22456 0.51208
# Poissons Ratio (z) = 0.25425 0.50139
#
# Static dielectric constant tensor:
#      x y z
#    x 3.049080 0.000000 0.000000 
#    y 0.000000 2.702780 0.000000 
#    z 0.000000 0.000000 2.829080 
# 
# 
# High freq. dielectric constant tensor:
#      x y z
#    x 1.618290 0.000000 0.000000 
#    y 0.000000 1.571730 0.000000 
#    z 0.000000 0.000000 1.570340 
# 
# From -- ./inp_files/14906.got.cif
#   From: 2010.03.12/outbox.cif.g09.slc.cpg/sg40_8_cif.got.tgz:14906.got - 2010.04.14 01:38:03.
