data_PCOD8182424
_publ_section_title
;
Structure prediction by ZEFSAII (Michael W. Deem and Ramdas Pophale) SiO2 
 PCOD8182424
Probable space group: A M A 2
;
_chemical_formula_sum "Si O2"
_cell_formula_units_Z 64
_cell_length_a 9.463833
_cell_length_b 18.131620
_cell_length_c 26.486740
_cell_angle_alpha 90.000000
_cell_angle_beta 90.000000
_cell_angle_gamma 90.000000
_cell_volume 4544.982183
_symmetry_space_group_name_H-M "A M A 2"
_symmetry_group_IT_number 40
_symmetry_cell_setting 'orthorhombic'
loop_
_space_group_symop_operation_xyz
x,y,z
-x,-y,z
1/2-x,y,z
1/2+x,-y,z
x,1/2+y,1/2+z
-x,1/2-y,1/2+z
1/2-x,1/2+y,1/2+z
1/2+x,1/2-y,1/2+z
loop_
_atom_site_type_symbol
_atom_site_label
_atom_site_fract_x
_atom_site_fract_y
_atom_site_fract_z
Si Si1 0.414308 0.927253 0.019060
Si Si2 0.583102 0.665810 0.311718
Si Si3 0.905308 0.712999 0.157488
Si Si4 0.583214 0.073863 0.717357
Si Si5 0.585584 0.072968 0.904839
Si Si6 0.091247 0.693400 0.758982
Si Si7 0.587804 0.172242 0.109615
Si Si8 0.083923 0.424146 0.707916
O O1 0.250000 0.945899 0.027039
O O2 0.463444 0.863052 0.056886
O O3 0.500000 0.000000 0.032759
O O4 0.446205 0.901026 0.961923
O O5 0.750000 0.668415 0.304869
O O6 0.525374 0.608201 0.270013
O O7 0.537215 0.638605 0.367374
O O8 0.531040 0.750160 0.302017
O O9 0.750000 0.711664 0.132990
O O10 0.952816 0.630244 0.171714
O O11 0.902352 0.760270 0.208090
O O12 0.007974 0.750473 0.116912
O O13 0.750000 0.057750 0.720191
O O14 0.500000 0.000000 0.705289
O O15 0.750000 0.054298 0.897212
O O16 0.500000 0.000000 0.890882
O O17 0.250000 0.664058 0.771865
O O18 0.982325 0.625718 0.752824
O O19 0.750000 0.193877 0.107398
O O20 0.557793 0.114346 0.154189
O O21 0.250000 0.436966 0.718408
O O22 0.000000 0.500000 0.706922
#
# Coordination Sequence:
#
# PCOD8182424 Si02
#       8
#     8   8   8   8   8   8   8   8
#     4   9  17  27  38  54  76 100 127 158 186 213
#     4   8  14  25  40  55  73 100 129 153 180 216
#     4   8  15  26  38  52  71  96 124 153 184 220
#     4   9  16  25  37  55  77  99 125 153 181 216
#     4   9  16  26  39  55  76 101 128 156 184 213
#     4   8  14  26  40  52  70  96 124 153 184 217
#     4   9  17  27  38  53  73  98 128 158 185 214
#     4  10  18  26  37  54  75  98 125 154 184 219
#
# _framework density 14.081464
#
# number of rings (size 3 to 8) (size 9 to 14) (size 15 to 20)
#    0.000    3.250    0.000    2.625    0.000    1.500 
#    0.000    2.500    0.000    0.000    0.000    0.000 
#    0.000    1.000    0.000    4.250    0.000    2.750 
#
# Total GULP energy -396596.799188 kJ/mol
# GULP energy per Si atom -12393.649975 kJ/mol
# Density = 1.404941 g / cm^3
# Si number density = 14.081464 Si / 1000 Ang^3
#
#
#
# Elastic Constant Matrix: (Units=GPa)
#
#
# Indices 1 2 3 4 5 6 
#
# 1 58.1214 50.2048 34.6218 0.0000 0.0000 0.0000
# 2 50.2048 91.6219 48.5226 0.0000 0.0000 0.0000
# 3 34.6218 48.5226 75.1555 0.0000 0.0000 0.0000
# 4 0.0000 0.0000 0.0000 24.5072 0.0000 0.0000
# 5 0.0000 0.0000 0.0000 0.0000 12.4874 0.0000
# 6 0.0000 0.0000 0.0000 0.0000 0.0000 26.1083
#
#
#
# Elastic Compliance Matrix: (Units=1/GPa)
#
#
# Indices 1 2 3 4 5 6 
#
# 1 0.034122 -0.015762 -0.005542 0.000000 0.000000 0.000000
# 2 -0.015762 0.023866 -0.008148 0.000000 0.000000 0.000000
# 3 -0.005542 -0.008148 0.021119 0.000000 0.000000 0.000000
# 4 0.000000 0.000000 0.000000 0.040804 0.000000 0.000000
# 5 0.000000 0.000000 0.000000 0.000000 0.080081 0.000000
# 6 0.000000 0.000000 0.000000 0.000000 0.000000 0.038302
#
#
# Mechanical properties :
#
#
# Convention : Reuss Voigt Hill
#
# Bulk Modulus (GPa) = 49.49707 54.62191 52.05949
# Shear Modulus (GPa) = 16.45092 18.72388 17.58740
#
# Velocity S-wave (km/s) = 3.42170 3.65044 3.53792
# Velocity P-wave (km/s) = 7.13005 7.52607 7.33073
#
# Compressibility (1/GPa) = 0.02020322
#
# Stress axis : x y z
#
# Youngs Moduli (GPa) = 29.30646 41.89985 47.34981
#
# Poissons Ratio (x) = 0.66043 0.26243
# Poissons Ratio (y) = 0.46193 0.38579
# Poissons Ratio (z) = 0.16243 0.34139
#
# Static dielectric constant tensor:
#      x y z
#    x 2.824290 0.000000 0.000000 
#    y 0.000000 2.824020 0.000000 
#    z 0.000000 0.000000 2.748840 
# 
# 
# High freq. dielectric constant tensor:
#      x y z
#    x 1.533100 0.000000 0.000000 
#    y 0.000000 1.524970 0.000000 
#    z 0.000000 0.000000 1.508150 
# 
# From -- ./inp_files/24428.got.cif
#   From: 2010.03.12/outbox.cif.g09.slc.cpg/sg40_13_cif.got.tgz:24428.got - 2010.04.14 01:38:03.
