data_PCOD8182312
_publ_section_title
;
Structure prediction by ZEFSAII (Michael W. Deem and Ramdas Pophale) SiO2 
 PCOD8182312
Probable space group: A B M 2
;
_chemical_formula_sum "Si O2"
_cell_formula_units_Z 40
_cell_length_a 5.089309
_cell_length_b 27.206581
_cell_length_c 10.863994
_cell_angle_alpha 90.000000
_cell_angle_beta 90.000000
_cell_angle_gamma 90.000000
_cell_volume 1504.257915
_symmetry_space_group_name_H-M "A B M 2"
_symmetry_group_IT_number 39
_symmetry_cell_setting 'orthorhombic'
loop_
_space_group_symop_operation_xyz
x,y,z
-x,-y,z
-x,1/2+y,z
x,1/2-y,z
x,1/2+y,1/2+z
-x,1/2-y,1/2+z
-x,y,1/2+z
x,-y,1/2+z
loop_
_atom_site_type_symbol
_atom_site_label
_atom_site_fract_x
_atom_site_fract_y
_atom_site_fract_z
Si Si1 0.834784 0.830215 0.208620
Si Si2 0.018611 0.897128 0.401735
Si Si3 0.597282 0.750000 0.362676
Si Si4 0.209816 0.250000 0.631808
Si Si5 0.000000 0.000000 0.812720
Si Si6 0.500000 0.500000 0.149013
Si Si7 0.484110 0.607948 0.045182
O O1 0.986531 0.877318 0.262957
O O2 0.758580 0.798436 0.328146
O O3 0.569219 0.851773 0.146986
O O4 0.019488 0.797713 0.119226
O O5 0.810271 0.877900 0.504115
O O6 0.313230 0.881960 0.434216
O O7 0.956493 0.954686 0.403003
O O8 0.578628 0.750000 0.515050
O O9 0.343572 0.750000 0.269141
O O10 0.749513 0.989210 0.731344
O O11 0.535593 0.550397 0.073737
#
# Coordination Sequence:
#
# PCOD8182312 Si02
#       7
#     8   8   4   4   4   4   8
#     4  11  28  50  78 115 164 208 281 345 424 512
#     4  12  27  46  77 111 159 212 273 339 414 490
#     4  11  28  50  87 114 166 210 278 348 434 515
#     4  11  28  54  83 130 162 222 274 360 436 523
#     4  12  24  46  72 110 160 216 274 340 408 490
#     4  12  24  46  74 108 162 214 278 338 414 494
#     4  12  27  46  77 112 157 213 272 339 415 493
#
# _framework density 26.591180999999999
#
# number of rings (size 3 to 8) (size 9 to 14) (size 15 to 20)
#    0.000    0.400    2.000    4.800    8.400    3.200 
#    0.000    0.000    0.000    0.000    0.000    0.000 
#    0.000    0.000    0.000    0.000    0.000    0.000 
#
# Total GULP energy -247871.352421 kJ/mol
# GULP energy per Si atom -12393.567621 kJ/mol
# Density = 2.653066 g / cm^3
# Si number density = 26.591181 Si / 1000 Ang^3
#
#
#
# Elastic Constant Matrix: (Units=GPa)
#
#
# Indices 1 2 3 4 5 6 
#
# 1 106.0951 12.8123 28.0621 0.0000 0.0000 0.0000
# 2 12.8123 128.5731 34.4036 0.0000 0.0000 0.0000
# 3 28.0621 34.4036 107.8000 0.0000 0.0000 0.0000
# 4 0.0000 0.0000 0.0000 30.3466 0.0000 0.0000
# 5 0.0000 0.0000 0.0000 0.0000 48.1739 0.0000
# 6 0.0000 0.0000 0.0000 0.0000 0.0000 36.2512
#
#
#
# Elastic Compliance Matrix: (Units=1/GPa)
#
#
# Indices 1 2 3 4 5 6 
#
# 1 0.010135 -0.000332 -0.002532 0.000000 0.000000 0.000000
# 2 -0.000332 0.008515 -0.002631 0.000000 0.000000 0.000000
# 3 -0.002532 -0.002631 0.010775 0.000000 0.000000 0.000000
# 4 0.000000 0.000000 0.000000 0.032953 0.000000 0.000000
# 5 0.000000 0.000000 0.000000 0.000000 0.020758 0.000000
# 6 0.000000 0.000000 0.000000 0.000000 0.000000 0.027585
#
#
# Mechanical properties :
#
#
# Convention : Reuss Voigt Hill
#
# Bulk Modulus (GPa) = 54.24690 54.78046 54.51368
# Shear Modulus (GPa) = 39.10601 40.76702 39.93652
#
# Velocity S-wave (km/s) = 3.83905 3.91973 3.87960
# Velocity P-wave (km/s) = 6.33212 6.41338 6.37288
#
# Compressibility (1/GPa) = 0.01843423
#
# Stress axis : x y z
#
# Youngs Moduli (GPa) = 98.66362 117.44284 92.80499
#
# Poissons Ratio (x) = 0.03904 0.23501
# Poissons Ratio (y) = 0.03279 0.24416
# Poissons Ratio (z) = 0.24985 0.30898
#
# Static dielectric constant tensor:
#      x y z
#    x 4.734720 0.000000 0.000000 
#    y 0.000000 5.154840 0.000000 
#    z 0.000000 0.000000 4.536140 
# 
# 
# High freq. dielectric constant tensor:
#      x y z
#    x 2.069410 0.000000 0.000000 
#    y 0.000000 2.096940 0.000000 
#    z 0.000000 0.000000 2.057880 
# 
# From -- ./inp_files/4623.got.cif
#   From: 2010.03.12/outbox.cif.g09.slc.cpg/sg39_3_cif.got.tgz:4623.got - 2010.04.14 02:53:20.
