data_PCOD8182881
_publ_section_title
;
Structure prediction by ZEFSAII (Michael W. Deem and Ramdas Pophale) SiO2 
 PCOD8182881
Probable space group: A M A 2
;
_chemical_formula_sum "Si O2"
_cell_formula_units_Z 64
_cell_length_a 8.994881
_cell_length_b 27.522447
_cell_length_c 14.669286
_cell_angle_alpha 90.000000
_cell_angle_beta 90.000000
_cell_angle_gamma 90.000000
_cell_volume 3631.545101
_symmetry_space_group_name_H-M "A M A 2"
_symmetry_group_IT_number 40
_symmetry_cell_setting 'orthorhombic'
loop_
_space_group_symop_operation_xyz
x,y,z
-x,-y,z
1/2-x,y,z
1/2+x,-y,z
x,1/2+y,1/2+z
-x,1/2-y,1/2+z
1/2-x,1/2+y,1/2+z
1/2+x,1/2-y,1/2+z
loop_
_atom_site_type_symbol
_atom_site_label
_atom_site_fract_x
_atom_site_fract_y
_atom_site_fract_z
Si Si1 0.574416 0.549404 0.118580
Si Si2 0.922705 0.282025 0.318132
Si Si3 0.075595 0.950467 0.826904
Si Si4 0.076289 0.667742 0.622637
Si Si5 0.926068 0.138058 0.500312
Si Si6 0.426417 0.358130 0.443670
Si Si7 0.576407 0.720172 0.133658
Si Si8 0.922758 0.668959 0.807218
O O1 0.500000 0.500000 0.084550
O O2 0.750000 0.544340 0.108773
O O3 0.529155 0.561071 0.222759
O O4 0.509170 0.591707 0.053872
O O5 0.750000 0.295208 0.324243
O O6 0.951558 0.225041 0.331325
O O7 0.007132 0.310065 0.397907
O O8 0.986249 0.298546 0.220954
O O9 0.250000 0.958051 0.835687
O O10 0.020829 0.905812 0.888780
O O11 0.000000 0.000000 0.861637
O O12 0.250000 0.656629 0.614968
O O13 0.039588 0.724491 0.608786
O O14 0.989450 0.637477 0.545945
O O15 0.018836 0.650939 0.721647
O O16 0.750000 0.136455 0.503648
O O17 0.978114 0.187581 0.549359
O O18 0.978009 0.138282 0.395060
O O19 0.250000 0.353735 0.446000
O O20 0.750000 0.713198 0.155949
O O21 0.750000 0.660139 0.784856
#
# Coordination Sequence:
#
# PCOD8182881 Si02
#       8
#     8   8   8   8   8   8   8   8
#     4   9  17  31  50  72  97 123 152 189 236 287
#     4  10  19  30  46  72 103 131 163 203 242 283
#     4   9  19  34  52  74  99 126 157 195 242 295
#     4  10  20  33  49  71  99 130 164 205 247 284
#     4   9  16  29  51  71  91 126 166 197 230 283
#     4  11  21  33  51  73  98 131 167 200 241 298
#     4   9  17  31  49  70  99 132 164 198 239 288
#     4   9  18  33  50  69  96 131 169 205 241 284
#
# _framework density 17.623352000000001
#
# number of rings (size 3 to 8) (size 9 to 14) (size 15 to 20)
#    0.000    2.500    0.000    2.625    0.000    6.000 
#    0.000    4.375    0.000    0.750    0.000    1.750 
#    0.000    0.000    0.000    0.000    0.000    0.000 
#
# Total GULP energy -396831.387636 kJ/mol
# GULP energy per Si atom -12400.980864 kJ/mol
# Density = 1.758324 g / cm^3
# Si number density = 17.623352 Si / 1000 Ang^3
#
#
#
# Elastic Constant Matrix: (Units=GPa)
#
#
# Indices 1 2 3 4 5 6 
#
# 1 51.9812 27.9151 40.3140 0.0000 0.0000 0.0000
# 2 27.9151 76.3997 61.8039 0.0000 0.0000 0.0000
# 3 40.3140 61.8039 134.9227 0.0000 0.0000 0.0000
# 4 0.0000 0.0000 0.0000 27.0529 0.0000 0.0000
# 5 0.0000 0.0000 0.0000 0.0000 28.1231 0.0000
# 6 0.0000 0.0000 0.0000 0.0000 0.0000 24.3354
#
#
#
# Elastic Compliance Matrix: (Units=1/GPa)
#
#
# Indices 1 2 3 4 5 6 
#
# 1 0.026261 -0.005160 -0.005483 0.000000 0.000000 0.000000
# 2 -0.005160 0.021808 -0.008448 0.000000 0.000000 0.000000
# 3 -0.005483 -0.008448 0.012920 0.000000 0.000000 0.000000
# 4 0.000000 0.000000 0.000000 0.036965 0.000000 0.000000
# 5 0.000000 0.000000 0.000000 0.000000 0.035558 0.000000
# 6 0.000000 0.000000 0.000000 0.000000 0.000000 0.041092
#
#
# Mechanical properties :
#
#
# Convention : Reuss Voigt Hill
#
# Bulk Modulus (GPa) = 43.84538 58.15217 50.99878
# Shear Modulus (GPa) = 22.68721 24.78699 23.73710
#
# Velocity S-wave (km/s) = 3.59184 3.75438 3.67401
# Velocity P-wave (km/s) = 6.49114 7.20158 6.85557
#
# Compressibility (1/GPa) = 0.02280742
#
# Stress axis : x y z
#
# Youngs Moduli (GPa) = 38.07929 45.85378 77.40073
#
# Poissons Ratio (x) = 0.23659 0.42440
# Poissons Ratio (y) = 0.19648 0.65389
# Poissons Ratio (z) = 0.20879 0.38738
#
# Static dielectric constant tensor:
#      x y z
#    x 3.156880 0.000000 0.000000 
#    y 0.000000 3.192920 0.000000 
#    z 0.000000 0.000000 3.453250 
# 
# 
# High freq. dielectric constant tensor:
#      x y z
#    x 1.670950 0.000000 0.000000 
#    y 0.000000 1.658900 0.000000 
#    z 0.000000 0.000000 1.685290 
# 
# From -- ./inp_files/15910.got.cif
#   From: 2010.03.12/outbox.cif.g09.slc.cpg/sg40_8_cif.got.tgz:15910.got - 2010.04.14 01:38:03.
