data_PCOD8182997
_publ_section_title
;
Structure prediction by ZEFSAII (Michael W. Deem and Ramdas Pophale) SiO2 
 PCOD8182997
Probable space group: A M A 2
;
_chemical_formula_sum "Si O2"
_cell_formula_units_Z 48
_cell_length_a 18.359543
_cell_length_b 15.898534
_cell_length_c 9.244187
_cell_angle_alpha 90.000000
_cell_angle_beta 90.000000
_cell_angle_gamma 90.000000
_cell_volume 2698.284067
_symmetry_space_group_name_H-M "A M A 2"
_symmetry_group_IT_number 40
_symmetry_cell_setting 'orthorhombic'
loop_
_space_group_symop_operation_xyz
x,y,z
-x,-y,z
1/2-x,y,z
1/2+x,-y,z
x,1/2+y,1/2+z
-x,1/2-y,1/2+z
1/2-x,1/2+y,1/2+z
1/2+x,1/2-y,1/2+z
loop_
_atom_site_type_symbol
_atom_site_label
_atom_site_fract_x
_atom_site_fract_y
_atom_site_fract_z
Si Si1 0.832946 0.503058 0.420500
Si Si2 0.073359 0.157400 0.929528
Si Si3 0.831581 0.516721 0.755162
Si Si4 0.462083 0.087547 0.229157
Si Si5 0.954712 0.082551 0.730437
Si Si6 0.416854 0.347869 0.924824
O O1 0.750000 0.507571 0.363146
O O2 0.860240 0.407016 0.406501
O O3 0.837686 0.535875 0.584707
O O4 0.884640 0.562648 0.327732
O O5 0.104997 0.250630 0.910575
O O6 0.008272 0.144504 0.815949
O O7 0.040968 0.146965 0.090138
O O8 0.750000 0.492195 0.800425
O O9 0.882484 0.436523 0.792919
O O10 0.854971 0.599144 0.843546
O O11 0.504402 0.135769 0.354354
O O12 0.500000 0.000000 0.181362
O O13 0.922270 0.127628 0.591315
O O14 0.000000 0.000000 0.685330
#
# Coordination Sequence:
#
# PCOD8182997 Si02
#       6
#     8   8   8   8   8   8
#     4   9  19  36  54  69  93 133 172 199 234 295
#     4  10  19  32  52  75 100 130 163 202 244 290
#     4   9  18  33  52  71  95 132 170 198 235 294
#     4   9  17  33  52  71  96 132 171 197 233 295
#     4  10  19  32  50  74 101 130 164 201 245 291
#     4  11  20  30  50  80 105 123 156 211 255 283
#
# _framework density 17.789083000000002
#
# number of rings (size 3 to 8) (size 9 to 14) (size 15 to 20)
#    0.000    2.333    0.000    6.000    0.000    1.333 
#    0.000    0.000    0.000    3.000    0.000    9.333 
#    0.000    0.000    0.000    0.000    0.000    0.000 
#
# Total GULP energy -297603.861559 kJ/mol
# GULP energy per Si atom -12400.160898 kJ/mol
# Density = 1.774859 g / cm^3
# Si number density = 17.789083 Si / 1000 Ang^3
#
#
#
# Elastic Constant Matrix: (Units=GPa)
#
#
# Indices 1 2 3 4 5 6 
#
# 1 113.3069 15.8157 30.5245 0.0000 0.0000 0.0000
# 2 15.8157 71.5661 29.7798 0.0000 0.0000 0.0000
# 3 30.5245 29.7798 73.5221 0.0000 0.0000 0.0000
# 4 0.0000 0.0000 0.0000 20.1726 0.0000 0.0000
# 5 0.0000 0.0000 0.0000 0.0000 18.6789 0.0000
# 6 0.0000 0.0000 0.0000 0.0000 0.0000 14.7841
#
#
#
# Elastic Compliance Matrix: (Units=1/GPa)
#
#
# Indices 1 2 3 4 5 6 
#
# 1 0.009957 -0.000578 -0.003900 0.000000 0.000000 0.000000
# 2 -0.000578 0.016839 -0.006581 0.000000 0.000000 0.000000
# 3 -0.003900 -0.006581 0.017886 0.000000 0.000000 0.000000
# 4 0.000000 0.000000 0.000000 0.049572 0.000000 0.000000
# 5 0.000000 0.000000 0.000000 0.000000 0.053536 0.000000
# 6 0.000000 0.000000 0.000000 0.000000 0.000000 0.067640
#
#
# Mechanical properties :
#
#
# Convention : Reuss Voigt Hill
#
# Bulk Modulus (GPa) = 44.31563 45.62612 44.97088
# Shear Modulus (GPa) = 20.40244 22.87881 21.64062
#
# Velocity S-wave (km/s) = 3.39028 3.59014 3.49164
# Velocity P-wave (km/s) = 6.34753 6.54901 6.44905
#
# Compressibility (1/GPa) = 0.02256540
#
# Stress axis : x y z
#
# Youngs Moduli (GPa) = 100.43372 59.38555 55.90966
#
# Poissons Ratio (x) = 0.03430 0.21804
# Poissons Ratio (y) = 0.05801 0.36793
# Poissons Ratio (z) = 0.39168 0.39080
#
# Static dielectric constant tensor:
#      x y z
#    x 3.481360 0.000000 0.000000 
#    y 0.000000 3.136910 0.000000 
#    z 0.000000 0.000000 3.231880 
# 
# 
# High freq. dielectric constant tensor:
#      x y z
#    x 1.687370 0.000000 0.000000 
#    y 0.000000 1.671900 0.000000 
#    z 0.000000 0.000000 1.689360 
# 
# From -- ./inp_files/7566.got.cif
#   From: 2010.03.12/outbox.cif.g09.slc.cpg/sg40_4_cif.got.tgz:7566.got - 2010.04.14 01:38:03.
