data_PCOD8182396
_publ_section_title
;
Structure prediction by ZEFSAII (Michael W. Deem and Ramdas Pophale) SiO2 
 PCOD8182396
Probable space group: A M A 2
;
_chemical_formula_sum "Si O2"
_cell_formula_units_Z 64
_cell_length_a 20.606470
_cell_length_b 9.397523
_cell_length_c 18.893044
_cell_angle_alpha 90.000000
_cell_angle_beta 90.000000
_cell_angle_gamma 90.000000
_cell_volume 3658.633734
_symmetry_space_group_name_H-M "A M A 2"
_symmetry_group_IT_number 40
_symmetry_cell_setting 'orthorhombic'
loop_
_space_group_symop_operation_xyz
x,y,z
-x,-y,z
1/2-x,y,z
1/2+x,-y,z
x,1/2+y,1/2+z
-x,1/2-y,1/2+z
1/2-x,1/2+y,1/2+z
1/2+x,1/2-y,1/2+z
loop_
_atom_site_type_symbol
_atom_site_label
_atom_site_fract_x
_atom_site_fract_y
_atom_site_fract_z
Si Si1 0.115106 0.195997 0.689150
Si Si2 0.549226 0.367308 0.905168
Si Si3 0.501558 0.170155 0.264560
Si Si4 0.676676 0.354131 0.821279
Si Si5 0.824819 0.099988 0.717593
Si Si6 0.978858 0.838166 0.558231
Si Si7 0.909833 0.292132 0.637158
Si Si8 0.821869 0.522828 0.679123
O O1 0.072215 0.270861 0.749122
O O2 0.076624 0.177546 0.616298
O O3 0.173096 0.306802 0.674107
O O4 0.139741 0.051187 0.724125
O O5 0.500000 0.500000 0.911477
O O6 0.519709 0.271492 0.841825
O O7 0.624576 0.396233 0.882372
O O8 0.549524 0.291379 0.981692
O O9 0.451226 0.230100 0.208251
O O10 0.500000 0.000000 0.261977
O O11 0.750000 0.364139 0.852724
O O12 0.665437 0.195942 0.788232
O O13 0.667339 0.468380 0.758911
O O14 0.750000 0.070786 0.703056
O O15 0.851890 0.178427 0.646920
O O16 0.042349 0.739203 0.571735
O O17 0.000000 0.000000 0.559305
O O18 0.877316 0.448718 0.629701
O O19 0.750000 0.478615 0.653037
#
# Coordination Sequence:
#
# PCOD8182396 Si02
#       8
#     8   8   8   8   8   8   8   8
#     4  11  20  32  51  80 109 134 170 222 272 315
#     4  10  18  33  54  80 106 141 184 226 263 321
#     4  10  17  30  55  77  98 130 170 224 261 307
#     4   9  18  35  57  82 106 138 179 225 269 320
#     4  10  19  32  53  78 108 136 170 214 266 323
#     4  10  21  32  51  76 112 138 173 229 273 314
#     4  10  17  33  52  76 101 134 174 215 266 306
#     4  10  18  31  55  81 102 131 178 221 261 314
#
# _framework density 17.49287
#
# number of rings (size 3 to 8) (size 9 to 14) (size 15 to 20)
#    0.000    2.000    5.000    2.250    0.000    0.000 
#    0.000    1.250    5.500    0.000    0.000    0.000 
#    0.000    0.000    0.000    0.000    0.000    0.000 
#
# Total GULP energy -396449.409796 kJ/mol
# GULP energy per Si atom -12389.044056 kJ/mol
# Density = 1.745306 g / cm^3
# Si number density = 17.492870 Si / 1000 Ang^3
#
#
#
# Elastic Constant Matrix: (Units=GPa)
#
#
# Indices 1 2 3 4 5 6 
#
# 1 120.7423 27.7422 45.0945 0.0000 0.0000 0.0000
# 2 27.7422 86.0530 17.3854 0.0000 0.0000 0.0000
# 3 45.0945 17.3854 95.7025 0.0000 0.0000 0.0000
# 4 0.0000 0.0000 0.0000 12.4240 0.0000 0.0000
# 5 0.0000 0.0000 0.0000 0.0000 21.1122 0.0000
# 6 0.0000 0.0000 0.0000 0.0000 0.0000 29.7180
#
#
#
# Elastic Compliance Matrix: (Units=1/GPa)
#
#
# Indices 1 2 3 4 5 6 
#
# 1 0.010539 -0.002486 -0.004515 0.000000 0.000000 0.000000
# 2 -0.002486 0.012650 -0.001127 0.000000 0.000000 0.000000
# 3 -0.004515 -0.001127 0.012781 0.000000 0.000000 0.000000
# 4 0.000000 0.000000 0.000000 0.080490 0.000000 0.000000
# 5 0.000000 0.000000 0.000000 0.000000 0.047366 0.000000
# 6 0.000000 0.000000 0.000000 0.000000 0.000000 0.033650
#
#
# Mechanical properties :
#
#
# Convention : Reuss Voigt Hill
#
# Bulk Modulus (GPa) = 50.71979 53.66023 52.19001
# Shear Modulus (GPa) = 22.69623 26.80256 24.74940
#
# Velocity S-wave (km/s) = 3.60593 3.91858 3.76550
# Velocity P-wave (km/s) = 6.81135 7.15652 6.98607
#
# Compressibility (1/GPa) = 0.01971617
#
# Stress axis : x y z
#
# Youngs Moduli (GPa) = 94.88321 79.05322 78.24153
#
# Poissons Ratio (x) = 0.19650 0.35322
# Poissons Ratio (y) = 0.23584 0.08816
# Poissons Ratio (z) = 0.42835 0.08907
#
# Static dielectric constant tensor:
#      x y z
#    x 3.568130 0.000000 0.000000 
#    y 0.000000 3.207630 0.000000 
#    z 0.000000 0.000000 3.324120 
# 
# 
# High freq. dielectric constant tensor:
#      x y z
#    x 1.696740 0.000000 0.000000 
#    y 0.000000 1.662550 0.000000 
#    z 0.000000 0.000000 1.635070 
# 
# From -- ./inp_files/23688.got.cif
#   From: 2010.03.12/outbox.cif.g09.slc.cpg/sg40_12_cif.got.tgz:23688.got - 2010.04.14 01:38:03.
