data_PCOD8182074
_publ_section_title
;
Structure prediction by ZEFSAII (Michael W. Deem and Ramdas Pophale) SiO2 
 PCOD8182074
Probable space group: A B M 2
;
_chemical_formula_sum "Si O2"
_cell_formula_units_Z 40
_cell_length_a 12.916707
_cell_length_b 14.178050
_cell_length_c 10.136748
_cell_angle_alpha 90.000000
_cell_angle_beta 90.000000
_cell_angle_gamma 90.000000
_cell_volume 1856.380346
_symmetry_space_group_name_H-M "A B M 2"
_symmetry_group_IT_number 39
_symmetry_cell_setting 'orthorhombic'
loop_
_space_group_symop_operation_xyz
x,y,z
-x,-y,z
-x,1/2+y,z
x,1/2-y,z
x,1/2+y,1/2+z
-x,1/2-y,1/2+z
-x,y,1/2+z
x,-y,1/2+z
loop_
_atom_site_type_symbol
_atom_site_label
_atom_site_fract_x
_atom_site_fract_y
_atom_site_fract_z
Si Si1 0.914050 0.642398 0.870970
Si Si2 0.590202 0.851188 0.067294
Si Si3 0.437810 0.909279 0.845294
Si Si4 0.092326 0.642278 0.073570
Si Si5 0.251940 0.500480 0.470163
O O1 0.879361 0.750000 0.901445
O O2 0.954731 0.633812 0.720675
O O3 0.818406 0.572257 0.887638
O O4 0.005581 0.611611 0.968742
O O5 0.640373 0.750000 0.028226
O O6 0.555455 0.841023 0.219547
O O7 0.489596 0.865382 0.975650
O O8 0.670858 0.936681 0.058071
O O9 0.318095 0.935174 0.872289
O O10 0.500000 0.000000 0.798969
O O11 0.129326 0.750000 0.046389
O O12 0.187377 0.570145 0.062390
#
# Coordination Sequence:
#
# PCOD8182074 Si02
#       5
#     8   8   8   8   8
#     4  10  22  41  62  88 121 158 198 243 295 353
#     4  11  23  40  62  89 120 157 198 245 297 352
#     4  10  22  40  60  86 120 157 198 244 295 352
#     4  10  23  41  62  88 121 159 199 243 295 351
#     4  11  22  38  63  91 119 155 199 247 294 350
#
# _framework density 21.547307
#
# number of rings (size 3 to 8) (size 9 to 14) (size 15 to 20)
#    0.000    1.600    0.000    4.800    0.000    8.000 
#    0.000    6.000    0.000    0.000    0.000    0.000 
#    0.000    0.000    0.000    0.000    0.000    0.000 
#
# Total GULP energy -247969.730866 kJ/mol
# GULP energy per Si atom -12398.486543 kJ/mol
# Density = 2.149826 g / cm^3
# Si number density = 21.547307 Si / 1000 Ang^3
#
#
#
# Elastic Constant Matrix: (Units=GPa)
#
#
# Indices 1 2 3 4 5 6 
#
# 1 112.4713 50.8457 65.1014 0.0000 0.0000 0.0000
# 2 50.8457 112.2641 48.7538 0.0000 0.0000 0.0000
# 3 65.1014 48.7538 155.9296 0.0000 0.0000 0.0000
# 4 0.0000 0.0000 0.0000 16.8958 0.0000 0.0000
# 5 0.0000 0.0000 0.0000 0.0000 21.6326 0.0000
# 6 0.0000 0.0000 0.0000 0.0000 0.0000 20.9619
#
#
#
# Elastic Compliance Matrix: (Units=1/GPa)
#
#
# Indices 1 2 3 4 5 6 
#
# 1 0.013209 -0.004151 -0.004217 0.000000 0.000000 0.000000
# 2 -0.004151 0.011612 -0.001897 0.000000 0.000000 0.000000
# 3 -0.004217 -0.001897 0.008767 0.000000 0.000000 0.000000
# 4 0.000000 0.000000 0.000000 0.059186 0.000000 0.000000
# 5 0.000000 0.000000 0.000000 0.000000 0.046227 0.000000
# 6 0.000000 0.000000 0.000000 0.000000 0.000000 0.047706
#
#
# Mechanical properties :
#
#
# Convention : Reuss Voigt Hill
#
# Bulk Modulus (GPa) = 76.58976 78.89633 77.74305
# Shear Modulus (GPa) = 23.63080 26.29566 24.96323
#
# Velocity S-wave (km/s) = 3.31523 3.49717 3.40741
# Velocity P-wave (km/s) = 7.09059 7.28023 7.18604
#
# Compressibility (1/GPa) = 0.01305658
#
# Stress axis : x y z
#
# Youngs Moduli (GPa) = 75.70877 86.12035 114.06492
#
# Poissons Ratio (x) = 0.35749 0.48098
# Poissons Ratio (y) = 0.31427 0.21644
# Poissons Ratio (z) = 0.31924 0.16341
#
# Static dielectric constant tensor:
#      x y z
#    x 3.716700 0.000000 0.000000 
#    y 0.000000 4.093830 0.000000 
#    z 0.000000 0.000000 3.781850 
# 
# 
# High freq. dielectric constant tensor:
#      x y z
#    x 1.827420 0.000000 0.000000 
#    y 0.000000 1.864500 0.000000 
#    z 0.000000 0.000000 1.850270 
# 
# From -- ./inp_files/2521.got.cif
#   From: 2010.03.12/outbox.cif.g09.slc.cpg/sg39_2_cif.got.tgz:2521.got - 2010.04.14 02:53:20.
