data_PCOD8182059
_publ_section_title
;
Structure prediction by ZEFSAII (Michael W. Deem and Ramdas Pophale) SiO2 
 PCOD8182059
Probable space group: A B M 2
;
_chemical_formula_sum "Si O2"
_cell_formula_units_Z 64
_cell_length_a 14.456663
_cell_length_b 22.709148
_cell_length_c 9.336403
_cell_angle_alpha 90.000000
_cell_angle_beta 90.000000
_cell_angle_gamma 90.000000
_cell_volume 3065.127097
_symmetry_space_group_name_H-M "A B M 2"
_symmetry_group_IT_number 39
_symmetry_cell_setting 'orthorhombic'
loop_
_space_group_symop_operation_xyz
x,y,z
-x,-y,z
-x,1/2+y,z
x,1/2-y,z
x,1/2+y,1/2+z
-x,1/2-y,1/2+z
-x,y,1/2+z
x,-y,1/2+z
loop_
_atom_site_type_symbol
_atom_site_label
_atom_site_fract_x
_atom_site_fract_y
_atom_site_fract_z
Si Si1 0.200971 0.013713 0.733090
Si Si2 0.112767 0.099556 0.139857
Si Si3 0.971628 0.566264 0.867970
Si Si4 0.366647 0.815412 0.878719
Si Si5 0.435277 0.132216 0.914602
Si Si6 0.475070 0.561905 0.135052
Si Si7 0.717931 0.184720 0.581667
Si Si8 0.698695 0.564448 0.475256
O O1 0.126037 0.060662 0.787784
O O2 0.264413 0.054036 0.634957
O O3 0.155648 0.965621 0.629052
O O4 0.256806 0.978737 0.857393
O O5 0.193170 0.147079 0.128654
O O6 0.051805 0.101948 0.284557
O O7 0.041784 0.105785 0.008529
O O8 0.000000 0.500000 0.909011
O O9 0.339279 0.750000 0.937747
O O10 0.473525 0.826606 0.921651
O O11 0.358146 0.816006 0.707475
O O12 0.295278 0.865811 0.936129
O O13 0.430689 0.101525 0.759746
O O14 0.435942 0.089850 0.055846
O O15 0.336853 0.165232 0.937088
O O16 0.500000 0.500000 0.207610
O O17 0.409691 0.551513 0.995112
O O18 0.756735 0.250000 0.554730
#
# Coordination Sequence:
#
# PCOD8182059 Si02
#       8
#     8   8   8   8   8   8   8   8
#     4  11  22  39  65  97 139 167 214 267 343 417
#     4  11  23  40  66  94 132 167 224 274 349 415
#     4  10  22  39  63  96 124 170 206 268 340 426
#     4  10  22  44  66  91 129 182 237 279 327 397
#     4  11  23  44  63  93 130 181 231 279 328 402
#     4  11  26  37  60  94 141 179 223 269 341 408
#     4  11  24  43  69  96 129 175 233 292 343 396
#     4  11  25  38  63 101 136 180 217 280 341 406
#
# _framework density 20.880047999999999
#
# number of rings (size 3 to 8) (size 9 to 14) (size 15 to 20)
#    0.000    1.250    3.750    1.875   10.500    0.000 
#    0.000    1.250    0.000    0.750    0.000    0.000 
#    0.000    0.000    0.000    0.000    0.000    0.000 
#
# Total GULP energy -396483.485502 kJ/mol
# GULP energy per Si atom -12390.108922 kJ/mol
# Density = 2.083252 g / cm^3
# Si number density = 20.880048 Si / 1000 Ang^3
#
#
#
# Elastic Constant Matrix: (Units=GPa)
#
#
# Indices 1 2 3 4 5 6 
#
# 1 92.9266 39.0232 40.9092 0.0000 0.0000 0.0000
# 2 39.0232 89.2945 53.9666 0.0000 0.0000 0.0000
# 3 40.9092 53.9666 88.7590 0.0000 0.0000 0.0000
# 4 0.0000 0.0000 0.0000 22.7413 0.0000 0.0000
# 5 0.0000 0.0000 0.0000 0.0000 43.9866 0.0000
# 6 0.0000 0.0000 0.0000 0.0000 0.0000 25.7029
#
#
#
# Elastic Compliance Matrix: (Units=1/GPa)
#
#
# Indices 1 2 3 4 5 6 
#
# 1 0.014179 -0.003552 -0.004375 0.000000 0.000000 0.000000
# 2 -0.003552 0.018595 -0.009669 0.000000 0.000000 0.000000
# 3 -0.004375 -0.009669 0.019162 0.000000 0.000000 0.000000
# 4 0.000000 0.000000 0.000000 0.043973 0.000000 0.000000
# 5 0.000000 0.000000 0.000000 0.000000 0.022734 0.000000
# 6 0.000000 0.000000 0.000000 0.000000 0.000000 0.038906
#
#
# Mechanical properties :
#
#
# Convention : Reuss Voigt Hill
#
# Bulk Modulus (GPa) = 59.72599 59.86425 59.79512
# Shear Modulus (GPa) = 25.21154 27.62489 26.41821
#
# Velocity S-wave (km/s) = 3.47860 3.64129 3.56088
# Velocity P-wave (km/s) = 6.69333 6.81260 6.75323
#
# Compressibility (1/GPa) = 0.01674313
#
# Stress axis : x y z
#
# Youngs Moduli (GPa) = 70.52668 53.77908 52.18740
#
# Poissons Ratio (x) = 0.19103 0.22834
# Poissons Ratio (y) = 0.25052 0.50458
# Poissons Ratio (z) = 0.30858 0.51997
#
# Static dielectric constant tensor:
#      x y z
#    x 3.813000 0.000000 0.000000 
#    y 0.000000 3.774210 0.000000 
#    z 0.000000 0.000000 3.736430 
# 
# 
# High freq. dielectric constant tensor:
#      x y z
#    x 1.812290 0.000000 0.000000 
#    y 0.000000 1.792100 0.000000 
#    z 0.000000 0.000000 1.824640 
# 
# From -- ./inp_files/3533.got.cif
#   From: 2010.03.12/outbox.cif.g09.slc.cpg/sg39_2_cif.got.tgz:3533.got - 2010.04.14 02:53:20.
