data_PCOD8182133
_publ_section_title
;
Structure prediction by ZEFSAII (Michael W. Deem and Ramdas Pophale) SiO2 
 PCOD8182133
Probable space group: A B M 2
;
_chemical_formula_sum "Si O2"
_cell_formula_units_Z 64
_cell_length_a 11.252533
_cell_length_b 29.734772
_cell_length_c 8.630555
_cell_angle_alpha 90.000000
_cell_angle_beta 90.000000
_cell_angle_gamma 90.000000
_cell_volume 2887.710371
_symmetry_space_group_name_H-M "A B M 2"
_symmetry_group_IT_number 39
_symmetry_cell_setting 'orthorhombic'
loop_
_space_group_symop_operation_xyz
x,y,z
-x,-y,z
-x,1/2+y,z
x,1/2-y,z
x,1/2+y,1/2+z
-x,1/2-y,1/2+z
-x,y,1/2+z
x,-y,1/2+z
loop_
_atom_site_type_symbol
_atom_site_label
_atom_site_fract_x
_atom_site_fract_y
_atom_site_fract_z
Si Si1 0.867567 0.606357 0.693390
Si Si2 0.390108 0.882780 0.073628
Si Si3 0.949724 0.197980 0.319750
Si Si4 0.035847 0.551244 0.485311
Si Si5 0.377378 0.361168 0.228556
Si Si6 0.735944 0.453760 0.678533
Si Si7 0.170878 0.300070 0.138601
Si Si8 0.387021 0.977104 0.965126
O O1 0.726604 0.607114 0.673829
O O2 0.898493 0.659235 0.707733
O O3 0.927367 0.582893 0.542478
O O4 0.901266 0.575658 0.840999
O O5 0.485261 0.855268 0.177062
O O6 0.364743 0.856037 0.913871
O O7 0.443081 0.931251 0.030977
O O8 0.910938 0.250000 0.275091
O O9 0.912487 0.185016 0.493916
O O10 0.092772 0.194529 0.295630
O O11 0.127379 0.549152 0.629458
O O12 0.000000 0.500000 0.440994
O O13 0.329430 0.406977 0.156145
O O14 0.295202 0.324873 0.146301
O O15 0.728002 0.467292 0.858784
O O16 0.661589 0.492297 0.599037
O O17 0.211939 0.250000 0.109372
O O18 0.500000 0.000000 0.878520
#
# Coordination Sequence:
#
# PCOD8182133 Si02
#       8
#     8   8   8   8   8   8   8   8
#     4  12  27  47  70 103 142 187 233 298 357 432
#     4  11  28  44  69  98 139 182 243 284 350 415
#     4  10  22  43  76 109 139 180 233 290 360 428
#     4  12  29  45  67 100 145 188 234 287 365 433
#     4  11  25  47  67 102 135 185 231 294 342 413
#     4  11  25  39  67  90 133 172 230 286 340 406
#     4  10  23  45  74 107 143 180 227 287 356 426
#     4  11  23  41  63  95 128 182 239 289 336 401
#
# _framework density 22.162887999999999
#
# number of rings (size 3 to 8) (size 9 to 14) (size 15 to 20)
#    0.000    1.000    1.250    3.750   17.500    0.000 
#    0.000    1.250    0.000    0.000    0.000    0.000 
#    0.000    0.000    0.000    0.000    0.000    0.000 
#
# Total GULP energy -396609.510312 kJ/mol
# GULP energy per Si atom -12394.047197 kJ/mol
# Density = 2.211244 g / cm^3
# Si number density = 22.162888 Si / 1000 Ang^3
#
#
#
# Elastic Constant Matrix: (Units=GPa)
#
#
# Indices 1 2 3 4 5 6 
#
# 1 142.3462 46.0306 63.2599 0.0000 0.0000 0.0000
# 2 46.0306 103.2918 50.3690 0.0000 0.0000 0.0000
# 3 63.2599 50.3690 89.4791 0.0000 0.0000 0.0000
# 4 0.0000 0.0000 0.0000 23.8248 0.0000 0.0000
# 5 0.0000 0.0000 0.0000 0.0000 39.0160 0.0000
# 6 0.0000 0.0000 0.0000 0.0000 0.0000 33.8423
#
#
#
# Elastic Compliance Matrix: (Units=1/GPa)
#
#
# Indices 1 2 3 4 5 6 
#
# 1 0.010398 -0.001446 -0.006537 0.000000 0.000000 0.000000
# 2 -0.001446 0.013545 -0.006603 0.000000 0.000000 0.000000
# 3 -0.006537 -0.006603 0.019514 0.000000 0.000000 0.000000
# 4 0.000000 0.000000 0.000000 0.041973 0.000000 0.000000
# 5 0.000000 0.000000 0.000000 0.000000 0.025631 0.000000
# 6 0.000000 0.000000 0.000000 0.000000 0.000000 0.029549
#
#
# Mechanical properties :
#
#
# Convention : Reuss Voigt Hill
#
# Bulk Modulus (GPa) = 69.99881 72.71514 71.35697
# Shear Modulus (GPa) = 28.64619 31.03377 29.83998
#
# Velocity S-wave (km/s) = 3.59908 3.74606 3.67330
# Velocity P-wave (km/s) = 6.99453 7.18271 7.08924
#
# Compressibility (1/GPa) = 0.01428596
#
# Stress axis : x y z
#
# Youngs Moduli (GPa) = 96.17363 73.82602 51.24482
#
# Poissons Ratio (x) = 0.10674 0.33500
# Poissons Ratio (y) = 0.13906 0.33835
# Poissons Ratio (z) = 0.62870 0.48745
#
# Static dielectric constant tensor:
#      x y z
#    x 4.011350 0.000000 0.000000 
#    y 0.000000 4.257900 0.000000 
#    z 0.000000 0.000000 3.911530 
# 
# 
# High freq. dielectric constant tensor:
#      x y z
#    x 1.872800 0.000000 0.000000 
#    y 0.000000 1.871250 0.000000 
#    z 0.000000 0.000000 1.871600 
# 
# From -- ./inp_files/2897.got.cif
#   From: 2010.03.12/outbox.cif.g09.slc.cpg/sg39_2_cif.got.tgz:2897.got - 2010.04.14 02:53:20.
