data_PCOD8182639
_publ_section_title
;
Structure prediction by ZEFSAII (Michael W. Deem and Ramdas Pophale) SiO2 
 PCOD8182639
Probable space group: A M A 2
;
_chemical_formula_sum "Si O2"
_cell_formula_units_Z 48
_cell_length_a 8.446837
_cell_length_b 23.614318
_cell_length_c 13.859377
_cell_angle_alpha 90.000000
_cell_angle_beta 90.000000
_cell_angle_gamma 90.000000
_cell_volume 2764.478581
_symmetry_space_group_name_H-M "A M A 2"
_symmetry_group_IT_number 40
_symmetry_cell_setting 'orthorhombic'
loop_
_space_group_symop_operation_xyz
x,y,z
-x,-y,z
1/2-x,y,z
1/2+x,-y,z
x,1/2+y,1/2+z
-x,1/2-y,1/2+z
1/2-x,1/2+y,1/2+z
1/2+x,1/2-y,1/2+z
loop_
_atom_site_type_symbol
_atom_site_label
_atom_site_fract_x
_atom_site_fract_y
_atom_site_fract_z
Si Si1 0.934784 0.060369 0.061910
Si Si2 0.936218 0.937924 0.855083
Si Si3 0.936970 0.772732 0.356896
Si Si4 0.436607 0.730392 0.072353
Si Si5 0.564665 0.838672 0.175024
Si Si6 0.563403 0.165125 0.742253
O O1 0.750000 0.054939 0.040472
O O2 0.967371 0.106003 0.144773
O O3 0.000000 0.000000 0.097383
O O4 0.019082 0.080326 0.963565
O O5 0.750000 0.935891 0.842059
O O6 0.015972 0.896524 0.778257
O O7 0.000000 0.000000 0.831951
O O8 0.750000 0.770626 0.355635
O O9 0.998318 0.784572 0.464649
O O10 0.992284 0.822196 0.283377
O O11 0.998895 0.711860 0.318954
O O12 0.250000 0.742698 0.073954
O O13 0.528429 0.786502 0.104637
O O14 0.479731 0.677236 0.139747
O O15 0.750000 0.852577 0.170451
O O16 0.750000 0.169136 0.726943
#
# Coordination Sequence:
#
# PCOD8182639 Si02
#       6
#     8   8   8   8   8   8
#     4  11  21  34  51  74 101 131 163 202 247 297
#     4  11  21  34  52  75 100 131 165 202 245 295
#     4   8  17  31  49  70  98 131 164 201 244 287
#     4  10  18  31  50  74 100 132 169 207 247 292
#     4  10  19  33  50  72 100 133 167 205 249 295
#     4  10  19  33  50  73 103 134 164 203 248 294
#
# _framework density 17.363130000000002
#
# number of rings (size 3 to 8) (size 9 to 14) (size 15 to 20)
#    0.000    2.000    0.000    7.500    0.000    1.333 
#    0.000    9.167    0.000    1.000    0.000    4.667 
#    0.000    0.000    0.000    0.000    0.000    0.000 
#
# Total GULP energy -297619.734889 kJ/mol
# GULP energy per Si atom -12400.822287 kJ/mol
# Density = 1.732361 g / cm^3
# Si number density = 17.363130 Si / 1000 Ang^3
#
#
#
# Elastic Constant Matrix: (Units=GPa)
#
#
# Indices 1 2 3 4 5 6 
#
# 1 40.9455 4.3061 10.9740 0.0000 0.0000 0.0000
# 2 4.3061 91.7988 58.8437 0.0000 0.0000 0.0000
# 3 10.9740 58.8437 138.4136 0.0000 0.0000 0.0000
# 4 0.0000 0.0000 0.0000 18.8281 0.0000 0.0000
# 5 0.0000 0.0000 0.0000 0.0000 24.8345 0.0000
# 6 0.0000 0.0000 0.0000 0.0000 0.0000 29.6975
#
#
#
# Elastic Compliance Matrix: (Units=1/GPa)
#
#
# Indices 1 2 3 4 5 6 
#
# 1 0.024954 0.000134 -0.002036 0.000000 0.000000 0.000000
# 2 0.000134 0.014975 -0.006377 0.000000 0.000000 0.000000
# 3 -0.002036 -0.006377 0.010097 0.000000 0.000000 0.000000
# 4 0.000000 0.000000 0.000000 0.053112 0.000000 0.000000
# 5 0.000000 0.000000 0.000000 0.000000 0.040266 0.000000
# 6 0.000000 0.000000 0.000000 0.000000 0.000000 0.033673
#
#
# Mechanical properties :
#
#
# Convention : Reuss Voigt Hill
#
# Bulk Modulus (GPa) = 29.87780 46.60060 38.23920
# Shear Modulus (GPa) = 24.41523 27.80763 26.11143
#
# Velocity S-wave (km/s) = 3.75394 4.00626 3.88215
# Velocity P-wave (km/s) = 6.00286 6.94962 6.49352
#
# Compressibility (1/GPa) = 0.03346967
#
# Stress axis : x y z
#
# Youngs Moduli (GPa) = 40.07354 66.77937 99.03845
#
# Poissons Ratio (x) = -0.00896 0.20160
# Poissons Ratio (y) = -0.00538 0.63155
# Poissons Ratio (z) = 0.08157 0.42584
#
# Static dielectric constant tensor:
#      x y z
#    x 3.228870 0.000000 0.000000 
#    y 0.000000 3.144550 0.000000 
#    z 0.000000 0.000000 3.465030 
# 
# 
# High freq. dielectric constant tensor:
#      x y z
#    x 1.677150 0.000000 0.000000 
#    y 0.000000 1.659230 0.000000 
#    z 0.000000 0.000000 1.662620 
# 
# From -- ./inp_files/15155.got.cif
#   From: 2010.03.12/outbox.cif.g09.slc.cpg/sg40_8_cif.got.tgz:15155.got - 2010.04.14 01:38:03.
