data_PCOD8182124
_publ_section_title
;
Structure prediction by ZEFSAII (Michael W. Deem and Ramdas Pophale) SiO2 
 PCOD8182124
Probable space group: A B M 2
;
_chemical_formula_sum "Si O2"
_cell_formula_units_Z 48
_cell_length_a 13.157188
_cell_length_b 17.243390
_cell_length_c 8.821440
_cell_angle_alpha 90.000000
_cell_angle_beta 90.000000
_cell_angle_gamma 90.000000
_cell_volume 2001.360001
_symmetry_space_group_name_H-M "A B M 2"
_symmetry_group_IT_number 39
_symmetry_cell_setting 'orthorhombic'
loop_
_space_group_symop_operation_xyz
x,y,z
-x,-y,z
-x,1/2+y,z
x,1/2-y,z
x,1/2+y,1/2+z
-x,1/2-y,1/2+z
-x,y,1/2+z
x,-y,1/2+z
loop_
_atom_site_type_symbol
_atom_site_label
_atom_site_fract_x
_atom_site_fract_y
_atom_site_fract_z
Si Si1 0.470990 0.750000 0.103190
Si Si2 0.868642 0.341508 0.216471
Si Si3 0.316058 0.478417 0.003762
Si Si4 0.220487 0.901634 0.778836
Si Si5 0.648655 0.250000 0.800987
Si Si6 0.360099 0.602941 0.222358
Si Si7 0.019138 0.409364 0.430793
O O1 0.592874 0.750000 0.136005
O O2 0.429957 0.674847 0.188280
O O3 0.440908 0.750000 0.927491
O O4 0.856579 0.250000 0.206749
O O5 0.758575 0.379359 0.197561
O O6 0.915567 0.366987 0.378003
O O7 0.941641 0.372677 0.085617
O O8 0.247740 0.529706 0.893199
O O9 0.383666 0.422291 0.896288
O O10 0.242884 0.425254 0.106527
O O11 0.388040 0.531684 0.109471
O O12 0.281456 0.824564 0.824513
O O13 0.100323 0.890207 0.796961
O O14 0.000000 0.500000 0.453684
#
# Coordination Sequence:
#
# PCOD8182124 Si02
#       7
#     4   8   8   8   4   8   8
#     4  12  26  50  75 102 138 185 232 299 357 427
#     4  12  26  42  64 100 140 187 232 290 347 415
#     4  10  22  42  74 101 130 186 229 283 352 414
#     4  11  25  46  72 101 146 184 232 291 355 415
#     4  12  28  50  75 106 140 187 236 293 363 421
#     4  11  23  46  72  98 144 183 235 293 358 415
#     4  12  26  42  68 100 140 186 236 284 343 420
#
# _framework density 23.983691
#
# number of rings (size 3 to 8) (size 9 to 14) (size 15 to 20)
#    0.000    0.667    4.167    3.000    9.333    0.000 
#    0.000    5.000    0.000    0.000    0.000    0.000 
#    0.000    0.000    0.000    0.000    0.000    0.000 
#
# Total GULP energy -297674.605908 kJ/mol
# GULP energy per Si atom -12403.108580 kJ/mol
# Density = 2.392910 g / cm^3
# Si number density = 23.983691 Si / 1000 Ang^3
#
#
#
# Elastic Constant Matrix: (Units=GPa)
#
#
# Indices 1 2 3 4 5 6 
#
# 1 22.5321 13.3725 -9.1460 0.0000 0.0000 0.0000
# 2 13.3725 127.6389 44.2413 0.0000 0.0000 0.0000
# 3 -9.1460 44.2413 109.5379 0.0000 0.0000 0.0000
# 4 0.0000 0.0000 0.0000 26.2463 0.0000 0.0000
# 5 0.0000 0.0000 0.0000 0.0000 29.3682 0.0000
# 6 0.0000 0.0000 0.0000 0.0000 0.0000 48.2257
#
#
#
# Elastic Compliance Matrix: (Units=1/GPa)
#
#
# Indices 1 2 3 4 5 6 
#
# 1 0.052315 -0.008134 0.007653 0.000000 0.000000 0.000000
# 2 -0.008134 0.010374 -0.004869 0.000000 0.000000 0.000000
# 3 0.007653 -0.004869 0.011735 0.000000 0.000000 0.000000
# 4 0.000000 0.000000 0.000000 0.038101 0.000000 0.000000
# 5 0.000000 0.000000 0.000000 0.000000 0.034050 0.000000
# 6 0.000000 0.000000 0.000000 0.000000 0.000000 0.020736
#
#
# Mechanical properties :
#
#
# Convention : Reuss Voigt Hill
#
# Bulk Modulus (GPa) = 15.69251 39.62718 27.65984
# Shear Modulus (GPa) = 25.09385 34.85079 29.97232
#
# Velocity S-wave (km/s) = 3.23815 3.81610 3.53894
# Velocity P-wave (km/s) = 4.53189 5.99793 5.31569
#
# Compressibility (1/GPa) = 0.06372466
#
# Stress axis : x y z
#
# Youngs Moduli (GPa) = 19.11508 96.39021 85.21579
#
# Poissons Ratio (x) = 0.78400 -0.65217
# Poissons Ratio (y) = 0.15547 0.41494
# Poissons Ratio (z) = -0.14629 0.46935
#
# Static dielectric constant tensor:
#      x y z
#    x 4.113510 0.000000 0.000000 
#    y 0.000000 4.722570 0.000000 
#    z 0.000000 0.000000 4.562210 
# 
# 
# High freq. dielectric constant tensor:
#      x y z
#    x 1.935500 0.000000 0.000000 
#    y 0.000000 1.964630 0.000000 
#    z 0.000000 0.000000 1.965860 
# 
# From -- ./inp_files/3266.got.cif
#   From: 2010.03.12/outbox.cif.g09.slc.cpg/sg39_2_cif.got.tgz:3266.got - 2010.04.14 02:53:20.
