data_PCOD8182410
_publ_section_title
;
Structure prediction by ZEFSAII (Michael W. Deem and Ramdas Pophale) SiO2 
 PCOD8182410
Probable space group: A M A 2
;
_chemical_formula_sum "Si O2"
_cell_formula_units_Z 44
_cell_length_a 14.330250
_cell_length_b 22.817098
_cell_length_c 6.843206
_cell_angle_alpha 90.000000
_cell_angle_beta 90.000000
_cell_angle_gamma 90.000000
_cell_volume 2237.555356
_symmetry_space_group_name_H-M "A M A 2"
_symmetry_group_IT_number 40
_symmetry_cell_setting 'orthorhombic'
loop_
_space_group_symop_operation_xyz
x,y,z
-x,-y,z
1/2-x,y,z
1/2+x,-y,z
x,1/2+y,1/2+z
-x,1/2-y,1/2+z
1/2-x,1/2+y,1/2+z
1/2+x,1/2-y,1/2+z
loop_
_atom_site_type_symbol
_atom_site_label
_atom_site_fract_x
_atom_site_fract_y
_atom_site_fract_z
Si Si1 0.750000 0.861789 0.834810
Si Si2 0.892402 0.625611 0.950158
Si Si3 0.250000 0.823099 0.736038
Si Si4 0.750000 0.810180 0.232370
Si Si5 0.750000 0.608462 0.633094
Si Si6 0.605470 0.501486 0.109324
Si Si7 0.250000 0.508237 0.434236
Si Si8 0.389489 0.125392 0.492575
O O1 0.657187 0.854942 0.699525
O O2 0.750000 0.921317 0.968317
O O3 0.750000 0.810329 0.995653
O O4 0.843398 0.634195 0.739059
O O5 0.001494 0.640896 0.968968
O O6 0.842842 0.665687 0.110775
O O7 0.870712 0.557374 0.981130
O O8 0.250000 0.756281 0.807805
O O9 0.250000 0.866644 0.916793
O O10 0.658321 0.842536 0.311932
O O11 0.750000 0.536429 0.619002
O O12 0.500000 0.500000 0.178638
O O13 0.658828 0.505894 0.310761
O O14 0.629471 0.444344 0.978759
#
# Coordination Sequence:
#
# PCOD8182410 Si02
#       8
#     4   8   4   4   4   8   4   8
#     4   9  21  38  65  86 122 157 197 243 299 356
#     4  10  21  39  60  90 121 161 197 246 302 352
#     4  11  24  43  58  84 127 159 206 247 291 351
#     4  11  24  42  60  91 116 163 207 244 290 362
#     4  11  22  35  63  90 118 159 203 244 290 360
#     4   9  17  35  60  85 125 152 187 248 303 353
#     4  10  17  34  58  89 117 156 187 244 300 349
#     4   9  21  40  60  91 123 156 195 250 302 353
#
# _framework density 19.664317
#
# number of rings (size 3 to 8) (size 9 to 14) (size 15 to 20)
#    0.000    2.182    1.818    1.091    2.545    4.364 
#    9.818    0.000    0.000    0.000    0.000    0.000 
#    0.000    0.000    0.000    0.000    0.000    0.000 
#
# Total GULP energy -272646.599102 kJ/mol
# GULP energy per Si atom -12393.027232 kJ/mol
# Density = 1.961956 g / cm^3
# Si number density = 19.664317 Si / 1000 Ang^3
#
#
#
# Elastic Constant Matrix: (Units=GPa)
#
#
# Indices 1 2 3 4 5 6 
#
# 1 137.4255 37.7800 35.1288 0.0000 0.0000 0.0000
# 2 37.7800 68.1898 20.7796 0.0000 0.0000 0.0000
# 3 35.1288 20.7796 79.3024 0.0000 0.0000 0.0000
# 4 0.0000 0.0000 0.0000 22.1521 0.0000 0.0000
# 5 0.0000 0.0000 0.0000 0.0000 13.9264 0.0000
# 6 0.0000 0.0000 0.0000 0.0000 0.0000 21.2909
#
#
#
# Elastic Compliance Matrix: (Units=1/GPa)
#
#
# Indices 1 2 3 4 5 6 
#
# 1 0.009187 -0.004184 -0.002973 0.000000 0.000000 0.000000
# 2 -0.004184 0.017843 -0.002822 0.000000 0.000000 0.000000
# 3 -0.002973 -0.002822 0.014666 0.000000 0.000000 0.000000
# 4 0.000000 0.000000 0.000000 0.045143 0.000000 0.000000
# 5 0.000000 0.000000 0.000000 0.000000 0.071806 0.000000
# 6 0.000000 0.000000 0.000000 0.000000 0.000000 0.046968
#
#
# Mechanical properties :
#
#
# Convention : Reuss Voigt Hill
#
# Bulk Modulus (GPa) = 46.00238 52.47717 49.23978
# Shear Modulus (GPa) = 21.47602 24.22249 22.84925
#
# Velocity S-wave (km/s) = 3.30833 3.51351 3.41246
# Velocity P-wave (km/s) = 6.16749 6.57298 6.37346
#
# Compressibility (1/GPa) = 0.02173801
#
# Stress axis : x y z
#
# Youngs Moduli (GPa) = 108.85072 56.04455 68.18265
#
# Poissons Ratio (x) = 0.23448 0.20272
# Poissons Ratio (y) = 0.45542 0.19241
# Poissons Ratio (z) = 0.32364 0.15816
#
# Static dielectric constant tensor:
#      x y z
#    x 3.689830 0.000000 0.000000 
#    y 0.000000 3.538830 0.000000 
#    z 0.000000 0.000000 3.311380 
# 
# 
# High freq. dielectric constant tensor:
#      x y z
#    x 1.774470 0.000000 0.000000 
#    y 0.000000 1.757310 0.000000 
#    z 0.000000 0.000000 1.751500 
# 
# From -- ./inp_files/1318.got.cif
#   From: 2010.03.12/outbox.cif.g09.slc.cpg/sg40_1_cif.got.tgz:1318.got - 2010.04.14 01:38:03.
