data_PCOD8182388
_publ_section_title
;
Structure prediction by ZEFSAII (Michael W. Deem and Ramdas Pophale) SiO2 
 PCOD8182388
Probable space group: A M A 2
;
_chemical_formula_sum "Si O2"
_cell_formula_units_Z 40
_cell_length_a 15.195083
_cell_length_b 5.254771
_cell_length_c 24.511453
_cell_angle_alpha 90.000000
_cell_angle_beta 90.000000
_cell_angle_gamma 90.000000
_cell_volume 1957.158181
_symmetry_space_group_name_H-M "A M A 2"
_symmetry_group_IT_number 40
_symmetry_cell_setting 'orthorhombic'
loop_
_space_group_symop_operation_xyz
x,y,z
-x,-y,z
1/2-x,y,z
1/2+x,-y,z
x,1/2+y,1/2+z
-x,1/2-y,1/2+z
1/2-x,1/2+y,1/2+z
1/2+x,1/2-y,1/2+z
loop_
_atom_site_type_symbol
_atom_site_label
_atom_site_fract_x
_atom_site_fract_y
_atom_site_fract_z
Si Si1 0.152198 0.480565 0.644650
Si Si2 0.250000 0.514698 0.319457
Si Si3 0.397836 0.002835 0.475322
Si Si4 0.896863 0.497109 0.408001
Si Si5 0.750000 0.485150 0.748748
Si Si6 0.150409 0.480506 0.097064
O O1 0.250000 0.475663 0.617320
O O2 0.162225 0.489796 0.710660
O O3 0.102039 0.227205 0.623467
O O4 0.101776 0.728297 0.620625
O O5 0.160868 0.486948 0.353858
O O6 0.250000 0.293122 0.274924
O O7 0.250000 0.793132 0.292971
O O8 0.370868 0.761177 0.439041
O O9 0.500000 0.000000 0.489257
O O10 0.371353 0.261727 0.444954
O O11 0.347095 0.988960 0.531978
O O12 0.000000 0.500000 0.391998
O O13 0.250000 0.474793 0.120036
#
# Coordination Sequence:
#
# PCOD8182388 Si02
#       6
#     8   4   8   8   4   8
#     4   8  17  31  49  78 105 131 170 225 266 305
#     4  12  22  36  63  80 101 150 194 228 276 334
#     4  10  21  36  53  78 119 150 172 220 275 326
#     4  10  23  39  54  82 116 143 183 234 273 318
#     4  10  20  36  55  84 105 138 190 232 280 320
#     4  10  17  29  53  79 102 140 175 206 257 330
#
# _framework density 20.437797
#
# number of rings (size 3 to 8) (size 9 to 14) (size 15 to 20)
#    0.600    1.600    0.000    3.600    2.800    0.000 
#    0.000    0.000    0.000    7.200    0.000    0.000 
#    0.000    0.000    0.000    0.000    0.000    0.000 
#
# Total GULP energy -247889.103009 kJ/mol
# GULP energy per Si atom -12394.455150 kJ/mol
# Density = 2.039128 g / cm^3
# Si number density = 20.437797 Si / 1000 Ang^3
#
#
#
# Elastic Constant Matrix: (Units=GPa)
#
#
# Indices 1 2 3 4 5 6 
#
# 1 38.2970 12.3385 21.7578 0.0000 0.0000 0.0000
# 2 12.3385 163.0267 32.4559 0.0000 0.0000 0.0000
# 3 21.7578 32.4559 100.4471 0.0000 0.0000 0.0000
# 4 0.0000 0.0000 0.0000 48.1361 0.0000 0.0000
# 5 0.0000 0.0000 0.0000 0.0000 -5.9492 0.0000
# 6 0.0000 0.0000 0.0000 0.0000 0.0000 2.2518
#
#
#
# Elastic Compliance Matrix: (Units=1/GPa)
#
#
# Indices 1 2 3 4 5 6 
#
# 1 0.029941 -0.001042 -0.006149 0.000000 0.000000 0.000000
# 2 -0.001042 0.006592 -0.001904 0.000000 0.000000 0.000000
# 3 -0.006149 -0.001904 0.011903 0.000000 0.000000 0.000000
# 4 0.000000 0.000000 0.000000 0.020774 0.000000 0.000000
# 5 0.000000 0.000000 0.000000 0.000000 -0.168091 0.000000
# 6 0.000000 0.000000 0.000000 0.000000 0.000000 0.444082
#
#
# Mechanical properties :
#
#
# Convention : Reuss Voigt Hill
#
# Bulk Modulus (GPa) = 33.06287 48.31946 40.69116
# Shear Modulus (GPa) = 13.38788 24.56900 18.97844
#
# Velocity S-wave (km/s) = 2.56218 3.47094 3.05059
# Velocity P-wave (km/s) = 4.99655 6.30530 5.68868
#
# Compressibility (1/GPa) = 0.03024541
#
# Stress axis : x y z
#
# Youngs Moduli (GPa) = 33.39932 151.70075 84.01474
#
# Poissons Ratio (x) = 0.15806 0.51659
# Poissons Ratio (y) = 0.03480 0.15999
# Poissons Ratio (z) = 0.20537 0.28888
#
# Static dielectric constant tensor:
#      x y z
#    x 3.275860 0.000000 0.000000 
#    y 0.000000 4.384950 0.000000 
#    z 0.000000 0.000000 3.455230 
# 
# 
# High freq. dielectric constant tensor:
#      x y z
#    x 1.757170 0.000000 0.000000 
#    y 0.000000 1.832870 0.000000 
#    z 0.000000 0.000000 1.789430 
# 
# From -- ./inp_files/20926.got.cif
#   From: 2010.03.12/outbox.cif.g09.slc.cpg/sg40_11_cif.got.tgz:20926.got - 2010.04.14 01:38:03.
