data_PCOD8182461
_publ_section_title
;
Structure prediction by ZEFSAII (Michael W. Deem and Ramdas Pophale) SiO2 
 PCOD8182461
Probable space group: A M A 2
;
_chemical_formula_sum "Si O2"
_cell_formula_units_Z 64
_cell_length_a 28.201435
_cell_length_b 23.581442
_cell_length_c 5.084350
_cell_angle_alpha 90.000000
_cell_angle_beta 90.000000
_cell_angle_gamma 90.000000
_cell_volume 3381.247842
_symmetry_space_group_name_H-M "A M A 2"
_symmetry_group_IT_number 40
_symmetry_cell_setting 'orthorhombic'
loop_
_space_group_symop_operation_xyz
x,y,z
-x,-y,z
1/2-x,y,z
1/2+x,-y,z
x,1/2+y,1/2+z
-x,1/2-y,1/2+z
1/2-x,1/2+y,1/2+z
1/2+x,1/2-y,1/2+z
loop_
_atom_site_type_symbol
_atom_site_label
_atom_site_fract_x
_atom_site_fract_y
_atom_site_fract_z
Si Si1 0.884493 0.597534 0.245170
Si Si2 0.543381 0.967636 0.179679
Si Si3 0.465986 0.157947 0.235702
Si Si4 0.595709 0.845171 0.753822
Si Si5 0.572767 0.152957 0.242853
Si Si6 0.804030 0.688171 0.248583
Si Si7 0.655099 0.241259 0.246207
Si Si8 0.598117 0.474573 0.190678
O O1 0.915662 0.610777 0.502589
O O2 0.835187 0.631294 0.242071
O O3 0.868747 0.530585 0.225912
O O4 0.918125 0.615939 0.003506
O O5 0.524533 0.905205 0.143513
O O6 0.586755 0.971051 0.382938
O O7 0.500000 0.000000 0.310142
O O8 0.555410 0.990815 0.889161
O O9 0.441488 0.162308 0.518041
O O10 0.519961 0.181464 0.239778
O O11 0.430345 0.181605 0.011893
O O12 0.642717 0.807679 0.709564
O O13 0.614606 0.910965 0.783291
O O14 0.606165 0.207295 0.225439
O O15 0.750000 0.668964 0.210702
O O16 0.809031 0.721624 0.520785
O O17 0.819435 0.731619 0.022589
#
# Coordination Sequence:
#
# PCOD8182461 Si02
#       8
#     8   8   8   8   8   8   8   8
#     4  10  19  33  52  76 102 128 164 210 262 305
#     4  10  18  27  42  65  97 136 177 211 234 270
#     4  10  19  30  45  70 104 143 183 211 237 278
#     4  10  21  33  48  73 104 144 178 202 240 292
#     4  10  20  32  49  73 103 139 177 217 251 280
#     4  10  21  38  61  81  95 119 158 210 265 313
#     4  10  21  37  55  77 104 131 166 210 254 304
#     4  10  19  30  46  69  99 134 165 199 246 292
#
# _framework density 18.927924999999998
#
# number of rings (size 3 to 8) (size 9 to 14) (size 15 to 20)
#    0.000    2.000    0.000    4.500    0.000    3.000 
#    0.000    0.000    0.000    1.500    0.000    0.000 
#    0.000    0.000    0.000    0.000    0.000    0.000 
#
# Total GULP energy -396488.967032 kJ/mol
# GULP energy per Si atom -12390.280220 kJ/mol
# Density = 1.888484 g / cm^3
# Si number density = 18.927925 Si / 1000 Ang^3
#
#
#
# Elastic Constant Matrix: (Units=GPa)
#
#
# Indices 1 2 3 4 5 6 
#
# 1 77.7084 31.3561 14.8346 0.0000 0.0000 0.0000
# 2 31.3561 93.2869 18.5185 0.0000 0.0000 0.0000
# 3 14.8346 18.5185 101.5973 0.0000 0.0000 0.0000
# 4 0.0000 0.0000 0.0000 11.1860 0.0000 0.0000
# 5 0.0000 0.0000 0.0000 0.0000 16.6997 0.0000
# 6 0.0000 0.0000 0.0000 0.0000 0.0000 9.8242
#
#
#
# Elastic Compliance Matrix: (Units=1/GPa)
#
#
# Indices 1 2 3 4 5 6 
#
# 1 0.015058 -0.004798 -0.001324 0.000000 0.000000 0.000000
# 2 -0.004798 0.012651 -0.001605 0.000000 0.000000 0.000000
# 3 -0.001324 -0.001605 0.010329 0.000000 0.000000 0.000000
# 4 0.000000 0.000000 0.000000 0.089398 0.000000 0.000000
# 5 0.000000 0.000000 0.000000 0.000000 0.059881 0.000000
# 6 0.000000 0.000000 0.000000 0.000000 0.000000 0.101789
#
#
# Mechanical properties :
#
#
# Convention : Reuss Voigt Hill
#
# Bulk Modulus (GPa) = 44.28309 44.66788 44.47548
# Shear Modulus (GPa) = 16.02111 21.40088 18.71099
#
# Velocity S-wave (km/s) = 2.91250 3.36616 3.14752
# Velocity P-wave (km/s) = 5.89548 6.22561 6.06279
#
# Compressibility (1/GPa) = 0.02258198
#
# Stress axis : x y z
#
# Youngs Moduli (GPa) = 66.41172 79.04408 96.81745
#
# Poissons Ratio (x) = 0.37929 0.12819
# Poissons Ratio (y) = 0.31867 0.15542
# Poissons Ratio (z) = 0.08793 0.12689
#
# Static dielectric constant tensor:
#      x y z
#    x 3.766670 0.000000 0.000000 
#    y 0.000000 3.595280 0.000000 
#    z 0.000000 0.000000 3.751510 
# 
# 
# High freq. dielectric constant tensor:
#      x y z
#    x 1.684100 0.000000 0.000000 
#    y 0.000000 1.737130 0.000000 
#    z 0.000000 0.000000 1.759360 
# 
# From -- ./inp_files/2869.got.cif
#   From: 2010.03.12/outbox.cif.g09.slc.cpg/sg40_2_cif.got.tgz:2869.got - 2010.04.14 01:38:03.
