data_PCOD8182828
_publ_section_title
;
Structure prediction by ZEFSAII (Michael W. Deem and Ramdas Pophale) SiO2 
 PCOD8182828
Probable space group: A M A 2
;
_chemical_formula_sum "Si O2"
_cell_formula_units_Z 40
_cell_length_a 16.233996
_cell_length_b 9.351483
_cell_length_c 11.804895
_cell_angle_alpha 90.000000
_cell_angle_beta 90.000000
_cell_angle_gamma 90.000000
_cell_volume 1792.123983
_symmetry_space_group_name_H-M "A M A 2"
_symmetry_group_IT_number 40
_symmetry_cell_setting 'orthorhombic'
loop_
_space_group_symop_operation_xyz
x,y,z
-x,-y,z
1/2-x,y,z
1/2+x,-y,z
x,1/2+y,1/2+z
-x,1/2-y,1/2+z
1/2-x,1/2+y,1/2+z
1/2+x,1/2-y,1/2+z
loop_
_atom_site_type_symbol
_atom_site_label
_atom_site_fract_x
_atom_site_fract_y
_atom_site_fract_z
Si Si1 0.426316 0.409384 0.368690
Si Si2 0.250000 0.761044 0.658363
Si Si3 0.250000 0.871537 0.913090
Si Si4 0.750000 0.505496 0.772838
Si Si5 0.078184 0.572932 0.890841
Si Si6 0.250000 0.706091 0.144354
Si Si7 0.117558 0.473562 0.128353
O O1 0.500000 0.500000 0.429310
O O2 0.335629 0.463094 0.413599
O O3 0.433790 0.242314 0.395049
O O4 0.439220 0.432924 0.234489
O O5 0.250000 0.785317 0.794950
O O6 0.250000 0.587824 0.654670
O O7 0.171203 0.831809 0.599958
O O8 0.250000 0.758310 0.014740
O O9 0.833430 0.472996 0.842051
O O10 0.750000 0.668984 0.736228
O O11 0.000000 0.500000 0.824614
O O12 0.067585 0.512777 0.017606
O O13 0.171210 0.609118 0.167139
#
# Coordination Sequence:
#
# PCOD8182828 Si02
#       7
#     8   4   4   4   8   4   8
#     4  11  23  43  72  99 134 178 231 284 338 413
#     4   9  17  39  73  92 122 182 223 269 340 402
#     4  10  18  45  66  89 135 176 215 280 331 394
#     4  12  23  45  66 100 148 172 223 299 335 406
#     4  12  25  46  70 101 137 182 228 288 343 413
#     4  11  22  37  71 103 129 182 231 278 344 410
#     4  10  20  43  71  94 127 184 231 267 344 418
#
# _framework density 22.319883000000001
#
# number of rings (size 3 to 8) (size 9 to 14) (size 15 to 20)
#    0.000    1.200    6.000    2.400    2.800    0.000 
#    3.600    1.000    0.000    0.000    0.000    0.000 
#    0.000    0.000    0.000    0.000    0.000    0.000 
#
# Total GULP energy -247772.137995 kJ/mol
# GULP energy per Si atom -12388.606900 kJ/mol
# Density = 2.226908 g / cm^3
# Si number density = 22.319883 Si / 1000 Ang^3
#
#
#
# Elastic Constant Matrix: (Units=GPa)
#
#
# Indices 1 2 3 4 5 6 
#
# 1 186.0338 50.0911 8.7865 0.0000 0.0000 0.0000
# 2 50.0911 94.8124 22.2627 0.0000 0.0000 0.0000
# 3 8.7865 22.2627 68.8968 0.0000 0.0000 0.0000
# 4 0.0000 0.0000 0.0000 37.7443 0.0000 0.0000
# 5 0.0000 0.0000 0.0000 0.0000 323.8188 0.0000
# 6 0.0000 0.0000 0.0000 0.0000 0.0000 13.6846
#
#
#
# Elastic Compliance Matrix: (Units=1/GPa)
#
#
# Indices 1 2 3 4 5 6 
#
# 1 0.006272 -0.003383 0.000293 0.000000 0.000000 0.000000
# 2 -0.003383 0.013237 -0.003846 0.000000 0.000000 0.000000
# 3 0.000293 -0.003846 0.015720 0.000000 0.000000 0.000000
# 4 0.000000 0.000000 0.000000 0.026494 0.000000 0.000000
# 5 0.000000 0.000000 0.000000 0.000000 0.003088 0.000000
# 6 0.000000 0.000000 0.000000 0.000000 0.000000 0.073075
#
#
# Mechanical properties :
#
#
# Convention : Reuss Voigt Hill
#
# Bulk Modulus (GPa) = 46.81984 56.89154 51.85569
# Shear Modulus (GPa) = 31.47086 92.95639 62.21363
#
# Velocity S-wave (km/s) = 3.75906 6.46048 5.28528
# Velocity P-wave (km/s) = 6.31371 9.01082 7.78003
#
# Compressibility (1/GPa) = 0.02135847
#
# Stress axis : x y z
#
# Youngs Moduli (GPa) = 159.43074 75.54408 63.61388
#
# Poissons Ratio (x) = 0.25554 -0.01865
# Poissons Ratio (y) = 0.53929 0.24466
# Poissons Ratio (z) = -0.04673 0.29054
#
# Static dielectric constant tensor:
#      x y z
#    x 4.378910 0.000000 0.000000 
#    y 0.000000 4.148390 0.000000 
#    z 0.000000 0.000000 3.768040 
# 
# 
# High freq. dielectric constant tensor:
#      x y z
#    x 1.901030 0.000000 0.000000 
#    y 0.000000 1.872440 0.000000 
#    z 0.000000 0.000000 1.851060 
# 
# From -- ./inp_files/12755.got.cif
#   From: 2010.03.12/outbox.cif.g09.slc.cpg/sg40_7_cif.got.tgz:12755.got - 2010.04.14 01:38:03.
