data_PCOD8182778
_publ_section_title
;
Structure prediction by ZEFSAII (Michael W. Deem and Ramdas Pophale) SiO2 
 PCOD8182778
Probable space group: A M A 2
;
_chemical_formula_sum "Si O2"
_cell_formula_units_Z 52
_cell_length_a 14.263707
_cell_length_b 9.553109
_cell_length_c 21.295752
_cell_angle_alpha 90.000000
_cell_angle_beta 90.000000
_cell_angle_gamma 90.000000
_cell_volume 2901.817682
_symmetry_space_group_name_H-M "A M A 2"
_symmetry_group_IT_number 40
_symmetry_cell_setting 'orthorhombic'
loop_
_space_group_symop_operation_xyz
x,y,z
-x,-y,z
1/2-x,y,z
1/2+x,-y,z
x,1/2+y,1/2+z
-x,1/2-y,1/2+z
1/2-x,1/2+y,1/2+z
1/2+x,1/2-y,1/2+z
loop_
_atom_site_type_symbol
_atom_site_label
_atom_site_fract_x
_atom_site_fract_y
_atom_site_fract_z
Si Si1 0.250000 0.227538 0.856781
Si Si2 0.407580 0.418630 0.064803
Si Si3 0.750000 0.079781 0.463512
Si Si4 0.750000 0.964744 0.332482
Si Si5 0.014533 0.660542 0.631980
Si Si6 0.062115 0.632706 0.771180
Si Si7 0.857258 0.366623 0.168166
Si Si8 0.435574 0.620889 0.303261
O O1 0.250000 0.268882 0.930004
O O2 0.250000 0.369500 0.813158
O O3 0.342804 0.137811 0.844765
O O4 0.500000 0.500000 0.044195
O O5 0.427408 0.255764 0.082517
O O6 0.362006 0.498102 0.123824
O O7 0.341816 0.430459 0.005158
O O8 0.750000 0.958501 0.409238
O O9 0.837906 0.884163 0.303641
O O10 0.073303 0.661662 0.696861
O O11 0.000000 0.500000 0.607827
O O12 0.912434 0.731734 0.641383
O O13 0.000000 0.500000 0.782354
O O14 0.003611 0.748225 0.807442
O O15 0.750000 0.319978 0.178241
O O16 0.903732 0.415686 0.232798
O O17 0.500000 0.500000 0.331858
#
# Coordination Sequence:
#
# PCOD8182778 Si02
#       8
#     4   8   4   4   8   8   8   8
#     4  10  22  38  56  82 112 152 196 237 291 328
#     4  10  20  38  60  86 113 147 197 239 278 335
#     4  10  22  38  60  84 106 154 208 240 270 320
#     4  10  22  36  58  84 110 152 204 235 281 328
#     4   9  20  34  53  87 120 147 180 226 305 352
#     4  10  18  35  57  84 117 147 190 236 283 351
#     4  10  18  34  59  85 116 151 188 235 286 344
#     4  11  21  35  57  86 122 152 182 234 300 355
#
# _framework density 17.919803999999999
#
# number of rings (size 3 to 8) (size 9 to 14) (size 15 to 20)
#    0.462    1.538    3.077    2.308    0.000    3.077 
#    4.154    0.769    0.000    3.692    0.000    0.000 
#    0.000    0.000    0.000    0.000    0.000    0.000 
#
# Total GULP energy -322270.932923 kJ/mol
# GULP energy per Si atom -12395.035882 kJ/mol
# Density = 1.787902 g / cm^3
# Si number density = 17.919804 Si / 1000 Ang^3
#
#
#
# Elastic Constant Matrix: (Units=GPa)
#
#
# Indices 1 2 3 4 5 6 
#
# 1 155.9062 47.3322 61.3712 0.0000 0.0000 0.0000
# 2 47.3322 105.0554 39.9384 0.0000 0.0000 0.0000
# 3 61.3712 39.9384 90.4604 0.0000 0.0000 0.0000
# 4 0.0000 0.0000 0.0000 16.2140 0.0000 0.0000
# 5 0.0000 0.0000 0.0000 0.0000 -25.7085 0.0000
# 6 0.0000 0.0000 0.0000 0.0000 0.0000 26.9751
#
#
#
# Elastic Compliance Matrix: (Units=1/GPa)
#
#
# Indices 1 2 3 4 5 6 
#
# 1 0.009125 -0.002112 -0.005258 0.000000 0.000000 0.000000
# 2 -0.002112 0.011928 -0.003833 0.000000 0.000000 0.000000
# 3 -0.005258 -0.003833 0.016314 0.000000 0.000000 0.000000
# 4 0.000000 0.000000 0.000000 0.061675 0.000000 0.000000
# 5 0.000000 0.000000 0.000000 0.000000 -0.038898 0.000000
# 6 0.000000 0.000000 0.000000 0.000000 0.000000 0.037071
#
#
# Mechanical properties :
#
#
# Convention : Reuss Voigt Hill
#
# Bulk Modulus (GPa) = 66.84527 72.07841 69.46184
# Shear Modulus (GPa) = 40.12521 17.01478 28.56999
#
# Velocity S-wave (km/s) = 4.73710 3.08473 3.99723
# Velocity P-wave (km/s) = 8.20388 7.27994 7.75568
#
# Compressibility (1/GPa) = 0.01495992
#
# Stress axis : x y z
#
# Youngs Moduli (GPa) = 109.58552 83.83874 61.29612
#
# Poissons Ratio (x) = 0.17710 0.32231
# Poissons Ratio (y) = 0.23148 0.23495
# Poissons Ratio (z) = 0.57623 0.32135
#
# Static dielectric constant tensor:
#      x y z
#    x 3.406620 0.000000 0.000000 
#    y 0.000000 3.269340 0.000000 
#    z 0.000000 0.000000 3.115040 
# 
# 
# High freq. dielectric constant tensor:
#      x y z
#    x 1.705730 0.000000 0.000000 
#    y 0.000000 1.688960 0.000000 
#    z 0.000000 0.000000 1.666270 
# 
# From -- ./inp_files/23096.got.cif
#   From: 2010.03.12/outbox.cif.g09.slc.cpg/sg40_12_cif.got.tgz:23096.got - 2010.04.14 01:38:03.
