data_PCOD8182247
_publ_section_title
;
Structure prediction by ZEFSAII (Michael W. Deem and Ramdas Pophale) SiO2 
 PCOD8182247
Probable space group: A B M 2
;
_chemical_formula_sum "Si O2"
_cell_formula_units_Z 64
_cell_length_a 24.021951
_cell_length_b 8.823139
_cell_length_c 15.357644
_cell_angle_alpha 90.000000
_cell_angle_beta 90.000000
_cell_angle_gamma 90.000000
_cell_volume 3255.037484
_symmetry_space_group_name_H-M "A B M 2"
_symmetry_group_IT_number 39
_symmetry_cell_setting 'orthorhombic'
loop_
_space_group_symop_operation_xyz
x,y,z
-x,-y,z
-x,1/2+y,z
x,1/2-y,z
x,1/2+y,1/2+z
-x,1/2-y,1/2+z
-x,y,1/2+z
x,-y,1/2+z
loop_
_atom_site_type_symbol
_atom_site_label
_atom_site_fract_x
_atom_site_fract_y
_atom_site_fract_z
Si Si1 0.637835 0.069421 0.958810
Si Si2 0.872982 0.571955 0.396147
Si Si3 0.940870 0.428443 0.057972
Si Si4 0.758195 0.920080 0.661774
Si Si5 0.368142 0.071330 0.655057
Si Si6 0.560313 0.570588 0.303513
Si Si7 0.241220 0.420874 0.457449
Si Si8 0.866865 0.074614 0.702667
O O1 0.642850 0.250000 0.959021
O O2 0.594348 0.009953 0.887450
O O3 0.699209 0.000201 0.936088
O O4 0.619549 0.018685 0.055742
O O5 0.866773 0.750000 0.414651
O O6 0.917811 0.507822 0.465427
O O7 0.811729 0.496691 0.412287
O O8 0.893029 0.540109 0.297973
O O9 0.948288 0.250000 0.056435
O O10 0.898081 0.470428 0.133927
O O11 0.000000 0.500000 0.078690
O O12 0.768127 0.750000 0.697118
O O13 0.695023 0.971654 0.681804
O O14 0.769533 0.923884 0.559740
O O15 0.801288 0.034369 0.707392
O O16 0.378321 0.250000 0.665980
O O17 0.410157 0.979756 0.715158
O O18 0.500000 0.500000 0.308939
O O19 0.555474 0.750000 0.304740
O O20 0.244598 0.250000 0.422328
O O21 0.874067 0.250000 0.677602
#
# Coordination Sequence:
#
# PCOD8182247 Si02
#       8
#     8   8   8   8   8   8   8   8
#     4   8  17  33  56  82 110 147 189 229 280 339
#     4   9  19  34  57  85 115 151 189 229 280 338
#     4  11  23  43  64  82 112 154 195 236 285 340
#     4   9  17  33  58  84 117 156 189 227 284 344
#     4   9  19  37  59  84 114 150 191 235 285 341
#     4  11  23  38  57  82 112 149 192 237 285 341
#     4   8  13  29  56  82 109 146 186 223 273 340
#     4  11  22  35  57  91 121 150 191 237 282 335
#
# _framework density 19.661832
#
# number of rings (size 3 to 8) (size 9 to 14) (size 15 to 20)
#    0.000    2.500    1.250    2.625    1.750    1.500 
#    0.000    6.250    0.000    1.500    0.000    0.000 
#    0.000    0.000    0.000    0.000    0.000    0.000 
#
# Total GULP energy -396667.257994 kJ/mol
# GULP energy per Si atom -12395.851812 kJ/mol
# Density = 1.961708 g / cm^3
# Si number density = 19.661832 Si / 1000 Ang^3
#
#
#
# Elastic Constant Matrix: (Units=GPa)
#
#
# Indices 1 2 3 4 5 6 
#
# 1 111.3967 26.9995 44.5810 0.0000 0.0000 0.0000
# 2 26.9995 43.9868 23.5641 0.0000 0.0000 0.0000
# 3 44.5810 23.5641 92.1647 0.0000 0.0000 0.0000
# 4 0.0000 0.0000 0.0000 21.5215 0.0000 0.0000
# 5 0.0000 0.0000 0.0000 0.0000 25.2438 0.0000
# 6 0.0000 0.0000 0.0000 0.0000 0.0000 26.7083
#
#
#
# Elastic Compliance Matrix: (Units=1/GPa)
#
#
# Indices 1 2 3 4 5 6 
#
# 1 0.011987 -0.004926 -0.004539 0.000000 0.000000 0.000000
# 2 -0.004926 0.028367 -0.004870 0.000000 0.000000 0.000000
# 3 -0.004539 -0.004870 0.014291 0.000000 0.000000 0.000000
# 4 0.000000 0.000000 0.000000 0.046465 0.000000 0.000000
# 5 0.000000 0.000000 0.000000 0.000000 0.039614 0.000000
# 6 0.000000 0.000000 0.000000 0.000000 0.000000 0.037442
#
#
# Mechanical properties :
#
#
# Convention : Reuss Voigt Hill
#
# Bulk Modulus (GPa) = 38.49880 48.64861 43.57370
# Shear Modulus (GPa) = 23.20255 24.85494 24.02875
#
# Velocity S-wave (km/s) = 3.43896 3.55931 3.49965
# Velocity P-wave (km/s) = 5.94908 6.45662 6.20804
#
# Compressibility (1/GPa) = 0.02597484
#
# Stress axis : x y z
#
# Youngs Moduli (GPa) = 83.42068 35.25263 69.97571
#
# Poissons Ratio (x) = 0.17367 0.31761
# Poissons Ratio (y) = 0.41097 0.34075
# Poissons Ratio (z) = 0.37864 0.17167
#
# Static dielectric constant tensor:
#      x y z
#    x 3.759060 0.000000 0.000000 
#    y 0.000000 3.175410 0.000000 
#    z 0.000000 0.000000 3.623890 
# 
# 
# High freq. dielectric constant tensor:
#      x y z
#    x 1.771280 0.000000 0.000000 
#    y 0.000000 1.725980 0.000000 
#    z 0.000000 0.000000 1.770640 
# 
# From -- ./inp_files/10633.got.cif
#   From: 2010.03.12/outbox.cif.g09.slc.cpg/sg39_6_cif.got.tgz:10633.got - 2010.04.14 02:53:20.
