data_PCOD8182449
_publ_section_title
;
Structure prediction by ZEFSAII (Michael W. Deem and Ramdas Pophale) SiO2 
 PCOD8182449
Probable space group: A M A 2
;
_chemical_formula_sum "Si O2"
_cell_formula_units_Z 64
_cell_length_a 8.752932
_cell_length_b 18.242755
_cell_length_c 26.381947
_cell_angle_alpha 90.000000
_cell_angle_beta 90.000000
_cell_angle_gamma 90.000000
_cell_volume 4212.605822
_symmetry_space_group_name_H-M "A M A 2"
_symmetry_group_IT_number 40
_symmetry_cell_setting 'orthorhombic'
loop_
_space_group_symop_operation_xyz
x,y,z
-x,-y,z
1/2-x,y,z
1/2+x,-y,z
x,1/2+y,1/2+z
-x,1/2-y,1/2+z
1/2-x,1/2+y,1/2+z
1/2+x,1/2-y,1/2+z
loop_
_atom_site_type_symbol
_atom_site_label
_atom_site_fract_x
_atom_site_fract_y
_atom_site_fract_z
Si Si1 0.568379 0.342863 0.943950
Si Si2 0.420421 0.702284 0.789859
Si Si3 0.430925 0.921690 0.347735
Si Si4 0.568208 0.578847 0.036730
Si Si5 0.428579 0.669228 0.240674
Si Si6 0.069861 0.577026 0.143361
Si Si7 0.081131 0.798613 0.890076
Si Si8 0.927898 0.421767 0.336473
O O1 0.750000 0.354797 0.944940
O O2 0.500034 0.394900 0.900800
O O3 0.526968 0.257136 0.934208
O O4 0.492489 0.361635 0.997316
O O5 0.250000 0.676999 0.774483
O O6 0.524132 0.631474 0.801098
O O7 0.490916 0.751590 0.744810
O O8 0.415779 0.751046 0.839621
O O9 0.250000 0.925894 0.352907
O O10 0.500000 0.000000 0.334236
O O11 0.500000 0.500000 0.022066
O O12 0.750000 0.574750 0.035890
O O13 0.509882 0.603683 0.091871
O O14 0.250000 0.681536 0.248943
O O15 0.467347 0.637039 0.185801
O O16 0.489380 0.612877 0.283737
O O17 0.250000 0.567168 0.134499
O O18 0.000000 0.500000 0.161470
O O19 0.250000 0.829434 0.901903
O O20 0.968881 0.867647 0.883304
O O21 0.750000 0.433517 0.334313
O O22 0.000000 0.500000 0.346278
#
# Coordination Sequence:
#
# PCOD8182449 Si02
#       8
#     8   8   8   8   8   8   8   8
#     4  10  19  32  47  63  84 112 145 178 216 258
#     4   9  17  29  44  62  84 111 142 176 213 253
#     4  11  20  30  44  63  88 115 145 178 212 253
#     4  11  21  32  45  62  85 113 146 182 219 255
#     4   9  18  30  44  62  84 114 147 179 215 254
#     4  10  19  31  45  62  86 114 147 184 220 255
#     4   8  16  29  43  59  81 108 138 172 209 250
#     4  10  18  27  41  61  86 113 143 175 208 248
#
# _framework density 15.192496
#
# number of rings (size 3 to 8) (size 9 to 14) (size 15 to 20)
#    0.000    2.250    0.000    6.000    0.000    5.000 
#    0.000    0.000    0.000    0.000    0.000    0.000 
#    0.000    1.000    0.000    8.250    0.000    4.875 
#
# Total GULP energy -396752.006031 kJ/mol
# GULP energy per Si atom -12398.500188 kJ/mol
# Density = 1.515792 g / cm^3
# Si number density = 15.192496 Si / 1000 Ang^3
#
#
#
# Elastic Constant Matrix: (Units=GPa)
#
#
# Indices 1 2 3 4 5 6 
#
# 1 102.7010 49.3803 41.3264 0.0000 0.0000 0.0000
# 2 49.3803 99.5110 50.9572 0.0000 0.0000 0.0000
# 3 41.3264 50.9572 75.9793 0.0000 0.0000 0.0000
# 4 0.0000 0.0000 0.0000 25.3827 0.0000 0.0000
# 5 0.0000 0.0000 0.0000 0.0000 22.0051 0.0000
# 6 0.0000 0.0000 0.0000 0.0000 0.0000 27.4205
#
#
#
# Elastic Compliance Matrix: (Units=1/GPa)
#
#
# Indices 1 2 3 4 5 6 
#
# 1 0.013691 -0.004540 -0.004402 0.000000 0.000000 0.000000
# 2 -0.004540 0.016811 -0.008805 0.000000 0.000000 0.000000
# 3 -0.004402 -0.008805 0.021461 0.000000 0.000000 0.000000
# 4 0.000000 0.000000 0.000000 0.039397 0.000000 0.000000
# 5 0.000000 0.000000 0.000000 0.000000 0.045444 0.000000
# 6 0.000000 0.000000 0.000000 0.000000 0.000000 0.036469
#
#
# Mechanical properties :
#
#
# Convention : Reuss Voigt Hill
#
# Bulk Modulus (GPa) = 60.72039 62.39102 61.55571
# Shear Modulus (GPa) = 23.33640 24.06351 23.69995
#
# Velocity S-wave (km/s) = 3.92350 3.98415 3.95394
# Velocity P-wave (km/s) = 7.78327 7.89435 7.83900
#
# Compressibility (1/GPa) = 0.01646893
#
# Stress axis : x y z
#
# Youngs Moduli (GPa) = 73.03968 59.48521 46.59519
#
# Poissons Ratio (x) = 0.27005 0.20512
# Poissons Ratio (y) = 0.33158 0.41029
# Poissons Ratio (z) = 0.32154 0.52379
#
# Static dielectric constant tensor:
#      x y z
#    x 3.100430 0.000000 0.000000 
#    y 0.000000 2.980660 0.000000 
#    z 0.000000 0.000000 2.802880 
# 
# 
# High freq. dielectric constant tensor:
#      x y z
#    x 1.599660 0.000000 0.000000 
#    y 0.000000 1.570610 0.000000 
#    z 0.000000 0.000000 1.548050 
# 
# From -- ./inp_files/25532.got.cif
#   From: 2010.03.12/outbox.cif.g09.slc.cpg/sg40_13_cif.got.tgz:25532.got - 2010.04.14 01:38:03.
