data_PCOD8182275
_publ_section_title
;
Structure prediction by ZEFSAII (Michael W. Deem and Ramdas Pophale) SiO2 
 PCOD8182275
Probable space group: A B M 2
;
_chemical_formula_sum "Si O2"
_cell_formula_units_Z 48
_cell_length_a 7.995802
_cell_length_b 14.463002
_cell_length_c 18.388263
_cell_angle_alpha 90.000000
_cell_angle_beta 90.000000
_cell_angle_gamma 90.000000
_cell_volume 2126.479420
_symmetry_space_group_name_H-M "A B M 2"
_symmetry_group_IT_number 39
_symmetry_cell_setting 'orthorhombic'
loop_
_space_group_symop_operation_xyz
x,y,z
-x,-y,z
-x,1/2+y,z
x,1/2-y,z
x,1/2+y,1/2+z
-x,1/2-y,1/2+z
-x,y,1/2+z
x,-y,1/2+z
loop_
_atom_site_type_symbol
_atom_site_label
_atom_site_fract_x
_atom_site_fract_y
_atom_site_fract_z
Si Si1 0.152437 0.250000 0.233560
Si Si2 0.473432 0.750000 0.183711
Si Si3 0.154944 0.934625 0.817509
Si Si4 0.604081 0.416061 0.944647
Si Si5 0.952831 0.750000 0.069457
Si Si6 0.577212 0.750000 0.016189
Si Si7 0.140634 0.066393 0.561794
Si Si8 0.336094 0.051622 0.700430
O O1 0.351600 0.250000 0.225199
O O2 0.092640 0.344344 0.272964
O O3 0.069856 0.250000 0.155230
O O4 0.488425 0.750000 0.095606
O O5 0.372836 0.660375 0.211217
O O6 0.251865 0.890920 0.886543
O O7 0.282680 0.999865 0.773593
O O8 0.000000 0.000000 0.841046
O O9 0.500000 0.500000 0.910783
O O10 0.477339 0.335016 0.965929
O O11 0.689226 0.449613 0.018806
O O12 0.777049 0.750000 0.026752
O O13 0.070076 0.666907 0.046566
O O14 0.181547 0.041466 0.645119
O O15 0.000000 0.000000 0.531251
O O16 0.500000 0.000000 0.669080
#
# Coordination Sequence:
#
# PCOD8182275 Si02
#       8
#     4   4   8   8   4   4   8   8
#     4  11  23  44  71 104 148 183 239 300 365 437
#     4  11  23  40  75 106 134 182 244 304 356 418
#     4  12  27  47  70 105 152 196 242 305 373 442
#     4  12  26  47  70 100 142 196 247 296 358 441
#     4  11  24  42  71 108 137 181 233 305 371 425
#     4  11  24  46  71 104 139 184 244 301 360 438
#     4  12  24  40  68 103 141 180 234 301 362 416
#     4  12  23  42  71 107 143 187 248 302 363 442
#
# _framework density 22.572521999999999
#
# number of rings (size 3 to 8) (size 9 to 14) (size 15 to 20)
#    0.000    0.333    3.333    6.500    2.333    0.667 
#    0.000    0.833    0.000    0.000    0.000    0.000 
#    0.000    0.000    0.000    0.000    0.000    0.000 
#
# Total GULP energy -297636.358345 kJ/mol
# GULP energy per Si atom -12401.514931 kJ/mol
# Density = 2.252115 g / cm^3
# Si number density = 22.572522 Si / 1000 Ang^3
#
#
#
# Elastic Constant Matrix: (Units=GPa)
#
#
# Indices 1 2 3 4 5 6 
#
# 1 96.4511 32.0895 24.0249 0.0000 0.0000 0.0000
# 2 32.0895 148.4944 27.0315 0.0000 0.0000 0.0000
# 3 24.0249 27.0315 78.4578 0.0000 0.0000 0.0000
# 4 0.0000 0.0000 0.0000 21.5498 0.0000 0.0000
# 5 0.0000 0.0000 0.0000 0.0000 38.7832 0.0000
# 6 0.0000 0.0000 0.0000 0.0000 0.0000 40.9326
#
#
#
# Elastic Compliance Matrix: (Units=1/GPa)
#
#
# Indices 1 2 3 4 5 6 
#
# 1 0.011762 -0.002012 -0.002908 0.000000 0.000000 0.000000
# 2 -0.002012 0.007529 -0.001978 0.000000 0.000000 0.000000
# 3 -0.002908 -0.001978 0.014318 0.000000 0.000000 0.000000
# 4 0.000000 0.000000 0.000000 0.046404 0.000000 0.000000
# 5 0.000000 0.000000 0.000000 0.000000 0.025784 0.000000
# 6 0.000000 0.000000 0.000000 0.000000 0.000000 0.024430
#
#
# Mechanical properties :
#
#
# Convention : Reuss Voigt Hill
#
# Bulk Modulus (GPa) = 50.47511 54.41055 52.44283
# Shear Modulus (GPa) = 33.19421 36.27029 34.73225
#
# Velocity S-wave (km/s) = 3.83895 4.01288 3.92688
# Velocity P-wave (km/s) = 6.48536 6.75485 6.62148
#
# Compressibility (1/GPa) = 0.01981175
#
# Stress axis : x y z
#
# Youngs Moduli (GPa) = 85.02039 132.81693 69.84347
#
# Poissons Ratio (x) = 0.26727 0.20313
# Poissons Ratio (y) = 0.17109 0.13814
# Poissons Ratio (z) = 0.24727 0.26269
#
# Static dielectric constant tensor:
#      x y z
#    x 4.105690 0.000000 0.000000 
#    y 0.000000 4.250280 0.000000 
#    z 0.000000 0.000000 3.849740 
# 
# 
# High freq. dielectric constant tensor:
#      x y z
#    x 1.901520 0.000000 0.000000 
#    y 0.000000 1.903280 0.000000 
#    z 0.000000 0.000000 1.878970 
# 
# From -- ./inp_files/11658.got.cif
#   From: 2010.03.12/outbox.cif.g09.slc.cpg/sg39_6_cif.got.tgz:11658.got - 2010.04.14 02:53:20.
