data_PCOD8182731
_publ_section_title
;
Structure prediction by ZEFSAII (Michael W. Deem and Ramdas Pophale) SiO2 
 PCOD8182731
Probable space group: A M A 2
;
_chemical_formula_sum "Si O2"
_cell_formula_units_Z 64
_cell_length_a 17.201175
_cell_length_b 17.618685
_cell_length_c 11.899001
_cell_angle_alpha 90.000000
_cell_angle_beta 90.000000
_cell_angle_gamma 90.000000
_cell_volume 3606.136040
_symmetry_space_group_name_H-M "A M A 2"
_symmetry_group_IT_number 40
_symmetry_cell_setting 'orthorhombic'
loop_
_space_group_symop_operation_xyz
x,y,z
-x,-y,z
1/2-x,y,z
1/2+x,-y,z
x,1/2+y,1/2+z
-x,1/2-y,1/2+z
1/2-x,1/2+y,1/2+z
1/2+x,1/2-y,1/2+z
loop_
_atom_site_type_symbol
_atom_site_label
_atom_site_fract_x
_atom_site_fract_y
_atom_site_fract_z
Si Si1 0.523891 0.089515 0.910390
Si Si2 0.839174 0.928684 0.146991
Si Si3 0.422469 0.951130 0.284476
Si Si4 0.077531 0.951130 0.536304
Si Si5 0.512343 0.838184 0.144709
Si Si6 0.660826 0.928684 0.673788
Si Si7 0.663192 0.001716 0.910390
Si Si8 0.487656 0.161816 0.676070
O O1 0.617073 0.081407 0.910390
O O2 0.495834 0.136241 0.804013
O O3 0.500000 0.000000 0.910390
O O4 0.495834 0.136242 0.016767
O O5 0.750000 0.901337 0.165074
O O6 0.900245 0.862884 0.183658
O O7 0.853720 0.003667 0.222032
O O8 0.855719 0.949192 0.017490
O O9 0.394681 0.931470 0.410390
O O10 0.443540 0.874603 0.218729
O O11 0.500000 0.000000 0.284879
O O12 0.056460 0.874603 0.602051
O O13 0.146280 0.996333 0.598748
O O14 0.000000 0.000000 0.535901
O O15 0.500000 0.750000 0.160390
O O16 0.750000 0.901337 0.655705
O O17 0.599755 0.862884 0.637122
O O18 0.644281 0.949192 0.803290
O O19 0.750000 0.030872 0.910391
#
# Coordination Sequence:
#
# PCOD8182731 Si02
#       8
#     8   8   8   8   8   8   8   8
#     4  12  18  38  62  82 109 148 205 234 268 340
#     4  10  19  35  57  81 108 144 191 241 284 332
#     4   9  18  34  54  76 104 142 189 225 265 334
#     4   9  18  34  54  76 104 142 189 225 265 334
#     4  11  22  34  55  87 117 149 185 236 291 343
#     4  10  19  35  57  81 108 144 191 241 284 332
#     4  10  18  32  60  88 104 134 196 252 272 307
#     4  11  22  34  55  87 117 149 185 236 291 343
#
# _framework density 17.747529
#
# number of rings (size 3 to 8) (size 9 to 14) (size 15 to 20)
#    0.000    1.750    5.000    0.750    1.750    0.500 
#    0.000    2.500    0.000    0.000    0.000    0.000 
#    0.000    0.000    0.000    0.000    0.000    0.000 
#
# Total GULP energy -396622.559022 kJ/mol
# GULP energy per Si atom -12394.454969 kJ/mol
# Density = 1.770713 g / cm^3
# Si number density = 17.747529 Si / 1000 Ang^3
#
#
#
# Elastic Constant Matrix: (Units=GPa)
#
#
# Indices 1 2 3 4 5 6 
#
# 1 107.1935 50.9030 22.6474 0.0000 0.0000 0.0000
# 2 50.9030 135.4001 50.4273 0.0000 0.0000 0.0000
# 3 22.6474 50.4273 128.2854 0.0000 0.0000 0.0000
# 4 0.0000 0.0000 0.0000 20.0220 0.0000 0.0000
# 5 0.0000 0.0000 0.0000 0.0000 20.6093 0.0000
# 6 0.0000 0.0000 0.0000 0.0000 0.0000 19.6677
#
#
#
# Elastic Compliance Matrix: (Units=1/GPa)
#
#
# Indices 1 2 3 4 5 6 
#
# 1 0.011372 -0.004133 -0.000383 0.000000 0.000000 0.000000
# 2 -0.004133 0.010154 -0.003262 0.000000 0.000000 0.000000
# 3 -0.000383 -0.003262 0.009145 0.000000 0.000000 0.000000
# 4 0.000000 0.000000 0.000000 0.049945 0.000000 0.000000
# 5 0.000000 0.000000 0.000000 0.000000 0.048522 0.000000
# 6 0.000000 0.000000 0.000000 0.000000 0.000000 0.050845
#
#
# Mechanical properties :
#
#
# Convention : Reuss Voigt Hill
#
# Bulk Modulus (GPa) = 66.15524 68.75938 67.45731
# Shear Modulus (GPa) = 24.92808 28.51988 26.72398
#
# Velocity S-wave (km/s) = 3.75186 4.01306 3.88466
# Velocity P-wave (km/s) = 7.49168 7.76531 7.62972
#
# Compressibility (1/GPa) = 0.01511596
#
# Stress axis : x y z
#
# Youngs Moduli (GPa) = 87.93253 98.48352 109.35003
#
# Poissons Ratio (x) = 0.40700 0.04190
# Poissons Ratio (y) = 0.36340 0.35668
# Poissons Ratio (z) = 0.03369 0.32124
#
# Static dielectric constant tensor:
#      x y z
#    x 3.574950 0.000000 0.000000 
#    y 0.000000 3.077790 0.000000 
#    z 0.000000 0.000000 3.590800 
# 
# 
# High freq. dielectric constant tensor:
#      x y z
#    x 1.688010 0.000000 0.000000 
#    y 0.000000 1.649390 0.000000 
#    z 0.000000 0.000000 1.698230 
# 
# From -- ./inp_files/13210.got.cif
#   From: 2010.03.12/outbox.cif.g09.slc.cpg/sg40_7_cif.got.tgz:13210.got - 2010.04.14 01:38:03.
