data_PCOD8182019
_publ_section_title
;
Structure prediction by ZEFSAII (Michael W. Deem and Ramdas Pophale) SiO2 
 PCOD8182019
Probable space group: A B M 2
;
_chemical_formula_sum "Si O2"
_cell_formula_units_Z 64
_cell_length_a 15.355847
_cell_length_b 22.216529
_cell_length_c 9.254408
_cell_angle_alpha 90.000000
_cell_angle_beta 90.000000
_cell_angle_gamma 90.000000
_cell_volume 3157.174792
_symmetry_space_group_name_H-M "A B M 2"
_symmetry_group_IT_number 39
_symmetry_cell_setting 'orthorhombic'
loop_
_space_group_symop_operation_xyz
x,y,z
-x,-y,z
-x,1/2+y,z
x,1/2-y,z
x,1/2+y,1/2+z
-x,1/2-y,1/2+z
-x,y,1/2+z
x,-y,1/2+z
loop_
_atom_site_type_symbol
_atom_site_label
_atom_site_fract_x
_atom_site_fract_y
_atom_site_fract_z
Si Si1 0.714499 0.681455 0.816410
Si Si2 0.886032 0.527274 0.371181
Si Si3 0.692701 0.966638 0.386624
Si Si4 0.448501 0.683239 0.512627
Si Si5 0.999609 0.584149 0.121031
Si Si6 0.361691 0.068859 0.695863
Si Si7 0.888373 0.614221 0.871624
Si Si8 0.458918 0.388943 0.282709
O O1 0.722224 0.750000 0.756995
O O2 0.648130 0.678240 0.949384
O O3 0.676603 0.637297 0.691582
O O4 0.806795 0.658308 0.873475
O O5 0.791240 0.558749 0.372794
O O6 0.940228 0.543497 0.514885
O O7 0.866023 0.456498 0.373235
O O8 0.938836 0.543164 0.225910
O O9 0.662110 0.966539 0.551491
O O10 0.630276 0.925380 0.289779
O O11 0.684678 0.034832 0.329372
O O12 0.486465 0.750000 0.493911
O O13 0.514458 0.635992 0.439419
O O14 0.444005 0.668408 0.681076
O O15 0.057381 0.626986 0.224338
O O16 0.942613 0.627868 0.018229
O O17 0.465406 0.068210 0.719435
#
# Coordination Sequence:
#
# PCOD8182019 Si02
#       8
#     8   8   8   8   8   8   8   8
#     4  10  23  42  66  90 124 171 224 264 307 381
#     4  11  21  35  60  90 130 163 204 255 322 391
#     4  12  26  38  64  98 134 164 212 262 330 384
#     4  10  22  42  65  89 123 177 225 259 307 372
#     4  10  22  36  59  92 127 162 200 262 322 396
#     4  11  25  43  61  95 132 174 205 259 325 385
#     4  11  19  37  58  87 118 162 211 251 321 374
#     4  11  23  41  62  93 131 168 214 267 317 374
#
# _framework density 20.271287999999998
#
# number of rings (size 3 to 8) (size 9 to 14) (size 15 to 20)
#    0.000    1.250    2.500    4.500    7.000    1.500 
#    0.000    0.625    0.000    0.000    0.000    0.000 
#    0.000    0.000    0.000    0.000    0.000    0.000 
#
# Total GULP energy -396762.594718 kJ/mol
# GULP energy per Si atom -12398.831085 kJ/mol
# Density = 2.022515 g / cm^3
# Si number density = 20.271288 Si / 1000 Ang^3
#
#
#
# Elastic Constant Matrix: (Units=GPa)
#
#
# Indices 1 2 3 4 5 6 
#
# 1 145.0872 33.5010 39.0940 0.0000 0.0000 0.0000
# 2 33.5010 81.7329 30.5985 0.0000 0.0000 0.0000
# 3 39.0940 30.5985 123.2581 0.0000 0.0000 0.0000
# 4 0.0000 0.0000 0.0000 22.3115 0.0000 0.0000
# 5 0.0000 0.0000 0.0000 0.0000 18.0127 0.0000
# 6 0.0000 0.0000 0.0000 0.0000 0.0000 31.3140
#
#
#
# Elastic Compliance Matrix: (Units=1/GPa)
#
#
# Indices 1 2 3 4 5 6 
#
# 1 0.007997 -0.002567 -0.001899 0.000000 0.000000 0.000000
# 2 -0.002567 0.014312 -0.002739 0.000000 0.000000 0.000000
# 3 -0.001899 -0.002739 0.009395 0.000000 0.000000 0.000000
# 4 0.000000 0.000000 0.000000 0.044820 0.000000 0.000000
# 5 0.000000 0.000000 0.000000 0.000000 0.055516 0.000000
# 6 0.000000 0.000000 0.000000 0.000000 0.000000 0.031935
#
#
# Mechanical properties :
#
#
# Convention : Reuss Voigt Hill
#
# Bulk Modulus (GPa) = 57.82060 61.82948 59.82504
# Shear Modulus (GPa) = 27.15177 30.78663 28.96920
#
# Velocity S-wave (km/s) = 3.66378 3.90132 3.78441
# Velocity P-wave (km/s) = 6.81785 7.13169 6.97653
#
# Compressibility (1/GPa) = 0.01729487
#
# Stress axis : x y z
#
# Youngs Moduli (GPa) = 125.04978 69.86940 106.43564
#
# Poissons Ratio (x) = 0.17934 0.20214
# Poissons Ratio (y) = 0.32097 0.29152
# Poissons Ratio (z) = 0.23749 0.19137
#
# Static dielectric constant tensor:
#      x y z
#    x 3.941560 0.000000 0.000000 
#    y 0.000000 3.477680 0.000000 
#    z 0.000000 0.000000 3.791200 
# 
# 
# High freq. dielectric constant tensor:
#      x y z
#    x 1.805940 0.000000 0.000000 
#    y 0.000000 1.756960 0.000000 
#    z 0.000000 0.000000 1.798220 
# 
# From -- ./inp_files/3513.got.cif
#   From: 2010.03.12/outbox.cif.g09.slc.cpg/sg39_2_cif.got.tgz:3513.got - 2010.04.14 02:53:20.
