data_PCOD8182785
_publ_section_title
;
Structure prediction by ZEFSAII (Michael W. Deem and Ramdas Pophale) SiO2 
 PCOD8182785
Probable space group: A M A 2
;
_chemical_formula_sum "Si O2"
_cell_formula_units_Z 48
_cell_length_a 16.306691
_cell_length_b 9.865752
_cell_length_c 15.782358
_cell_angle_alpha 90.000000
_cell_angle_beta 90.000000
_cell_angle_gamma 90.000000
_cell_volume 2539.030550
_symmetry_space_group_name_H-M "A M A 2"
_symmetry_group_IT_number 40
_symmetry_cell_setting 'orthorhombic'
loop_
_space_group_symop_operation_xyz
x,y,z
-x,-y,z
1/2-x,y,z
1/2+x,-y,z
x,1/2+y,1/2+z
-x,1/2-y,1/2+z
1/2-x,1/2+y,1/2+z
1/2+x,1/2-y,1/2+z
loop_
_atom_site_type_symbol
_atom_site_label
_atom_site_fract_x
_atom_site_fract_y
_atom_site_fract_z
Si Si1 0.840636 0.271607 0.563320
Si Si2 0.930785 0.613429 0.392432
Si Si3 0.607796 0.601640 0.207684
Si Si4 0.066286 0.173412 0.639565
Si Si5 0.488205 0.354370 0.964084
Si Si6 0.153535 0.421883 0.568633
O O1 0.750000 0.281549 0.522114
O O2 0.831469 0.194533 0.653152
O O3 0.898235 0.190431 0.497653
O O4 0.874570 0.422592 0.583841
O O5 0.875075 0.606385 0.308080
O O6 0.870396 0.610245 0.472134
O O7 0.000000 0.500000 0.395310
O O8 0.981808 0.752128 0.392541
O O9 0.517400 0.665623 0.192839
O O10 0.622499 0.446157 0.177733
O O11 0.108831 0.322565 0.637375
O O12 0.049687 0.136674 0.542810
O O13 0.500000 0.500000 0.919891
O O14 0.250000 0.401619 0.581071
#
# Coordination Sequence:
#
# PCOD8182785 Si02
#       6
#     8   8   8   8   8   8
#     4  10  20  35  57  81 111 147 185 226 273 327
#     4  11  20  35  59  82 112 143 182 234 281 323
#     4  10  19  35  56  86 107 139 186 228 278 327
#     4   9  17  33  57  77 108 137 186 226 256 329
#     4  10  18  35  54  82 109 142 190 227 267 331
#     4  10  22  37  56  83 112 147 187 224 273 333
#
# _framework density 18.904852999999999
#
# number of rings (size 3 to 8) (size 9 to 14) (size 15 to 20)
#    0.000    2.000    6.667    0.000    0.000    1.333 
#    3.000    0.000    0.000    1.000    0.000    0.000 
#    0.000    0.000    0.000    0.000    0.000    0.000 
#
# Total GULP energy -297345.306798 kJ/mol
# GULP energy per Si atom -12389.387783 kJ/mol
# Density = 1.886183 g / cm^3
# Si number density = 18.904853 Si / 1000 Ang^3
#
#
#
# Elastic Constant Matrix: (Units=GPa)
#
#
# Indices 1 2 3 4 5 6 
#
# 1 53.3292 43.0310 3.3138 0.0000 0.0000 0.0000
# 2 43.0310 165.1861 29.0769 0.0000 0.0000 0.0000
# 3 3.3138 29.0769 66.1022 0.0000 0.0000 0.0000
# 4 0.0000 0.0000 0.0000 14.1298 0.0000 0.0000
# 5 0.0000 0.0000 0.0000 0.0000 15.5263 0.0000
# 6 0.0000 0.0000 0.0000 0.0000 0.0000 23.6648
#
#
#
# Elastic Compliance Matrix: (Units=1/GPa)
#
#
# Indices 1 2 3 4 5 6 
#
# 1 0.023911 -0.006523 0.001671 0.000000 0.000000 0.000000
# 2 -0.006523 0.008341 -0.003342 0.000000 0.000000 0.000000
# 3 0.001671 -0.003342 0.016514 0.000000 0.000000 0.000000
# 4 0.000000 0.000000 0.000000 0.070773 0.000000 0.000000
# 5 0.000000 0.000000 0.000000 0.000000 0.064407 0.000000
# 6 0.000000 0.000000 0.000000 0.000000 0.000000 0.042257
#
#
# Mechanical properties :
#
#
# Convention : Reuss Voigt Hill
#
# Bulk Modulus (GPa) = 30.88534 48.38454 39.63494
# Shear Modulus (GPa) = 19.73287 24.61056 22.17172
#
# Velocity S-wave (km/s) = 3.23429 3.61198 3.42834
# Velocity P-wave (km/s) = 5.50638 6.56083 6.05660
#
# Compressibility (1/GPa) = 0.03237782
#
# Stress axis : x y z
#
# Youngs Moduli (GPa) = 41.82189 119.88556 60.55295
#
# Poissons Ratio (x) = 0.78200 -0.10116
# Poissons Ratio (y) = 0.27280 0.20238
# Poissons Ratio (z) = -0.06987 0.40068
#
# Static dielectric constant tensor:
#      x y z
#    x 3.240660 0.000000 0.000000 
#    y 0.000000 3.983570 0.000000 
#    z 0.000000 0.000000 3.320700 
# 
# 
# High freq. dielectric constant tensor:
#      x y z
#    x 1.712930 0.000000 0.000000 
#    y 0.000000 1.752550 0.000000 
#    z 0.000000 0.000000 1.705850 
# 
# From -- ./inp_files/20998.got.cif
#   From: 2010.03.12/outbox.cif.g09.slc.cpg/sg40_11_cif.got.tgz:20998.got - 2010.04.14 01:38:03.
