data_PCOD8182364
_publ_section_title
;
Structure prediction by ZEFSAII (Michael W. Deem and Ramdas Pophale) SiO2 
 PCOD8182364
Probable space group: A M A 2
;
_chemical_formula_sum "Si O2"
_cell_formula_units_Z 64
_cell_length_a 9.124093
_cell_length_b 23.382005
_cell_length_c 19.247343
_cell_angle_alpha 90.000000
_cell_angle_beta 90.000000
_cell_angle_gamma 90.000000
_cell_volume 4106.220229
_symmetry_space_group_name_H-M "A M A 2"
_symmetry_group_IT_number 40
_symmetry_cell_setting 'orthorhombic'
loop_
_space_group_symop_operation_xyz
x,y,z
-x,-y,z
1/2-x,y,z
1/2+x,-y,z
x,1/2+y,1/2+z
-x,1/2-y,1/2+z
1/2-x,1/2+y,1/2+z
1/2+x,1/2-y,1/2+z
loop_
_atom_site_type_symbol
_atom_site_label
_atom_site_fract_x
_atom_site_fract_y
_atom_site_fract_z
Si Si1 0.420384 0.384170 0.952260
Si Si2 0.575445 0.440625 0.824437
Si Si3 0.920856 0.059594 0.599564
Si Si4 0.922387 0.726230 0.320806
Si Si5 0.424459 0.229421 0.106866
Si Si6 0.922211 0.248835 0.455544
Si Si7 0.923301 0.835162 0.236314
Si Si8 0.923117 0.661936 0.188385
O O1 0.250000 0.392332 0.932603
O O2 0.520798 0.418113 0.898376
O O3 0.465069 0.317837 0.952694
O O4 0.456300 0.410236 0.026942
O O5 0.500000 0.500000 0.805163
O O6 0.750000 0.447990 0.827445
O O7 0.523948 0.396568 0.764069
O O8 0.750000 0.047907 0.607628
O O9 0.981323 0.100780 0.661369
O O10 0.000000 0.000000 0.606363
O O11 0.750000 0.729227 0.333990
O O12 0.982478 0.785193 0.286978
O O13 0.963371 0.673689 0.269072
O O14 0.001252 0.716143 0.393961
O O15 0.250000 0.233251 0.105160
O O16 0.475671 0.176445 0.156525
O O17 0.488548 0.287579 0.140329
O O18 0.481520 0.223759 0.027893
O O19 0.750000 0.256983 0.448167
O O20 0.750000 0.831349 0.238901
O O21 0.750000 0.663452 0.178245
#
# Coordination Sequence:
#
# PCOD8182364 Si02
#       8
#     8   8   8   8   8   8   8   8
#     4  10  19  30  43  63  92 122 149 177 210 252
#     4  11  21  32  45  63  87 119 153 185 214 251
#     4  10  19  31  45  63  86 118 155 185 212 249
#     4   9  16  28  46  65  86 113 144 180 218 263
#     4   8  13  25  45  65  84 110 144 179 213 257
#     4  10  17  26  45  70  92 115 142 178 219 258
#     4   8  15  27  44  64  83 109 148 183 211 250
#     4   8  14  27  46  63  82 113 151 181 211 257
#
# _framework density 15.586111000000001
#
# number of rings (size 3 to 8) (size 9 to 14) (size 15 to 20)
#    0.000    2.750    2.500    2.250    0.000    1.500 
#    0.000    0.625    0.000    4.500    0.000    0.875 
#    0.000    6.000    0.000    0.000    0.000    0.000 
#
# Total GULP energy -396568.844162 kJ/mol
# GULP energy per Si atom -12392.776380 kJ/mol
# Density = 1.555064 g / cm^3
# Si number density = 15.586111 Si / 1000 Ang^3
#
#
#
# Elastic Constant Matrix: (Units=GPa)
#
#
# Indices 1 2 3 4 5 6 
#
# 1 29.8945 31.4578 34.6780 0.0000 0.0000 0.0000
# 2 31.4578 85.9831 63.0061 0.0000 0.0000 0.0000
# 3 34.6780 63.0061 137.0193 0.0000 0.0000 0.0000
# 4 0.0000 0.0000 0.0000 22.2069 0.0000 0.0000
# 5 0.0000 0.0000 0.0000 0.0000 20.5987 0.0000
# 6 0.0000 0.0000 0.0000 0.0000 0.0000 6.4296
#
#
#
# Elastic Compliance Matrix: (Units=1/GPa)
#
#
# Indices 1 2 3 4 5 6 
#
# 1 0.059181 -0.016102 -0.007574 0.000000 0.000000 0.000000
# 2 -0.016102 0.021922 -0.006005 0.000000 0.000000 0.000000
# 3 -0.007574 -0.006005 0.011976 0.000000 0.000000 0.000000
# 4 0.000000 0.000000 0.000000 0.045031 0.000000 0.000000
# 5 0.000000 0.000000 0.000000 0.000000 0.048547 0.000000
# 6 0.000000 0.000000 0.000000 0.000000 0.000000 0.155530
#
#
# Mechanical properties :
#
#
# Convention : Reuss Voigt Hill
#
# Bulk Modulus (GPa) = 29.65856 56.79787 43.22822
# Shear Modulus (GPa) = 12.11279 18.09739 15.10509
#
# Velocity S-wave (km/s) = 2.79077 3.41122 3.11648
# Velocity P-wave (km/s) = 5.42722 7.21358 6.38320
#
# Compressibility (1/GPa) = 0.03371707
#
# Stress axis : x y z
#
# Youngs Moduli (GPa) = 16.89740 45.61697 83.49774
#
# Poissons Ratio (x) = 0.73453 0.63238
# Poissons Ratio (y) = 0.27208 0.50141
# Poissons Ratio (z) = 0.12798 0.27393
#
# Static dielectric constant tensor:
#      x y z
#    x 2.657360 0.000000 0.000000 
#    y 0.000000 3.036110 0.000000 
#    z 0.000000 0.000000 3.231740 
# 
# 
# High freq. dielectric constant tensor:
#      x y z
#    x 1.566260 0.000000 0.000000 
#    y 0.000000 1.576060 0.000000 
#    z 0.000000 0.000000 1.600250 
# 
# From -- ./inp_files/19697.got.cif
#   From: 2010.03.12/outbox.cif.g09.slc.cpg/sg40_10_cif.got.tgz:19697.got - 2010.04.14 01:38:03.
