data_PCOD8182378
_publ_section_title
;
Structure prediction by ZEFSAII (Michael W. Deem and Ramdas Pophale) SiO2 
 PCOD8182378
Probable space group: A M A 2
;
_chemical_formula_sum "Si O2"
_cell_formula_units_Z 64
_cell_length_a 18.062290
_cell_length_b 20.782831
_cell_length_c 8.830001
_cell_angle_alpha 90.000000
_cell_angle_beta 90.000000
_cell_angle_gamma 90.000000
_cell_volume 3314.654522
_symmetry_space_group_name_H-M "A M A 2"
_symmetry_group_IT_number 40
_symmetry_cell_setting 'orthorhombic'
loop_
_space_group_symop_operation_xyz
x,y,z
-x,-y,z
1/2-x,y,z
1/2+x,-y,z
x,1/2+y,1/2+z
-x,1/2-y,1/2+z
1/2-x,1/2+y,1/2+z
1/2+x,1/2-y,1/2+z
loop_
_atom_site_type_symbol
_atom_site_label
_atom_site_fract_x
_atom_site_fract_y
_atom_site_fract_z
Si Si1 0.075949 0.744564 0.513370
Si Si2 0.834858 0.005762 0.691165
Si Si3 0.587082 0.004269 0.001450
Si Si4 0.918884 0.247672 0.155759
Si Si5 0.666496 0.146052 0.664721
Si Si6 0.335669 0.867674 0.019220
Si Si7 0.668334 0.369576 0.149591
Si Si8 0.833209 0.377812 0.510855
O O1 0.071080 0.748629 0.334134
O O2 0.107850 0.810596 0.578349
O O3 0.126305 0.685937 0.571707
O O4 0.994605 0.731163 0.574360
O O5 0.750000 0.002366 0.757737
O O6 0.843269 0.072907 0.600597
O O7 0.849282 0.942119 0.586676
O O8 0.894701 0.006294 0.824062
O O9 0.618665 0.069804 0.075438
O O10 0.500000 0.000000 0.028456
O O11 0.625248 0.941094 0.074496
O O12 0.859306 0.193078 0.118947
O O13 0.889766 0.316613 0.092502
O O14 0.750000 0.170618 0.632747
O O15 0.649105 0.147242 0.843161
O O16 0.250000 0.881889 0.048754
O O17 0.750000 0.347186 0.097097
O O18 0.665886 0.377075 0.330051
O O19 0.750000 0.377417 0.575039
#
# Coordination Sequence:
#
# PCOD8182378 Si02
#       8
#     8   8   8   8   8   8   8   8
#     4  11  22  35  53  77 107 139 176 221 270 317
#     4   8  15  29  49  74 103 135 175 217 254 299
#     4  10  17  27  48  78 108 134 166 214 264 307
#     4  11  22  35  52  76 105 139 175 221 273 319
#     4   9  18  33  54  79 106 136 171 214 261 313
#     4  10  20  35  55  79 107 139 175 215 264 320
#     4   8  15  29  50  75  99 128 172 219 255 298
#     4   9  17  31  51  74  99 132 176 217 251 297
#
# _framework density 19.308197
#
# number of rings (size 3 to 8) (size 9 to 14) (size 15 to 20)
#    0.000    2.500    0.000    4.875    0.000    6.500 
#    0.000    0.000    0.000    6.000    0.000    3.500 
#    0.000    0.000    0.000    0.000    0.000    0.000 
#
# Total GULP energy -396654.855735 kJ/mol
# GULP energy per Si atom -12395.464242 kJ/mol
# Density = 1.926425 g / cm^3
# Si number density = 19.308197 Si / 1000 Ang^3
#
#
#
# Elastic Constant Matrix: (Units=GPa)
#
#
# Indices 1 2 3 4 5 6 
#
# 1 120.6699 60.1101 21.9031 0.0000 0.0000 0.0000
# 2 60.1101 155.7568 24.4375 0.0000 0.0000 0.0000
# 3 21.9031 24.4375 31.9216 0.0000 0.0000 0.0000
# 4 0.0000 0.0000 0.0000 21.4285 0.0000 0.0000
# 5 0.0000 0.0000 0.0000 0.0000 23.0829 0.0000
# 6 0.0000 0.0000 0.0000 0.0000 0.0000 35.2421
#
#
#
# Elastic Compliance Matrix: (Units=1/GPa)
#
#
# Indices 1 2 3 4 5 6 
#
# 1 0.010877 -0.003440 -0.004830 0.000000 0.000000 0.000000
# 2 -0.003440 0.008385 -0.004058 0.000000 0.000000 0.000000
# 3 -0.004830 -0.004058 0.037748 0.000000 0.000000 0.000000
# 4 0.000000 0.000000 0.000000 0.046667 0.000000 0.000000
# 5 0.000000 0.000000 0.000000 0.000000 0.043322 0.000000
# 6 0.000000 0.000000 0.000000 0.000000 0.000000 0.028375
#
#
# Mechanical properties :
#
#
# Convention : Reuss Voigt Hill
#
# Bulk Modulus (GPa) = 30.90923 57.91661 44.41292
# Shear Modulus (GPa) = 23.71747 29.41054 26.56400
#
# Velocity S-wave (km/s) = 3.50860 3.90707 3.71319
# Velocity P-wave (km/s) = 5.69709 7.10032 6.43706
#
# Compressibility (1/GPa) = 0.03235280
#
# Stress axis : x y z
#
# Youngs Moduli (GPa) = 91.93387 119.26632 26.49163
#
# Poissons Ratio (x) = 0.41028 0.12796
# Poissons Ratio (y) = 0.31625 0.10751
# Poissons Ratio (z) = 0.44404 0.48403
#
# Static dielectric constant tensor:
#      x y z
#    x 3.548960 0.000000 0.000000 
#    y 0.000000 4.066900 0.000000 
#    z 0.000000 0.000000 2.912270 
# 
# 
# High freq. dielectric constant tensor:
#      x y z
#    x 1.758110 0.000000 0.000000 
#    y 0.000000 1.779890 0.000000 
#    z 0.000000 0.000000 1.681190 
# 
# From -- ./inp_files/7766.got.cif
#   From: 2010.03.12/outbox.cif.g09.slc.cpg/sg40_4_cif.got.tgz:7766.got - 2010.04.14 01:38:03.
