data_PCOD8182791
_publ_section_title
;
Structure prediction by ZEFSAII (Michael W. Deem and Ramdas Pophale) SiO2 
 PCOD8182791
Probable space group: A M A 2
;
_chemical_formula_sum "Si O2"
_cell_formula_units_Z 28
_cell_length_a 5.365513
_cell_length_b 6.840655
_cell_length_c 30.822481
_cell_angle_alpha 90.000000
_cell_angle_beta 90.000000
_cell_angle_gamma 90.000000
_cell_volume 1131.296733
_symmetry_space_group_name_H-M "A M A 2"
_symmetry_group_IT_number 40
_symmetry_cell_setting 'orthorhombic'
loop_
_space_group_symop_operation_xyz
x,y,z
-x,-y,z
1/2-x,y,z
1/2+x,-y,z
x,1/2+y,1/2+z
-x,1/2-y,1/2+z
1/2-x,1/2+y,1/2+z
1/2+x,1/2-y,1/2+z
loop_
_atom_site_type_symbol
_atom_site_label
_atom_site_fract_x
_atom_site_fract_y
_atom_site_fract_z
Si Si1 0.250000 0.291075 0.320920
Si Si2 0.750000 0.224958 0.544786
Si Si3 0.250000 0.780972 0.182921
Si Si4 0.750000 0.284808 0.008674
Si Si5 0.750000 0.278889 0.646783
Si Si6 0.750000 0.875347 0.410120
Si Si7 0.750000 0.270225 0.284910
O O1 0.250000 0.294182 0.373408
O O2 0.497142 0.175572 0.304432
O O3 0.250000 0.503761 0.299461
O O4 0.499480 0.324929 0.525423
O O5 0.750000 0.258326 0.595618
O O6 0.750000 0.000332 0.529577
O O7 0.499982 0.674526 0.165155
O O8 0.250000 0.767512 0.234197
O O9 0.250000 0.999856 0.164132
O O10 0.750000 0.277408 0.956966
O O11 0.500000 0.000000 0.404469
#
# Coordination Sequence:
#
# PCOD8182791 Si02
#       7
#     4   4   4   4   4   4   4
#     4  10  23  40  65  92 122 168 216 266 314 388
#     4  10  18  35  58  86 122 155 203 249 308 367
#     4  10  21  40  61  85 123 162 209 266 318 375
#     4  10  19  35  58  89 120 162 199 252 306 379
#     4  10  21  37  60  90 119 160 213 262 314 372
#     4  12  21  40  62 100 129 163 219 263 326 377
#     4  10  21  45  64  86 127 168 217 260 326 384
#
# _framework density 24.750360000000001
#
# number of rings (size 3 to 8) (size 9 to 14) (size 15 to 20)
#    0.000    1.714    2.857    2.571    0.000    0.000 
#   15.429   17.143    0.000   20.571    0.000    0.000 
#    0.000    0.000    0.000    0.000    0.000    0.000 
#
# Total GULP energy -173439.319149 kJ/mol
# GULP energy per Si atom -12388.522796 kJ/mol
# Density = 2.469403 g / cm^3
# Si number density = 24.750360 Si / 1000 Ang^3
#
#
#
# Elastic Constant Matrix: (Units=GPa)
#
#
# Indices 1 2 3 4 5 6 
#
# 1 332.3249 -16.9398 98.6788 0.0000 0.0000 0.0000
# 2 -16.9398 54.1492 30.4014 0.0000 0.0000 0.0000
# 3 98.6788 30.4014 291.4248 0.0000 0.0000 0.0000
# 4 0.0000 0.0000 0.0000 67.2949 0.0000 0.0000
# 5 0.0000 0.0000 0.0000 0.0000 63.7017 0.0000
# 6 0.0000 0.0000 0.0000 0.0000 0.0000 -34.9625
#
#
#
# Elastic Compliance Matrix: (Units=1/GPa)
#
#
# Indices 1 2 3 4 5 6 
#
# 1 0.003517 0.001879 -0.001387 0.000000 0.000000 0.000000
# 2 0.001879 0.020620 -0.002787 0.000000 0.000000 0.000000
# 3 -0.001387 -0.002787 0.004192 0.000000 0.000000 0.000000
# 4 0.000000 0.000000 0.000000 0.014860 0.000000 0.000000
# 5 0.000000 0.000000 0.000000 0.000000 0.015698 0.000000
# 6 0.000000 0.000000 0.000000 0.000000 0.000000 -0.028602
#
#
# Mechanical properties :
#
#
# Convention : Reuss Voigt Hill
#
# Bulk Modulus (GPa) = 42.12668 100.24219 71.18444
# Shear Modulus (GPa) = 116.85601 56.92406 86.89003
#
# Velocity S-wave (km/s) = 6.87869 4.80096 5.93151
# Velocity P-wave (km/s) = 8.95243 8.44521 8.70252
#
# Compressibility (1/GPa) = 0.02373792
#
# Stress axis : x y z
#
# Youngs Moduli (GPa) = 284.36216 48.49640 238.56405
#
# Poissons Ratio (x) = -0.09111 0.33083
# Poissons Ratio (y) = -0.53423 0.66493
# Poissons Ratio (z) = 0.39434 0.13517
#
# Static dielectric constant tensor:
#      x y z
#    x 4.882830 0.000000 0.000000 
#    y 0.000000 3.777630 0.000000 
#    z 0.000000 0.000000 4.377300 
# 
# 
# High freq. dielectric constant tensor:
#      x y z
#    x 2.037970 0.000000 0.000000 
#    y 0.000000 1.955560 0.000000 
#    z 0.000000 0.000000 1.988380 
# 
# From -- ./inp_files/23747.got.cif
#   From: 2010.03.12/outbox.cif.g09.slc.cpg/sg40_12_cif.got.tgz:23747.got - 2010.04.14 01:38:03.
