data_PCOD8182617
_publ_section_title
;
Structure prediction by ZEFSAII (Michael W. Deem and Ramdas Pophale) SiO2 
 PCOD8182617
Probable space group: A M A 2
;
_chemical_formula_sum "Si O2"
_cell_formula_units_Z 48
_cell_length_a 16.624173
_cell_length_b 9.091492
_cell_length_c 16.223552
_cell_angle_alpha 90.000000
_cell_angle_beta 90.000000
_cell_angle_gamma 90.000000
_cell_volume 2452.003895
_symmetry_space_group_name_H-M "A M A 2"
_symmetry_group_IT_number 40
_symmetry_cell_setting 'orthorhombic'
loop_
_space_group_symop_operation_xyz
x,y,z
-x,-y,z
1/2-x,y,z
1/2+x,-y,z
x,1/2+y,1/2+z
-x,1/2-y,1/2+z
1/2-x,1/2+y,1/2+z
1/2+x,1/2-y,1/2+z
loop_
_atom_site_type_symbol
_atom_site_label
_atom_site_fract_x
_atom_site_fract_y
_atom_site_fract_z
Si Si1 0.592080 0.515589 0.663560
Si Si2 0.656595 0.410658 0.918696
Si Si3 0.408545 0.548563 0.246714
Si Si4 0.342041 0.734866 0.755789
Si Si5 0.655313 0.788453 0.589541
Si Si6 0.844310 0.680776 0.819749
O O1 0.500000 0.500000 0.638734
O O2 0.623612 0.348535 0.674894
O O3 0.637612 0.612215 0.593265
O O4 0.606229 0.594800 0.750477
O O5 0.750000 0.371416 0.923944
O O6 0.617641 0.320555 0.841931
O O7 0.643792 0.587347 0.904365
O O8 0.619244 0.356337 0.004957
O O9 0.500000 0.500000 0.258087
O O10 0.351975 0.407503 0.245862
O O11 0.395250 0.634802 0.161804
O O12 0.381374 0.654428 0.323190
O O13 0.250000 0.689795 0.760120
O O14 0.750000 0.819114 0.600686
O O15 0.750000 0.688646 0.795584
#
# Coordination Sequence:
#
# PCOD8182617 Si02
#       6
#     8   8   8   8   8   8
#     4  10  18  30  51  77 106 138 173 211 256 315
#     4   8  17  33  56  78  98 128 177 222 261 312
#     4  11  21  33  50  78 109 137 174 220 264 312
#     4  10  18  32  52  76 100 132 174 217 256 308
#     4  10  19  36  56  76 103 141 177 216 265 319
#     4   9  17  34  56  77 100 140 185 222 261 314
#
# _framework density 19.575825999999999
#
# number of rings (size 3 to 8) (size 9 to 14) (size 15 to 20)
#    0.000    2.333    0.000    7.000    0.000    0.000 
#    0.000    7.500    0.000    4.000    0.000    0.000 
#    0.000    0.000    0.000    0.000    0.000    0.000 
#
# Total GULP energy -297375.295658 kJ/mol
# GULP energy per Si atom -12390.637319 kJ/mol
# Density = 1.953127 g / cm^3
# Si number density = 19.575826 Si / 1000 Ang^3
#
#
#
# Elastic Constant Matrix: (Units=GPa)
#
#
# Indices 1 2 3 4 5 6 
#
# 1 63.7796 14.6574 15.7484 0.0000 0.0000 0.0000
# 2 14.6574 127.6784 44.8889 0.0000 0.0000 0.0000
# 3 15.7484 44.8889 87.9059 0.0000 0.0000 0.0000
# 4 0.0000 0.0000 0.0000 36.0719 0.0000 0.0000
# 5 0.0000 0.0000 0.0000 0.0000 6.7198 0.0000
# 6 0.0000 0.0000 0.0000 0.0000 0.0000 35.1578
#
#
#
# Elastic Compliance Matrix: (Units=1/GPa)
#
#
# Indices 1 2 3 4 5 6 
#
# 1 0.016518 -0.001043 -0.002427 0.000000 0.000000 0.000000
# 2 -0.001043 0.009612 -0.004721 0.000000 0.000000 0.000000
# 3 -0.002427 -0.004721 0.014221 0.000000 0.000000 0.000000
# 4 0.000000 0.000000 0.000000 0.027722 0.000000 0.000000
# 5 0.000000 0.000000 0.000000 0.000000 0.148814 0.000000
# 6 0.000000 0.000000 0.000000 0.000000 0.000000 0.028443
#
#
# Mechanical properties :
#
#
# Convention : Reuss Voigt Hill
#
# Bulk Modulus (GPa) = 41.72033 47.77258 44.74645
# Shear Modulus (GPa) = 18.53895 29.19454 23.86674
#
# Velocity S-wave (km/s) = 3.08073 3.86600 3.49549
# Velocity P-wave (km/s) = 5.83206 6.66219 6.26090
#
# Compressibility (1/GPa) = 0.02396913
#
# Stress axis : x y z
#
# Youngs Moduli (GPa) = 60.54053 104.03812 70.31616
#
# Poissons Ratio (x) = 0.10853 0.17062
# Poissons Ratio (y) = 0.06315 0.33199
# Poissons Ratio (z) = 0.14690 0.49120
#
# Static dielectric constant tensor:
#      x y z
#    x 3.355020 0.000000 0.000000 
#    y 0.000000 4.054850 0.000000 
#    z 0.000000 0.000000 3.513540 
# 
# 
# High freq. dielectric constant tensor:
#      x y z
#    x 1.750660 0.000000 0.000000 
#    y 0.000000 1.775490 0.000000 
#    z 0.000000 0.000000 1.724380 
# 
# From -- ./inp_files/20539.got.cif
#   From: 2010.03.12/outbox.cif.g09.slc.cpg/sg40_11_cif.got.tgz:20539.got - 2010.04.14 01:38:03.
