data_PCOD8182883
_publ_section_title
;
Structure prediction by ZEFSAII (Michael W. Deem and Ramdas Pophale) SiO2 
 PCOD8182883
Probable space group: A M A 2
;
_chemical_formula_sum "Si O2"
_cell_formula_units_Z 48
_cell_length_a 9.269744
_cell_length_b 23.723440
_cell_length_c 13.573416
_cell_angle_alpha 90.000000
_cell_angle_beta 90.000000
_cell_angle_gamma 90.000000
_cell_volume 2984.932839
_symmetry_space_group_name_H-M "A M A 2"
_symmetry_group_IT_number 40
_symmetry_cell_setting 'orthorhombic'
loop_
_space_group_symop_operation_xyz
x,y,z
-x,-y,z
1/2-x,y,z
1/2+x,-y,z
x,1/2+y,1/2+z
-x,1/2-y,1/2+z
1/2-x,1/2+y,1/2+z
1/2+x,1/2-y,1/2+z
loop_
_atom_site_type_symbol
_atom_site_label
_atom_site_fract_x
_atom_site_fract_y
_atom_site_fract_z
Si Si1 0.918979 0.943623 0.356350
Si Si2 0.917961 0.444885 0.627588
Si Si3 0.421469 0.167430 0.027953
Si Si4 0.919186 0.276332 0.332260
Si Si5 0.583964 0.161087 0.437282
Si Si6 0.583274 0.223640 0.636593
O O1 0.750000 0.950307 0.378351
O O2 0.949949 0.932641 0.241584
O O3 0.980058 0.891021 0.416421
O O4 0.000000 0.000000 0.391838
O O5 0.750000 0.454335 0.608136
O O6 0.980116 0.392673 0.564539
O O7 0.000000 0.500000 0.589947
O O8 0.250000 0.169976 0.033544
O O9 0.480005 0.216390 0.099934
O O10 0.471066 0.179619 0.916269
O O11 0.750000 0.281269 0.314682
O O12 0.959546 0.213130 0.366687
O O13 0.997947 0.294934 0.233180
O O14 0.750000 0.144015 0.418032
O O15 0.561404 0.177612 0.551143
O O16 0.750000 0.229091 0.665143
#
# Coordination Sequence:
#
# PCOD8182883 Si02
#       6
#     8   8   8   8   8   8
#     4  10  19  30  47  69  92 119 150 184 222 267
#     4   9  17  29  45  65  89 117 147 179 217 262
#     4   8  15  29  46  63  88 121 148 173 217 269
#     4   9  17  29  46  67  90 117 149 185 223 264
#     4   9  18  31  46  66  93 121 148 184 228 270
#     4   9  17  30  47  66  90 119 149 183 223 266
#
# _framework density 16.080763999999999
#
# number of rings (size 3 to 8) (size 9 to 14) (size 15 to 20)
#    0.000    3.000    0.000    3.500    0.000    3.333 
#    0.000    4.167    0.000    1.000    0.000    4.667 
#    0.000    0.000    0.000    0.000    0.000    0.000 
#
# Total GULP energy -297561.278535 kJ/mol
# GULP energy per Si atom -12398.386606 kJ/mol
# Density = 1.604416 g / cm^3
# Si number density = 16.080764 Si / 1000 Ang^3
#
#
#
# Elastic Constant Matrix: (Units=GPa)
#
#
# Indices 1 2 3 4 5 6 
#
# 1 58.1205 49.2691 40.2006 0.0000 0.0000 0.0000
# 2 49.2691 121.9172 51.5779 0.0000 0.0000 0.0000
# 3 40.2006 51.5779 95.0574 0.0000 0.0000 0.0000
# 4 0.0000 0.0000 0.0000 23.4165 0.0000 0.0000
# 5 0.0000 0.0000 0.0000 0.0000 27.4987 0.0000
# 6 0.0000 0.0000 0.0000 0.0000 0.0000 27.8837
#
#
#
# Elastic Compliance Matrix: (Units=1/GPa)
#
#
# Indices 1 2 3 4 5 6 
#
# 1 0.030217 -0.008833 -0.007987 0.000000 0.000000 0.000000
# 2 -0.008833 0.013228 -0.003442 0.000000 0.000000 0.000000
# 3 -0.007987 -0.003442 0.015765 0.000000 0.000000 0.000000
# 4 0.000000 0.000000 0.000000 0.042705 0.000000 0.000000
# 5 0.000000 0.000000 0.000000 0.000000 0.036365 0.000000
# 6 0.000000 0.000000 0.000000 0.000000 0.000000 0.035863
#
#
# Mechanical properties :
#
#
# Convention : Reuss Voigt Hill
#
# Bulk Modulus (GPa) = 53.51062 61.91005 57.71034
# Shear Modulus (GPa) = 22.63512 24.69626 23.66569
#
# Velocity S-wave (km/s) = 3.75586 3.92313 3.84041
# Velocity P-wave (km/s) = 7.22198 7.68793 7.45860
#
# Compressibility (1/GPa) = 0.01868788
#
# Stress axis : x y z
#
# Youngs Moduli (GPa) = 33.09369 75.59784 63.43080
#
# Poissons Ratio (x) = 0.66772 0.50660
# Poissons Ratio (y) = 0.29230 0.21833
# Poissons Ratio (z) = 0.26431 0.26021
#
# Static dielectric constant tensor:
#      x y z
#    x 2.857560 0.000000 0.000000 
#    y 0.000000 3.084140 0.000000 
#    z 0.000000 0.000000 2.975770 
# 
# 
# High freq. dielectric constant tensor:
#      x y z
#    x 1.605130 0.000000 0.000000 
#    y 0.000000 1.611450 0.000000 
#    z 0.000000 0.000000 1.608290 
# 
# From -- ./inp_files/10222.got.cif
#   From: 2010.03.12/outbox.cif.g09.slc.cpg/sg40_6_cif.got.tgz:10222.got - 2010.04.14 01:38:03.
