data_PCOD8182534
_publ_section_title
;
Structure prediction by ZEFSAII (Michael W. Deem and Ramdas Pophale) SiO2 
 PCOD8182534
Probable space group: A M A 2
;
_chemical_formula_sum "Si O2"
_cell_formula_units_Z 64
_cell_length_a 8.630817
_cell_length_b 18.431417
_cell_length_c 26.083350
_cell_angle_alpha 90.000000
_cell_angle_beta 90.000000
_cell_angle_gamma 90.000000
_cell_volume 4149.292034
_symmetry_space_group_name_H-M "A M A 2"
_symmetry_group_IT_number 40
_symmetry_cell_setting 'orthorhombic'
loop_
_space_group_symop_operation_xyz
x,y,z
-x,-y,z
1/2-x,y,z
1/2+x,-y,z
x,1/2+y,1/2+z
-x,1/2-y,1/2+z
1/2-x,1/2+y,1/2+z
1/2+x,1/2-y,1/2+z
loop_
_atom_site_type_symbol
_atom_site_label
_atom_site_fract_x
_atom_site_fract_y
_atom_site_fract_z
Si Si1 0.433292 0.329654 0.942430
Si Si2 0.570344 0.715932 0.793001
Si Si3 0.427178 0.923284 0.347173
Si Si4 0.430754 0.576774 0.028088
Si Si5 0.566759 0.667294 0.233768
Si Si6 0.068917 0.576819 0.146893
Si Si7 0.069228 0.796777 0.886748
Si Si8 0.933307 0.420731 0.328924
O O1 0.250000 0.322725 0.939676
O O2 0.496237 0.384107 0.897904
O O3 0.503820 0.248982 0.934958
O O4 0.487224 0.358965 0.997214
O O5 0.750000 0.736962 0.802863
O O6 0.549916 0.628786 0.797109
O O7 0.509086 0.751839 0.740268
O O8 0.462091 0.750234 0.836184
O O9 0.250000 0.938640 0.358444
O O10 0.500000 0.000000 0.334568
O O11 0.500000 0.500000 0.010347
O O12 0.250000 0.576110 0.015832
O O13 0.466134 0.591410 0.087455
O O14 0.750000 0.672481 0.237419
O O15 0.516381 0.639786 0.178055
O O16 0.503471 0.613177 0.277140
O O17 0.250000 0.577030 0.159222
O O18 0.000000 0.500000 0.164365
O O19 0.250000 0.811345 0.894362
O O20 0.982349 0.873708 0.878963
O O21 0.750000 0.423670 0.323433
O O22 0.000000 0.500000 0.337125
#
# Coordination Sequence:
#
# PCOD8182534 Si02
#       8
#     8   8   8   8   8   8   8   8
#     4  10  19  31  45  62  86 117 149 180 216 255
#     4   9  17  30  43  59  84 113 143 176 215 255
#     4   9  18  28  41  61  85 113 143 174 209 250
#     4  10  20  32  46  64  86 114 147 183 220 256
#     4  11  20  30  45  64  84 112 148 181 217 258
#     4  10  20  33  46  62  86 114 145 182 220 256
#     4  10  18  29  44  63  85 111 144 179 215 255
#     4  11  20  31  45  63  88 116 146 179 216 257
#
# _framework density 15.424317
#
# number of rings (size 3 to 8) (size 9 to 14) (size 15 to 20)
#    0.000    2.000    0.000    7.875    0.000    5.500 
#    0.000    0.000    0.000    0.000    0.000    0.000 
#    0.000    1.000    0.000    5.250    0.000    5.000 
#
# Total GULP energy -396699.760942 kJ/mol
# GULP energy per Si atom -12396.867529 kJ/mol
# Density = 1.538921 g / cm^3
# Si number density = 15.424317 Si / 1000 Ang^3
#
#
#
# Elastic Constant Matrix: (Units=GPa)
#
#
# Indices 1 2 3 4 5 6 
#
# 1 94.3888 41.2814 29.0227 0.0000 0.0000 0.0000
# 2 41.2814 100.9868 40.0310 0.0000 0.0000 0.0000
# 3 29.0227 40.0310 57.1944 0.0000 0.0000 0.0000
# 4 0.0000 0.0000 0.0000 32.0314 0.0000 0.0000
# 5 0.0000 0.0000 0.0000 0.0000 21.8174 0.0000
# 6 0.0000 0.0000 0.0000 0.0000 0.0000 28.7018
#
#
#
# Elastic Compliance Matrix: (Units=1/GPa)
#
#
# Indices 1 2 3 4 5 6 
#
# 1 0.013580 -0.003902 -0.004160 0.000000 0.000000 0.000000
# 2 -0.003902 0.014826 -0.008397 0.000000 0.000000 0.000000
# 3 -0.004160 -0.008397 0.025472 0.000000 0.000000 0.000000
# 4 0.000000 0.000000 0.000000 0.031219 0.000000 0.000000
# 5 0.000000 0.000000 0.000000 0.000000 0.045835 0.000000
# 6 0.000000 0.000000 0.000000 0.000000 0.000000 0.034841
#
#
# Mechanical properties :
#
#
# Convention : Reuss Voigt Hill
#
# Bulk Modulus (GPa) = 47.70881 52.58225 50.14553
# Shear Modulus (GPa) = 24.30984 25.99243 25.15113
#
# Velocity S-wave (km/s) = 3.97428 4.10952 4.04247
# Velocity P-wave (km/s) = 7.21512 7.52875 7.37360
#
# Compressibility (1/GPa) = 0.02096049
#
# Stress axis : x y z
#
# Youngs Moduli (GPa) = 73.63623 67.44957 39.25889
#
# Poissons Ratio (x) = 0.26321 0.16331
# Poissons Ratio (y) = 0.28736 0.32964
# Poissons Ratio (z) = 0.30632 0.56634
#
# Static dielectric constant tensor:
#      x y z
#    x 3.142940 0.000000 0.000000 
#    y 0.000000 3.087630 0.000000 
#    z 0.000000 0.000000 2.830290 
# 
# 
# High freq. dielectric constant tensor:
#      x y z
#    x 1.611960 0.000000 0.000000 
#    y 0.000000 1.583080 0.000000 
#    z 0.000000 0.000000 1.553320 
# 
# From -- ./inp_files/25527.got.cif
#   From: 2010.03.12/outbox.cif.g09.slc.cpg/sg40_13_cif.got.tgz:25527.got - 2010.04.14 01:38:03.
