data_PCOD8182212
_publ_section_title
;
Structure prediction by ZEFSAII (Michael W. Deem and Ramdas Pophale) SiO2 
 PCOD8182212
Probable space group: A B M 2
;
_chemical_formula_sum "Si O2"
_cell_formula_units_Z 48
_cell_length_a 7.776476
_cell_length_b 26.860390
_cell_length_c 9.262163
_cell_angle_alpha 90.000000
_cell_angle_beta 90.000000
_cell_angle_gamma 90.000000
_cell_volume 1934.672996
_symmetry_space_group_name_H-M "A B M 2"
_symmetry_group_IT_number 39
_symmetry_cell_setting 'orthorhombic'
loop_
_space_group_symop_operation_xyz
x,y,z
-x,-y,z
-x,1/2+y,z
x,1/2-y,z
x,1/2+y,1/2+z
-x,1/2-y,1/2+z
-x,y,1/2+z
x,-y,1/2+z
loop_
_atom_site_type_symbol
_atom_site_label
_atom_site_fract_x
_atom_site_fract_y
_atom_site_fract_z
Si Si1 0.637382 0.613524 0.440330
Si Si2 0.315844 0.008298 0.520812
Si Si3 0.240547 0.250000 0.084376
Si Si4 0.672582 0.646574 0.120742
Si Si5 0.869475 0.041389 0.297706
Si Si6 0.951978 0.750000 0.791956
Si Si7 0.070576 0.643784 0.159002
O O1 0.683140 0.555937 0.413739
O O2 0.622409 0.640006 0.287379
O O3 0.454590 0.613942 0.523900
O O4 0.790812 0.637913 0.532737
O O5 0.182567 0.017586 0.646685
O O6 0.500000 0.000000 0.595125
O O7 0.274864 0.959552 0.423323
O O8 0.366258 0.296851 0.072303
O O9 0.152363 0.250000 0.244622
O O10 0.086640 0.250000 0.963243
O O11 0.877468 0.639164 0.094514
O O12 0.921878 0.098987 0.277704
O O13 0.000000 0.000000 0.362330
O O14 0.880723 0.802732 0.729056
#
# Coordination Sequence:
#
# PCOD8182212 Si02
#       7
#     8   8   4   8   8   4   8
#     4  11  28  47  73 111 145 207 248 320 378 462
#     4  11  26  43  70 101 148 188 243 305 378 444
#     4  10  26  45  75 112 147 200 259 319 379 466
#     4  11  27  47  75 109 151 195 257 306 390 450
#     4  11  24  46  70 108 139 196 246 308 369 453
#     4  10  24  47  75 112 147 204 245 317 389 450
#     4  10  26  47  80 104 154 196 259 315 384 453
#
# _framework density 24.810393999999999
#
# number of rings (size 3 to 8) (size 9 to 14) (size 15 to 20)
#    0.000    1.333    0.000    2.000   21.000    2.667 
#    0.000    0.000    0.000    0.000    0.000    0.000 
#    0.000    0.000    0.000    0.000    0.000    0.000 
#
# Total GULP energy -297374.487952 kJ/mol
# GULP energy per Si atom -12390.603665 kJ/mol
# Density = 2.475392 g / cm^3
# Si number density = 24.810394 Si / 1000 Ang^3
#
#
#
# Elastic Constant Matrix: (Units=GPa)
#
#
# Indices 1 2 3 4 5 6 
#
# 1 112.1815 34.0291 39.9341 0.0000 0.0000 0.0000
# 2 34.0291 143.9696 12.8748 0.0000 0.0000 0.0000
# 3 39.9341 12.8748 75.6440 0.0000 0.0000 0.0000
# 4 0.0000 0.0000 0.0000 35.3746 0.0000 0.0000
# 5 0.0000 0.0000 0.0000 0.0000 -36.2748 0.0000
# 6 0.0000 0.0000 0.0000 0.0000 0.0000 28.1132
#
#
#
# Elastic Compliance Matrix: (Units=1/GPa)
#
#
# Indices 1 2 3 4 5 6 
#
# 1 0.011646 -0.002237 -0.005767 0.000000 0.000000 0.000000
# 2 -0.002237 0.007483 -0.000093 0.000000 0.000000 0.000000
# 3 -0.005767 -0.000093 0.016280 0.000000 0.000000 0.000000
# 4 0.000000 0.000000 0.000000 0.028269 0.000000 0.000000
# 5 0.000000 0.000000 0.000000 0.000000 -0.027567 0.000000
# 6 0.000000 0.000000 0.000000 0.000000 0.000000 0.035570
#
#
# Mechanical properties :
#
#
# Convention : Reuss Voigt Hill
#
# Bulk Modulus (GPa) = 52.04232 56.16346 54.10289
# Shear Modulus (GPa) = 53.03375 21.77308 37.40341
#
# Velocity S-wave (km/s) = 4.62839 2.96561 3.88696
# Velocity P-wave (km/s) = 7.04161 5.86623 6.48062
#
# Compressibility (1/GPa) = 0.01921513
#
# Stress axis : x y z
#
# Youngs Moduli (GPa) = 85.86884 133.63777 61.42407
#
# Poissons Ratio (x) = 0.29893 0.35425
# Poissons Ratio (y) = 0.19208 0.00570
# Poissons Ratio (z) = 0.49523 0.01239
#
# Static dielectric constant tensor:
#      x y z
#    x 4.713090 0.000000 0.000000 
#    y 0.000000 4.978370 0.000000 
#    z 0.000000 0.000000 4.130270 
# 
# 
# High freq. dielectric constant tensor:
#      x y z
#    x 1.981880 0.000000 0.000000 
#    y 0.000000 2.009820 0.000000 
#    z 0.000000 0.000000 1.982290 
# 
# From -- ./inp_files/2336.got.cif
#   From: 2010.03.12/outbox.cif.g09.slc.cpg/sg39_2_cif.got.tgz:2336.got - 2010.04.14 02:53:20.
