data_PCOD8182876
_publ_section_title
;
Structure prediction by ZEFSAII (Michael W. Deem and Ramdas Pophale) SiO2 
 PCOD8182876
Probable space group: A M A 2
;
_chemical_formula_sum "Si O2"
_cell_formula_units_Z 64
_cell_length_a 8.829814
_cell_length_b 14.071113
_cell_length_c 29.253061
_cell_angle_alpha 90.000000
_cell_angle_beta 90.000000
_cell_angle_gamma 90.000000
_cell_volume 3634.555649
_symmetry_space_group_name_H-M "A M A 2"
_symmetry_group_IT_number 40
_symmetry_cell_setting 'orthorhombic'
loop_
_space_group_symop_operation_xyz
x,y,z
-x,-y,z
1/2-x,y,z
1/2+x,-y,z
x,1/2+y,1/2+z
-x,1/2-y,1/2+z
1/2-x,1/2+y,1/2+z
1/2+x,1/2-y,1/2+z
loop_
_atom_site_type_symbol
_atom_site_label
_atom_site_fract_x
_atom_site_fract_y
_atom_site_fract_z
Si Si1 0.072080 0.755640 0.649680
Si Si2 0.073022 0.397264 0.329504
Si Si3 0.070079 0.395883 0.593708
Si Si4 0.583429 0.910215 0.499211
Si Si5 0.073205 0.712995 0.509105
Si Si6 0.927234 0.103432 0.728493
Si Si7 0.926089 0.897930 0.917214
Si Si8 0.415381 0.587807 0.103509
O O1 0.250000 0.737162 0.651492
O O2 0.011858 0.814771 0.693859
O O3 0.989324 0.654704 0.640685
O O4 0.023903 0.820340 0.606430
O O5 0.250000 0.404107 0.338429
O O6 0.038723 0.354031 0.279235
O O7 0.000000 0.500000 0.329726
O O8 0.996932 0.342478 0.372648
O O9 0.250000 0.403182 0.595121
O O10 0.000000 0.500000 0.590386
O O11 0.021455 0.334625 0.549789
O O12 0.750000 0.892899 0.476700
O O13 0.478257 0.818624 0.496852
O O14 0.610843 0.938915 0.551433
O O15 0.500000 0.000000 0.474846
O O16 0.250000 0.711040 0.522444
O O17 0.037416 0.657224 0.463071
O O18 0.750000 0.088963 0.720555
O O19 0.000000 0.000000 0.720512
O O20 0.750000 0.909467 0.908436
O O21 0.000000 0.000000 0.923026
O O22 0.500000 0.500000 0.128898
O O23 0.250000 0.605627 0.126528
#
# Coordination Sequence:
#
# PCOD8182876 Si02
#       8
#     8   8   8   8   8   8   8   8
#     4  11  21  34  51  72 100 133 168 208 249 297
#     4   9  16  29  48  71 102 136 167 204 250 300
#     4  12  25  40  55  73  98 132 173 215 258 301
#     4  10  20  33  50  71  99 132 167 207 249 297
#     4  11  22  36  54  76 103 135 173 214 255 302
#     4   9  19  32  49  76 107 138 170 204 248 300
#     4  10  20  32  49  75 103 135 172 211 253 300
#     4  10  19  30  45  68  96 129 165 203 242 289
#
# _framework density 17.608754999999999
#
# number of rings (size 3 to 8) (size 9 to 14) (size 15 to 20)
#    0.000    1.750    1.250    4.875    0.000    6.500 
#    0.000    0.000    0.000    0.000    0.000    0.875 
#    0.000    6.000    0.000    0.000    0.000    0.000 
#
# Total GULP energy -396507.131705 kJ/mol
# GULP energy per Si atom -12390.847866 kJ/mol
# Density = 1.756868 g / cm^3
# Si number density = 17.608755 Si / 1000 Ang^3
#
#
#
# Elastic Constant Matrix: (Units=GPa)
#
#
# Indices 1 2 3 4 5 6 
#
# 1 100.2117 37.5610 50.2317 0.0000 0.0000 0.0000
# 2 37.5610 99.0217 38.2972 0.0000 0.0000 0.0000
# 3 50.2317 38.2972 86.0752 0.0000 0.0000 0.0000
# 4 0.0000 0.0000 0.0000 0.6069 0.0000 0.0000
# 5 0.0000 0.0000 0.0000 0.0000 2356.5617 0.0000
# 6 0.0000 0.0000 0.0000 0.0000 0.0000 28.2793
#
#
#
# Elastic Compliance Matrix: (Units=1/GPa)
#
#
# Indices 1 2 3 4 5 6 
#
# 1 0.014690 -0.002726 -0.007360 0.000000 0.000000 0.000000
# 2 -0.002726 0.012704 -0.004062 0.000000 0.000000 0.000000
# 3 -0.007360 -0.004062 0.017720 0.000000 0.000000 0.000000
# 4 0.000000 0.000000 0.000000 1.647843 0.000000 0.000000
# 5 0.000000 0.000000 0.000000 0.000000 0.000424 0.000000
# 6 0.000000 0.000000 0.000000 0.000000 0.000000 0.035362
#
#
# Mechanical properties :
#
#
# Convention : Reuss Voigt Hill
#
# Bulk Modulus (GPa) = 59.45645 59.72092 59.58868
# Shear Modulus (GPa) = 2.83665 487.70416 245.27040
#
# Velocity S-wave (km/s) = 1.27060 16.66038 11.81488
# Velocity P-wave (km/s) = 5.99926 20.10174 14.83360
#
# Compressibility (1/GPa) = 0.01681903
#
# Stress axis : x y z
#
# Youngs Moduli (GPa) = 68.07503 78.71846 56.43369
#
# Poissons Ratio (x) = 0.21456 0.41535
# Poissons Ratio (y) = 0.18555 0.22921
# Poissons Ratio (z) = 0.50102 0.31972
#
# Static dielectric constant tensor:
#      x y z
#    x 0.469350 0.000000 0.000000 
#    y 0.000000 3.295590 0.000000 
#    z 0.000000 0.000000 3.853650 
# 
# 
# High freq. dielectric constant tensor:
#      x y z
#    x 1.701710 0.000000 0.000000 
#    y 0.000000 1.653390 0.000000 
#    z 0.000000 0.000000 1.662800 
# 
# From -- ./inp_files/26436.got.cif
#   From: 2010.03.12/outbox.cif.g09.slc.cpg/sg40_14_cif.got.tgz:26436.got - 2010.04.14 01:38:03.
