data_PCOD8182301
_publ_section_title
;
Structure prediction by ZEFSAII (Michael W. Deem and Ramdas Pophale) SiO2 
 PCOD8182301
Probable space group: A B M 2
;
_chemical_formula_sum "Si O2"
_cell_formula_units_Z 40
_cell_length_a 21.211650
_cell_length_b 9.377388
_cell_length_c 9.203527
_cell_angle_alpha 90.000000
_cell_angle_beta 90.000000
_cell_angle_gamma 90.000000
_cell_volume 1830.672379
_symmetry_space_group_name_H-M "A B M 2"
_symmetry_group_IT_number 39
_symmetry_cell_setting 'orthorhombic'
loop_
_space_group_symop_operation_xyz
x,y,z
-x,-y,z
-x,1/2+y,z
x,1/2-y,z
x,1/2+y,1/2+z
-x,1/2-y,1/2+z
-x,y,1/2+z
x,-y,1/2+z
loop_
_atom_site_type_symbol
_atom_site_label
_atom_site_fract_x
_atom_site_fract_y
_atom_site_fract_z
Si Si1 0.927824 0.750000 0.908540
Si Si2 0.637233 0.086440 0.749276
Si Si3 0.440425 0.913837 0.028966
Si Si4 0.152481 0.010987 0.444084
Si Si5 0.764871 0.579144 0.695378
Si Si6 0.936745 0.750000 0.553803
O O1 0.886457 0.627778 0.977881
O O2 0.934996 0.750000 0.731157
O O3 0.993558 0.750000 0.991737
O O4 0.646714 0.250000 0.692955
O O5 0.581394 0.005370 0.666752
O O6 0.699597 0.993382 0.735208
O O7 0.617309 0.089703 0.916838
O O8 0.458424 0.750000 0.071415
O O9 0.500000 0.000000 0.963547
O O10 0.217375 0.042462 0.530483
O O11 0.099631 0.123437 0.478718
O O12 0.177457 0.996273 0.279950
O O13 0.761639 0.750000 0.724090
#
# Coordination Sequence:
#
# PCOD8182301 Si02
#       6
#     4   8   8   8   8   4
#     4  12  28  48  70 106 134 178 227 282 344 414
#     4  11  26  43  69 106 136 184 237 285 348 404
#     4  11  24  44  69 102 144 185 232 286 342 407
#     4  12  24  47  69  98 138 176 226 283 347 408
#     4  12  26  46  67 100 138 178 232 286 341 414
#     4  12  28  48  70 104 138 172 231 280 342 416
#
# _framework density 21.849896000000001
#
# number of rings (size 3 to 8) (size 9 to 14) (size 15 to 20)
#    0.000    0.400    4.000    3.600    5.600    9.600 
#    0.000    0.000    0.000    0.000    0.000    0.000 
#    0.000    0.000    0.000    0.000    0.000    0.000 
#
# Total GULP energy -247795.087319 kJ/mol
# GULP energy per Si atom -12389.754366 kJ/mol
# Density = 2.180016 g / cm^3
# Si number density = 21.849896 Si / 1000 Ang^3
#
#
#
# Elastic Constant Matrix: (Units=GPa)
#
#
# Indices 1 2 3 4 5 6 
#
# 1 115.1004 50.6858 6.5295 0.0000 0.0000 0.0000
# 2 50.6858 167.2616 41.4751 0.0000 0.0000 0.0000
# 3 6.5295 41.4751 42.9704 0.0000 0.0000 0.0000
# 4 0.0000 0.0000 0.0000 31.0395 0.0000 0.0000
# 5 0.0000 0.0000 0.0000 0.0000 43.8225 0.0000
# 6 0.0000 0.0000 0.0000 0.0000 0.0000 52.7966
#
#
#
# Elastic Compliance Matrix: (Units=1/GPa)
#
#
# Indices 1 2 3 4 5 6 
#
# 1 0.010139 -0.003537 0.001873 0.000000 0.000000 0.000000
# 2 -0.003537 0.009094 -0.008240 0.000000 0.000000 0.000000
# 3 0.001873 -0.008240 0.030940 0.000000 0.000000 0.000000
# 4 0.000000 0.000000 0.000000 0.032217 0.000000 0.000000
# 5 0.000000 0.000000 0.000000 0.000000 0.022819 0.000000
# 6 0.000000 0.000000 0.000000 0.000000 0.000000 0.018941
#
#
# Mechanical properties :
#
#
# Convention : Reuss Voigt Hill
#
# Bulk Modulus (GPa) = 32.93139 58.07924 45.50531
# Shear Modulus (GPa) = 32.45079 40.64119 36.54599
#
# Velocity S-wave (km/s) = 3.85797 4.31747 4.09417
# Velocity P-wave (km/s) = 5.91182 7.17585 6.57428
#
# Compressibility (1/GPa) = 0.03036617
#
# Stress axis : x y z
#
# Youngs Moduli (GPa) = 98.62522 109.96636 32.32039
#
# Poissons Ratio (x) = 0.38896 -0.06055
# Poissons Ratio (y) = 0.34885 0.26631
# Poissons Ratio (z) = -0.18475 0.90610
#
# Static dielectric constant tensor:
#      x y z
#    x 4.072480 0.000000 0.000000 
#    y 0.000000 4.251400 0.000000 
#    z 0.000000 0.000000 3.957320 
# 
# 
# High freq. dielectric constant tensor:
#      x y z
#    x 1.878340 0.000000 0.000000 
#    y 0.000000 1.879990 0.000000 
#    z 0.000000 0.000000 1.856560 
# 
# From -- ./inp_files/4045.got.cif
#   From: 2010.03.12/outbox.cif.g09.slc.cpg/sg39_3_cif.got.tgz:4045.got - 2010.04.14 02:53:20.
