data_PCOD8182224
_publ_section_title
;
Structure prediction by ZEFSAII (Michael W. Deem and Ramdas Pophale) SiO2 
 PCOD8182224
Probable space group: A B M 2
;
_chemical_formula_sum "Si O2"
_cell_formula_units_Z 48
_cell_length_a 8.958294
_cell_length_b 19.009703
_cell_length_c 13.752147
_cell_angle_alpha 90.000000
_cell_angle_beta 90.000000
_cell_angle_gamma 90.000000
_cell_volume 2341.915112
_symmetry_space_group_name_H-M "A B M 2"
_symmetry_group_IT_number 39
_symmetry_cell_setting 'orthorhombic'
loop_
_space_group_symop_operation_xyz
x,y,z
-x,-y,z
-x,1/2+y,z
x,1/2-y,z
x,1/2+y,1/2+z
-x,1/2-y,1/2+z
-x,y,1/2+z
x,-y,1/2+z
loop_
_atom_site_type_symbol
_atom_site_label
_atom_site_fract_x
_atom_site_fract_y
_atom_site_fract_z
Si Si1 0.633573 0.553665 0.949470
Si Si2 0.765134 0.670100 0.836359
Si Si3 0.780319 0.460315 0.637717
Si Si4 0.844349 0.035569 0.839202
Si Si5 0.932484 0.826963 0.438756
Si Si6 0.094652 0.891689 0.138292
O O1 0.500000 0.500000 0.928480
O O2 0.627163 0.623662 0.881251
O O3 0.788879 0.514873 0.924569
O O4 0.652444 0.570492 0.065294
O O5 0.709283 0.750000 0.818459
O O6 0.831422 0.638732 0.736387
O O7 0.890323 0.667585 0.920357
O O8 0.725202 0.467107 0.749753
O O9 0.823045 0.538184 0.601002
O O10 0.919444 0.407195 0.650469
O O11 0.850998 0.115196 0.874245
O O12 0.000000 0.000000 0.802192
O O13 0.875116 0.750000 0.405620
O O14 0.892346 0.835121 0.552125
#
# Coordination Sequence:
#
# PCOD8182224 Si02
#       6
#     8   8   8   8   8   8
#     4  12  25  40  61  92 125 176 215 259 320 394
#     4  11  22  38  61  95 131 166 211 268 331 386
#     4  11  19  33  61  91 121 155 212 263 310 375
#     4  12  19  39  63  89 122 157 210 268 319 377
#     4  11  21  33  58  95 128 159 200 261 331 382
#     4  11  18  34  62  93 122 160 204 273 322 370
#
# _framework density 20.496047999999998
#
# number of rings (size 3 to 8) (size 9 to 14) (size 15 to 20)
#    0.000    0.667   10.000    0.500    0.000    0.667 
#    0.000    1.667    0.000    0.000    0.000    0.000 
#    0.000    0.000    0.000    0.000    0.000    0.000 
#
# Total GULP energy -297369.958847 kJ/mol
# GULP energy per Si atom -12390.414952 kJ/mol
# Density = 2.044940 g / cm^3
# Si number density = 20.496048 Si / 1000 Ang^3
#
#
#
# Elastic Constant Matrix: (Units=GPa)
#
#
# Indices 1 2 3 4 5 6 
#
# 1 38.8316 24.1292 25.7410 0.0000 0.0000 0.0000
# 2 24.1292 148.4586 47.2312 0.0000 0.0000 0.0000
# 3 25.7410 47.2312 134.2025 0.0000 0.0000 0.0000
# 4 0.0000 0.0000 0.0000 30.0763 0.0000 0.0000
# 5 0.0000 0.0000 0.0000 0.0000 15.9243 0.0000
# 6 0.0000 0.0000 0.0000 0.0000 0.0000 25.9839
#
#
#
# Elastic Compliance Matrix: (Units=1/GPa)
#
#
# Indices 1 2 3 4 5 6 
#
# 1 0.031083 -0.003553 -0.004712 0.000000 0.000000 0.000000
# 2 -0.003553 0.007991 -0.002131 0.000000 0.000000 0.000000
# 3 -0.004712 -0.002131 0.009105 0.000000 0.000000 0.000000
# 4 0.000000 0.000000 0.000000 0.033249 0.000000 0.000000
# 5 0.000000 0.000000 0.000000 0.000000 0.062797 0.000000
# 6 0.000000 0.000000 0.000000 0.000000 0.000000 0.038485
#
#
# Mechanical properties :
#
#
# Convention : Reuss Voigt Hill
#
# Bulk Modulus (GPa) = 36.51158 57.29950 46.90554
# Shear Modulus (GPa) = 23.51484 29.35632 26.43558
#
# Velocity S-wave (km/s) = 3.39084 3.78867 3.59526
# Velocity P-wave (km/s) = 5.76047 6.86700 6.33793
#
# Compressibility (1/GPa) = 0.02738857
#
# Stress axis : x y z
#
# Youngs Moduli (GPa) = 32.17166 125.13571 109.82851
#
# Poissons Ratio (x) = 0.44462 0.51746
# Poissons Ratio (y) = 0.11431 0.23404
# Poissons Ratio (z) = 0.15158 0.26666
#
# Static dielectric constant tensor:
#      x y z
#    x 3.110790 0.000000 0.000000 
#    y 0.000000 3.884310 0.000000 
#    z 0.000000 0.000000 3.997470 
# 
# 
# High freq. dielectric constant tensor:
#      x y z
#    x 1.731490 0.000000 0.000000 
#    y 0.000000 1.802200 0.000000 
#    z 0.000000 0.000000 1.828350 
# 
# From -- ./inp_files/8330.got.cif
#   From: 2010.03.12/outbox.cif.g09.slc.cpg/sg39_5_cif.got.tgz:8330.got - 2010.04.14 02:53:20.
