data_PCOD8182196
_publ_section_title
;
Structure prediction by ZEFSAII (Michael W. Deem and Ramdas Pophale) SiO2 
 PCOD8182196
Probable space group: A B M 2
;
_chemical_formula_sum "Si O2"
_cell_formula_units_Z 40
_cell_length_a 8.928807
_cell_length_b 17.960159
_cell_length_c 11.270069
_cell_angle_alpha 90.000000
_cell_angle_beta 90.000000
_cell_angle_gamma 90.000000
_cell_volume 1807.299747
_symmetry_space_group_name_H-M "A B M 2"
_symmetry_group_IT_number 39
_symmetry_cell_setting 'orthorhombic'
loop_
_space_group_symop_operation_xyz
x,y,z
-x,-y,z
-x,1/2+y,z
x,1/2-y,z
x,1/2+y,1/2+z
-x,1/2-y,1/2+z
-x,y,1/2+z
x,-y,1/2+z
loop_
_atom_site_type_symbol
_atom_site_label
_atom_site_fract_x
_atom_site_fract_y
_atom_site_fract_z
Si Si1 0.391619 0.663319 0.496490
Si Si2 0.291954 0.386108 0.535639
Si Si3 0.913361 0.069329 0.845008
Si Si4 0.180486 0.665664 0.279353
Si Si5 0.655525 0.968430 0.166417
O O1 0.367330 0.750000 0.527739
O O2 0.564967 0.646719 0.465407
O O3 0.288979 0.638793 0.385626
O O4 0.354508 0.614371 0.612483
O O5 0.151432 0.377343 0.447497
O O6 0.269701 0.340457 0.656315
O O7 0.305839 0.474171 0.561052
O O8 0.782938 0.033412 0.765140
O O9 0.029659 0.117621 0.768507
O O10 0.000000 0.000000 0.903868
O O11 0.132330 0.750000 0.300903
O O12 0.500000 0.000000 0.223457
#
# Coordination Sequence:
#
# PCOD8182196 Si02
#       5
#     8   8   8   8   8
#     4  10  24  46  71 100 138 180 230 286 344 410
#     4  11  25  44  71  97 139 181 234 282 344 412
#     4  12  26  42  71 100 139 180 229 288 350 404
#     4  11  26  45  68 103 143 181 230 286 345 415
#     4  10  24  43  72 102 135 181 233 285 338 413
#
# _framework density 22.132465
#
# number of rings (size 3 to 8) (size 9 to 14) (size 15 to 20)
#    0.000    1.200    2.000    1.800   11.200    3.200 
#    0.000    0.000    0.000    0.000    0.000    0.000 
#    0.000    0.000    0.000    0.000    0.000    0.000 
#
# Total GULP energy -248021.254401 kJ/mol
# GULP energy per Si atom -12401.062720 kJ/mol
# Density = 2.208209 g / cm^3
# Si number density = 22.132465 Si / 1000 Ang^3
#
#
#
# Elastic Constant Matrix: (Units=GPa)
#
#
# Indices 1 2 3 4 5 6 
#
# 1 146.9562 41.0608 57.2881 0.0000 0.0000 0.0000
# 2 41.0608 103.6762 28.1109 0.0000 0.0000 0.0000
# 3 57.2881 28.1109 82.6058 0.0000 0.0000 0.0000
# 4 0.0000 0.0000 0.0000 28.9900 0.0000 0.0000
# 5 0.0000 0.0000 0.0000 0.0000 37.9748 0.0000
# 6 0.0000 0.0000 0.0000 0.0000 0.0000 28.0929
#
#
#
# Elastic Compliance Matrix: (Units=1/GPa)
#
#
# Indices 1 2 3 4 5 6 
#
# 1 0.009777 -0.002240 -0.006018 0.000000 0.000000 0.000000
# 2 -0.002240 0.011139 -0.002237 0.000000 0.000000 0.000000
# 3 -0.006018 -0.002237 0.017040 0.000000 0.000000 0.000000
# 4 0.000000 0.000000 0.000000 0.034495 0.000000 0.000000
# 5 0.000000 0.000000 0.000000 0.000000 0.026333 0.000000
# 6 0.000000 0.000000 0.000000 0.000000 0.000000 0.035596
#
#
# Mechanical properties :
#
#
# Convention : Reuss Voigt Hill
#
# Bulk Modulus (GPa) = 58.94166 65.12863 62.03514
# Shear Modulus (GPa) = 31.05088 32.79677 31.92382
#
# Velocity S-wave (km/s) = 3.74967 3.85364 3.80201
# Velocity P-wave (km/s) = 6.74061 7.02078 6.88212
#
# Compressibility (1/GPa) = 0.01696593
#
# Stress axis : x y z
#
# Youngs Moduli (GPa) = 102.28443 89.77268 58.68417
#
# Poissons Ratio (x) = 0.20112 0.35315
# Poissons Ratio (y) = 0.22915 0.13128
# Poissons Ratio (z) = 0.61553 0.20082
#
# Static dielectric constant tensor:
#      x y z
#    x 4.196990 0.000000 0.000000 
#    y 0.000000 3.985380 0.000000 
#    z 0.000000 0.000000 3.619750 
# 
# 
# High freq. dielectric constant tensor:
#      x y z
#    x 1.885160 0.000000 0.000000 
#    y 0.000000 1.877940 0.000000 
#    z 0.000000 0.000000 1.853210 
# 
# From -- ./inp_files/4918.got.cif
#   From: 2010.03.12/outbox.cif.g09.slc.cpg/sg39_3_cif.got.tgz:4918.got - 2010.04.14 02:53:20.
