data_PCOD8182728
_publ_section_title
;
Structure prediction by ZEFSAII (Michael W. Deem and Ramdas Pophale) SiO2 
 PCOD8182728
Probable space group: A M A 2
;
_chemical_formula_sum "Si O2"
_cell_formula_units_Z 64
_cell_length_a 17.939739
_cell_length_b 18.821470
_cell_length_c 10.091734
_cell_angle_alpha 90.000000
_cell_angle_beta 90.000000
_cell_angle_gamma 90.000000
_cell_volume 3407.496786
_symmetry_space_group_name_H-M "A M A 2"
_symmetry_group_IT_number 40
_symmetry_cell_setting 'orthorhombic'
loop_
_space_group_symop_operation_xyz
x,y,z
-x,-y,z
1/2-x,y,z
1/2+x,-y,z
x,1/2+y,1/2+z
-x,1/2-y,1/2+z
1/2-x,1/2+y,1/2+z
1/2+x,1/2-y,1/2+z
loop_
_atom_site_type_symbol
_atom_site_label
_atom_site_fract_x
_atom_site_fract_y
_atom_site_fract_z
Si Si1 0.337955 0.953718 0.200010
Si Si2 0.164867 0.878530 0.460518
Si Si3 0.831163 0.016762 0.695505
Si Si4 0.166395 0.374948 0.436886
Si Si5 0.921166 0.256024 0.575144
Si Si6 0.470333 0.300172 0.344837
Si Si7 0.338762 0.098366 0.078638
Si Si8 0.556180 0.940247 0.841914
O O1 0.250000 0.949511 0.213078
O O2 0.372313 0.909905 0.324775
O O3 0.359559 0.038211 0.190317
O O4 0.364887 0.914508 0.066896
O O5 0.250000 0.855601 0.435335
O O6 0.158197 0.943869 0.558566
O O7 0.126490 0.810823 0.527061
O O8 0.750000 0.978622 0.696729
O O9 0.835337 0.070964 0.816630
O O10 0.899564 0.962010 0.708173
O O11 0.250000 0.345144 0.459028
O O12 0.112759 0.308968 0.404216
O O13 0.966966 0.244632 0.710269
O O14 0.868823 0.323196 0.611295
O O15 0.978886 0.265818 0.456621
O O16 0.505268 0.374760 0.303006
O O17 0.250000 0.100560 0.055619
O O18 0.378368 0.074677 0.944710
O O19 0.500000 0.000000 0.896647
#
# Coordination Sequence:
#
# PCOD8182728 Si02
#       8
#     8   8   8   8   8   8   8   8
#     4   9  18  33  57  89 115 136 183 249 294 332
#     4  10  20  36  59  87 116 152 196 242 292 343
#     4  10  18  32  59  86 110 143 192 238 280 340
#     4  10  18  34  62  84 105 143 192 239 283 343
#     4  11  24  40  57  82 117 164 191 239 288 362
#     4  11  24  39  57  80 117 150 194 234 291 352
#     4  10  20  36  60  87 115 151 195 240 286 342
#     4  11  18  33  58  85 115 146 185 235 289 347
#
# _framework density 18.782117
#
# number of rings (size 3 to 8) (size 9 to 14) (size 15 to 20)
#    0.000    1.750    3.750    0.750    1.750    0.500 
#    2.250    0.000    0.000    0.750    0.000    0.000 
#    0.000    0.000    0.000    0.000    0.000    0.000 
#
# Total GULP energy -396538.903069 kJ/mol
# GULP energy per Si atom -12391.840721 kJ/mol
# Density = 1.873937 g / cm^3
# Si number density = 18.782117 Si / 1000 Ang^3
#
#
#
# Elastic Constant Matrix: (Units=GPa)
#
#
# Indices 1 2 3 4 5 6 
#
# 1 97.0023 37.5412 26.7693 0.0000 0.0000 0.0000
# 2 37.5412 54.0247 14.7521 0.0000 0.0000 0.0000
# 3 26.7693 14.7521 93.6888 0.0000 0.0000 0.0000
# 4 0.0000 0.0000 0.0000 18.5852 0.0000 0.0000
# 5 0.0000 0.0000 0.0000 0.0000 -12.4944 0.0000
# 6 0.0000 0.0000 0.0000 0.0000 0.0000 120.2170
#
#
#
# Elastic Compliance Matrix: (Units=1/GPa)
#
#
# Indices 1 2 3 4 5 6 
#
# 1 0.014734 -0.009497 -0.002714 0.000000 0.000000 0.000000
# 2 -0.009497 0.025463 -0.001296 0.000000 0.000000 0.000000
# 3 -0.002714 -0.001296 0.011653 0.000000 0.000000 0.000000
# 4 0.000000 0.000000 0.000000 0.053806 0.000000 0.000000
# 5 0.000000 0.000000 0.000000 0.000000 -0.080036 0.000000
# 6 0.000000 0.000000 0.000000 0.000000 0.000000 0.008318
#
#
# Mechanical properties :
#
#
# Convention : Reuss Voigt Hill
#
# Bulk Modulus (GPa) = 40.26482 44.76011 42.51247
# Shear Modulus (GPa) = 72.22098 36.30509 54.26304
#
# Velocity S-wave (km/s) = 6.20769 4.40131 5.38085
# Velocity P-wave (km/s) = 8.53610 7.05065 7.82869
#
# Compressibility (1/GPa) = 0.02483557
#
# Stress axis : x y z
#
# Youngs Moduli (GPa) = 67.87219 39.27230 85.81294
#
# Poissons Ratio (x) = 0.37297 0.23293
# Poissons Ratio (y) = 0.64458 0.11120
# Poissons Ratio (z) = 0.18423 0.05089
#
# Static dielectric constant tensor:
#      x y z
#    x 4.366860 0.000000 0.000000 
#    y 0.000000 3.520510 0.000000 
#    z 0.000000 0.000000 3.595920 
# 
# 
# High freq. dielectric constant tensor:
#      x y z
#    x 1.734500 0.000000 0.000000 
#    y 0.000000 1.715850 0.000000 
#    z 0.000000 0.000000 1.724400 
# 
# From -- ./inp_files/13247.got.cif
#   From: 2010.03.12/outbox.cif.g09.slc.cpg/sg40_7_cif.got.tgz:13247.got - 2010.04.14 01:38:03.
