data_PCOD8182897
_publ_section_title
;
Structure prediction by ZEFSAII (Michael W. Deem and Ramdas Pophale) SiO2 
 PCOD8182897
Probable space group: A M A 2
;
_chemical_formula_sum "Si O2"
_cell_formula_units_Z 64
_cell_length_a 8.857157
_cell_length_b 23.071922
_cell_length_c 19.092626
_cell_angle_alpha 90.000000
_cell_angle_beta 90.000000
_cell_angle_gamma 90.000000
_cell_volume 3901.609348
_symmetry_space_group_name_H-M "A M A 2"
_symmetry_group_IT_number 40
_symmetry_cell_setting 'orthorhombic'
loop_
_space_group_symop_operation_xyz
x,y,z
-x,-y,z
1/2-x,y,z
1/2+x,-y,z
x,1/2+y,1/2+z
-x,1/2-y,1/2+z
1/2-x,1/2+y,1/2+z
1/2+x,1/2-y,1/2+z
loop_
_atom_site_type_symbol
_atom_site_label
_atom_site_fract_x
_atom_site_fract_y
_atom_site_fract_z
Si Si1 0.571854 0.717424 0.130480
Si Si2 0.573164 0.830903 0.208898
Si Si3 0.573267 0.762267 0.338376
Si Si4 0.924920 0.438827 0.355335
Si Si5 0.929887 0.939539 0.125577
Si Si6 0.073875 0.251172 0.494387
Si Si7 0.422572 0.162234 0.753634
Si Si8 0.571307 0.614782 0.490809
O O1 0.750000 0.713591 0.131092
O O2 0.509006 0.777860 0.162613
O O3 0.508874 0.665786 0.179232
O O4 0.513587 0.712479 0.051162
O O5 0.750000 0.832691 0.196744
O O6 0.533437 0.818734 0.290649
O O7 0.507881 0.891884 0.181458
O O8 0.750000 0.747242 0.332604
O O9 0.527471 0.774337 0.418481
O O10 0.487040 0.706325 0.310958
O O11 0.750000 0.445982 0.377269
O O12 0.940534 0.402230 0.283964
O O13 0.000000 0.500000 0.339570
O O14 0.015115 0.406555 0.416144
O O15 0.750000 0.944122 0.124284
O O16 0.988182 0.923427 0.048836
O O17 0.000000 0.000000 0.150170
O O18 0.250000 0.244062 0.508118
O O19 0.025262 0.318226 0.499878
O O20 0.250000 0.178555 0.740189
O O21 0.750000 0.605643 0.496658
#
# Coordination Sequence:
#
# PCOD8182897 Si02
#       8
#     8   8   8   8   8   8   8   8
#     4  10  19  32  51  71  96 129 163 198 244 297
#     4   8  16  30  48  67  90 122 160 198 236 284
#     4   9  17  32  51  72  96 127 160 197 248 298
#     4  11  23  36  51  70  97 133 171 207 244 289
#     4  11  21  34  48  67  95 131 171 207 241 286
#     4  10  19  30  49  75 102 128 160 200 243 295
#     4  10  20  33  49  72  98 126 162 206 249 290
#     4  11  21  33  48  70 100 133 167 204 241 283
#
# _framework density 16.403486999999998
#
# number of rings (size 3 to 8) (size 9 to 14) (size 15 to 20)
#    0.000    2.000    2.500    3.000    0.000    2.500 
#    0.000    0.625    0.000    0.000    0.000    0.875 
#    0.000    2.000    0.000    0.000    0.000    0.000 
#
# Total GULP energy -396766.941384 kJ/mol
# GULP energy per Si atom -12398.966918 kJ/mol
# Density = 1.636615 g / cm^3
# Si number density = 16.403487 Si / 1000 Ang^3
#
#
#
# Elastic Constant Matrix: (Units=GPa)
#
#
# Indices 1 2 3 4 5 6 
#
# 1 70.9563 28.9257 43.0234 0.0000 0.0000 0.0000
# 2 28.9257 56.2779 39.0427 0.0000 0.0000 0.0000
# 3 43.0234 39.0427 118.4685 0.0000 0.0000 0.0000
# 4 0.0000 0.0000 0.0000 24.3035 0.0000 0.0000
# 5 0.0000 0.0000 0.0000 0.0000 24.5738 0.0000
# 6 0.0000 0.0000 0.0000 0.0000 0.0000 20.7616
#
#
#
# Elastic Compliance Matrix: (Units=1/GPa)
#
#
# Indices 1 2 3 4 5 6 
#
# 1 0.019872 -0.006751 -0.004992 0.000000 0.000000 0.000000
# 2 -0.006751 0.025329 -0.005896 0.000000 0.000000 0.000000
# 3 -0.004992 -0.005896 0.012197 0.000000 0.000000 0.000000
# 4 0.000000 0.000000 0.000000 0.041146 0.000000 0.000000
# 5 0.000000 0.000000 0.000000 0.000000 0.040694 0.000000
# 6 0.000000 0.000000 0.000000 0.000000 0.000000 0.048166
#
#
# Mechanical properties :
#
#
# Convention : Reuss Voigt Hill
#
# Bulk Modulus (GPa) = 45.20608 51.96513 48.58560
# Shear Modulus (GPa) = 21.73401 22.90852 22.32126
#
# Velocity S-wave (km/s) = 3.64395 3.74112 3.69285
# Velocity P-wave (km/s) = 6.73225 7.09996 6.91855
#
# Compressibility (1/GPa) = 0.02212092
#
# Stress axis : x y z
#
# Youngs Moduli (GPa) = 50.32230 39.48066 81.98717
#
# Poissons Ratio (x) = 0.26652 0.40928
# Poissons Ratio (y) = 0.33970 0.48339
# Poissons Ratio (z) = 0.25121 0.23277
#
# Static dielectric constant tensor:
#      x y z
#    x 3.093660 0.000000 0.000000 
#    y 0.000000 -16.421900 0.000000 
#    z 0.000000 0.000000 3.231140 
# 
# 
# High freq. dielectric constant tensor:
#      x y z
#    x 1.635570 0.000000 0.000000 
#    y 0.000000 1.602620 0.000000 
#    z 0.000000 0.000000 1.629720 
# 
# From -- ./inp_files/19713.got.cif
#   From: 2010.03.12/outbox.cif.g09.slc.cpg/sg40_10_cif.got.tgz:19713.got - 2010.04.14 01:38:03.
