data_PCOD8182317
_publ_section_title
;
Structure prediction by ZEFSAII (Michael W. Deem and Ramdas Pophale) SiO2 
 PCOD8182317
Probable space group: A B M 2
;
_chemical_formula_sum "Si O2"
_cell_formula_units_Z 40
_cell_length_a 9.448544
_cell_length_b 21.497783
_cell_length_c 8.291039
_cell_angle_alpha 90.000000
_cell_angle_beta 90.000000
_cell_angle_gamma 90.000000
_cell_volume 1684.098630
_symmetry_space_group_name_H-M "A B M 2"
_symmetry_group_IT_number 39
_symmetry_cell_setting 'orthorhombic'
loop_
_space_group_symop_operation_xyz
x,y,z
-x,-y,z
-x,1/2+y,z
x,1/2-y,z
x,1/2+y,1/2+z
-x,1/2-y,1/2+z
-x,y,1/2+z
x,-y,1/2+z
loop_
_atom_site_type_symbol
_atom_site_label
_atom_site_fract_x
_atom_site_fract_y
_atom_site_fract_z
Si Si1 0.806403 0.119013 0.180190
Si Si2 0.310067 0.381361 0.183834
Si Si3 0.950899 0.929150 0.362604
Si Si4 0.317480 0.250000 0.685438
Si Si5 0.551108 0.069560 0.365855
Si Si6 0.367323 0.250000 0.064166
O O1 0.774222 0.190196 0.134746
O O2 0.662713 0.083150 0.223624
O O3 0.912522 0.114980 0.333865
O O4 0.881902 0.083880 0.034175
O O5 0.161648 0.414020 0.221551
O O6 0.415159 0.385671 0.338535
O O7 0.289213 0.309291 0.140733
O O8 0.382565 0.418617 0.038916
O O9 0.000000 0.000000 0.349178
O O10 0.465254 0.250000 0.592311
O O11 0.345642 0.250000 0.874442
O O12 0.500000 0.000000 0.348771
#
# Coordination Sequence:
#
# PCOD8182317 Si02
#       6
#     8   8   8   4   8   4
#     4  12  27  50  77 110 151 205 258 323 391 460
#     4  12  25  46  80 112 153 204 254 324 388 457
#     4  12  29  52  76 110 157 202 259 321 393 470
#     4  12  28  49  81 112 160 196 264 322 394 461
#     4  12  25  45  73 115 151 199 265 316 386 466
#     4  12  24  49  79 114 156 194 258 324 380 465
#
# _framework density 23.751579
#
# number of rings (size 3 to 8) (size 9 to 14) (size 15 to 20)
#    0.000    0.000    4.000    4.800    2.800    4.800 
#    0.000    2.000    0.000    0.000    0.000    0.000 
#    0.000    0.000    0.000    0.000    0.000    0.000 
#
# Total GULP energy -248146.899180 kJ/mol
# GULP energy per Si atom -12407.344959 kJ/mol
# Density = 2.369752 g / cm^3
# Si number density = 23.751579 Si / 1000 Ang^3
#
#
#
# Elastic Constant Matrix: (Units=GPa)
#
#
# Indices 1 2 3 4 5 6 
#
# 1 128.4053 88.4117 12.9884 0.0000 0.0000 0.0000
# 2 88.4117 177.5984 50.1376 0.0000 0.0000 0.0000
# 3 12.9884 50.1376 55.5137 0.0000 0.0000 0.0000
# 4 0.0000 0.0000 0.0000 28.0696 0.0000 0.0000
# 5 0.0000 0.0000 0.0000 0.0000 43.2452 0.0000
# 6 0.0000 0.0000 0.0000 0.0000 0.0000 65.1492
#
#
#
# Elastic Compliance Matrix: (Units=1/GPa)
#
#
# Indices 1 2 3 4 5 6 
#
# 1 0.012357 -0.007161 0.003576 0.000000 0.000000 0.000000
# 2 -0.007161 0.011708 -0.008898 0.000000 0.000000 0.000000
# 3 0.003576 -0.008898 0.025213 0.000000 0.000000 0.000000
# 4 0.000000 0.000000 0.000000 0.035626 0.000000 0.000000
# 5 0.000000 0.000000 0.000000 0.000000 0.023124 0.000000
# 6 0.000000 0.000000 0.000000 0.000000 0.000000 0.015349
#
#
# Mechanical properties :
#
#
# Convention : Reuss Voigt Hill
#
# Bulk Modulus (GPa) = 41.13216 73.84366 57.48791
# Shear Modulus (GPa) = 31.95972 41.29146 36.62559
#
# Velocity S-wave (km/s) = 3.67220 4.17402 3.93113
# Velocity P-wave (km/s) = 5.94435 7.37478 6.69786
#
# Compressibility (1/GPa) = 0.02431187
#
# Stress axis : x y z
#
# Youngs Moduli (GPa) = 80.92756 85.41388 39.66134
#
# Poissons Ratio (x) = 0.61166 -0.14185
# Poissons Ratio (y) = 0.57953 0.35292
# Poissons Ratio (z) = -0.28944 0.76005
#
# Static dielectric constant tensor:
#      x y z
#    x 4.710590 0.000000 0.000000 
#    y 0.000000 6.953300 0.000000 
#    z 0.000000 0.000000 4.407470 
# 
# 
# High freq. dielectric constant tensor:
#      x y z
#    x 1.956430 0.000000 0.000000 
#    y 0.000000 1.945350 0.000000 
#    z 0.000000 0.000000 1.955710 
# 
# From -- ./inp_files/2132.got.cif
#   From: 2010.03.12/outbox.cif.g09.slc.cpg/sg39_2_cif.got.tgz:2132.got - 2010.04.14 02:53:20.
