data_PCOD8182123
_publ_section_title
;
Structure prediction by ZEFSAII (Michael W. Deem and Ramdas Pophale) SiO2 
 PCOD8182123
Probable space group: A B M 2
;
_chemical_formula_sum "Si O2"
_cell_formula_units_Z 48
_cell_length_a 13.664662
_cell_length_b 17.044807
_cell_length_c 9.893078
_cell_angle_alpha 90.000000
_cell_angle_beta 90.000000
_cell_angle_gamma 90.000000
_cell_volume 2304.211899
_symmetry_space_group_name_H-M "A B M 2"
_symmetry_group_IT_number 39
_symmetry_cell_setting 'orthorhombic'
loop_
_space_group_symop_operation_xyz
x,y,z
-x,-y,z
-x,1/2+y,z
x,1/2-y,z
x,1/2+y,1/2+z
-x,1/2-y,1/2+z
-x,y,1/2+z
x,-y,1/2+z
loop_
_atom_site_type_symbol
_atom_site_label
_atom_site_fract_x
_atom_site_fract_y
_atom_site_fract_z
Si Si1 0.588032 0.159784 0.885300
Si Si2 0.789322 0.905674 0.993445
Si Si3 0.914766 0.657906 0.233331
Si Si4 0.789335 0.414539 0.961396
Si Si5 0.859217 0.660617 0.724211
Si Si6 0.587046 0.340273 0.576498
O O1 0.615277 0.250000 0.916644
O O2 0.681517 0.106786 0.912324
O O3 0.553252 0.149266 0.731104
O O4 0.500742 0.130742 0.981373
O O5 0.808550 0.847657 0.869276
O O6 0.804585 0.993438 0.940789
O O7 0.865184 0.889016 0.112461
O O8 0.680264 0.894186 0.048590
O O9 0.896575 0.750000 0.212616
O O10 0.870042 0.632238 0.376096
O O11 0.028140 0.635265 0.235203
O O12 0.802461 0.393516 0.118190
O O13 0.849862 0.750000 0.675918
O O14 0.614579 0.250000 0.545965
#
# Coordination Sequence:
#
# PCOD8182123 Si02
#       6
#     8   8   8   8   8   8
#     4  10  22  42  68  94 124 167 215 261 312 378
#     4  12  25  41  64  98 134 169 207 263 330 380
#     4  11  23  45  68  89 126 177 223 262 312 375
#     4  12  25  41  64  98 134 169 207 263 330 380
#     4  11  25  41  66  97 126 169 223 268 308 375
#     4  10  22  42  68  94 124 167 215 261 312 378
#
# _framework density 20.831417999999999
#
# number of rings (size 3 to 8) (size 9 to 14) (size 15 to 20)
#    0.000    1.000    1.667    5.000    2.333    7.333 
#    0.000    1.667    0.000    0.000    0.000    0.000 
#    0.000    0.000    0.000    0.000    0.000    0.000 
#
# Total GULP energy -297819.837900 kJ/mol
# GULP energy per Si atom -12409.159913 kJ/mol
# Density = 2.078400 g / cm^3
# Si number density = 20.831418 Si / 1000 Ang^3
#
#
#
# Elastic Constant Matrix: (Units=GPa)
#
#
# Indices 1 2 3 4 5 6 
#
# 1 90.0004 31.6976 45.2434 0.0000 0.0000 0.0000
# 2 31.6976 73.6866 18.3098 0.0000 0.0000 0.0000
# 3 45.2434 18.3098 118.2350 0.0000 0.0000 0.0000
# 4 0.0000 0.0000 0.0000 32.2456 0.0000 0.0000
# 5 0.0000 0.0000 0.0000 0.0000 46.7484 0.0000
# 6 0.0000 0.0000 0.0000 0.0000 0.0000 9.6688
#
#
#
# Elastic Compliance Matrix: (Units=1/GPa)
#
#
# Indices 1 2 3 4 5 6 
#
# 1 0.015605 -0.005438 -0.005129 0.000000 0.000000 0.000000
# 2 -0.005438 0.016009 -0.000398 0.000000 0.000000 0.000000
# 3 -0.005129 -0.000398 0.010482 0.000000 0.000000 0.000000
# 4 0.000000 0.000000 0.000000 0.031012 0.000000 0.000000
# 5 0.000000 0.000000 0.000000 0.000000 0.021391 0.000000
# 6 0.000000 0.000000 0.000000 0.000000 0.000000 0.103426
#
#
# Mechanical properties :
#
#
# Convention : Reuss Voigt Hill
#
# Bulk Modulus (GPa) = 49.59063 52.49148 51.04105
# Shear Modulus (GPa) = 22.06747 30.17730 26.12239
#
# Velocity S-wave (km/s) = 3.25828 3.81023 3.54501
# Velocity P-wave (km/s) = 6.16543 6.67908 6.42739
#
# Compressibility (1/GPa) = 0.02016510
#
# Stress axis : x y z
#
# Youngs Moduli (GPa) = 64.08296 62.46379 95.40079
#
# Poissons Ratio (x) = 0.33969 0.48932
# Poissons Ratio (y) = 0.34849 0.03799
# Poissons Ratio (z) = 0.32869 0.02488
#
# Static dielectric constant tensor:
#      x y z
#    x 3.770800 0.000000 0.000000 
#    y 0.000000 3.633320 0.000000 
#    z 0.000000 0.000000 3.955710 
# 
# 
# High freq. dielectric constant tensor:
#      x y z
#    x 1.820020 0.000000 0.000000 
#    y 0.000000 1.810510 0.000000 
#    z 0.000000 0.000000 1.832480 
# 
# From -- ./inp_files/3213.got.cif
#   From: 2010.03.12/outbox.cif.g09.slc.cpg/sg39_2_cif.got.tgz:3213.got - 2010.04.14 02:53:20.
