data_PCOD8182983
_publ_section_title
;
Structure prediction by ZEFSAII (Michael W. Deem and Ramdas Pophale) SiO2 
 PCOD8182983
Probable space group: A M A 2
;
_chemical_formula_sum "Si O2"
_cell_formula_units_Z 64
_cell_length_a 8.770469
_cell_length_b 28.334060
_cell_length_c 14.528410
_cell_angle_alpha 90.000000
_cell_angle_beta 90.000000
_cell_angle_gamma 90.000000
_cell_volume 3610.353396
_symmetry_space_group_name_H-M "A M A 2"
_symmetry_group_IT_number 40
_symmetry_cell_setting 'orthorhombic'
loop_
_space_group_symop_operation_xyz
x,y,z
-x,-y,z
1/2-x,y,z
1/2+x,-y,z
x,1/2+y,1/2+z
-x,1/2-y,1/2+z
1/2-x,1/2+y,1/2+z
1/2+x,1/2-y,1/2+z
loop_
_atom_site_type_symbol
_atom_site_label
_atom_site_fract_x
_atom_site_fract_y
_atom_site_fract_z
Si Si1 0.572457 0.776655 0.576710
Si Si2 0.573158 0.276472 0.864883
Si Si3 0.928659 0.868568 0.255437
Si Si4 0.567991 0.949825 0.563985
Si Si5 0.570004 0.321329 0.369548
Si Si6 0.430852 0.949798 0.368865
Si Si7 0.428316 0.179319 0.073171
Si Si8 0.930805 0.365178 0.187723
O O1 0.750000 0.771060 0.595767
O O2 0.537018 0.787443 0.470685
O O3 0.495835 0.728312 0.609945
O O4 0.501936 0.820199 0.633388
O O5 0.750000 0.266856 0.847228
O O6 0.516523 0.321309 0.807066
O O7 0.484433 0.229648 0.833778
O O8 0.750000 0.878084 0.273705
O O9 0.964316 0.861958 0.146536
O O10 0.026756 0.912514 0.290137
O O11 0.750000 0.952644 0.557149
O O12 0.503094 0.933204 0.465572
O O13 0.509479 0.913408 0.641911
O O14 0.500000 0.000000 0.592774
O O15 0.750000 0.319846 0.373283
O O16 0.504044 0.333678 0.471559
O O17 0.517626 0.360903 0.294964
O O18 0.250000 0.954241 0.378949
O O19 0.500000 0.000000 0.339275
O O20 0.250000 0.187405 0.065380
O O21 0.750000 0.364411 0.178108
#
# Coordination Sequence:
#
# PCOD8182983 Si02
#       8
#     8   8   8   8   8   8   8   8
#     4   9  16  27  43  64  91 125 162 196 234 282
#     4   9  17  28  43  65  95 129 162 198 241 283
#     4  10  19  32  49  69  96 130 164 195 235 284
#     4  10  19  34  53  73  98 125 153 188 236 289
#     4   9  17  30  46  67  95 128 167 203 235 274
#     4  11  22  36  54  76  99 122 150 188 236 285
#     4   9  18  30  45  67  96 128 161 200 238 270
#     4   9  17  29  48  69  92 127 163 194 233 283
#
# _framework density 17.726796
#
# number of rings (size 3 to 8) (size 9 to 14) (size 15 to 20)
#    0.000    2.500    0.000    3.750    0.000    3.000 
#    0.000    5.000    0.000    0.750    0.000    1.750 
#    0.000    0.000    0.000    0.000    0.000    0.000 
#
# Total GULP energy -396701.709156 kJ/mol
# GULP energy per Si atom -12396.928411 kJ/mol
# Density = 1.768645 g / cm^3
# Si number density = 17.726796 Si / 1000 Ang^3
#
#
#
# Elastic Constant Matrix: (Units=GPa)
#
#
# Indices 1 2 3 4 5 6 
#
# 1 48.5214 33.0008 31.6499 0.0000 0.0000 0.0000
# 2 33.0008 111.0518 79.9055 0.0000 0.0000 0.0000
# 3 31.6499 79.9055 109.3497 0.0000 0.0000 0.0000
# 4 0.0000 0.0000 0.0000 32.4189 0.0000 0.0000
# 5 0.0000 0.0000 0.0000 0.0000 13.1112 0.0000
# 6 0.0000 0.0000 0.0000 0.0000 0.0000 27.4028
#
#
#
# Elastic Compliance Matrix: (Units=1/GPa)
#
#
# Indices 1 2 3 4 5 6 
#
# 1 0.026660 -0.004998 -0.004064 0.000000 0.000000 0.000000
# 2 -0.004998 0.019926 -0.013114 0.000000 0.000000 0.000000
# 3 -0.004064 -0.013114 0.019904 0.000000 0.000000 0.000000
# 4 0.000000 0.000000 0.000000 0.030846 0.000000 0.000000
# 5 0.000000 0.000000 0.000000 0.000000 0.076271 0.000000
# 6 0.000000 0.000000 0.000000 0.000000 0.000000 0.036493
#
#
# Mechanical properties :
#
#
# Convention : Reuss Voigt Hill
#
# Bulk Modulus (GPa) = 45.17209 62.00392 53.58801
# Shear Modulus (GPa) = 19.09628 22.87769 20.98698
#
# Velocity S-wave (km/s) = 3.28572 3.59635 3.44454
# Velocity P-wave (km/s) = 6.31920 7.23176 6.79083
#
# Compressibility (1/GPa) = 0.02213756
#
# Stress axis : x y z
#
# Youngs Moduli (GPa) = 37.50976 50.18553 50.24096
#
# Poissons Ratio (x) = 0.25084 0.20418
# Poissons Ratio (y) = 0.18748 0.65886
# Poissons Ratio (z) = 0.15244 0.65813
#
# Static dielectric constant tensor:
#      x y z
#    x 3.121490 0.000000 0.000000 
#    y 0.000000 3.297400 0.000000 
#    z 0.000000 0.000000 3.666080 
# 
# 
# High freq. dielectric constant tensor:
#      x y z
#    x 1.670340 0.000000 0.000000 
#    y 0.000000 1.666170 0.000000 
#    z 0.000000 0.000000 1.691250 
# 
# From -- ./inp_files/15908.got.cif
#   From: 2010.03.12/outbox.cif.g09.slc.cpg/sg40_8_cif.got.tgz:15908.got - 2010.04.14 01:38:03.
