data_PCOD8182434
_publ_section_title
;
Structure prediction by ZEFSAII (Michael W. Deem and Ramdas Pophale) SiO2 
 PCOD8182434
Probable space group: A M A 2
;
_chemical_formula_sum "Si O2"
_cell_formula_units_Z 64
_cell_length_a 8.969019
_cell_length_b 26.510432
_cell_length_c 18.562817
_cell_angle_alpha 90.000000
_cell_angle_beta 90.000000
_cell_angle_gamma 90.000000
_cell_volume 4413.728673
_symmetry_space_group_name_H-M "A M A 2"
_symmetry_group_IT_number 40
_symmetry_cell_setting 'orthorhombic'
loop_
_space_group_symop_operation_xyz
x,y,z
-x,-y,z
1/2-x,y,z
1/2+x,-y,z
x,1/2+y,1/2+z
-x,1/2-y,1/2+z
1/2-x,1/2+y,1/2+z
1/2+x,1/2-y,1/2+z
loop_
_atom_site_type_symbol
_atom_site_label
_atom_site_fract_x
_atom_site_fract_y
_atom_site_fract_z
Si Si1 0.426220 0.742153 0.209940
Si Si2 0.925244 0.948641 0.871267
Si Si3 0.573537 0.351487 0.455004
Si Si4 0.925348 0.448243 0.206013
Si Si5 0.419621 0.291314 0.009569
Si Si6 0.421850 0.354040 0.139646
Si Si7 0.421428 0.800406 0.075743
Si Si8 0.577797 0.254466 0.369061
O O1 0.250000 0.729428 0.207439
O O2 0.515370 0.693320 0.183558
O O3 0.458775 0.791806 0.160624
O O4 0.489451 0.755294 0.289809
O O5 0.750000 0.955038 0.879382
O O6 0.987016 0.903269 0.920611
O O7 0.968892 0.936801 0.788733
O O8 0.000000 0.000000 0.898553
O O9 0.750000 0.351966 0.457300
O O10 0.514338 0.345160 0.537209
O O11 0.511963 0.305036 0.406514
O O12 0.750000 0.452955 0.195566
O O13 0.000000 0.500000 0.179909
O O14 0.985345 0.403724 0.156193
O O15 0.250000 0.270305 0.021841
O O16 0.437507 0.343747 0.052962
O O17 0.540318 0.252887 0.039898
O O18 0.447812 0.293821 0.922712
O O19 0.250000 0.362252 0.161262
O O20 0.250000 0.813486 0.063724
O O21 0.750000 0.264730 0.355774
#
# Coordination Sequence:
#
# PCOD8182434 Si02
#       8
#     8   8   8   8   8   8   8   8
#     4   9  16  26  40  57  78 104 133 163 194 227
#     4   9  18  30  43  58  76 101 132 164 195 226
#     4   9  16  27  41  54  73 104 134 155 186 231
#     4  10  19  31  44  58  78 102 130 163 195 226
#     4   8  15  27  40  53  73 102 132 159 187 225
#     4  10  18  27  40  58  79 104 133 161 193 231
#     4   9  16  24  36  56  78  99 126 161 195 224
#     4   8  13  24  41  56  72 100 135 162 184 220
#
# _framework density 14.500211999999999
#
# number of rings (size 3 to 8) (size 9 to 14) (size 15 to 20)
#    0.000    3.000    0.000    2.625    0.000    4.000 
#    0.000    5.000    0.000    0.000    0.000    0.000 
#    0.000    1.000    0.000    4.250    0.000    2.750 
#
# Total GULP energy -396449.000560 kJ/mol
# GULP energy per Si atom -12389.031267 kJ/mol
# Density = 1.446721 g / cm^3
# Si number density = 14.500212 Si / 1000 Ang^3
#
#
#
# Elastic Constant Matrix: (Units=GPa)
#
#
# Indices 1 2 3 4 5 6 
#
# 1 37.4407 27.2636 28.3352 0.0000 0.0000 0.0000
# 2 27.2636 85.8257 57.2329 0.0000 0.0000 0.0000
# 3 28.3352 57.2329 112.2519 0.0000 0.0000 0.0000
# 4 0.0000 0.0000 0.0000 24.7618 0.0000 0.0000
# 5 0.0000 0.0000 0.0000 0.0000 17.0390 0.0000
# 6 0.0000 0.0000 0.0000 0.0000 0.0000 21.7063
#
#
#
# Elastic Compliance Matrix: (Units=1/GPa)
#
#
# Indices 1 2 3 4 5 6 
#
# 1 0.036512 -0.008261 -0.005004 0.000000 0.000000 0.000000
# 2 -0.008261 0.019523 -0.007869 0.000000 0.000000 0.000000
# 3 -0.005004 -0.007869 0.014184 0.000000 0.000000 0.000000
# 4 0.000000 0.000000 0.000000 0.040385 0.000000 0.000000
# 5 0.000000 0.000000 0.000000 0.000000 0.058689 0.000000
# 6 0.000000 0.000000 0.000000 0.000000 0.000000 0.046070
#
#
# Mechanical properties :
#
#
# Convention : Reuss Voigt Hill
#
# Bulk Modulus (GPa) = 35.77827 51.24242 43.51034
# Shear Modulus (GPa) = 18.73029 20.88054 19.80542
#
# Velocity S-wave (km/s) = 3.59796 3.79887 3.69978
# Velocity P-wave (km/s) = 6.47984 7.39308 6.95147
#
# Compressibility (1/GPa) = 0.02794993
#
# Stress axis : x y z
#
# Youngs Moduli (GPa) = 27.38831 51.22146 70.50332
#
# Poissons Ratio (x) = 0.42315 0.35283
# Poissons Ratio (y) = 0.22626 0.55477
# Poissons Ratio (z) = 0.13706 0.40305
#
# Static dielectric constant tensor:
#      x y z
#    x 2.780780 0.000000 0.000000 
#    y 0.000000 2.697120 0.000000 
#    z 0.000000 0.000000 3.151760 
# 
# 
# High freq. dielectric constant tensor:
#      x y z
#    x 1.552440 0.000000 0.000000 
#    y 0.000000 1.517780 0.000000 
#    z 0.000000 0.000000 1.548380 
# 
# From -- ./inp_files/19757.got.cif
#   From: 2010.03.12/outbox.cif.g09.slc.cpg/sg40_10_cif.got.tgz:19757.got - 2010.04.14 01:38:03.
