data_PCOD8182303
_publ_section_title
;
Structure prediction by ZEFSAII (Michael W. Deem and Ramdas Pophale) SiO2 
 PCOD8182303
Probable space group: A B M 2
;
_chemical_formula_sum "Si O2"
_cell_formula_units_Z 40
_cell_length_a 10.649607
_cell_length_b 19.152677
_cell_length_c 7.839903
_cell_angle_alpha 90.000000
_cell_angle_beta 90.000000
_cell_angle_gamma 90.000000
_cell_volume 1599.093122
_symmetry_space_group_name_H-M "A B M 2"
_symmetry_group_IT_number 39
_symmetry_cell_setting 'orthorhombic'
loop_
_space_group_symop_operation_xyz
x,y,z
-x,-y,z
-x,1/2+y,z
x,1/2-y,z
x,1/2+y,1/2+z
-x,1/2-y,1/2+z
-x,y,1/2+z
x,-y,1/2+z
loop_
_atom_site_type_symbol
_atom_site_label
_atom_site_fract_x
_atom_site_fract_y
_atom_site_fract_z
Si Si1 0.854642 0.988650 0.288480
Si Si2 0.250681 0.600156 0.481495
Si Si3 0.147663 0.250000 0.933160
Si Si4 0.701727 0.617650 0.473933
Si Si5 0.141111 0.250000 0.534586
Si Si6 0.481681 0.580408 0.682482
O O1 0.792194 0.949717 0.454310
O O2 0.791958 0.066798 0.297938
O O3 0.828579 0.941957 0.124616
O O4 0.000000 0.000000 0.319574
O O5 0.217350 0.681336 0.502299
O O6 0.399645 0.585937 0.505278
O O7 0.157795 0.250000 0.733390
O O8 0.003919 0.250000 0.988041
O O9 0.790347 0.683732 0.455879
O O10 0.617639 0.615808 0.647785
O O11 0.601153 0.621091 0.319872
O O12 0.500000 0.500000 0.733857
#
# Coordination Sequence:
#
# PCOD8182303 Si02
#       6
#     8   8   4   8   4   8
#     4  11  24  44  76 114 154 203 284 325 398 472
#     4  11  27  45  79 112 158 216 261 337 401 473
#     4  12  32  53  79 110 170 211 270 342 414 487
#     4  11  27  46  78 113 159 209 266 329 413 475
#     4  12  32  53  77 110 164 215 276 330 424 491
#     4  11  24  46  77 115 160 199 272 332 402 476
#
# _framework density 25.014175999999999
#
# number of rings (size 3 to 8) (size 9 to 14) (size 15 to 20)
#    0.000    0.800    2.000    2.400   16.800    1.600 
#    0.000    0.000    0.000    0.000    0.000    0.000 
#    0.000    0.000    0.000    0.000    0.000    0.000 
#
# Total GULP energy -247981.534816 kJ/mol
# GULP energy per Si atom -12399.076741 kJ/mol
# Density = 2.495724 g / cm^3
# Si number density = 25.014176 Si / 1000 Ang^3
#
#
#
# Elastic Constant Matrix: (Units=GPa)
#
#
# Indices 1 2 3 4 5 6 
#
# 1 177.7526 57.7154 12.9891 0.0000 0.0000 0.0000
# 2 57.7154 172.6700 22.8603 0.0000 0.0000 0.0000
# 3 12.9891 22.8603 45.1124 0.0000 0.0000 0.0000
# 4 0.0000 0.0000 0.0000 31.1052 0.0000 0.0000
# 5 0.0000 0.0000 0.0000 0.0000 46.5364 0.0000
# 6 0.0000 0.0000 0.0000 0.0000 0.0000 43.1793
#
#
#
# Elastic Compliance Matrix: (Units=1/GPa)
#
#
# Indices 1 2 3 4 5 6 
#
# 1 0.006338 -0.002012 -0.000805 0.000000 0.000000 0.000000
# 2 -0.002012 0.006846 -0.002890 0.000000 0.000000 0.000000
# 3 -0.000805 -0.002890 0.023863 0.000000 0.000000 0.000000
# 4 0.000000 0.000000 0.000000 0.032149 0.000000 0.000000
# 5 0.000000 0.000000 0.000000 0.000000 0.021489 0.000000
# 6 0.000000 0.000000 0.000000 0.000000 0.000000 0.023159
#
#
# Mechanical properties :
#
#
# Convention : Reuss Voigt Hill
#
# Bulk Modulus (GPa) = 39.01223 64.74052 51.87638
# Shear Modulus (GPa) = 37.36826 44.29552 40.83189
#
# Velocity S-wave (km/s) = 3.86927 4.21267 4.04462
# Velocity P-wave (km/s) = 5.96587 7.04272 6.52654
#
# Compressibility (1/GPa) = 0.02563298
#
# Stress axis : x y z
#
# Youngs Moduli (GPa) = 157.78147 146.06032 41.90536
#
# Poissons Ratio (x) = 0.29385 0.03375
# Poissons Ratio (y) = 0.31743 0.12111
# Poissons Ratio (z) = 0.12707 0.42213
#
# Static dielectric constant tensor:
#      x y z
#    x 4.784910 0.000000 0.000000 
#    y 0.000000 4.635340 0.000000 
#    z 0.000000 0.000000 4.830240 
# 
# 
# High freq. dielectric constant tensor:
#      x y z
#    x 2.021920 0.000000 0.000000 
#    y 0.000000 1.980840 0.000000 
#    z 0.000000 0.000000 2.022050 
# 
# From -- ./inp_files/2564.got.cif
#   From: 2010.03.12/outbox.cif.g09.slc.cpg/sg39_2_cif.got.tgz:2564.got - 2010.04.14 02:53:20.
