data_PCOD8182097
_publ_section_title
;
Structure prediction by ZEFSAII (Michael W. Deem and Ramdas Pophale) SiO2 
 PCOD8182097
Probable space group: A B M 2
;
_chemical_formula_sum "Si O2"
_cell_formula_units_Z 64
_cell_length_a 22.455863
_cell_length_b 14.432377
_cell_length_c 9.338974
_cell_angle_alpha 90.000000
_cell_angle_beta 90.000000
_cell_angle_gamma 90.000000
_cell_volume 3026.681912
_symmetry_space_group_name_H-M "A B M 2"
_symmetry_group_IT_number 39
_symmetry_cell_setting 'orthorhombic'
loop_
_space_group_symop_operation_xyz
x,y,z
-x,-y,z
-x,1/2+y,z
x,1/2-y,z
x,1/2+y,1/2+z
-x,1/2-y,1/2+z
-x,y,1/2+z
x,-y,1/2+z
loop_
_atom_site_type_symbol
_atom_site_label
_atom_site_fract_x
_atom_site_fract_y
_atom_site_fract_z
Si Si1 0.172913 0.357514 0.048830
Si Si2 0.732941 0.990300 0.604323
Si Si3 0.054494 0.360505 0.544771
Si Si4 0.831478 0.642410 0.718329
Si Si5 0.567887 0.142360 0.455398
Si Si6 0.547991 0.642602 0.283169
Si Si7 0.650762 0.012498 0.857316
Si Si8 0.057750 0.360194 0.220885
O O1 0.187340 0.250000 0.076539
O O2 0.231069 0.414140 0.092317
O O3 0.118754 0.392992 0.147259
O O4 0.154603 0.375189 0.884676
O O5 0.772054 0.909080 0.671010
O O6 0.673424 0.006056 0.695674
O O7 0.708544 0.958372 0.450054
O O8 0.052904 0.250000 0.545003
O O9 0.113210 0.396434 0.626463
O O10 0.054874 0.399043 0.382688
O O11 0.997230 0.400317 0.628751
O O12 0.820938 0.750000 0.686740
O O13 0.584238 0.250000 0.440477
O O14 0.515425 0.112788 0.347463
O O15 0.547094 0.118163 0.615747
O O16 0.626704 0.086507 0.411732
O O17 0.560232 0.750000 0.312150
O O18 0.599302 0.588701 0.368072
O O19 0.054285 0.250000 0.222144
#
# Coordination Sequence:
#
# PCOD8182097 Si02
#       8
#     8   8   8   8   8   8   8   8
#     4  10  22  41  63  85 120 165 204 252 312 367
#     4  12  26  42  61  91 124 164 214 252 296 361
#     4   9  17  31  56  88 119 153 200 254 311 372
#     4  10  22  41  62  86 121 162 204 256 311 364
#     4  10  23  43  68  96 128 162 201 249 305 362
#     4  10  23  43  67  97 128 161 201 250 305 360
#     4  12  25  42  65  91 125 167 206 253 298 357
#     4   9  17  31  56  88 118 154 200 252 312 373
#
# _framework density 21.145268000000002
#
# number of rings (size 3 to 8) (size 9 to 14) (size 15 to 20)
#    0.000    1.750    2.500    1.125    3.500    6.000 
#    0.000    0.625    0.000    3.000    0.000    0.000 
#    0.000    0.000    0.000    0.000    0.000    0.000 
#
# Total GULP energy -396970.573316 kJ/mol
# GULP energy per Si atom -12405.330416 kJ/mol
# Density = 2.109714 g / cm^3
# Si number density = 21.145268 Si / 1000 Ang^3
#
#
#
# Elastic Constant Matrix: (Units=GPa)
#
#
# Indices 1 2 3 4 5 6 
#
# 1 111.5932 36.9025 59.5012 0.0000 0.0000 0.0000
# 2 36.9025 54.1408 42.1403 0.0000 0.0000 0.0000
# 3 59.5012 42.1403 134.4500 0.0000 0.0000 0.0000
# 4 0.0000 0.0000 0.0000 23.7487 0.0000 0.0000
# 5 0.0000 0.0000 0.0000 0.0000 54.5848 0.0000
# 6 0.0000 0.0000 0.0000 0.0000 0.0000 -5.7578
#
#
#
# Elastic Compliance Matrix: (Units=1/GPa)
#
#
# Indices 1 2 3 4 5 6 
#
# 1 0.012967 -0.005782 -0.003926 0.000000 0.000000 0.000000
# 2 -0.005782 0.027009 -0.005906 0.000000 0.000000 0.000000
# 3 -0.003926 -0.005906 0.011026 0.000000 0.000000 0.000000
# 4 0.000000 0.000000 0.000000 0.042108 0.000000 0.000000
# 5 0.000000 0.000000 0.000000 0.000000 0.018320 0.000000
# 6 0.000000 0.000000 0.000000 0.000000 0.000000 -0.173677
#
#
# Mechanical properties :
#
#
# Convention : Reuss Voigt Hill
#
# Bulk Modulus (GPa) = 50.57547 64.14135 57.35841
# Shear Modulus (GPa) = -204.68444 25.29115 -89.69665
#
# Velocity S-wave (km/s) = -9.84933 3.46217 -6.52007
# Velocity P-wave (km/s) = 10.26527 6.81041 5.43112
#
# Compressibility (1/GPa) = 0.01977243
#
# Stress axis : x y z
#
# Youngs Moduli (GPa) = 77.12117 37.02510 90.69120
#
# Poissons Ratio (x) = 0.21409 0.35606
# Poissons Ratio (y) = 0.44593 0.53565
# Poissons Ratio (z) = 0.30279 0.21868
#
# Static dielectric constant tensor:
#      x y z
#    x 3.769830 0.000000 0.000000 
#    y 0.000000 3.590130 0.000000 
#    z 0.000000 0.000000 3.997290 
# 
# 
# High freq. dielectric constant tensor:
#      x y z
#    x 1.832290 0.000000 0.000000 
#    y 0.000000 1.819820 0.000000 
#    z 0.000000 0.000000 1.842010 
# 
# From -- ./inp_files/4086.got.cif
#   From: 2010.03.12/outbox.cif.g09.slc.cpg/sg39_3_cif.got.tgz:4086.got - 2010.04.14 02:53:20.
