data_PCOD8182977
_publ_section_title
;
Structure prediction by ZEFSAII (Michael W. Deem and Ramdas Pophale) SiO2 
 PCOD8182977
Probable space group: A M A 2
;
_chemical_formula_sum "Si O2"
_cell_formula_units_Z 52
_cell_length_a 9.501402
_cell_length_b 14.596281
_cell_length_c 19.064612
_cell_angle_alpha 90.000000
_cell_angle_beta 90.000000
_cell_angle_gamma 90.000000
_cell_volume 2643.978260
_symmetry_space_group_name_H-M "A M A 2"
_symmetry_group_IT_number 40
_symmetry_cell_setting 'orthorhombic'
loop_
_space_group_symop_operation_xyz
x,y,z
-x,-y,z
1/2-x,y,z
1/2+x,-y,z
x,1/2+y,1/2+z
-x,1/2-y,1/2+z
1/2-x,1/2+y,1/2+z
1/2+x,1/2-y,1/2+z
loop_
_atom_site_type_symbol
_atom_site_label
_atom_site_fract_x
_atom_site_fract_y
_atom_site_fract_z
Si Si1 0.000000 0.500000 0.271920
Si Si2 0.087676 0.415698 0.000882
Si Si3 0.100880 0.377948 0.156359
Si Si4 0.916533 0.230275 0.980750
Si Si5 0.911991 0.090105 0.105115
Si Si6 0.910385 0.826528 0.852578
Si Si7 0.912414 0.230570 0.214466
O O1 0.891391 0.551265 0.220815
O O2 0.915663 0.427321 0.318913
O O3 0.250000 0.413160 0.972662
O O4 0.085285 0.432435 0.084018
O O5 0.000000 0.500000 0.966349
O O6 0.007035 0.322530 0.982627
O O7 0.250000 0.324466 0.156556
O O8 0.978904 0.304648 0.162849
O O9 0.750000 0.250705 0.972525
O O10 0.974879 0.175204 0.913794
O O11 0.947378 0.168330 0.048499
O O12 0.750000 0.061251 0.100001
O O13 0.948709 0.129824 0.183278
O O14 0.000000 0.000000 0.089501
O O15 0.750000 0.809404 0.878969
O O16 0.955152 0.747498 0.795534
O O17 0.750000 0.250669 0.205337
#
# Coordination Sequence:
#
# PCOD8182977 Si02
#       7
#     4   8   8   8   8   8   8
#     4  10  20  36  56  90 124 156 196 240 300 368
#     4  11  22  37  61  92 122 156 199 248 303 364
#     4  10  19  31  54  87 118 148 186 239 294 351
#     4  11  24  42  61  86 125 165 203 251 303 364
#     4  10  22  39  61  88 117 157 204 252 301 354
#     4  10  22  38  60  85 119 162 199 246 304 365
#     4   9  19  38  59  81 113 152 194 244 300 353
#
# _framework density 19.667334
#
# number of rings (size 3 to 8) (size 9 to 14) (size 15 to 20)
#    0.000    1.846    2.308    1.385    1.077    6.154 
#    0.000    0.769    0.000    1.846    0.000    0.000 
#    0.000    0.000    0.000    0.000    0.000    0.000 
#
# Total GULP energy -322214.590932 kJ/mol
# GULP energy per Si atom -12392.868882 kJ/mol
# Density = 1.962257 g / cm^3
# Si number density = 19.667334 Si / 1000 Ang^3
#
#
#
# Elastic Constant Matrix: (Units=GPa)
#
#
# Indices 1 2 3 4 5 6 
#
# 1 94.2349 44.0130 32.0834 0.0000 0.0000 0.0000
# 2 44.0130 104.9220 24.3096 0.0000 0.0000 0.0000
# 3 32.0834 24.3096 67.9647 0.0000 0.0000 0.0000
# 4 0.0000 0.0000 0.0000 16.9293 0.0000 0.0000
# 5 0.0000 0.0000 0.0000 0.0000 23.7768 0.0000
# 6 0.0000 0.0000 0.0000 0.0000 0.0000 34.5224
#
#
#
# Elastic Compliance Matrix: (Units=1/GPa)
#
#
# Indices 1 2 3 4 5 6 
#
# 1 0.014687 -0.004966 -0.005157 0.000000 0.000000 0.000000
# 2 -0.004966 0.012071 -0.001973 0.000000 0.000000 0.000000
# 3 -0.005157 -0.001973 0.017854 0.000000 0.000000 0.000000
# 4 0.000000 0.000000 0.000000 0.059069 0.000000 0.000000
# 5 0.000000 0.000000 0.000000 0.000000 0.042058 0.000000
# 6 0.000000 0.000000 0.000000 0.000000 0.000000 0.028967
#
#
# Mechanical properties :
#
#
# Convention : Reuss Voigt Hill
#
# Bulk Modulus (GPa) = 48.97326 51.99262 50.48294
# Shear Modulus (GPa) = 24.30668 26.16007 25.23337
#
# Velocity S-wave (km/s) = 3.51934 3.65105 3.58580
# Velocity P-wave (km/s) = 6.43966 6.65334 6.54737
#
# Compressibility (1/GPa) = 0.02041931
#
# Stress axis : x y z
#
# Youngs Moduli (GPa) = 68.08766 82.84111 56.01089
#
# Poissons Ratio (x) = 0.41140 0.28884
# Poissons Ratio (y) = 0.33813 0.11053
# Poissons Ratio (z) = 0.35112 0.16347
#
# Static dielectric constant tensor:
#      x y z
#    x 3.665370 0.000000 0.000000 
#    y 0.000000 3.496600 0.000000 
#    z 0.000000 0.000000 3.664220 
# 
# 
# High freq. dielectric constant tensor:
#      x y z
#    x 1.775390 0.000000 0.000000 
#    y 0.000000 1.754350 0.000000 
#    z 0.000000 0.000000 1.754130 
# 
# From -- ./inp_files/22103.got.cif
#   From: 2010.03.12/outbox.cif.g09.slc.cpg/sg40_12_cif.got.tgz:22103.got - 2010.04.14 01:38:03.
