data_PCOD8182139
_publ_section_title
;
Structure prediction by ZEFSAII (Michael W. Deem and Ramdas Pophale) SiO2 
 PCOD8182139
Probable space group: A B M 2
;
_chemical_formula_sum "Si O2"
_cell_formula_units_Z 64
_cell_length_a 16.303231
_cell_length_b 14.357292
_cell_length_c 12.102848
_cell_angle_alpha 90.000000
_cell_angle_beta 90.000000
_cell_angle_gamma 90.000000
_cell_volume 2832.916633
_symmetry_space_group_name_H-M "A B M 2"
_symmetry_group_IT_number 39
_symmetry_cell_setting 'orthorhombic'
loop_
_space_group_symop_operation_xyz
x,y,z
-x,-y,z
-x,1/2+y,z
x,1/2-y,z
x,1/2+y,1/2+z
-x,1/2-y,1/2+z
-x,y,1/2+z
x,-y,1/2+z
loop_
_atom_site_type_symbol
_atom_site_label
_atom_site_fract_x
_atom_site_fract_y
_atom_site_fract_z
Si Si1 0.968507 0.895714 0.378790
Si Si2 0.180229 0.141638 0.545006
Si Si3 0.635581 0.857052 0.467324
Si Si4 0.217717 0.535161 0.255141
Si Si5 0.509851 0.358453 0.168331
Si Si6 0.395373 0.514652 0.760603
Si Si7 0.140232 0.851419 0.446046
Si Si8 0.143653 0.354340 0.196432
O O1 0.890513 0.887110 0.459640
O O2 0.944896 0.860132 0.255930
O O3 0.045289 0.835074 0.416051
O O4 0.000000 0.000000 0.372251
O O5 0.172237 0.250000 0.572815
O O6 0.271650 0.119099 0.502376
O O7 0.166018 0.086522 0.659655
O O8 0.630315 0.750000 0.425846
O O9 0.568720 0.871715 0.564118
O O10 0.610869 0.929630 0.374151
O O11 0.313239 0.541810 0.230760
O O12 0.191205 0.576998 0.372643
O O13 0.201174 0.424768 0.263178
O O14 0.501574 0.250000 0.202006
O O15 0.543910 0.424237 0.269190
O O16 0.420146 0.410279 0.161301
O O17 0.182894 0.750000 0.437697
O O18 0.140573 0.889100 0.570869
O O19 0.179459 0.250000 0.206621
#
# Coordination Sequence:
#
# PCOD8182139 Si02
#       8
#     8   8   8   8   8   8   8   8
#     4  12  24  44  70 103 140 192 247 304 360 434
#     4  11  24  44  75 106 144 194 246 300 364 444
#     4  10  22  44  72 105 143 188 238 288 359 440
#     4  12  25  44  72 102 142 187 249 299 364 440
#     4  10  23  45  69 103 142 183 233 286 353 435
#     4  11  24  40  72 106 141 184 232 298 355 426
#     4  11  26  45  67  99 140 186 239 305 368 425
#     4  11  26  46  66  97 141 185 240 306 367 428
#
# _framework density 22.591557999999999
#
# number of rings (size 3 to 8) (size 9 to 14) (size 15 to 20)
#    0.000    1.000    2.500    3.375    3.500    5.000 
#    0.000    0.000    0.000    2.250    0.000    0.000 
#    0.000    0.000    0.000    0.000    0.000    0.000 
#
# Total GULP energy -396503.099071 kJ/mol
# GULP energy per Si atom -12390.721846 kJ/mol
# Density = 2.254014 g / cm^3
# Si number density = 22.591558 Si / 1000 Ang^3
#
#
#
# Elastic Constant Matrix: (Units=GPa)
#
#
# Indices 1 2 3 4 5 6 
#
# 1 95.7137 39.7510 37.8539 0.0000 0.0000 0.0000
# 2 39.7510 143.6910 75.6613 0.0000 0.0000 0.0000
# 3 37.8539 75.6613 91.7432 0.0000 0.0000 0.0000
# 4 0.0000 0.0000 0.0000 39.6973 0.0000 0.0000
# 5 0.0000 0.0000 0.0000 0.0000 30.9823 0.0000
# 6 0.0000 0.0000 0.0000 0.0000 0.0000 30.7555
#
#
#
# Elastic Compliance Matrix: (Units=1/GPa)
#
#
# Indices 1 2 3 4 5 6 
#
# 1 0.012626 -0.001325 -0.004117 0.000000 0.000000 0.000000
# 2 -0.001325 0.012440 -0.009713 0.000000 0.000000 0.000000
# 3 -0.004117 -0.009713 0.020609 0.000000 0.000000 0.000000
# 4 0.000000 0.000000 0.000000 0.025191 0.000000 0.000000
# 5 0.000000 0.000000 0.000000 0.000000 0.032276 0.000000
# 6 0.000000 0.000000 0.000000 0.000000 0.000000 0.032515
#
#
# Mechanical properties :
#
#
# Convention : Reuss Voigt Hill
#
# Bulk Modulus (GPa) = 65.07955 70.85337 67.96646
# Shear Modulus (GPa) = 29.22458 32.14579 30.68519
#
# Velocity S-wave (km/s) = 3.60058 3.77624 3.68945
# Velocity P-wave (km/s) = 6.79375 7.10241 6.94979
#
# Compressibility (1/GPa) = 0.01536581
#
# Stress axis : x y z
#
# Youngs Moduli (GPa) = 79.19932 80.38364 48.52290
#
# Poissons Ratio (x) = 0.10653 0.19976
# Poissons Ratio (y) = 0.10496 0.47129
# Poissons Ratio (z) = 0.32605 0.78075
#
# Static dielectric constant tensor:
#      x y z
#    x 4.499150 0.000000 0.000000 
#    y 0.000000 4.365600 0.000000 
#    z 0.000000 0.000000 3.946690 
# 
# 
# High freq. dielectric constant tensor:
#      x y z
#    x 1.890700 0.000000 0.000000 
#    y 0.000000 1.915680 0.000000 
#    z 0.000000 0.000000 1.880610 
# 
# From -- ./inp_files/6877.got.cif
#   From: 2010.03.12/outbox.cif.g09.slc.cpg/sg39_4_cif.got.tgz:6877.got - 2010.04.14 02:53:20.
