data_PCOD8182654
_publ_section_title
;
Structure prediction by ZEFSAII (Michael W. Deem and Ramdas Pophale) SiO2 
 PCOD8182654
Probable space group: A M A 2
;
_chemical_formula_sum "Si O2"
_cell_formula_units_Z 48
_cell_length_a 17.516493
_cell_length_b 15.649048
_cell_length_c 9.418673
_cell_angle_alpha 90.000000
_cell_angle_beta 90.000000
_cell_angle_gamma 90.000000
_cell_volume 2581.813110
_symmetry_space_group_name_H-M "A M A 2"
_symmetry_group_IT_number 40
_symmetry_cell_setting 'orthorhombic'
loop_
_space_group_symop_operation_xyz
x,y,z
-x,-y,z
1/2-x,y,z
1/2+x,-y,z
x,1/2+y,1/2+z
-x,1/2-y,1/2+z
1/2-x,1/2+y,1/2+z
1/2+x,1/2-y,1/2+z
loop_
_atom_site_type_symbol
_atom_site_label
_atom_site_fract_x
_atom_site_fract_y
_atom_site_fract_z
Si Si1 0.410061 0.148301 0.928390
Si Si2 0.577973 0.164040 0.426937
Si Si3 0.338580 0.008068 0.750384
Si Si4 0.062941 0.844630 0.750598
Si Si5 0.429029 0.157556 0.254092
Si Si6 0.908585 0.484981 0.957743
O O1 0.376968 0.245818 0.913307
O O2 0.349603 0.079572 0.871696
O O3 0.488947 0.138729 0.844870
O O4 0.425035 0.127760 0.092276
O O5 0.538662 0.157017 0.584068
O O6 0.516842 0.160815 0.301390
O O7 0.629435 0.077564 0.414463
O O8 0.250000 0.991045 0.727114
O O9 0.377201 0.045494 0.608724
O O10 0.377205 0.918169 0.790931
O O11 0.103475 0.753075 0.782659
O O12 0.383455 0.087397 0.346138
O O13 0.000000 0.500000 0.961400
#
# Coordination Sequence:
#
# PCOD8182654 Si02
#       6
#     8   8   8   8   8   8
#     4  10  18  31  52  78 103 128 162 210 257 290
#     4   8  16  30  50  77 103 128 161 198 244 301
#     4  11  22  35  49  69  99 140 177 204 240 295
#     4   9  18  34  54  75 102 134 166 202 246 304
#     4   9  17  30  55  84 102 122 160 212 259 296
#     4   9  17  34  56  77  99 126 164 206 248 304
#
# _framework density 18.591584999999998
#
# number of rings (size 3 to 8) (size 9 to 14) (size 15 to 20)
#    0.000    2.667    0.000    3.500    0.000    5.333 
#    0.000    9.167    0.000    0.000    0.000    0.000 
#    0.000    0.000    0.000    0.000    0.000    0.000 
#
# Total GULP energy -297333.683491 kJ/mol
# GULP energy per Si atom -12388.903479 kJ/mol
# Density = 1.854927 g / cm^3
# Si number density = 18.591585 Si / 1000 Ang^3
#
#
#
# Elastic Constant Matrix: (Units=GPa)
#
#
# Indices 1 2 3 4 5 6 
#
# 1 45.7824 24.5164 15.5855 0.0000 0.0000 0.0000
# 2 24.5164 157.0989 60.7256 0.0000 0.0000 0.0000
# 3 15.5855 60.7256 94.3207 0.0000 0.0000 0.0000
# 4 0.0000 0.0000 0.0000 35.3270 0.0000 0.0000
# 5 0.0000 0.0000 0.0000 0.0000 5.9603 0.0000
# 6 0.0000 0.0000 0.0000 0.0000 0.0000 8.3130
#
#
#
# Elastic Compliance Matrix: (Units=1/GPa)
#
#
# Indices 1 2 3 4 5 6 
#
# 1 0.024137 -0.002962 -0.002081 0.000000 0.000000 0.000000
# 2 -0.002962 0.008838 -0.005201 0.000000 0.000000 0.000000
# 3 -0.002081 -0.005201 0.014294 0.000000 0.000000 0.000000
# 4 0.000000 0.000000 0.000000 0.028307 0.000000 0.000000
# 5 0.000000 0.000000 0.000000 0.000000 0.167777 0.000000
# 6 0.000000 0.000000 0.000000 0.000000 0.000000 0.120293
#
#
# Mechanical properties :
#
#
# Convention : Reuss Voigt Hill
#
# Bulk Modulus (GPa) = 37.33952 55.42857 46.38404
# Shear Modulus (GPa) = 12.72062 23.01168 17.86615
#
# Velocity S-wave (km/s) = 2.61859 3.52198 3.10333
# Velocity P-wave (km/s) = 5.41021 6.81305 6.15175
#
# Compressibility (1/GPa) = 0.02678128
#
# Stress axis : x y z
#
# Youngs Moduli (GPa) = 41.42969 113.14841 69.95817
#
# Poissons Ratio (x) = 0.33518 0.14560
# Poissons Ratio (y) = 0.12273 0.36382
# Poissons Ratio (z) = 0.08623 0.58844
#
# Static dielectric constant tensor:
#      x y z
#    x 2.738710 0.000000 0.000000 
#    y 0.000000 4.299780 0.000000 
#    z 0.000000 0.000000 3.477040 
# 
# 
# High freq. dielectric constant tensor:
#      x y z
#    x 1.645670 0.000000 0.000000 
#    y 0.000000 1.757030 0.000000 
#    z 0.000000 0.000000 1.724330 
# 
# From -- ./inp_files/7577.got.cif
#   From: 2010.03.12/outbox.cif.g09.slc.cpg/sg40_4_cif.got.tgz:7577.got - 2010.04.14 01:38:03.
