data_PCOD8182745
_publ_section_title
;
Structure prediction by ZEFSAII (Michael W. Deem and Ramdas Pophale) SiO2 
 PCOD8182745
Probable space group: A M A 2
;
_chemical_formula_sum "Si O2"
_cell_formula_units_Z 64
_cell_length_a 18.305539
_cell_length_b 16.195164
_cell_length_c 11.868264
_cell_angle_alpha 90.000000
_cell_angle_beta 90.000000
_cell_angle_gamma 90.000000
_cell_volume 3518.479861
_symmetry_space_group_name_H-M "A M A 2"
_symmetry_group_IT_number 40
_symmetry_cell_setting 'orthorhombic'
loop_
_space_group_symop_operation_xyz
x,y,z
-x,-y,z
1/2-x,y,z
1/2+x,-y,z
x,1/2+y,1/2+z
-x,1/2-y,1/2+z
1/2-x,1/2+y,1/2+z
1/2+x,1/2-y,1/2+z
loop_
_atom_site_type_symbol
_atom_site_label
_atom_site_fract_x
_atom_site_fract_y
_atom_site_fract_z
Si Si1 0.834961 0.729431 0.798140
Si Si2 0.164552 0.491967 0.342923
Si Si3 0.091609 0.723930 0.074484
Si Si4 0.585782 0.363883 0.444005
Si Si5 0.165050 0.884921 0.495022
Si Si6 0.424583 0.328285 0.364497
Si Si7 0.334192 0.552719 0.092597
Si Si8 0.929018 0.240320 0.627543
O O1 0.750000 0.742733 0.771155
O O2 0.878940 0.726199 0.682318
O O3 0.861180 0.805213 0.873250
O O4 0.849466 0.644098 0.866333
O O5 0.250000 0.485044 0.374247
O O6 0.121062 0.544827 0.438035
O O7 0.129815 0.401915 0.334022
O O8 0.152311 0.536784 0.224121
O O9 0.125863 0.635009 0.055764
O O10 0.005948 0.707772 0.082036
O O11 0.110729 0.780637 0.968630
O O12 0.504950 0.363958 0.390687
O O13 0.584372 0.331964 0.574337
O O14 0.250000 0.883961 0.524741
O O15 0.131129 0.822537 0.583880
O O16 0.134507 0.977132 0.516802
O O17 0.428370 0.261453 0.262863
O O18 0.250000 0.566453 0.066267
#
# Coordination Sequence:
#
# PCOD8182745 Si02
#       8
#     8   8   8   8   8   8   8   8
#     4  10  18  33  56  81 109 145 188 228 272 330
#     4  11  21  35  57  84 111 145 191 236 279 332
#     4  11  22  34  56  84 114 148 181 229 285 335
#     4  10  20  35  58  82 109 150 192 230 274 334
#     4   9  19  34  55  80 109 145 185 229 272 323
#     4  11  22  37  56  83 119 147 180 235 291 334
#     4  10  19  34  54  80 110 140 185 234 274 322
#     4  10  20  36  56  81 114 145 186 229 280 335
#
# _framework density 18.189674
#
# number of rings (size 3 to 8) (size 9 to 14) (size 15 to 20)
#    0.000    1.750    3.750    1.125    0.000    2.000 
#    0.000    1.250    0.000    1.500    0.000    0.000 
#    0.000    0.000    0.000    0.000    0.000    0.000 
#
# Total GULP energy -396771.589280 kJ/mol
# GULP energy per Si atom -12399.112165 kJ/mol
# Density = 1.814827 g / cm^3
# Si number density = 18.189674 Si / 1000 Ang^3
#
#
#
# Elastic Constant Matrix: (Units=GPa)
#
#
# Indices 1 2 3 4 5 6 
#
# 1 65.2757 32.0387 23.3607 0.0000 0.0000 0.0000
# 2 32.0387 72.2135 23.1208 0.0000 0.0000 0.0000
# 3 23.3607 23.1208 74.6508 0.0000 0.0000 0.0000
# 4 0.0000 0.0000 0.0000 29.4817 0.0000 0.0000
# 5 0.0000 0.0000 0.0000 0.0000 22.7242 0.0000
# 6 0.0000 0.0000 0.0000 0.0000 0.0000 30.1767
#
#
#
# Elastic Compliance Matrix: (Units=1/GPa)
#
#
# Indices 1 2 3 4 5 6 
#
# 1 0.020615 -0.007860 -0.004017 0.000000 0.000000 0.000000
# 2 -0.007860 0.018369 -0.003230 0.000000 0.000000 0.000000
# 3 -0.004017 -0.003230 0.015653 0.000000 0.000000 0.000000
# 4 0.000000 0.000000 0.000000 0.033919 0.000000 0.000000
# 5 0.000000 0.000000 0.000000 0.000000 0.044006 0.000000
# 6 0.000000 0.000000 0.000000 0.000000 0.000000 0.033138
#
#
# Mechanical properties :
#
#
# Convention : Reuss Voigt Hill
#
# Bulk Modulus (GPa) = 40.94292 41.02006 40.98149
# Shear Modulus (GPa) = 24.50321 25.38451 24.94386
#
# Velocity S-wave (km/s) = 3.67426 3.73975 3.70715
# Velocity P-wave (km/s) = 6.36852 6.42245 6.39554
#
# Compressibility (1/GPa) = 0.02442425
#
# Stress axis : x y z
#
# Youngs Moduli (GPa) = 48.50818 54.43909 63.88584
#
# Poissons Ratio (x) = 0.42790 0.25661
# Poissons Ratio (y) = 0.38128 0.20632
# Poissons Ratio (z) = 0.19484 0.17581
#
# Static dielectric constant tensor:
#      x y z
#    x 3.436470 0.000000 0.000000 
#    y 0.000000 3.397470 0.000000 
#    z 0.000000 0.000000 3.428630 
# 
# 
# High freq. dielectric constant tensor:
#      x y z
#    x 1.715900 0.000000 0.000000 
#    y 0.000000 1.695800 0.000000 
#    z 0.000000 0.000000 1.692770 
# 
# From -- ./inp_files/12465.got.cif
#   From: 2010.03.12/outbox.cif.g09.slc.cpg/sg40_7_cif.got.tgz:12465.got - 2010.04.14 01:38:03.
