data_PCOD8182349
_publ_section_title
;
Structure prediction by ZEFSAII (Michael W. Deem and Ramdas Pophale) SiO2 
 PCOD8182349
Probable space group: A M A 2
;
_chemical_formula_sum "Si O2"
_cell_formula_units_Z 64
_cell_length_a 8.952271
_cell_length_b 19.830158
_cell_length_c 22.610676
_cell_angle_alpha 90.000000
_cell_angle_beta 90.000000
_cell_angle_gamma 90.000000
_cell_volume 4013.959090
_symmetry_space_group_name_H-M "A M A 2"
_symmetry_group_IT_number 40
_symmetry_cell_setting 'orthorhombic'
loop_
_space_group_symop_operation_xyz
x,y,z
-x,-y,z
1/2-x,y,z
1/2+x,-y,z
x,1/2+y,1/2+z
-x,1/2-y,1/2+z
1/2-x,1/2+y,1/2+z
1/2+x,1/2-y,1/2+z
loop_
_atom_site_type_symbol
_atom_site_label
_atom_site_fract_x
_atom_site_fract_y
_atom_site_fract_z
Si Si1 0.425912 0.429611 0.066260
Si Si2 0.423954 0.431946 0.346750
Si Si3 0.580665 0.692237 0.260578
Si Si4 0.923991 0.349829 0.441325
Si Si5 0.084342 0.279889 0.538135
Si Si6 0.925805 0.312322 0.139032
Si Si7 0.085721 0.640508 0.967685
Si Si8 0.921757 0.265226 0.872960
O O1 0.500000 0.500000 0.083131
O O2 0.250000 0.435688 0.071806
O O3 0.485224 0.375712 0.113182
O O4 0.467536 0.409054 0.998543
O O5 0.500000 0.500000 0.322979
O O6 0.250000 0.444397 0.355332
O O7 0.456567 0.374177 0.298646
O O8 0.492593 0.412701 0.410746
O O9 0.750000 0.688969 0.236306
O O10 0.466194 0.698314 0.207043
O O11 0.557858 0.758656 0.302143
O O12 0.750000 0.365275 0.442112
O O13 0.978558 0.336831 0.509009
O O14 0.959315 0.283653 0.403370
O O15 0.250000 0.310996 0.541648
O O16 0.029645 0.256071 0.603330
O O17 0.084645 0.212777 0.498842
O O18 0.750000 0.326676 0.131720
O O19 0.250000 0.606895 0.973653
O O20 0.050079 0.658454 0.898308
O O21 0.750000 0.242381 0.888487
#
# Coordination Sequence:
#
# PCOD8182349 Si02
#       8
#     8   8   8   8   8   8   8   8
#     4  11  21  32  45  61  84 114 148 183 216 254
#     4  10  20  33  46  61  85 116 148 181 216 254
#     4   9  18  31  45  62  86 117 149 179 211 249
#     4  10  17  25  42  65  84 105 137 176 216 256
#     4   8  15  28  43  59  82 110 137 170 216 260
#     4  10  20  32  45  62  86 116 148 182 217 251
#     4   8  14  27  45  63  83 107 136 172 216 259
#     4   8  15  28  44  61  84 111 136 169 215 259
#
# _framework density 15.944359
#
# number of rings (size 3 to 8) (size 9 to 14) (size 15 to 20)
#    0.000    2.750    0.000    5.250    0.000    8.000 
#    0.000    1.250    0.000    0.000    0.000    0.000 
#    0.000    1.000    0.000    7.750    0.000    5.250 
#
# Total GULP energy -396515.406031 kJ/mol
# GULP energy per Si atom -12391.106438 kJ/mol
# Density = 1.590807 g / cm^3
# Si number density = 15.944359 Si / 1000 Ang^3
#
#
#
# Elastic Constant Matrix: (Units=GPa)
#
#
# Indices 1 2 3 4 5 6 
#
# 1 94.2492 17.9740 46.8831 0.0000 0.0000 0.0000
# 2 17.9740 15.1917 36.1298 0.0000 0.0000 0.0000
# 3 46.8831 36.1298 99.2816 0.0000 0.0000 0.0000
# 4 0.0000 0.0000 0.0000 14.8433 0.0000 0.0000
# 5 0.0000 0.0000 0.0000 0.0000 23.0536 0.0000
# 6 0.0000 0.0000 0.0000 0.0000 0.0000 20.2151
#
#
#
# Elastic Compliance Matrix: (Units=1/GPa)
#
#
# Indices 1 2 3 4 5 6 
#
# 1 0.013947 -0.006229 -0.004319 0.000000 0.000000 0.000000
# 2 -0.006229 0.492110 -0.176144 0.000000 0.000000 0.000000
# 3 -0.004319 -0.176144 0.076213 0.000000 0.000000 0.000000
# 4 0.000000 0.000000 0.000000 0.067371 0.000000 0.000000
# 5 0.000000 0.000000 0.000000 0.000000 0.043377 0.000000
# 6 0.000000 0.000000 0.000000 0.000000 0.000000 0.049468
#
#
# Mechanical properties :
#
#
# Convention : Reuss Voigt Hill
#
# Bulk Modulus (GPa) = 4.78728 45.63290 25.21009
# Shear Modulus (GPa) = 4.21764 18.80477 11.51120
#
# Velocity S-wave (km/s) = 1.62818 3.43796 2.68985
# Velocity P-wave (km/s) = 2.55805 6.66646 5.04903
#
# Compressibility (1/GPa) = 0.20888692
#
# Stress axis : x y z
#
# Youngs Moduli (GPa) = 71.70225 2.03206 13.12117
#
# Poissons Ratio (x) = 0.01266 0.05667
# Poissons Ratio (y) = 0.44661 2.31121
# Poissons Ratio (z) = 0.30970 0.35793
#
# Static dielectric constant tensor:
#      x y z
#    x 3.016500 0.000000 0.000000 
#    y 0.000000 2.868610 0.000000 
#    z 0.000000 0.000000 3.248920 
# 
# 
# High freq. dielectric constant tensor:
#      x y z
#    x 1.618970 0.000000 0.000000 
#    y 0.000000 1.567460 0.000000 
#    z 0.000000 0.000000 1.600280 
# 
# From -- ./inp_files/22584.got.cif
#   From: 2010.03.12/outbox.cif.g09.slc.cpg/sg40_12_cif.got.tgz:22584.got - 2010.04.14 01:38:03.
