data_PCOD8182066
_publ_section_title
;
Structure prediction by ZEFSAII (Michael W. Deem and Ramdas Pophale) SiO2 
 PCOD8182066
Probable space group: A B M 2
;
_chemical_formula_sum "Si O2"
_cell_formula_units_Z 56
_cell_length_a 23.783572
_cell_length_b 8.322954
_cell_length_c 14.195436
_cell_angle_alpha 90.000000
_cell_angle_beta 90.000000
_cell_angle_gamma 90.000000
_cell_volume 2809.980533
_symmetry_space_group_name_H-M "A B M 2"
_symmetry_group_IT_number 39
_symmetry_cell_setting 'orthorhombic'
loop_
_space_group_symop_operation_xyz
x,y,z
-x,-y,z
-x,1/2+y,z
x,1/2-y,z
x,1/2+y,1/2+z
-x,1/2-y,1/2+z
-x,y,1/2+z
x,-y,1/2+z
loop_
_atom_site_type_symbol
_atom_site_label
_atom_site_fract_x
_atom_site_fract_y
_atom_site_fract_z
Si Si1 0.062565 0.562056 0.309210
Si Si2 0.360650 0.435429 0.801424
Si Si3 0.147275 0.564368 0.957520
Si Si4 0.557710 0.564596 0.153049
Si Si5 0.768046 0.439147 0.308559
Si Si6 0.560503 0.435846 0.950571
Si Si7 0.852311 0.937062 0.164424
O O1 0.063577 0.750000 0.328816
O O2 0.091826 0.475601 0.397564
O O3 0.094492 0.524534 0.211820
O O4 0.000000 0.500000 0.298818
O O5 0.364451 0.250000 0.771797
O O6 0.390923 0.544443 0.723826
O O7 0.296542 0.492571 0.808494
O O8 0.390393 0.463176 0.901187
O O9 0.147225 0.750000 0.985399
O O10 0.202348 0.524644 0.896660
O O11 0.147816 0.462520 0.052984
O O12 0.500000 0.500000 0.200916
O O13 0.551151 0.750000 0.124055
O O14 0.569016 0.458185 0.061305
O O15 0.775610 0.250000 0.321429
O O16 0.795140 0.493501 0.209716
O O17 0.500000 0.500000 0.917114
O O18 0.565707 0.250000 0.922513
O O19 0.856561 0.750000 0.188032
#
# Coordination Sequence:
#
# PCOD8182066 Si02
#       7
#     8   8   8   8   8   8   8
#     4  11  22  39  61  90 124 155 193 238 285 336
#     4  11  23  39  59  84 114 148 189 234 285 340
#     4  11  22  39  62  87 117 155 195 236 285 338
#     4  11  22  38  59  83 113 147 186 231 284 342
#     4  10  22  40  60  84 114 149 191 240 286 336
#     4  11  22  38  59  83 113 147 186 231 284 342
#     4  11  22  39  62  87 117 155 195 236 285 338
#
# _framework density 19.928964000000001
#
# number of rings (size 3 to 8) (size 9 to 14) (size 15 to 20)
#    0.000    1.143    0.000   10.286    0.000    4.000 
#    0.000    2.857    0.000    0.000    0.000    0.000 
#    0.000    0.000    0.000    0.000    0.000    0.000 
#
# Total GULP energy -347373.052921 kJ/mol
# GULP energy per Si atom -12406.180461 kJ/mol
# Density = 1.988360 g / cm^3
# Si number density = 19.928964 Si / 1000 Ang^3
#
#
#
# Elastic Constant Matrix: (Units=GPa)
#
#
# Indices 1 2 3 4 5 6 
#
# 1 158.9647 30.8539 55.5618 0.0000 0.0000 0.0000
# 2 30.8539 93.0419 0.6439 0.0000 0.0000 0.0000
# 3 55.5618 0.6439 102.7300 0.0000 0.0000 0.0000
# 4 0.0000 0.0000 0.0000 35.6299 0.0000 0.0000
# 5 0.0000 0.0000 0.0000 0.0000 65.5486 0.0000
# 6 0.0000 0.0000 0.0000 0.0000 0.0000 31.5507
#
#
#
# Elastic Compliance Matrix: (Units=1/GPa)
#
#
# Indices 1 2 3 4 5 6 
#
# 1 0.008410 -0.002757 -0.004531 0.000000 0.000000 0.000000
# 2 -0.002757 0.011652 0.001418 0.000000 0.000000 0.000000
# 3 -0.004531 0.001418 0.012176 0.000000 0.000000 0.000000
# 4 0.000000 0.000000 0.000000 0.028066 0.000000 0.000000
# 5 0.000000 0.000000 0.000000 0.000000 0.015256 0.000000
# 6 0.000000 0.000000 0.000000 0.000000 0.000000 0.031695
#
#
# Mechanical properties :
#
#
# Convention : Reuss Voigt Hill
#
# Bulk Modulus (GPa) = 48.78589 58.76175 53.77382
# Shear Modulus (GPa) = 39.73673 44.39096 42.06385
#
# Velocity S-wave (km/s) = 4.47018 4.72472 4.59921
# Velocity P-wave (km/s) = 7.15376 7.70153 7.43269
#
# Compressibility (1/GPa) = 0.02049773
#
# Stress axis : x y z
#
# Youngs Moduli (GPa) = 118.91151 85.81906 82.12866
#
# Poissons Ratio (x) = 0.23664 0.37213
# Poissons Ratio (y) = 0.32789 -0.11648
# Poissons Ratio (z) = 0.53880 -0.12172
#
# Static dielectric constant tensor:
#      x y z
#    x 3.652550 0.000000 0.000000 
#    y 0.000000 3.703710 0.000000 
#    z 0.000000 0.000000 3.504910 
# 
# 
# High freq. dielectric constant tensor:
#      x y z
#    x 1.777480 0.000000 0.000000 
#    y 0.000000 1.796940 0.000000 
#    z 0.000000 0.000000 1.778620 
# 
# From -- ./inp_files/10399.got.cif
#   From: 2010.03.12/outbox.cif.g09.slc.cpg/sg39_6_cif.got.tgz:10399.got - 2010.04.14 02:53:20.
