data_PCOD8182459
_publ_section_title
;
Structure prediction by ZEFSAII (Michael W. Deem and Ramdas Pophale) SiO2 
 PCOD8182459
Probable space group: A M A 2
;
_chemical_formula_sum "Si O2"
_cell_formula_units_Z 64
_cell_length_a 8.714153
_cell_length_b 26.432356
_cell_length_c 18.509030
_cell_angle_alpha 90.000000
_cell_angle_beta 90.000000
_cell_angle_gamma 90.000000
_cell_volume 4263.288426
_symmetry_space_group_name_H-M "A M A 2"
_symmetry_group_IT_number 40
_symmetry_cell_setting 'orthorhombic'
loop_
_space_group_symop_operation_xyz
x,y,z
-x,-y,z
1/2-x,y,z
1/2+x,-y,z
x,1/2+y,1/2+z
-x,1/2-y,1/2+z
1/2-x,1/2+y,1/2+z
1/2+x,1/2-y,1/2+z
loop_
_atom_site_type_symbol
_atom_site_label
_atom_site_fract_x
_atom_site_fract_y
_atom_site_fract_z
Si Si1 0.070078 0.758285 0.264550
Si Si2 0.581866 0.803024 0.055999
Si Si3 0.571845 0.347976 0.013462
Si Si4 0.568160 0.242088 0.429002
Si Si5 0.431966 0.446097 0.775605
Si Si6 0.070787 0.052663 0.428534
Si Si7 0.066224 0.645175 0.692628
Si Si8 0.919717 0.199940 0.643898
O O1 0.250000 0.767685 0.254167
O O2 0.027175 0.745090 0.346963
O O3 0.981888 0.809667 0.245636
O O4 0.017339 0.710460 0.216456
O O5 0.750000 0.824544 0.038193
O O6 0.502586 0.843255 0.110538
O O7 0.593247 0.751292 0.100058
O O8 0.500217 0.788138 0.979886
O O9 0.750000 0.335477 0.019056
O O10 0.499442 0.341836 0.093040
O O11 0.501941 0.311332 0.952689
O O12 0.540536 0.405441 0.989296
O O13 0.750000 0.238145 0.441938
O O14 0.500000 0.500000 0.753088
O O15 0.250000 0.448322 0.775911
O O16 0.490753 0.429749 0.854446
O O17 0.489312 0.406585 0.716369
O O18 0.250000 0.045131 0.412377
O O19 0.000000 0.000000 0.456651
O O20 0.250000 0.641266 0.693703
O O21 0.750000 0.180634 0.665579
#
# Coordination Sequence:
#
# PCOD8182459 Si02
#       8
#     8   8   8   8   8   8   8   8
#     4  10  18  27  42  64  88 113 144 178 208 246
#     4   7  13  26  41  56  76 105 138 168 199 240
#     4  10  19  29  43  62  83 109 143 179 211 248
#     4   9  17  28  42  61  85 114 143 170 206 250
#     4  11  21  32  45  61  83 110 142 179 215 251
#     4  10  20  32  45  62  84 110 141 177 214 251
#     4  10  18  29  44  60  82 113 146 176 210 252
#     4   9  17  29  43  58  81 112 142 173 211 252
#
# _framework density 15.011886000000001
#
# number of rings (size 3 to 8) (size 9 to 14) (size 15 to 20)
#    0.000    2.500    0.000    6.000    0.000    5.000 
#    0.000    0.625    0.000    0.000    0.000    0.000 
#    0.000    1.000    0.000    6.250    0.000    3.875 
#
# Total GULP energy -396562.564928 kJ/mol
# GULP energy per Si atom -12392.580154 kJ/mol
# Density = 1.497772 g / cm^3
# Si number density = 15.011886 Si / 1000 Ang^3
#
#
#
# Elastic Constant Matrix: (Units=GPa)
#
#
# Indices 1 2 3 4 5 6 
#
# 1 85.4555 38.0559 40.8995 0.0000 0.0000 0.0000
# 2 38.0559 78.0232 56.1483 0.0000 0.0000 0.0000
# 3 40.8995 56.1483 109.6678 0.0000 0.0000 0.0000
# 4 0.0000 0.0000 0.0000 27.8659 0.0000 0.0000
# 5 0.0000 0.0000 0.0000 0.0000 21.1606 0.0000
# 6 0.0000 0.0000 0.0000 0.0000 0.0000 22.0161
#
#
#
# Elastic Compliance Matrix: (Units=1/GPa)
#
#
# Indices 1 2 3 4 5 6 
#
# 1 0.015562 -0.005406 -0.003036 0.000000 0.000000 0.000000
# 2 -0.005406 0.022171 -0.009336 0.000000 0.000000 0.000000
# 3 -0.003036 -0.009336 0.015030 0.000000 0.000000 0.000000
# 4 0.000000 0.000000 0.000000 0.035886 0.000000 0.000000
# 5 0.000000 0.000000 0.000000 0.000000 0.047258 0.000000
# 6 0.000000 0.000000 0.000000 0.000000 0.000000 0.045421
#
#
# Mechanical properties :
#
#
# Convention : Reuss Voigt Hill
#
# Bulk Modulus (GPa) = 58.10706 60.37265 59.23986
# Shear Modulus (GPa) = 22.45973 23.41137 22.93555
#
# Velocity S-wave (km/s) = 3.87218 3.95336 3.91298
# Velocity P-wave (km/s) = 7.66701 7.81938 7.74357
#
# Compressibility (1/GPa) = 0.01720961
#
# Stress axis : x y z
#
# Youngs Moduli (GPa) = 64.25722 45.10306 66.53162
#
# Poissons Ratio (x) = 0.24381 0.20201
# Poissons Ratio (y) = 0.34735 0.62111
# Poissons Ratio (z) = 0.19510 0.42106
#
# Static dielectric constant tensor:
#      x y z
#    x 2.998320 0.000000 0.000000 
#    y 0.000000 2.718690 0.000000 
#    z 0.000000 0.000000 3.124900 
# 
# 
# High freq. dielectric constant tensor:
#      x y z
#    x 1.583100 0.000000 0.000000 
#    y 0.000000 1.540890 0.000000 
#    z 0.000000 0.000000 1.567700 
# 
# From -- ./inp_files/19780.got.cif
#   From: 2010.03.12/outbox.cif.g09.slc.cpg/sg40_10_cif.got.tgz:19780.got - 2010.04.14 01:38:03.
