data_PCOD8182234
_publ_section_title
;
Structure prediction by ZEFSAII (Michael W. Deem and Ramdas Pophale) SiO2 
 PCOD8182234
Probable space group: A B M 2
;
_chemical_formula_sum "Si O2"
_cell_formula_units_Z 48
_cell_length_a 9.071829
_cell_length_b 8.739486
_cell_length_c 30.971008
_cell_angle_alpha 90.000000
_cell_angle_beta 90.000000
_cell_angle_gamma 90.000000
_cell_volume 2455.478222
_symmetry_space_group_name_H-M "A B M 2"
_symmetry_group_IT_number 39
_symmetry_cell_setting 'orthorhombic'
loop_
_space_group_symop_operation_xyz
x,y,z
-x,-y,z
-x,1/2+y,z
x,1/2-y,z
x,1/2+y,1/2+z
-x,1/2-y,1/2+z
-x,y,1/2+z
x,-y,1/2+z
loop_
_atom_site_type_symbol
_atom_site_label
_atom_site_fract_x
_atom_site_fract_y
_atom_site_fract_z
Si Si1 0.343144 0.573500 0.783130
Si Si2 0.160311 0.570558 0.945222
Si Si3 0.162537 0.930638 0.359746
Si Si4 0.156684 0.926487 0.697124
Si Si5 0.159949 0.571184 0.039891
Si Si6 0.659612 0.930836 0.621099
O O1 0.500000 0.500000 0.773885
O O2 0.359535 0.750000 0.796593
O O3 0.265434 0.481936 0.821127
O O4 0.250970 0.554293 0.739942
O O5 0.152713 0.750000 0.935692
O O6 0.239742 0.488369 0.904640
O O7 0.000000 0.500000 0.947355
O O8 0.230688 0.535522 0.992394
O O9 0.148947 0.750000 0.360141
O O10 0.000000 0.000000 0.353954
O O11 0.138953 0.750000 0.683864
O O12 0.232280 0.016836 0.658562
O O13 0.000000 0.000000 0.706857
O O14 0.135132 0.750000 0.045574
O O15 0.274196 0.509571 0.075556
O O16 0.000000 0.500000 0.046981
O O17 0.645088 0.750000 0.622087
O O18 0.500000 0.000000 0.628561
#
# Coordination Sequence:
#
# PCOD8182234 Si02
#       6
#     8   8   8   8   8   8
#     4  11  24  41  60  84 115 150 187 229 280 336
#     4   9  16  30  52  79 111 145 186 235 284 331
#     4  11  21  35  57  85 115 149 191 236 283 333
#     4  11  24  41  63  89 115 146 186 231 278 331
#     4   9  19  34  55  82 111 146 188 235 282 333
#     4  11  23  39  58  83 116 152 190 232 282 336
#
# _framework density 19.548127000000001
#
# number of rings (size 3 to 8) (size 9 to 14) (size 15 to 20)
#    0.000    1.667    0.000    6.000    0.000    8.667 
#    0.000    0.833    0.000    2.000    0.000    0.000 
#    0.000    0.000    0.000    0.000    0.000    0.000 
#
# Total GULP energy -297562.211091 kJ/mol
# GULP energy per Si atom -12398.425462 kJ/mol
# Density = 1.950363 g / cm^3
# Si number density = 19.548127 Si / 1000 Ang^3
#
#
#
# Elastic Constant Matrix: (Units=GPa)
#
#
# Indices 1 2 3 4 5 6 
#
# 1 94.7912 44.5138 36.1157 0.0000 0.0000 0.0000
# 2 44.5138 120.7646 56.9283 0.0000 0.0000 0.0000
# 3 36.1157 56.9283 122.4647 0.0000 0.0000 0.0000
# 4 0.0000 0.0000 0.0000 25.5664 0.0000 0.0000
# 5 0.0000 0.0000 0.0000 0.0000 -51.3592 0.0000
# 6 0.0000 0.0000 0.0000 0.0000 0.0000 26.8132
#
#
#
# Elastic Compliance Matrix: (Units=1/GPa)
#
#
# Indices 1 2 3 4 5 6 
#
# 1 0.013160 -0.003869 -0.002082 0.000000 0.000000 0.000000
# 2 -0.003869 0.011742 -0.004317 0.000000 0.000000 0.000000
# 3 -0.002082 -0.004317 0.010787 0.000000 0.000000 0.000000
# 4 0.000000 0.000000 0.000000 0.039114 0.000000 0.000000
# 5 0.000000 0.000000 0.000000 0.000000 -0.019471 0.000000
# 6 0.000000 0.000000 0.000000 0.000000 0.000000 0.037295
#
#
# Mechanical properties :
#
#
# Convention : Reuss Voigt Hill
#
# Bulk Modulus (GPa) = 66.00262 68.12624 67.06443
# Shear Modulus (GPa) = 42.29616 13.56827 27.93221
#
# Velocity S-wave (km/s) = 4.65660 2.63743 3.78417
# Velocity P-wave (km/s) = 7.92145 6.64837 7.31267
#
# Compressibility (1/GPa) = 0.01515091
#
# Stress axis : x y z
#
# Youngs Moduli (GPa) = 75.98906 85.16536 92.70750
#
# Poissons Ratio (x) = 0.32951 0.19305
# Poissons Ratio (y) = 0.29401 0.40024
# Poissons Ratio (z) = 0.15824 0.36768
#
# Static dielectric constant tensor:
#      x y z
#    x 3.399990 0.000000 0.000000 
#    y 0.000000 3.832120 0.000000 
#    z 0.000000 0.000000 4.413520 
# 
# 
# High freq. dielectric constant tensor:
#      x y z
#    x 1.738450 0.000000 0.000000 
#    y 0.000000 1.776320 0.000000 
#    z 0.000000 0.000000 1.788250 
# 
# From -- ./inp_files/17579.got.cif
#   From: 2010.03.12/outbox.cif.g09.slc.cpg/sg39_9_cif.got.tgz:17579.got - 2010.04.14 02:53:20.
