data_PCOD8182259
_publ_section_title
;
Structure prediction by ZEFSAII (Michael W. Deem and Ramdas Pophale) SiO2 
 PCOD8182259
Probable space group: A B M 2
;
_chemical_formula_sum "Si O2"
_cell_formula_units_Z 56
_cell_length_a 11.143686
_cell_length_b 15.738378
_cell_length_c 14.234119
_cell_angle_alpha 90.000000
_cell_angle_beta 90.000000
_cell_angle_gamma 90.000000
_cell_volume 2496.430216
_symmetry_space_group_name_H-M "A B M 2"
_symmetry_group_IT_number 39
_symmetry_cell_setting 'orthorhombic'
loop_
_space_group_symop_operation_xyz
x,y,z
-x,-y,z
-x,1/2+y,z
x,1/2-y,z
x,1/2+y,1/2+z
-x,1/2-y,1/2+z
-x,y,1/2+z
x,-y,1/2+z
loop_
_atom_site_type_symbol
_atom_site_label
_atom_site_fract_x
_atom_site_fract_y
_atom_site_fract_z
Si Si1 0.472942 0.845811 0.038530
Si Si2 0.394336 0.844207 0.355678
Si Si3 0.045781 0.348731 0.046879
Si Si4 0.215586 0.910110 0.048297
Si Si5 0.822429 0.043477 0.705107
Si Si6 0.826698 0.041008 0.389971
Si Si7 0.439081 0.085221 0.218784
O O1 0.514206 0.750000 0.058795
O O2 0.329730 0.849346 0.047181
O O3 0.543731 0.908647 0.107337
O O4 0.518431 0.876233 0.937846
O O5 0.343262 0.750000 0.373309
O O6 0.280905 0.905150 0.345555
O O7 0.481396 0.840422 0.265143
O O8 0.088131 0.250000 0.044597
O O9 0.093679 0.394452 0.142370
O O10 0.902662 0.351905 0.048687
O O11 0.085840 0.398502 0.951922
O O12 0.220720 0.965247 0.142315
O O13 0.223398 0.968992 0.957494
O O14 0.702650 0.092455 0.740708
O O15 0.888553 0.005895 0.799050
O O16 0.500000 0.000000 0.259149
#
# Coordination Sequence:
#
# PCOD8182259 Si02
#       7
#     8   8   8   8   8   8   8
#     4  11  23  38  61  92 129 169 209 260 322 378
#     4  11  24  39  62  97 134 166 207 265 326 386
#     4  11  26  46  67  95 134 172 219 278 332 378
#     4  11  23  41  65  92 130 171 223 272 318 385
#     4  11  23  41  68  96 126 172 222 267 319 393
#     4  11  22  41  69  95 126 170 223 266 321 398
#     4  12  22  38  63  95 128 165 209 258 317 393
#
# _framework density 22.432030000000001
#
# number of rings (size 3 to 8) (size 9 to 14) (size 15 to 20)
#    0.000    0.857    2.857    5.571    0.000    4.571 
#    0.000    5.000    0.000    0.000    0.000    0.000 
#    0.000    0.000    0.000    0.000    0.000    0.000 
#
# Total GULP energy -347111.976813 kJ/mol
# GULP energy per Si atom -12396.856315 kJ/mol
# Density = 2.238097 g / cm^3
# Si number density = 22.432030 Si / 1000 Ang^3
#
#
#
# Elastic Constant Matrix: (Units=GPa)
#
#
# Indices 1 2 3 4 5 6 
#
# 1 105.0676 17.4847 8.4650 0.0000 0.0000 0.0000
# 2 17.4847 85.9365 36.2201 0.0000 0.0000 0.0000
# 3 8.4650 36.2201 124.9994 0.0000 0.0000 0.0000
# 4 0.0000 0.0000 0.0000 30.1729 0.0000 0.0000
# 5 0.0000 0.0000 0.0000 0.0000 3.6495 0.0000
# 6 0.0000 0.0000 0.0000 0.0000 0.0000 27.6792
#
#
#
# Elastic Compliance Matrix: (Units=1/GPa)
#
#
# Indices 1 2 3 4 5 6 
#
# 1 0.009852 -0.001963 -0.000098 0.000000 0.000000 0.000000
# 2 -0.001963 0.013646 -0.003821 0.000000 0.000000 0.000000
# 3 -0.000098 -0.003821 0.009114 0.000000 0.000000 0.000000
# 4 0.000000 0.000000 0.000000 0.033142 0.000000 0.000000
# 5 0.000000 0.000000 0.000000 0.000000 0.274009 0.000000
# 6 0.000000 0.000000 0.000000 0.000000 0.000000 0.036128
#
#
# Mechanical properties :
#
#
# Convention : Reuss Voigt Hill
#
# Bulk Modulus (GPa) = 47.96801 48.92702 48.44752
# Shear Modulus (GPa) = 12.67085 29.22256 20.94671
#
# Velocity S-wave (km/s) = 2.37925 3.61323 3.05911
# Velocity P-wave (km/s) = 5.38311 6.26625 5.84139
#
# Compressibility (1/GPa) = 0.02084723
#
# Stress axis : x y z
#
# Youngs Moduli (GPa) = 101.49917 73.27889 109.72167
#
# Poissons Ratio (x) = 0.14385 0.01079
# Poissons Ratio (y) = 0.19925 0.41928
# Poissons Ratio (z) = 0.00998 0.28002
#
# Static dielectric constant tensor:
#      x y z
#    x 3.950430 0.000000 0.000000 
#    y 0.000000 3.832580 0.000000 
#    z 0.000000 0.000000 4.173080 
# 
# 
# High freq. dielectric constant tensor:
#      x y z
#    x 1.885200 0.000000 0.000000 
#    y 0.000000 1.874620 0.000000 
#    z 0.000000 0.000000 1.896330 
# 
# From -- ./inp_files/9261.got.cif
#   From: 2010.03.12/outbox.cif.g09.slc.cpg/sg39_5_cif.got.tgz:9261.got - 2010.04.14 02:53:20.
