data_PCOD8182611
_publ_section_title
;
Structure prediction by ZEFSAII (Michael W. Deem and Ramdas Pophale) SiO2 
 PCOD8182611
Probable space group: A M A 2
;
_chemical_formula_sum "Si O2"
_cell_formula_units_Z 48
_cell_length_a 9.076678
_cell_length_b 13.970395
_cell_length_c 18.414597
_cell_angle_alpha 90.000000
_cell_angle_beta 90.000000
_cell_angle_gamma 90.000000
_cell_volume 2335.058865
_symmetry_space_group_name_H-M "A M A 2"
_symmetry_group_IT_number 40
_symmetry_cell_setting 'orthorhombic'
loop_
_space_group_symop_operation_xyz
x,y,z
-x,-y,z
1/2-x,y,z
1/2+x,-y,z
x,1/2+y,1/2+z
-x,1/2-y,1/2+z
1/2-x,1/2+y,1/2+z
1/2+x,1/2-y,1/2+z
loop_
_atom_site_type_symbol
_atom_site_label
_atom_site_fract_x
_atom_site_fract_y
_atom_site_fract_z
Si Si1 0.411685 0.413796 0.666550
Si Si2 0.922722 0.901195 0.368033
Si Si3 0.910613 0.087870 0.999400
Si Si4 0.576047 0.758820 0.240319
Si Si5 0.424627 0.201554 0.512395
Si Si6 0.573887 0.397501 0.161526
O O1 0.500000 0.500000 0.705951
O O2 0.250000 0.401242 0.703322
O O3 0.388204 0.438440 0.583141
O O4 0.510590 0.319517 0.673351
O O5 0.750000 0.919160 0.363853
O O6 0.967849 0.814729 0.313884
O O7 0.973115 0.870200 0.448531
O O8 0.000000 0.000000 0.346514
O O9 0.750000 0.091170 0.960908
O O10 0.990133 0.192173 0.994595
O O11 0.000000 0.000000 0.962166
O O12 0.750000 0.744375 0.232709
O O13 0.493291 0.656859 0.232367
O O14 0.250000 0.215297 0.516121
O O15 0.478366 0.157827 0.588524
O O16 0.500000 0.500000 0.158973
O O17 0.750000 0.405237 0.167599
#
# Coordination Sequence:
#
# PCOD8182611 Si02
#       6
#     8   8   8   8   8   8
#     4  10  18  30  50  78 110 146 183 230 283 333
#     4  10  22  39  60  85 117 154 192 236 289 347
#     4   9  17  31  51  78 109 143 182 227 281 331
#     4  11  22  36  55  83 115 152 191 233 286 346
#     4   9  18  37  60  83 116 154 191 236 290 343
#     4  11  22  39  62  87 114 150 194 243 294 345
#
# _framework density 20.556227
#
# number of rings (size 3 to 8) (size 9 to 14) (size 15 to 20)
#    0.000    2.000    1.667    2.500    0.000    3.333 
#    0.000    2.500    0.000    2.000    0.000    0.000 
#    0.000    0.000    0.000    0.000    0.000    0.000 
#
# Total GULP energy -297423.045088 kJ/mol
# GULP energy per Si atom -12392.626879 kJ/mol
# Density = 2.050944 g / cm^3
# Si number density = 20.556227 Si / 1000 Ang^3
#
#
#
# Elastic Constant Matrix: (Units=GPa)
#
#
# Indices 1 2 3 4 5 6 
#
# 1 89.5240 57.8948 31.7120 0.0000 0.0000 0.0000
# 2 57.8948 168.4431 41.5613 0.0000 0.0000 0.0000
# 3 31.7120 41.5613 69.1361 0.0000 0.0000 0.0000
# 4 0.0000 0.0000 0.0000 19.7060 0.0000 0.0000
# 5 0.0000 0.0000 0.0000 0.0000 14.6294 0.0000
# 6 0.0000 0.0000 0.0000 0.0000 0.0000 39.9304
#
#
#
# Elastic Compliance Matrix: (Units=1/GPa)
#
#
# Indices 1 2 3 4 5 6 
#
# 1 0.015512 -0.004199 -0.004591 0.000000 0.000000 0.000000
# 2 -0.004199 0.008107 -0.002948 0.000000 0.000000 0.000000
# 3 -0.004591 -0.002948 0.018342 0.000000 0.000000 0.000000
# 4 0.000000 0.000000 0.000000 0.050746 0.000000 0.000000
# 5 0.000000 0.000000 0.000000 0.000000 0.068356 0.000000
# 6 0.000000 0.000000 0.000000 0.000000 0.000000 0.025044
#
#
# Mechanical properties :
#
#
# Convention : Reuss Voigt Hill
#
# Bulk Modulus (GPa) = 54.09465 65.49327 59.79396
# Shear Modulus (GPa) = 23.17573 27.91550 25.54562
#
# Velocity S-wave (km/s) = 3.36137 3.68911 3.52905
# Velocity P-wave (km/s) = 6.43721 7.07642 6.76437
#
# Compressibility (1/GPa) = 0.01848612
#
# Stress axis : x y z
#
# Youngs Moduli (GPa) = 64.46730 123.34780 54.51931
#
# Poissons Ratio (x) = 0.51790 0.25030
# Poissons Ratio (y) = 0.27068 0.16071
# Poissons Ratio (z) = 0.29597 0.36360
#
# Static dielectric constant tensor:
#      x y z
#    x 3.874120 0.000000 0.000000 
#    y 0.000000 3.948570 0.000000 
#    z 0.000000 0.000000 3.508390 
# 
# 
# High freq. dielectric constant tensor:
#      x y z
#    x 1.788730 0.000000 0.000000 
#    y 0.000000 1.817000 0.000000 
#    z 0.000000 0.000000 1.773320 
# 
# From -- ./inp_files/19213.got.cif
#   From: 2010.03.12/outbox.cif.g09.slc.cpg/sg40_10_cif.got.tgz:19213.got - 2010.04.14 01:38:03.
