data_PCOD8182576
_publ_section_title
;
Structure prediction by ZEFSAII (Michael W. Deem and Ramdas Pophale) SiO2 
 PCOD8182576
Probable space group: A M A 2
;
_chemical_formula_sum "Si O2"
_cell_formula_units_Z 64
_cell_length_a 8.812575
_cell_length_b 18.753770
_cell_length_c 21.168151
_cell_angle_alpha 90.000000
_cell_angle_beta 90.000000
_cell_angle_gamma 90.000000
_cell_volume 3498.439246
_symmetry_space_group_name_H-M "A M A 2"
_symmetry_group_IT_number 40
_symmetry_cell_setting 'orthorhombic'
loop_
_space_group_symop_operation_xyz
x,y,z
-x,-y,z
1/2-x,y,z
1/2+x,-y,z
x,1/2+y,1/2+z
-x,1/2-y,1/2+z
1/2-x,1/2+y,1/2+z
1/2+x,1/2-y,1/2+z
loop_
_atom_site_type_symbol
_atom_site_label
_atom_site_fract_x
_atom_site_fract_y
_atom_site_fract_z
Si Si1 0.570728 0.424590 0.705520
Si Si2 0.070277 0.076315 0.470463
Si Si3 0.071161 0.824075 0.575113
Si Si4 0.430208 0.287862 0.654280
Si Si5 0.415999 0.068707 0.801919
Si Si6 0.081902 0.567512 0.154159
Si Si7 0.069827 0.224399 0.788473
Si Si8 0.072997 0.140496 0.338436
O O1 0.500000 0.500000 0.687660
O O2 0.750000 0.425267 0.694824
O O3 0.493860 0.367709 0.658958
O O4 0.527726 0.406397 0.777852
O O5 0.250000 0.071402 0.476948
O O6 0.020068 0.096892 0.399655
O O7 0.008211 0.138526 0.515689
O O8 0.000000 0.000000 0.488206
O O9 0.250000 0.821032 0.564253
O O10 0.005040 0.745556 0.590698
O O11 0.025323 0.866203 0.638698
O O12 0.250000 0.288421 0.647008
O O13 0.481522 0.244720 0.717427
O O14 0.250000 0.069713 0.833491
O O15 0.400401 0.055929 0.727765
O O16 0.495878 0.146536 0.810337
O O17 0.500000 0.000000 0.832400
O O18 0.250000 0.577640 0.123823
O O19 0.000000 0.500000 0.122023
O O20 0.250000 0.219583 0.790154
O O21 0.012019 0.283510 0.837505
O O22 0.250000 0.157666 0.339776
#
# Coordination Sequence:
#
# PCOD8182576 Si02
#       8
#     8   8   8   8   8   8   8   8
#     4  10  19  33  53  81 109 136 170 212 262 316
#     4  11  23  39  55  74 103 139 180 221 258 304
#     4  12  23  34  49  71  99 135 175 214 256 304
#     4  10  19  34  52  73 102 136 170 212 260 312
#     4   9  17  28  42  66  96 129 165 202 245 298
#     4  10  18  30  44  63  93 129 169 205 245 293
#     4   9  17  31  50  72 100 132 169 211 260 312
#     4   9  20  35  53  76 102 134 176 219 261 308
#
# _framework density 18.293872
#
# number of rings (size 3 to 8) (size 9 to 14) (size 15 to 20)
#    0.000    2.000    1.250    3.375    0.000    3.000 
#    0.000    0.000    0.000    0.000    0.000    0.875 
#    0.000    4.000    0.000    0.000    0.000    0.000 
#
# Total GULP energy -396627.479720 kJ/mol
# GULP energy per Si atom -12394.608741 kJ/mol
# Density = 1.825223 g / cm^3
# Si number density = 18.293872 Si / 1000 Ang^3
#
#
#
# Elastic Constant Matrix: (Units=GPa)
#
#
# Indices 1 2 3 4 5 6 
#
# 1 86.4600 48.7414 25.9963 0.0000 0.0000 0.0000
# 2 48.7414 149.9401 35.2332 0.0000 0.0000 0.0000
# 3 25.9963 35.2332 57.4872 0.0000 0.0000 0.0000
# 4 0.0000 0.0000 0.0000 23.6931 0.0000 0.0000
# 5 0.0000 0.0000 0.0000 0.0000 19.6428 0.0000
# 6 0.0000 0.0000 0.0000 0.0000 0.0000 34.6860
#
#
#
# Elastic Compliance Matrix: (Units=1/GPa)
#
#
# Indices 1 2 3 4 5 6 
#
# 1 0.015079 -0.003855 -0.004456 0.000000 0.000000 0.000000
# 2 -0.003855 0.008777 -0.003636 0.000000 0.000000 0.000000
# 3 -0.004456 -0.003636 0.021639 0.000000 0.000000 0.000000
# 4 0.000000 0.000000 0.000000 0.042206 0.000000 0.000000
# 5 0.000000 0.000000 0.000000 0.000000 0.050909 0.000000
# 6 0.000000 0.000000 0.000000 0.000000 0.000000 0.028830
#
#
# Mechanical properties :
#
#
# Convention : Reuss Voigt Hill
#
# Bulk Modulus (GPa) = 46.29530 57.09211 51.69371
# Shear Modulus (GPa) = 25.18451 27.86547 26.52499
#
# Velocity S-wave (km/s) = 3.71437 3.90707 3.81194
# Velocity P-wave (km/s) = 6.61489 7.18538 6.90603
#
# Compressibility (1/GPa) = 0.02160046
#
# Stress axis : x y z
#
# Youngs Moduli (GPa) = 66.31742 113.93714 46.21299
#
# Poissons Ratio (x) = 0.43918 0.20595
# Poissons Ratio (y) = 0.25563 0.16803
# Poissons Ratio (z) = 0.29554 0.41429
#
# Static dielectric constant tensor:
#      x y z
#    x 3.527710 0.000000 0.000000 
#    y 0.000000 3.644380 0.000000 
#    z 0.000000 0.000000 3.050720 
# 
# 
# High freq. dielectric constant tensor:
#      x y z
#    x 1.714060 0.000000 0.000000 
#    y 0.000000 1.718060 0.000000 
#    z 0.000000 0.000000 1.658240 
# 
# From -- ./inp_files/24415.got.cif
#   From: 2010.03.12/outbox.cif.g09.slc.cpg/sg40_13_cif.got.tgz:24415.got - 2010.04.14 01:38:03.
