data_PCOD8182880
_publ_section_title
;
Structure prediction by ZEFSAII (Michael W. Deem and Ramdas Pophale) SiO2 
 PCOD8182880
Probable space group: A M A 2
;
_chemical_formula_sum "Si O2"
_cell_formula_units_Z 64
_cell_length_a 9.512158
_cell_length_b 16.242274
_cell_length_c 22.559339
_cell_angle_alpha 90.000000
_cell_angle_beta 90.000000
_cell_angle_gamma 90.000000
_cell_volume 3485.397043
_symmetry_space_group_name_H-M "A M A 2"
_symmetry_group_IT_number 40
_symmetry_cell_setting 'orthorhombic'
loop_
_space_group_symop_operation_xyz
x,y,z
-x,-y,z
1/2-x,y,z
1/2+x,-y,z
x,1/2+y,1/2+z
-x,1/2-y,1/2+z
1/2-x,1/2+y,1/2+z
1/2+x,1/2-y,1/2+z
loop_
_atom_site_type_symbol
_atom_site_label
_atom_site_fract_x
_atom_site_fract_y
_atom_site_fract_z
Si Si1 0.086370 0.571797 0.056610
Si Si2 0.907787 0.609556 0.946853
Si Si3 0.916589 0.581937 0.810046
Si Si4 0.910400 0.926108 0.906149
Si Si5 0.413792 0.080579 0.768068
Si Si6 0.911528 0.748656 0.599653
Si Si7 0.584963 0.238926 0.233039
Si Si8 0.593610 0.790813 0.993424
O O1 0.250000 0.550437 0.054206
O O2 0.056209 0.654354 0.092972
O O3 0.000000 0.500000 0.090945
O O4 0.025764 0.571073 0.989440
O O5 0.750000 0.573978 0.958759
O O6 0.952410 0.595557 0.879016
O O7 0.908344 0.704687 0.961124
O O8 0.750000 0.569021 0.799461
O O9 0.971325 0.663623 0.774207
O O10 0.000000 0.500000 0.788051
O O11 0.750000 0.945875 0.919701
O O12 0.935981 0.910729 0.837582
O O13 0.966185 0.848632 0.942352
O O14 0.000000 0.000000 0.931440
O O15 0.250000 0.068252 0.750113
O O16 0.475310 0.168597 0.744908
O O17 0.500000 0.000000 0.744436
O O18 0.750000 0.731117 0.585647
O O19 0.952500 0.717639 0.665019
O O20 0.000384 0.698995 0.551878
O O21 0.750000 0.245957 0.244005
O O22 0.750000 0.814853 0.013626
#
# Coordination Sequence:
#
# PCOD8182880 Si02
#       8
#     8   8   8   8   8   8   8   8
#     4  10  19  30  46  70  99 128 156 189 233 285
#     4   9  17  30  50  74  98 124 155 194 242 293
#     4  10  20  34  53  75  98 128 166 206 248 293
#     4   9  17  29  47  72  99 124 153 192 239 290
#     4   9  17  31  52  77 103 130 161 197 240 294
#     4   9  19  34  50  68  91 124 165 201 234 280
#     4   9  18  35  55  71  95 134 171 201 241 294
#     4   9  17  31  50  71  95 124 158 196 239 287
#
# _framework density 18.362328000000002
#
# number of rings (size 3 to 8) (size 9 to 14) (size 15 to 20)
#    0.000    2.750    0.000    1.500    0.000    6.000 
#    0.000    2.500    0.000    6.000    0.000    0.000 
#    0.000    0.000    0.000    0.000    0.000    0.000 
#
# Total GULP energy -396527.107828 kJ/mol
# GULP energy per Si atom -12391.472120 kJ/mol
# Density = 1.832053 g / cm^3
# Si number density = 18.362328 Si / 1000 Ang^3
#
#
#
# Elastic Constant Matrix: (Units=GPa)
#
#
# Indices 1 2 3 4 5 6 
#
# 1 54.7118 24.6515 25.0636 0.0000 0.0000 0.0000
# 2 24.6515 74.4658 29.8577 0.0000 0.0000 0.0000
# 3 25.0636 29.8577 60.1914 0.0000 0.0000 0.0000
# 4 0.0000 0.0000 0.0000 12.0187 0.0000 0.0000
# 5 0.0000 0.0000 0.0000 0.0000 43.9648 0.0000
# 6 0.0000 0.0000 0.0000 0.0000 0.0000 28.9898
#
#
#
# Elastic Compliance Matrix: (Units=1/GPa)
#
#
# Indices 1 2 3 4 5 6 
#
# 1 0.023939 -0.004903 -0.007536 0.000000 0.000000 0.000000
# 2 -0.004903 0.017767 -0.006772 0.000000 0.000000 0.000000
# 3 -0.007536 -0.006772 0.023111 0.000000 0.000000 0.000000
# 4 0.000000 0.000000 0.000000 0.083204 0.000000 0.000000
# 5 0.000000 0.000000 0.000000 0.000000 0.022745 0.000000
# 6 0.000000 0.000000 0.000000 0.000000 0.000000 0.034495
#
#
# Mechanical properties :
#
#
# Convention : Reuss Voigt Hill
#
# Bulk Modulus (GPa) = 37.88557 38.72385 38.30471
# Shear Modulus (GPa) = 19.80340 24.31439 22.05890
#
# Velocity S-wave (km/s) = 3.28758 3.64283 3.46976
# Velocity P-wave (km/s) = 5.92351 6.23122 6.07931
#
# Compressibility (1/GPa) = 0.02639527
#
# Stress axis : x y z
#
# Youngs Moduli (GPa) = 41.77260 56.28295 43.27003
#
# Poissons Ratio (x) = 0.27597 0.32608
# Poissons Ratio (y) = 0.20483 0.29301
# Poissons Ratio (z) = 0.31480 0.38113
#
# Static dielectric constant tensor:
#      x y z
#    x 3.366150 0.000000 0.000000 
#    y 0.000000 3.875890 0.000000 
#    z 0.000000 0.000000 3.306250 
# 
# 
# High freq. dielectric constant tensor:
#      x y z
#    x 1.693290 0.000000 0.000000 
#    y 0.000000 1.715120 0.000000 
#    z 0.000000 0.000000 1.704530 
# 
# From -- ./inp_files/22360.got.cif
#   From: 2010.03.12/outbox.cif.g09.slc.cpg/sg40_12_cif.got.tgz:22360.got - 2010.04.14 01:38:03.
