data_PCOD8182773
_publ_section_title
;
Structure prediction by ZEFSAII (Michael W. Deem and Ramdas Pophale) SiO2 
 PCOD8182773
Probable space group: A M A 2
;
_chemical_formula_sum "Si O2"
_cell_formula_units_Z 64
_cell_length_a 8.742378
_cell_length_b 19.725976
_cell_length_c 20.667608
_cell_angle_alpha 90.000000
_cell_angle_beta 90.000000
_cell_angle_gamma 90.000000
_cell_volume 3564.169066
_symmetry_space_group_name_H-M "A M A 2"
_symmetry_group_IT_number 40
_symmetry_cell_setting 'orthorhombic'
loop_
_space_group_symop_operation_xyz
x,y,z
-x,-y,z
1/2-x,y,z
1/2+x,-y,z
x,1/2+y,1/2+z
-x,1/2-y,1/2+z
1/2-x,1/2+y,1/2+z
1/2+x,1/2-y,1/2+z
loop_
_atom_site_type_symbol
_atom_site_label
_atom_site_fract_x
_atom_site_fract_y
_atom_site_fract_z
Si Si1 0.569653 0.701115 0.595990
Si Si2 0.428798 0.208305 0.711913
Si Si3 0.930679 0.431720 0.160878
Si Si4 0.570248 0.431727 0.013356
Si Si5 0.931043 0.569878 0.406890
Si Si6 0.570675 0.286300 0.968511
Si Si7 0.431123 0.569875 0.547171
Si Si8 0.071666 0.201286 0.856325
O O1 0.750000 0.686390 0.598996
O O2 0.505377 0.737922 0.660429
O O3 0.528513 0.747181 0.534217
O O4 0.478891 0.630569 0.594259
O O5 0.250000 0.203537 0.697375
O O6 0.496394 0.133048 0.699621
O O7 0.463714 0.231704 0.785123
O O8 0.750000 0.436735 0.165756
O O9 0.986924 0.424032 0.086939
O O10 0.000000 0.500000 0.191970
O O11 0.500000 0.500000 0.981661
O O12 0.750000 0.438813 0.011177
O O13 0.519237 0.364671 0.974437
O O14 0.750000 0.563657 0.411919
O O15 0.000000 0.500000 0.378852
O O16 0.998293 0.585611 0.477293
O O17 0.977678 0.631639 0.361116
O O18 0.750000 0.279226 0.954075
O O19 0.477991 0.256119 0.908758
O O20 0.500000 0.500000 0.575139
O O21 0.250000 0.563702 0.541430
O O22 0.250000 0.184569 0.864681
#
# Coordination Sequence:
#
# PCOD8182773 Si02
#       8
#     8   8   8   8   8   8   8   8
#     4  10  18  34  58  79 103 141 182 220 265 316
#     4   9  19  35  54  75 105 145 181 213 259 319
#     4   9  16  30  49  72 101 135 172 206 246 300
#     4   9  17  30  51  78 104 133 169 213 260 309
#     4  11  21  35  53  75 106 145 184 221 264 317
#     4  10  19  33  55  78 103 139 180 220 268 318
#     4  11  21  34  54  83 111 137 173 221 272 321
#     4  11  22  35  52  78 110 143 180 222 268 318
#
# _framework density 17.956499000000001
#
# number of rings (size 3 to 8) (size 9 to 14) (size 15 to 20)
#    0.000    2.000    2.500    3.375    0.000    1.000 
#    0.000    4.375    0.000    0.750    0.000    1.750 
#    0.000    0.000    0.000    0.000    0.000    0.000 
#
# Total GULP energy -396785.948179 kJ/mol
# GULP energy per Si atom -12399.560881 kJ/mol
# Density = 1.791563 g / cm^3
# Si number density = 17.956499 Si / 1000 Ang^3
#
#
#
# Elastic Constant Matrix: (Units=GPa)
#
#
# Indices 1 2 3 4 5 6 
#
# 1 79.4587 46.0495 38.0361 0.0000 0.0000 0.0000
# 2 46.0495 135.8069 59.4696 0.0000 0.0000 0.0000
# 3 38.0361 59.4696 98.1152 0.0000 0.0000 0.0000
# 4 0.0000 0.0000 0.0000 24.5150 0.0000 0.0000
# 5 0.0000 0.0000 0.0000 0.0000 18.6100 0.0000
# 6 0.0000 0.0000 0.0000 0.0000 0.0000 32.1364
#
#
#
# Elastic Compliance Matrix: (Units=1/GPa)
#
#
# Indices 1 2 3 4 5 6 
#
# 1 0.016831 -0.003880 -0.004173 0.000000 0.000000 0.000000
# 2 -0.003880 0.010918 -0.005114 0.000000 0.000000 0.000000
# 3 -0.004173 -0.005114 0.014910 0.000000 0.000000 0.000000
# 4 0.000000 0.000000 0.000000 0.040791 0.000000 0.000000
# 5 0.000000 0.000000 0.000000 0.000000 0.053735 0.000000
# 6 0.000000 0.000000 0.000000 0.000000 0.000000 0.031117
#
#
# Mechanical properties :
#
#
# Convention : Reuss Voigt Hill
#
# Bulk Modulus (GPa) = 61.25398 66.72124 63.98761
# Shear Modulus (GPa) = 24.99027 26.37398 25.68212
#
# Velocity S-wave (km/s) = 3.73461 3.83661 3.78596
# Velocity P-wave (km/s) = 7.26519 7.54082 7.40428
#
# Compressibility (1/GPa) = 0.01632547
#
# Stress axis : x y z
#
# Youngs Moduli (GPa) = 59.41289 91.59014 67.07118
#
# Poissons Ratio (x) = 0.35534 0.27992
# Poissons Ratio (y) = 0.23050 0.34298
# Poissons Ratio (z) = 0.24796 0.46837
#
# Static dielectric constant tensor:
#      x y z
#    x 3.179240 0.000000 0.000000 
#    y 0.000000 3.575890 0.000000 
#    z 0.000000 0.000000 3.142480 
# 
# 
# High freq. dielectric constant tensor:
#      x y z
#    x 1.684670 0.000000 0.000000 
#    y 0.000000 1.704330 0.000000 
#    z 0.000000 0.000000 1.666840 
# 
# From -- ./inp_files/19588.got.cif
#   From: 2010.03.12/outbox.cif.g09.slc.cpg/sg40_10_cif.got.tgz:19588.got - 2010.04.14 01:38:03.
