data_PCOD8182054
_publ_section_title
;
Structure prediction by ZEFSAII (Michael W. Deem and Ramdas Pophale) SiO2 
 PCOD8182054
Probable space group: A B M 2
;
_chemical_formula_sum "Si O2"
_cell_formula_units_Z 64
_cell_length_a 16.645735
_cell_length_b 14.384310
_cell_length_c 12.418471
_cell_angle_alpha 90.000000
_cell_angle_beta 90.000000
_cell_angle_gamma 90.000000
_cell_volume 2973.446562
_symmetry_space_group_name_H-M "A B M 2"
_symmetry_group_IT_number 39
_symmetry_cell_setting 'orthorhombic'
loop_
_space_group_symop_operation_xyz
x,y,z
-x,-y,z
-x,1/2+y,z
x,1/2-y,z
x,1/2+y,1/2+z
-x,1/2-y,1/2+z
-x,y,1/2+z
x,-y,1/2+z
loop_
_atom_site_type_symbol
_atom_site_label
_atom_site_fract_x
_atom_site_fract_y
_atom_site_fract_z
Si Si1 0.918959 0.444474 0.505600
Si Si2 0.204850 0.418848 0.421630
Si Si3 0.945059 0.143911 0.294962
Si Si4 0.885355 0.642672 0.221427
Si Si5 0.198967 0.354630 0.658256
Si Si6 0.374449 0.856431 0.157257
Si Si7 0.612192 0.964318 0.447881
Si Si8 0.468474 0.857386 0.373632
O O1 0.857255 0.498135 0.429851
O O2 0.939330 0.360273 0.424587
O O3 0.868826 0.411638 0.609928
O O4 0.000000 0.500000 0.536620
O O5 0.185140 0.366246 0.310084
O O6 0.189484 0.357273 0.528714
O O7 0.295734 0.454294 0.414405
O O8 0.946898 0.250000 0.258665
O O9 0.873469 0.093766 0.223712
O O10 0.030889 0.099537 0.264795
O O11 0.893665 0.750000 0.191330
O O12 0.196721 0.250000 0.699224
O O13 0.286151 0.395248 0.692282
O O14 0.365721 0.750000 0.113794
O O15 0.436744 0.860469 0.252998
O O16 0.407342 0.924054 0.065531
O O17 0.558240 0.899983 0.368630
O O18 0.586921 0.073340 0.445683
O O19 0.466399 0.750000 0.417200
#
# Coordination Sequence:
#
# PCOD8182054 Si02
#       8
#     8   8   8   8   8   8   8   8
#     4  12  25  39  61  89 128 169 217 264 321 379
#     4  11  24  39  66  93 128 166 214 266 320 381
#     4  10  22  39  62  88 124 170 217 266 318 376
#     4  11  25  43  62  90 129 167 214 271 326 379
#     4   9  19  37  63  91 123 167 218 260 315 385
#     4   9  19  38  65  95 129 170 214 263 320 393
#     4  10  23  41  66  99 131 168 214 265 323 389
#     4  10  22  41  67  95 128 167 211 263 321 388
#
# _framework density 21.523844
#
# number of rings (size 3 to 8) (size 9 to 14) (size 15 to 20)
#    0.000    1.750    1.250    1.875    5.250    4.500 
#    0.000    0.625    0.000    0.750    0.000    0.000 
#    0.000    0.000    0.000    0.000    0.000    0.000 
#
# Total GULP energy -396549.226017 kJ/mol
# GULP energy per Si atom -12392.163313 kJ/mol
# Density = 2.147485 g / cm^3
# Si number density = 21.523844 Si / 1000 Ang^3
#
#
#
# Elastic Constant Matrix: (Units=GPa)
#
#
# Indices 1 2 3 4 5 6 
#
# 1 131.6512 35.0327 36.4145 0.0000 0.0000 0.0000
# 2 35.0327 90.9578 32.0653 0.0000 0.0000 0.0000
# 3 36.4145 32.0653 100.1798 0.0000 0.0000 0.0000
# 4 0.0000 0.0000 0.0000 30.4165 0.0000 0.0000
# 5 0.0000 0.0000 0.0000 0.0000 39.4027 0.0000
# 6 0.0000 0.0000 0.0000 0.0000 0.0000 20.8137
#
#
#
# Elastic Compliance Matrix: (Units=1/GPa)
#
#
# Indices 1 2 3 4 5 6 
#
# 1 0.008957 -0.002595 -0.002425 0.000000 0.000000 0.000000
# 2 -0.002595 0.013144 -0.003264 0.000000 0.000000 0.000000
# 3 -0.002425 -0.003264 0.011908 0.000000 0.000000 0.000000
# 4 0.000000 0.000000 0.000000 0.032877 0.000000 0.000000
# 5 0.000000 0.000000 0.000000 0.000000 0.025379 0.000000
# 6 0.000000 0.000000 0.000000 0.000000 0.000000 0.048045
#
#
# Mechanical properties :
#
#
# Convention : Reuss Voigt Hill
#
# Bulk Modulus (GPa) = 57.33470 58.86821 58.10145
# Shear Modulus (GPa) = 30.73276 32.74501 31.73888
#
# Velocity S-wave (km/s) = 3.78279 3.90466 3.84421
# Velocity P-wave (km/s) = 6.76571 6.90928 6.83787
#
# Compressibility (1/GPa) = 0.01744144
#
# Stress axis : x y z
#
# Youngs Moduli (GPa) = 111.64239 76.07940 83.97485
#
# Poissons Ratio (x) = 0.19742 0.20366
# Poissons Ratio (y) = 0.28970 0.27409
# Poissons Ratio (z) = 0.27077 0.24832
#
# Static dielectric constant tensor:
#      x y z
#    x 4.116000 0.000000 0.000000 
#    y 0.000000 3.912770 0.000000 
#    z 0.000000 0.000000 3.723360 
# 
# 
# High freq. dielectric constant tensor:
#      x y z
#    x 1.848290 0.000000 0.000000 
#    y 0.000000 1.839880 0.000000 
#    z 0.000000 0.000000 1.839790 
# 
# From -- ./inp_files/6873.got.cif
#   From: 2010.03.12/outbox.cif.g09.slc.cpg/sg39_4_cif.got.tgz:6873.got - 2010.04.14 02:53:20.
