data_PCOD8182096
_publ_section_title
;
Structure prediction by ZEFSAII (Michael W. Deem and Ramdas Pophale) SiO2 
 PCOD8182096
Probable space group: A B M 2
;
_chemical_formula_sum "Si O2"
_cell_formula_units_Z 56
_cell_length_a 15.284669
_cell_length_b 8.999108
_cell_length_c 20.246770
_cell_angle_alpha 90.000000
_cell_angle_beta 90.000000
_cell_angle_gamma 90.000000
_cell_volume 2784.910557
_symmetry_space_group_name_H-M "A B M 2"
_symmetry_group_IT_number 39
_symmetry_cell_setting 'orthorhombic'
loop_
_space_group_symop_operation_xyz
x,y,z
-x,-y,z
-x,1/2+y,z
x,1/2-y,z
x,1/2+y,1/2+z
-x,1/2-y,1/2+z
-x,y,1/2+z
x,-y,1/2+z
loop_
_atom_site_type_symbol
_atom_site_label
_atom_site_fract_x
_atom_site_fract_y
_atom_site_fract_z
Si Si1 0.414612 0.075751 0.760620
Si Si2 0.237363 0.579116 0.945327
Si Si3 0.827472 0.417814 0.662490
Si Si4 0.627948 0.917502 0.131780
Si Si5 0.242305 0.420428 0.298708
Si Si6 0.910790 0.074588 0.046067
Si Si7 0.587697 0.075873 0.483402
O O1 0.421185 0.250000 0.769694
O O2 0.500000 0.000000 0.793170
O O3 0.411820 0.033872 0.683208
O O4 0.329443 0.018160 0.798178
O O5 0.259283 0.750000 0.961529
O O6 0.198400 0.562882 0.870757
O O7 0.165294 0.518262 0.996487
O O8 0.326589 0.487332 0.948112
O O9 0.863905 0.250000 0.656789
O O10 0.732265 0.430226 0.630234
O O11 0.823763 0.469748 0.739711
O O12 0.890838 0.525180 0.621263
O O13 0.599840 0.750000 0.151679
O O14 0.592342 0.962136 0.060660
O O15 0.269715 0.250000 0.283698
O O16 0.921316 0.250000 0.043235
O O17 0.000000 0.000000 0.021418
O O18 0.583638 0.250000 0.469031
O O19 0.500000 0.000000 0.454492
#
# Coordination Sequence:
#
# PCOD8182096 Si02
#       7
#     8   8   8   8   8   8   8
#     4  11  21  32  50  77 110 150 199 249 294 345
#     4  10  22  41  62  86 119 159 200 245 293 350
#     4   9  17  35  61  87 115 147 185 236 292 348
#     4   9  18  33  53  79 112 151 191 241 299 346
#     4   9  20  39  60  81 113 155 194 236 295 352
#     4  11  23  39  64  94 121 152 192 239 295 355
#     4  11  22  35  54  82 118 160 204 248 296 348
#
# _framework density 20.108364999999999
#
# number of rings (size 3 to 8) (size 9 to 14) (size 15 to 20)
#    0.000    2.000    1.429    3.429    0.000    6.286 
#    0.000    0.714    0.000    1.714    0.000    0.000 
#    0.000    0.000    0.000    0.000    0.000    0.000 
#
# Total GULP energy -347204.831179 kJ/mol
# GULP energy per Si atom -12400.172542 kJ/mol
# Density = 2.006260 g / cm^3
# Si number density = 20.108365 Si / 1000 Ang^3
#
#
#
# Elastic Constant Matrix: (Units=GPa)
#
#
# Indices 1 2 3 4 5 6 
#
# 1 90.4660 36.0552 44.0380 0.0000 0.0000 0.0000
# 2 36.0552 90.3408 36.8381 0.0000 0.0000 0.0000
# 3 44.0380 36.8381 109.6871 0.0000 0.0000 0.0000
# 4 0.0000 0.0000 0.0000 23.5771 0.0000 0.0000
# 5 0.0000 0.0000 0.0000 0.0000 5.9305 0.0000
# 6 0.0000 0.0000 0.0000 0.0000 0.0000 32.4187
#
#
#
# Elastic Compliance Matrix: (Units=1/GPa)
#
#
# Indices 1 2 3 4 5 6 
#
# 1 0.014929 -0.004072 -0.004626 0.000000 0.000000 0.000000
# 2 -0.004072 0.013936 -0.003046 0.000000 0.000000 0.000000
# 3 -0.004626 -0.003046 0.011997 0.000000 0.000000 0.000000
# 4 0.000000 0.000000 0.000000 0.042414 0.000000 0.000000
# 5 0.000000 0.000000 0.000000 0.000000 0.168620 0.000000
# 6 0.000000 0.000000 0.000000 0.000000 0.000000 0.030846
#
#
# Mechanical properties :
#
#
# Convention : Reuss Voigt Hill
#
# Bulk Modulus (GPa) = 57.55469 58.26181 57.90825
# Shear Modulus (GPa) = 16.02455 23.95610 19.99032
#
# Velocity S-wave (km/s) = 2.82602 3.45534 3.15640
# Velocity P-wave (km/s) = 6.27160 6.70492 6.49188
#
# Compressibility (1/GPa) = 0.01737478
#
# Stress axis : x y z
#
# Youngs Moduli (GPa) = 66.98550 71.75598 83.35351
#
# Poissons Ratio (x) = 0.29216 0.38561
# Poissons Ratio (y) = 0.27274 0.25387
# Poissons Ratio (z) = 0.30989 0.21855
#
# Static dielectric constant tensor:
#      x y z
#    x 3.459990 0.000000 0.000000 
#    y 0.000000 3.533150 0.000000 
#    z 0.000000 0.000000 3.709390 
# 
# 
# High freq. dielectric constant tensor:
#      x y z
#    x 1.763340 0.000000 0.000000 
#    y 0.000000 1.780360 0.000000 
#    z 0.000000 0.000000 1.788520 
# 
# From -- ./inp_files/14754.got.cif
#   From: 2010.03.12/outbox.cif.g09.slc.cpg/sg39_8_cif.got.tgz:14754.got - 2010.04.14 02:53:20.
