data_PCOD8182974
_publ_section_title
;
Structure prediction by ZEFSAII (Michael W. Deem and Ramdas Pophale) SiO2 
 PCOD8182974
Probable space group: A M A 2
;
_chemical_formula_sum "Si O2"
_cell_formula_units_Z 64
_cell_length_a 22.056292
_cell_length_b 15.189645
_cell_length_c 9.804346
_cell_angle_alpha 90.000000
_cell_angle_beta 90.000000
_cell_angle_gamma 90.000000
_cell_volume 3284.723034
_symmetry_space_group_name_H-M "A M A 2"
_symmetry_group_IT_number 40
_symmetry_cell_setting 'orthorhombic'
loop_
_space_group_symop_operation_xyz
x,y,z
-x,-y,z
1/2-x,y,z
1/2+x,-y,z
x,1/2+y,1/2+z
-x,1/2-y,1/2+z
1/2-x,1/2+y,1/2+z
1/2+x,1/2-y,1/2+z
loop_
_atom_site_type_symbol
_atom_site_label
_atom_site_fract_x
_atom_site_fract_y
_atom_site_fract_z
Si Si1 0.121090 0.550289 0.652530
Si Si2 0.003874 0.129363 0.260580
Si Si3 0.396843 0.687867 0.429962
Si Si4 0.682416 0.224505 0.221609
Si Si5 0.523623 0.670644 0.296382
Si Si6 0.318217 0.457354 0.886203
Si Si7 0.900010 0.131402 0.042633
Si Si8 0.928534 0.118821 0.517086
O O1 0.053002 0.558676 0.711007
O O2 0.134343 0.630764 0.550131
O O3 0.165723 0.538876 0.783493
O O4 0.127971 0.464898 0.558791
O O5 0.033368 0.225095 0.281284
O O6 0.954458 0.146619 0.146473
O O7 0.974248 0.090758 0.397291
O O8 0.349575 0.697830 0.306412
O O9 0.458865 0.646910 0.366492
O O10 0.409617 0.780580 0.498919
O O11 0.750000 0.256092 0.191400
O O12 0.679101 0.133023 0.302726
O O13 0.649118 0.207560 0.077335
O O14 0.578967 0.639861 0.389193
O O15 0.534200 0.613934 0.158566
O O16 0.250000 0.472785 0.945079
O O17 0.368742 0.445419 0.007019
#
# Coordination Sequence:
#
# PCOD8182974 Si02
#       8
#     8   8   8   8   8   8   8   8
#     4  11  20  34  56  84 113 142 181 237 288 332
#     4  11  18  33  55  80 112 144 180 227 281 343
#     4  10  19  31  54  82 112 146 181 242 279 333
#     4   9  18  35  55  79 108 151 197 224 265 340
#     4  11  20  32  54  85 114 141 182 231 289 337
#     4   9  19  35  56  78 109 152 197 230 268 334
#     4  11  20  34  57  82 113 145 181 231 286 336
#     4  10  19  34  53  83 109 150 188 222 284 335
#
# _framework density 19.484138000000002
#
# number of rings (size 3 to 8) (size 9 to 14) (size 15 to 20)
#    0.000    1.750    7.500    1.125    0.000    0.500 
#    0.000    3.125    0.000    0.750    0.000    0.000 
#    0.000    0.000    0.000    0.000    0.000    0.000 
#
# Total GULP energy -396579.296290 kJ/mol
# GULP energy per Si atom -12393.103009 kJ/mol
# Density = 1.943979 g / cm^3
# Si number density = 19.484138 Si / 1000 Ang^3
#
#
#
# Elastic Constant Matrix: (Units=GPa)
#
#
# Indices 1 2 3 4 5 6 
#
# 1 107.4609 18.2432 38.3532 0.0000 0.0000 0.0000
# 2 18.2432 47.5906 21.1165 0.0000 0.0000 0.0000
# 3 38.3532 21.1165 93.2500 0.0000 0.0000 0.0000
# 4 0.0000 0.0000 0.0000 24.5453 0.0000 0.0000
# 5 0.0000 0.0000 0.0000 0.0000 3.8176 0.0000
# 6 0.0000 0.0000 0.0000 0.0000 0.0000 7.7418
#
#
#
# Elastic Compliance Matrix: (Units=1/GPa)
#
#
# Indices 1 2 3 4 5 6 
#
# 1 0.011167 -0.002493 -0.004028 0.000000 0.000000 0.000000
# 2 -0.002493 0.023916 -0.004390 0.000000 0.000000 0.000000
# 3 -0.004028 -0.004390 0.013375 0.000000 0.000000 0.000000
# 4 0.000000 0.000000 0.000000 0.040741 0.000000 0.000000
# 5 0.000000 0.000000 0.000000 0.000000 0.261948 0.000000
# 6 0.000000 0.000000 0.000000 0.000000 0.000000 0.129169
#
#
# Mechanical properties :
#
#
# Convention : Reuss Voigt Hill
#
# Bulk Modulus (GPa) = 37.54572 44.85859 41.20215
# Shear Modulus (GPa) = 9.78440 18.59351 14.18895
#
# Velocity S-wave (km/s) = 2.24335 3.09251 2.70150
# Velocity P-wave (km/s) = 5.10117 5.98537 5.56087
#
# Compressibility (1/GPa) = 0.02663420
#
# Stress axis : x y z
#
# Youngs Moduli (GPa) = 89.55239 41.81234 74.76726
#
# Poissons Ratio (x) = 0.10425 0.30118
# Poissons Ratio (y) = 0.22328 0.32826
# Poissons Ratio (z) = 0.36073 0.18357
#
# Static dielectric constant tensor:
#      x y z
#    x 3.776450 0.000000 0.000000 
#    y 0.000000 3.414680 0.000000 
#    z 0.000000 0.000000 3.560300 
# 
# 
# High freq. dielectric constant tensor:
#      x y z
#    x 1.744510 0.000000 0.000000 
#    y 0.000000 1.738640 0.000000 
#    z 0.000000 0.000000 1.744770 
# 
# From -- ./inp_files/8984.got.cif
#   From: 2010.03.12/outbox.cif.g09.slc.cpg/sg40_5_cif.got.tgz:8984.got - 2010.04.14 01:38:03.
