data_PCOD8182912
_publ_section_title
;
Structure prediction by ZEFSAII (Michael W. Deem and Ramdas Pophale) SiO2 
 PCOD8182912
Probable space group: A M A 2
;
_chemical_formula_sum "Si O2"
_cell_formula_units_Z 56
_cell_length_a 8.815024
_cell_length_b 19.226760
_cell_length_c 17.146781
_cell_angle_alpha 90.000000
_cell_angle_beta 90.000000
_cell_angle_gamma 90.000000
_cell_volume 2906.111047
_symmetry_space_group_name_H-M "A M A 2"
_symmetry_group_IT_number 40
_symmetry_cell_setting 'orthorhombic'
loop_
_space_group_symop_operation_xyz
x,y,z
-x,-y,z
1/2-x,y,z
1/2+x,-y,z
x,1/2+y,1/2+z
-x,1/2-y,1/2+z
1/2-x,1/2+y,1/2+z
1/2+x,1/2-y,1/2+z
loop_
_atom_site_type_symbol
_atom_site_label
_atom_site_fract_x
_atom_site_fract_y
_atom_site_fract_z
Si Si1 0.076546 0.212417 0.084750
Si Si2 0.076458 0.346227 0.175734
Si Si3 0.931311 0.198224 0.441837
Si Si4 0.414468 0.064473 0.098138
Si Si5 0.416493 0.565621 0.417177
Si Si6 0.569491 0.423783 0.033801
Si Si7 0.070862 0.309666 0.346234
O O1 0.250000 0.193196 0.063464
O O2 0.064225 0.264698 0.156305
O O3 0.997707 0.138882 0.107973
O O4 0.007388 0.249573 0.008902
O O5 0.250000 0.372134 0.166182
O O6 0.020476 0.346444 0.264970
O O7 0.974746 0.393519 0.119123
O O8 0.750000 0.189875 0.440548
O O9 0.004014 0.123398 0.462715
O O10 0.992543 0.233839 0.361859
O O11 0.250000 0.067740 0.139079
O O12 0.500000 0.000000 0.139063
O O13 0.396345 0.048224 0.007315
O O14 0.500000 0.500000 0.376098
O O15 0.250000 0.575440 0.378598
O O16 0.514509 0.635753 0.410663
O O17 0.500000 0.500000 0.023929
O O18 0.750000 0.427120 0.027645
O O19 0.250000 0.298560 0.348993
#
# Coordination Sequence:
#
# PCOD8182912 Si02
#       7
#     8   8   8   8   8   8   8
#     4   8  14  30  51  69  93 129 171 211 259 313
#     4   9  20  36  54  76 106 144 181 222 275 330
#     4  10  19  35  57  79 106 142 182 228 278 326
#     4   9  16  27  44  68  93 123 160 198 246 299
#     4  10  19  31  46  69 100 136 170 208 257 309
#     4  11  22  38  60  86 112 143 186 235 286 342
#     4  11  21  33  51  79 110 143 185 228 271 326
#
# _framework density 19.269738
#
# number of rings (size 3 to 8) (size 9 to 14) (size 15 to 20)
#    0.000    2.286    1.429    3.429    0.000    2.286 
#    0.000    0.714    0.000    0.857    0.000    2.000 
#    0.000    0.000    0.000    0.000    0.000    0.000 
#
# Total GULP energy -346923.822056 kJ/mol
# GULP energy per Si atom -12390.136502 kJ/mol
# Density = 1.922588 g / cm^3
# Si number density = 19.269738 Si / 1000 Ang^3
#
#
#
# Elastic Constant Matrix: (Units=GPa)
#
#
# Indices 1 2 3 4 5 6 
#
# 1 104.9539 51.1633 24.7660 0.0000 0.0000 0.0000
# 2 51.1633 149.7057 14.2537 0.0000 0.0000 0.0000
# 3 24.7660 14.2537 33.0093 0.0000 0.0000 0.0000
# 4 0.0000 0.0000 0.0000 17.3837 0.0000 0.0000
# 5 0.0000 0.0000 0.0000 0.0000 17.6208 0.0000
# 6 0.0000 0.0000 0.0000 0.0000 0.0000 33.2745
#
#
#
# Elastic Compliance Matrix: (Units=1/GPa)
#
#
# Indices 1 2 3 4 5 6 
#
# 1 0.013340 -0.003761 -0.008385 0.000000 0.000000 0.000000
# 2 -0.003761 0.008026 -0.000644 0.000000 0.000000 0.000000
# 3 -0.008385 -0.000644 0.036863 0.000000 0.000000 0.000000
# 4 0.000000 0.000000 0.000000 0.057525 0.000000 0.000000
# 5 0.000000 0.000000 0.000000 0.000000 0.056751 0.000000
# 6 0.000000 0.000000 0.000000 0.000000 0.000000 0.030053
#
#
# Mechanical properties :
#
#
# Convention : Reuss Voigt Hill
#
# Bulk Modulus (GPa) = 30.62748 52.00387 41.31567
# Shear Modulus (GPa) = 20.91862 26.82153 23.87008
#
# Velocity S-wave (km/s) = 3.29837 3.73486 3.52338
# Velocity P-wave (km/s) = 5.51673 6.75610 6.16762
#
# Compressibility (1/GPa) = 0.03265042
#
# Stress axis : x y z
#
# Youngs Moduli (GPa) = 74.96373 124.58939 27.12715
#
# Poissons Ratio (x) = 0.46854 0.22745
# Poissons Ratio (y) = 0.28192 0.01748
# Poissons Ratio (z) = 0.62854 0.08027
#
# Static dielectric constant tensor:
#      x y z
#    x 3.572200 0.000000 0.000000 
#    y 0.000000 3.728810 0.000000 
#    z 0.000000 0.000000 3.199910 
# 
# 
# High freq. dielectric constant tensor:
#      x y z
#    x 1.740100 0.000000 0.000000 
#    y 0.000000 1.762000 0.000000 
#    z 0.000000 0.000000 1.702360 
# 
# From -- ./inp_files/22481.got.cif
#   From: 2010.03.12/outbox.cif.g09.slc.cpg/sg40_12_cif.got.tgz:22481.got - 2010.04.14 01:38:03.
