data_PCOD8182871
_publ_section_title
;
Structure prediction by ZEFSAII (Michael W. Deem and Ramdas Pophale) SiO2 
 PCOD8182871
Probable space group: A M A 2
;
_chemical_formula_sum "Si O2"
_cell_formula_units_Z 64
_cell_length_a 9.414290
_cell_length_b 14.490612
_cell_length_c 27.819257
_cell_angle_alpha 90.000000
_cell_angle_beta 90.000000
_cell_angle_gamma 90.000000
_cell_volume 3795.070315
_symmetry_space_group_name_H-M "A M A 2"
_symmetry_group_IT_number 40
_symmetry_cell_setting 'orthorhombic'
loop_
_space_group_symop_operation_xyz
x,y,z
-x,-y,z
1/2-x,y,z
1/2+x,-y,z
x,1/2+y,1/2+z
-x,1/2-y,1/2+z
1/2-x,1/2+y,1/2+z
1/2+x,1/2-y,1/2+z
loop_
_atom_site_type_symbol
_atom_site_label
_atom_site_fract_x
_atom_site_fract_y
_atom_site_fract_z
Si Si1 0.418331 0.586197 0.234390
Si Si2 0.092222 0.857704 0.647311
Si Si3 0.414663 0.787190 0.267200
Si Si4 0.914568 0.090441 0.354740
Si Si5 0.904968 0.848462 0.183771
Si Si6 0.417851 0.587504 0.581663
Si Si7 0.081965 0.283744 0.049183
Si Si8 0.416344 0.908648 0.463498
O O1 0.500000 0.500000 0.259820
O O2 0.250000 0.569325 0.234368
O O3 0.476922 0.589252 0.179646
O O4 0.460678 0.679869 0.262811
O O5 0.250000 0.904787 0.650188
O O6 0.108350 0.755090 0.666100
O O7 0.032480 0.851763 0.592582
O O8 0.250000 0.795702 0.255694
O O9 0.453617 0.823580 0.320340
O O10 0.488794 0.854491 0.228618
O O11 0.750000 0.064460 0.350395
O O12 0.953521 0.120809 0.408986
O O13 0.000000 0.000000 0.338900
O O14 0.750000 0.883187 0.201132
O O15 0.957328 0.908116 0.138357
O O16 0.500000 0.500000 0.559287
O O17 0.250000 0.575337 0.573981
O O18 0.476811 0.679440 0.554781
O O19 0.250000 0.276861 0.053460
O O20 0.032709 0.325932 0.998302
O O21 0.250000 0.928761 0.470024
O O22 0.500000 0.000000 0.478350
#
# Coordination Sequence:
#
# PCOD8182871 Si02
#       8
#     8   8   8   8   8   8   8   8
#     4  10  19  30  44  63  89 120 152 183 215 254
#     4   8  14  27  44  61  84 113 146 180 212 250
#     4   9  18  31  46  65  89 116 148 184 218 257
#     4   9  18  32  49  69  90 112 141 179 223 268
#     4   8  15  27  42  60  84 115 147 178 213 253
#     4   9  17  29  44  64  91 122 154 183 213 253
#     4   8  15  29  48  67  89 119 150 179 216 264
#     4   9  17  31  50  69  89 113 142 178 222 269
#
# _framework density 16.863983000000001
#
# number of rings (size 3 to 8) (size 9 to 14) (size 15 to 20)
#    0.000    3.250    0.000    1.875    0.000    2.500 
#    0.000    6.875    0.000    0.750    0.000    0.000 
#    0.000    0.000    0.000    0.000    0.000    0.000 
#
# Total GULP energy -396553.019545 kJ/mol
# GULP energy per Si atom -12392.281861 kJ/mol
# Density = 1.682560 g / cm^3
# Si number density = 16.863983 Si / 1000 Ang^3
#
#
#
# Elastic Constant Matrix: (Units=GPa)
#
#
# Indices 1 2 3 4 5 6 
#
# 1 51.4102 41.6297 35.5671 0.0000 0.0000 0.0000
# 2 41.6297 104.5067 60.6439 0.0000 0.0000 0.0000
# 3 35.5671 60.6439 98.8613 0.0000 0.0000 0.0000
# 4 0.0000 0.0000 0.0000 24.0918 0.0000 0.0000
# 5 0.0000 0.0000 0.0000 0.0000 17.5640 0.0000
# 6 0.0000 0.0000 0.0000 0.0000 0.0000 25.6224
#
#
#
# Elastic Compliance Matrix: (Units=1/GPa)
#
#
# Indices 1 2 3 4 5 6 
#
# 1 0.030504 -0.008979 -0.005466 0.000000 0.000000 0.000000
# 2 -0.008979 0.017500 -0.007505 0.000000 0.000000 0.000000
# 3 -0.005466 -0.007505 0.016685 0.000000 0.000000 0.000000
# 4 0.000000 0.000000 0.000000 0.041508 0.000000 0.000000
# 5 0.000000 0.000000 0.000000 0.000000 0.056935 0.000000
# 6 0.000000 0.000000 0.000000 0.000000 0.000000 0.039028
#
#
# Mechanical properties :
#
#
# Convention : Reuss Voigt Hill
#
# Bulk Modulus (GPa) = 48.10142 58.93993 53.52068
# Shear Modulus (GPa) = 19.76353 21.25147 20.50750
#
# Velocity S-wave (km/s) = 3.42707 3.55374 3.49098
# Velocity P-wave (km/s) = 6.65168 7.20172 6.93216
#
# Compressibility (1/GPa) = 0.02078941
#
# Stress axis : x y z
#
# Youngs Moduli (GPa) = 32.78260 57.14123 59.93234
#
# Poissons Ratio (x) = 0.51307 0.32761
# Poissons Ratio (y) = 0.29436 0.44978
# Poissons Ratio (z) = 0.17920 0.42884
#
# Static dielectric constant tensor:
#      x y z
#    x 3.156560 0.000000 0.000000 
#    y 0.000000 3.222990 0.000000 
#    z 0.000000 0.000000 3.253540 
# 
# 
# High freq. dielectric constant tensor:
#      x y z
#    x 1.638360 0.000000 0.000000 
#    y 0.000000 1.643360 0.000000 
#    z 0.000000 0.000000 1.628860 
# 
# From -- ./inp_files/26438.got.cif
#   From: 2010.03.12/outbox.cif.g09.slc.cpg/sg40_14_cif.got.tgz:26438.got - 2010.04.14 01:38:03.
