data_PCOD8182628
_publ_section_title
;
Structure prediction by ZEFSAII (Michael W. Deem and Ramdas Pophale) SiO2 
 PCOD8182628
Probable space group: A M A 2
;
_chemical_formula_sum "Si O2"
_cell_formula_units_Z 48
_cell_length_a 18.990778
_cell_length_b 18.885731
_cell_length_c 7.436434
_cell_angle_alpha 90.000000
_cell_angle_beta 90.000000
_cell_angle_gamma 90.000000
_cell_volume 2667.112190
_symmetry_space_group_name_H-M "A M A 2"
_symmetry_group_IT_number 40
_symmetry_cell_setting 'orthorhombic'
loop_
_space_group_symop_operation_xyz
x,y,z
-x,-y,z
1/2-x,y,z
1/2+x,-y,z
x,1/2+y,1/2+z
-x,1/2-y,1/2+z
1/2-x,1/2+y,1/2+z
1/2+x,1/2-y,1/2+z
loop_
_atom_site_type_symbol
_atom_site_label
_atom_site_fract_x
_atom_site_fract_y
_atom_site_fract_z
Si Si1 0.329161 0.241802 0.092130
Si Si2 0.465298 0.168930 0.012285
Si Si3 0.533476 0.817652 0.604139
Si Si4 0.526678 0.577516 0.811262
Si Si5 0.829150 0.639560 0.800297
Si Si6 0.171419 0.746324 0.003022
O O1 0.250000 0.213413 0.061280
O O2 0.341539 0.267052 0.296084
O O3 0.381498 0.177922 0.042031
O O4 0.344668 0.308846 0.967065
O O5 0.481568 0.154661 0.804125
O O6 0.503504 0.238873 0.084756
O O7 0.493175 0.101638 0.122253
O O8 0.497076 0.870139 0.467460
O O9 0.617243 0.814259 0.566184
O O10 0.500000 0.500000 0.859117
O O11 0.612166 0.577866 0.801914
O O12 0.750000 0.607342 0.813314
O O13 0.839048 0.682181 0.615475
O O14 0.250000 0.715583 0.033441
#
# Coordination Sequence:
#
# PCOD8182628 Si02
#       6
#     8   8   8   8   8   8
#     4  10  18  30  55  91 116 142 193 251 295 337
#     4  12  20  35  61  86 114 153 198 246 290 346
#     4  12  20  35  61  86 114 153 198 246 290 346
#     4  12  26  40  56  88 126 158 198 242 301 353
#     4  10  20  36  58  84 114 150 194 242 294 353
#     4  10  18  30  55  91 116 142 193 251 295 337
#
# _framework density 17.996991999999999
#
# number of rings (size 3 to 8) (size 9 to 14) (size 15 to 20)
#    0.000    1.000    8.333    0.000    0.000    0.667 
#    0.000    1.667    0.000    0.000    0.000    0.000 
#    0.000    0.000    0.000    0.000    0.000    0.000 
#
# Total GULP energy -297617.655670 kJ/mol
# GULP energy per Si atom -12400.735653 kJ/mol
# Density = 1.795603 g / cm^3
# Si number density = 17.996992 Si / 1000 Ang^3
#
#
#
# Elastic Constant Matrix: (Units=GPa)
#
#
# Indices 1 2 3 4 5 6 
#
# 1 141.1913 27.5723 14.3560 0.0000 0.0000 0.0000
# 2 27.5723 38.4615 -3.9749 0.0000 0.0000 0.0000
# 3 14.3560 -3.9749 104.9319 0.0000 0.0000 0.0000
# 4 0.0000 0.0000 0.0000 10.4689 0.0000 0.0000
# 5 0.0000 0.0000 0.0000 0.0000 23.5769 0.0000
# 6 0.0000 0.0000 0.0000 0.0000 0.0000 22.3763
#
#
#
# Elastic Compliance Matrix: (Units=1/GPa)
#
#
# Indices 1 2 3 4 5 6 
#
# 1 0.008432 -0.006188 -0.001388 0.000000 0.000000 0.000000
# 2 -0.006188 0.030644 0.002007 0.000000 0.000000 0.000000
# 3 -0.001388 0.002007 0.009796 0.000000 0.000000 0.000000
# 4 0.000000 0.000000 0.000000 0.095521 0.000000 0.000000
# 5 0.000000 0.000000 0.000000 0.000000 0.042414 0.000000
# 6 0.000000 0.000000 0.000000 0.000000 0.000000 0.044690
#
#
# Mechanical properties :
#
#
# Convention : Reuss Voigt Hill
#
# Bulk Modulus (GPa) = 26.50127 40.05461 33.27794
# Shear Modulus (GPa) = 19.59145 27.72650 23.65897
#
# Velocity S-wave (km/s) = 3.30297 3.92933 3.62968
# Velocity P-wave (km/s) = 5.41327 6.54910 6.00809
#
# Compressibility (1/GPa) = 0.03773404
#
# Stress axis : x y z
#
# Youngs Moduli (GPa) = 118.59305 32.63307 102.08314
#
# Poissons Ratio (x) = 0.20194 0.14170
# Poissons Ratio (y) = 0.73389 -0.20493
# Poissons Ratio (z) = 0.16461 -0.06551
#
# Static dielectric constant tensor:
#      x y z
#    x 3.895490 0.000000 0.000000 
#    y 0.000000 2.795220 0.000000 
#    z 0.000000 0.000000 3.585680 
# 
# 
# High freq. dielectric constant tensor:
#      x y z
#    x 1.726940 0.000000 0.000000 
#    y 0.000000 1.621520 0.000000 
#    z 0.000000 0.000000 1.721340 
# 
# From -- ./inp_files/7570.got.cif
#   From: 2010.03.12/outbox.cif.g09.slc.cpg/sg40_4_cif.got.tgz:7570.got - 2010.04.14 01:38:03.
