data_PCOD8182874
_publ_section_title
;
Structure prediction by ZEFSAII (Michael W. Deem and Ramdas Pophale) SiO2 
 PCOD8182874
Probable space group: A M A 2
;
_chemical_formula_sum "Si O2"
_cell_formula_units_Z 56
_cell_length_a 8.924398
_cell_length_b 18.319195
_cell_length_c 20.973249
_cell_angle_alpha 90.000000
_cell_angle_beta 90.000000
_cell_angle_gamma 90.000000
_cell_volume 3428.870070
_symmetry_space_group_name_H-M "A M A 2"
_symmetry_group_IT_number 40
_symmetry_cell_setting 'orthorhombic'
loop_
_space_group_symop_operation_xyz
x,y,z
-x,-y,z
1/2-x,y,z
1/2+x,-y,z
x,1/2+y,1/2+z
-x,1/2-y,1/2+z
1/2-x,1/2+y,1/2+z
1/2+x,1/2-y,1/2+z
loop_
_atom_site_type_symbol
_atom_site_label
_atom_site_fract_x
_atom_site_fract_y
_atom_site_fract_z
Si Si1 0.079652 0.926367 0.658300
Si Si2 0.427360 0.424465 0.658351
Si Si3 0.421195 0.282110 0.591099
Si Si4 0.918470 0.221082 0.707830
Si Si5 0.572067 0.578824 0.903692
Si Si6 0.573466 0.155351 0.531865
Si Si7 0.577205 0.356427 0.782801
O O1 0.250000 0.947946 0.646998
O O2 0.060187 0.866550 0.715562
O O3 0.015423 0.892199 0.592239
O O4 0.000000 0.000000 0.679293
O O5 0.500000 0.500000 0.635746
O O6 0.250000 0.431667 0.671874
O O7 0.457777 0.368299 0.599519
O O8 0.509746 0.399523 0.722860
O O9 0.250000 0.269537 0.573420
O O10 0.455304 0.247934 0.659791
O O11 0.514904 0.239137 0.536997
O O12 0.750000 0.234067 0.678869
O O13 0.934186 0.268289 0.772348
O O14 0.500000 0.500000 0.898285
O O15 0.750000 0.571319 0.902729
O O16 0.518788 0.627490 0.844932
O O17 0.512832 0.617754 0.967800
O O18 0.750000 0.159434 0.530828
O O19 0.750000 0.380765 0.791823
#
# Coordination Sequence:
#
# PCOD8182874 Si02
#       7
#     8   8   8   8   8   8   8
#     4   9  16  27  43  65  89 113 142 176 216 262
#     4  10  19  30  45  68  94 119 147 183 225 269
#     4   9  17  28  45  67  88 111 146 187 222 259
#     4   8  16  30  45  61  86 118 149 179 220 270
#     4  11  22  34  47  66  92 122 155 188 219 259
#     4   9  19  33  46  61  88 123 152 179 217 264
#     4  10  19  32  48  64  87 122 156 188 224 263
#
# _framework density 16.331911999999999
#
# number of rings (size 3 to 8) (size 9 to 14) (size 15 to 20)
#    0.000    2.571    0.000    3.429    0.000    5.714 
#    0.000    0.000    0.000    0.000    0.000    1.000 
#    0.000    2.286    0.000    0.000    0.000    0.000 
#
# Total GULP energy -346956.919900 kJ/mol
# GULP energy per Si atom -12391.318568 kJ/mol
# Density = 1.629474 g / cm^3
# Si number density = 16.331912 Si / 1000 Ang^3
#
#
#
# Elastic Constant Matrix: (Units=GPa)
#
#
# Indices 1 2 3 4 5 6 
#
# 1 53.0909 42.1070 20.5333 0.0000 0.0000 0.0000
# 2 42.1070 135.1542 48.4019 0.0000 0.0000 0.0000
# 3 20.5333 48.4019 61.4171 0.0000 0.0000 0.0000
# 4 0.0000 0.0000 0.0000 25.2979 0.0000 0.0000
# 5 0.0000 0.0000 0.0000 0.0000 18.9971 0.0000
# 6 0.0000 0.0000 0.0000 0.0000 0.0000 28.8782
#
#
#
# Elastic Compliance Matrix: (Units=1/GPa)
#
#
# Indices 1 2 3 4 5 6 
#
# 1 0.025447 -0.006800 -0.003148 0.000000 0.000000 0.000000
# 2 -0.006800 0.012126 -0.007282 0.000000 0.000000 0.000000
# 3 -0.003148 -0.007282 0.023074 0.000000 0.000000 0.000000
# 4 0.000000 0.000000 0.000000 0.039529 0.000000 0.000000
# 5 0.000000 0.000000 0.000000 0.000000 0.052640 0.000000
# 6 0.000000 0.000000 0.000000 0.000000 0.000000 0.034628
#
#
# Mechanical properties :
#
#
# Convention : Reuss Voigt Hill
#
# Bulk Modulus (GPa) = 38.19121 52.41629 45.30375
# Shear Modulus (GPa) = 21.67945 23.87597 22.77771
#
# Velocity S-wave (km/s) = 3.64734 3.82766 3.73859
# Velocity P-wave (km/s) = 6.41659 7.19018 6.81437
#
# Compressibility (1/GPa) = 0.02618404
#
# Stress axis : x y z
#
# Youngs Moduli (GPa) = 39.29785 82.46981 43.33908
#
# Poissons Ratio (x) = 0.56083 0.13644
# Poissons Ratio (y) = 0.26724 0.31562
# Poissons Ratio (z) = 0.12372 0.60059
#
# Static dielectric constant tensor:
#      x y z
#    x 3.151310 0.000000 0.000000 
#    y 0.000000 3.365800 0.000000 
#    z 0.000000 0.000000 2.911460 
# 
# 
# High freq. dielectric constant tensor:
#      x y z
#    x 1.638570 0.000000 0.000000 
#    y 0.000000 1.635270 0.000000 
#    z 0.000000 0.000000 1.581260 
# 
# From -- ./inp_files/22294.got.cif
#   From: 2010.03.12/outbox.cif.g09.slc.cpg/sg40_12_cif.got.tgz:22294.got - 2010.04.14 01:38:03.
