data_PCOD8182720
_publ_section_title
;
Structure prediction by ZEFSAII (Michael W. Deem and Ramdas Pophale) SiO2 
 PCOD8182720
Probable space group: A M A 2
;
_chemical_formula_sum "Si O2"
_cell_formula_units_Z 64
_cell_length_a 8.712148
_cell_length_b 14.700543
_cell_length_c 24.362790
_cell_angle_alpha 90.000000
_cell_angle_beta 90.000000
_cell_angle_gamma 90.000000
_cell_volume 3120.223066
_symmetry_space_group_name_H-M "A M A 2"
_symmetry_group_IT_number 40
_symmetry_cell_setting 'orthorhombic'
loop_
_space_group_symop_operation_xyz
x,y,z
-x,-y,z
1/2-x,y,z
1/2+x,-y,z
x,1/2+y,1/2+z
-x,1/2-y,1/2+z
1/2-x,1/2+y,1/2+z
1/2+x,1/2-y,1/2+z
loop_
_atom_site_type_symbol
_atom_site_label
_atom_site_fract_x
_atom_site_fract_y
_atom_site_fract_z
Si Si1 0.570703 0.736873 0.959950
Si Si2 0.070493 0.400354 0.400032
Si Si3 0.927373 0.098266 0.778711
Si Si4 0.431180 0.599650 0.877048
Si Si5 0.567841 0.600639 0.766767
Si Si6 0.574116 0.731843 0.087046
Si Si7 0.429265 0.599680 0.170956
Si Si8 0.928229 0.902757 0.156904
O O1 0.750000 0.724150 0.947542
O O2 0.518150 0.837042 0.942488
O O3 0.473406 0.661046 0.928656
O O4 0.531888 0.725020 0.023566
O O5 0.250000 0.404807 0.414615
O O6 0.047527 0.357027 0.338725
O O7 0.000000 0.500000 0.404909
O O8 0.750000 0.090222 0.764061
O O9 0.009279 0.148569 0.727333
O O10 0.000000 0.000000 0.782638
O O11 0.500000 0.500000 0.886530
O O12 0.250000 0.591852 0.871061
O O13 0.499862 0.647094 0.821767
O O14 0.500000 0.500000 0.765701
O O15 0.750000 0.601740 0.769288
O O16 0.508013 0.644954 0.710143
O O17 0.750000 0.704959 0.098195
O O18 0.468301 0.661253 0.119002
O O19 0.543580 0.835240 0.106236
O O20 0.500000 0.500000 0.163094
O O21 0.250000 0.588674 0.175798
O O22 0.750000 0.917621 0.170071
O O23 0.000000 0.000000 0.141293
#
# Coordination Sequence:
#
# PCOD8182720 Si02
#       8
#     8   8   8   8   8   8   8   8
#     4  11  24  42  61  84 114 152 199 247 289 339
#     4  10  21  38  61  89 120 156 193 237 290 344
#     4   9  17  32  56  85 118 150 185 229 281 341
#     4  11  22  39  62  88 118 153 190 235 290 347
#     4  10  18  32  56  87 119 150 186 231 282 343
#     4  10  24  43  60  81 113 152 197 243 286 335
#     4  11  22  37  61  88 117 151 188 234 287 342
#     4  10  20  37  60  86 117 152 188 234 287 341
#
# _framework density 20.511354000000001
#
# number of rings (size 3 to 8) (size 9 to 14) (size 15 to 20)
#    0.000    1.750    0.000    7.125    0.000    5.500 
#    0.000    2.500    0.000    0.000    0.000    0.000 
#    0.000    0.000    0.000    0.000    0.000    0.000 
#
# Total GULP energy -396749.512055 kJ/mol
# GULP energy per Si atom -12398.422252 kJ/mol
# Density = 2.046467 g / cm^3
# Si number density = 20.511354 Si / 1000 Ang^3
#
#
#
# Elastic Constant Matrix: (Units=GPa)
#
#
# Indices 1 2 3 4 5 6 
#
# 1 153.2501 18.3517 32.3684 0.0000 0.0000 0.0000
# 2 18.3517 32.2564 -12.2914 0.0000 0.0000 0.0000
# 3 32.3684 -12.2914 53.8726 0.0000 0.0000 0.0000
# 4 0.0000 0.0000 0.0000 84.2921 0.0000 0.0000
# 5 0.0000 0.0000 0.0000 0.0000 31.4095 0.0000
# 6 0.0000 0.0000 0.0000 0.0000 0.0000 30.1346
#
#
#
# Elastic Compliance Matrix: (Units=1/GPa)
#
#
# Indices 1 2 3 4 5 6 
#
# 1 0.008984 -0.007850 -0.007189 0.000000 0.000000 0.000000
# 2 -0.007850 0.040814 0.014029 0.000000 0.000000 0.000000
# 3 -0.007189 0.014029 0.026082 0.000000 0.000000 0.000000
# 4 0.000000 0.000000 0.000000 0.011864 0.000000 0.000000
# 5 0.000000 0.000000 0.000000 0.000000 0.031838 0.000000
# 6 0.000000 0.000000 0.000000 0.000000 0.000000 0.033184
#
#
# Mechanical properties :
#
#
# Convention : Reuss Voigt Hill
#
# Bulk Modulus (GPa) = 13.53940 35.13739 24.33839
# Shear Modulus (GPa) = 27.86976 42.56393 35.21685
#
# Velocity S-wave (km/s) = 3.69012 4.56031 4.14810
# Velocity P-wave (km/s) = 4.97707 6.70048 5.90202
#
# Compressibility (1/GPa) = 0.07385850
#
# Stress axis : x y z
#
# Youngs Moduli (GPa) = 111.31212 24.50162 38.34012
#
# Poissons Ratio (x) = 0.19235 0.27562
# Poissons Ratio (y) = 0.87385 -0.53786
# Poissons Ratio (z) = 0.80021 -0.34373
#
# Static dielectric constant tensor:
#      x y z
#    x 3.859540 0.000000 0.000000 
#    y 0.000000 3.424130 0.000000 
#    z 0.000000 0.000000 4.242050 
# 
# 
# High freq. dielectric constant tensor:
#      x y z
#    x 1.816630 0.000000 0.000000 
#    y 0.000000 1.787520 0.000000 
#    z 0.000000 0.000000 1.809420 
# 
# From -- ./inp_files/24315.got.cif
#   From: 2010.03.12/outbox.cif.g09.slc.cpg/sg40_13_cif.got.tgz:24315.got - 2010.04.14 01:38:03.
