data_PCOD8182627
_publ_section_title
;
Structure prediction by ZEFSAII (Michael W. Deem and Ramdas Pophale) SiO2 
 PCOD8182627
Probable space group: A M A 2
;
_chemical_formula_sum "Si O2"
_cell_formula_units_Z 64
_cell_length_a 17.461504
_cell_length_b 30.470585
_cell_length_c 5.466412
_cell_angle_alpha 90.000000
_cell_angle_beta 90.000000
_cell_angle_gamma 90.000000
_cell_volume 2908.471424
_symmetry_space_group_name_H-M "A M A 2"
_symmetry_group_IT_number 40
_symmetry_cell_setting 'orthorhombic'
loop_
_space_group_symop_operation_xyz
x,y,z
-x,-y,z
1/2-x,y,z
1/2+x,-y,z
x,1/2+y,1/2+z
-x,1/2-y,1/2+z
1/2-x,1/2+y,1/2+z
1/2+x,1/2-y,1/2+z
loop_
_atom_site_type_symbol
_atom_site_label
_atom_site_fract_x
_atom_site_fract_y
_atom_site_fract_z
Si Si1 0.662955 0.180752 0.328270
Si Si2 0.022591 0.823590 0.972165
Si Si3 0.087775 0.015352 0.252171
Si Si4 0.918004 0.613032 0.099513
Si Si5 0.383462 0.228564 0.996327
Si Si6 0.663376 0.317927 0.998458
Si Si7 0.413717 0.980656 0.757848
Si Si8 0.560055 0.888395 0.308118
O O1 0.750000 0.185672 0.231766
O O2 0.603208 0.181938 0.106595
O O3 0.656551 0.133475 0.465894
O O4 0.639725 0.220473 0.507707
O O5 0.959674 0.856681 0.084652
O O6 0.041687 0.843897 0.711651
O O7 0.976159 0.777504 0.959969
O O8 0.102307 0.067382 0.227143
O O9 0.126055 0.997482 0.505428
O O10 0.000000 0.000000 0.249212
O O11 0.128331 0.996557 0.006098
O O12 0.902593 0.572334 0.278641
O O13 0.979494 0.593792 0.911024
O O14 0.344369 0.207303 0.756195
O O15 0.356382 0.211142 0.259850
O O16 0.750000 0.333710 0.971839
O O17 0.611394 0.361712 0.003096
O O18 0.500000 0.000000 0.760060
#
# Coordination Sequence:
#
# PCOD8182627 Si02
#       8
#     8   8   8   8   8   8   8   8
#     4  11  27  43  63  95 137 181 225 275 343 411
#     4  10  23  38  67  91 129 167 219 277 329 381
#     4  10  18  30  55  87 123 155 202 267 323 375
#     4  11  21  39  61  92 125 169 219 280 329 394
#     4  11  25  44  68  96 128 175 231 277 323 393
#     4  11  23  41  66  94 134 174 214 271 340 402
#     4  10  19  31  57  88 120 155 209 266 328 369
#     4  10  20  36  58  97 128 162 213 273 330 393
#
# _framework density 22.004684999999998
#
# number of rings (size 3 to 8) (size 9 to 14) (size 15 to 20)
#    0.000    1.500    3.750    2.625    5.250    0.500 
#    0.000    0.000    0.000    1.500    0.000    0.000 
#    0.000    0.000    0.000    0.000    0.000    0.000 
#
# Total GULP energy -396423.949888 kJ/mol
# GULP energy per Si atom -12388.248434 kJ/mol
# Density = 2.195460 g / cm^3
# Si number density = 22.004685 Si / 1000 Ang^3
#
#
#
# Elastic Constant Matrix: (Units=GPa)
#
#
# Indices 1 2 3 4 5 6 
#
# 1 90.4587 35.4415 14.4466 0.0000 0.0000 0.0000
# 2 35.4415 121.9217 29.8218 0.0000 0.0000 0.0000
# 3 14.4466 29.8218 131.3742 0.0000 0.0000 0.0000
# 4 0.0000 0.0000 0.0000 25.8640 0.0000 0.0000
# 5 0.0000 0.0000 0.0000 0.0000 14.5281 0.0000
# 6 0.0000 0.0000 0.0000 0.0000 0.0000 10.7937
#
#
#
# Elastic Compliance Matrix: (Units=1/GPa)
#
#
# Indices 1 2 3 4 5 6 
#
# 1 0.012518 -0.003496 -0.000583 0.000000 0.000000 0.000000
# 2 -0.003496 0.009661 -0.001808 0.000000 0.000000 0.000000
# 3 -0.000583 -0.001808 0.008086 0.000000 0.000000 0.000000
# 4 0.000000 0.000000 0.000000 0.038664 0.000000 0.000000
# 5 0.000000 0.000000 0.000000 0.000000 0.068832 0.000000
# 6 0.000000 0.000000 0.000000 0.000000 0.000000 0.092647
#
#
# Mechanical properties :
#
#
# Convention : Reuss Voigt Hill
#
# Bulk Modulus (GPa) = 54.08433 55.90826 54.99629
# Shear Modulus (GPa) = 20.13319 27.84013 23.98666
#
# Velocity S-wave (km/s) = 3.02810 3.56081 3.30520
# Velocity P-wave (km/s) = 6.07106 6.50910 6.29389
#
# Compressibility (1/GPa) = 0.01848965
#
# Stress axis : x y z
#
# Youngs Moduli (GPa) = 79.88714 103.51276 123.66344
#
# Poissons Ratio (x) = 0.36190 0.07208
# Poissons Ratio (y) = 0.27930 0.22364
# Poissons Ratio (z) = 0.04656 0.18720
#
# Static dielectric constant tensor:
#      x y z
#    x 3.627820 0.000000 0.000000 
#    y 0.000000 4.155200 0.000000 
#    z 0.000000 0.000000 4.503560 
# 
# 
# High freq. dielectric constant tensor:
#      x y z
#    x 1.812780 0.000000 0.000000 
#    y 0.000000 1.873210 0.000000 
#    z 0.000000 0.000000 1.877410 
# 
# From -- ./inp_files/2023.got.cif
#   From: 2010.03.12/outbox.cif.g09.slc.cpg/sg40_2_cif.got.tgz:2023.got - 2010.04.14 01:38:03.
