data_PCOD8182421
_publ_section_title
;
Structure prediction by ZEFSAII (Michael W. Deem and Ramdas Pophale) SiO2 
 PCOD8182421
Probable space group: A M A 2
;
_chemical_formula_sum "Si O2"
_cell_formula_units_Z 36
_cell_length_a 17.418491
_cell_length_b 8.250395
_cell_length_c 12.799630
_cell_angle_alpha 90.000000
_cell_angle_beta 90.000000
_cell_angle_gamma 90.000000
_cell_volume 1839.427545
_symmetry_space_group_name_H-M "A M A 2"
_symmetry_group_IT_number 40
_symmetry_cell_setting 'orthorhombic'
loop_
_space_group_symop_operation_xyz
x,y,z
-x,-y,z
1/2-x,y,z
1/2+x,-y,z
x,1/2+y,1/2+z
-x,1/2-y,1/2+z
1/2-x,1/2+y,1/2+z
1/2+x,1/2-y,1/2+z
loop_
_atom_site_type_symbol
_atom_site_label
_atom_site_fract_x
_atom_site_fract_y
_atom_site_fract_z
Si Si1 0.121062 0.356991 0.892350
Si Si2 0.250000 0.904617 0.718897
Si Si3 0.250000 0.876529 0.115561
Si Si4 0.750000 0.804795 0.009224
Si Si5 0.122542 0.163691 0.687540
Si Si6 0.000000 0.500000 0.043855
Si Si7 0.750000 0.423004 0.826598
O O1 0.093761 0.280856 0.781761
O O2 0.171597 0.523068 0.885483
O O3 0.174098 0.221228 0.942853
O O4 0.049292 0.385893 0.967791
O O5 0.250000 0.808832 0.610239
O O6 0.250000 0.770068 0.810867
O O7 0.172910 0.011742 0.729514
O O8 0.175165 0.764704 0.107709
O O9 0.250000 0.003408 0.023357
O O10 0.250000 0.972505 0.222833
O O11 0.049694 0.110058 0.621160
#
# Coordination Sequence:
#
# PCOD8182421 Si02
#       7
#     8   4   4   4   8   4   4
#     4  10  22  42  60  90 125 163 206 256 308 372
#     4  10  17  37  71  89 118 158 210 268 303 344
#     4   8  18  38  64  89 115 153 212 264 297 351
#     4  10  17  39  67  89 116 155 213 261 305 354
#     4  10  22  42  60  90 126 160 208 260 301 368
#     4  12  24  42  62  86 142 168 194 248 324 382
#     4   8  18  36  68  89 113 158 211 263 303 349
#
# _framework density 19.571306
#
# number of rings (size 3 to 8) (size 9 to 14) (size 15 to 20)
#    0.000    2.222    2.222    2.000    0.000    1.778 
#   16.000    0.000    0.000    0.000    0.000    0.000 
#    0.000    0.000    0.000    0.000    0.000    0.000 
#
# Total GULP energy -223121.362287 kJ/mol
# GULP energy per Si atom -12395.631238 kJ/mol
# Density = 1.952676 g / cm^3
# Si number density = 19.571306 Si / 1000 Ang^3
#
#
#
# Elastic Constant Matrix: (Units=GPa)
#
#
# Indices 1 2 3 4 5 6 
#
# 1 142.6473 57.8710 63.9307 0.0000 0.0000 0.0000
# 2 57.8710 126.0237 49.3501 0.0000 0.0000 0.0000
# 3 63.9307 49.3501 95.0588 0.0000 0.0000 0.0000
# 4 0.0000 0.0000 0.0000 47.4966 0.0000 0.0000
# 5 0.0000 0.0000 0.0000 0.0000 29.8379 0.0000
# 6 0.0000 0.0000 0.0000 0.0000 0.0000 -34.3383
#
#
#
# Elastic Compliance Matrix: (Units=1/GPa)
#
#
# Indices 1 2 3 4 5 6 
#
# 1 0.010686 -0.002627 -0.005823 0.000000 0.000000 0.000000
# 2 -0.002627 0.010606 -0.003739 0.000000 0.000000 0.000000
# 3 -0.005823 -0.003739 0.016377 0.000000 0.000000 0.000000
# 4 0.000000 0.000000 0.000000 0.021054 0.000000 0.000000
# 5 0.000000 0.000000 0.000000 0.000000 0.033514 0.000000
# 6 0.000000 0.000000 0.000000 0.000000 0.000000 -0.029122
#
#
# Mechanical properties :
#
#
# Convention : Reuss Voigt Hill
#
# Bulk Modulus (GPa) = 75.24135 78.44816 76.84475
# Shear Modulus (GPa) = 54.39359 21.43778 37.91568
#
# Velocity S-wave (km/s) = 5.27758 3.31322 4.40626
# Velocity P-wave (km/s) = 8.69858 7.40317 8.07689
#
# Compressibility (1/GPa) = 0.01329056
#
# Stress axis : x y z
#
# Youngs Moduli (GPa) = 93.58441 94.29053 61.06080
#
# Poissons Ratio (x) = 0.24767 0.35554
# Poissons Ratio (y) = 0.24582 0.22833
# Poissons Ratio (z) = 0.54492 0.35258
#
# Static dielectric constant tensor:
#      x y z
#    x 3.349270 0.000000 0.000000 
#    y 0.000000 3.748380 0.000000 
#    z 0.000000 0.000000 3.669990 
# 
# 
# High freq. dielectric constant tensor:
#      x y z
#    x 1.747530 0.000000 0.000000 
#    y 0.000000 1.764670 0.000000 
#    z 0.000000 0.000000 1.768980 
# 
# From -- ./inp_files/12757.got.cif
#   From: 2010.03.12/outbox.cif.g09.slc.cpg/sg40_7_cif.got.tgz:12757.got - 2010.04.14 01:38:03.
