data_PCOD8182848
_publ_section_title
;
Structure prediction by ZEFSAII (Michael W. Deem and Ramdas Pophale) SiO2 
 PCOD8182848
Probable space group: A M A 2
;
_chemical_formula_sum "Si O2"
_cell_formula_units_Z 64
_cell_length_a 9.269461
_cell_length_b 14.008324
_cell_length_c 29.252486
_cell_angle_alpha 90.000000
_cell_angle_beta 90.000000
_cell_angle_gamma 90.000000
_cell_volume 3798.423986
_symmetry_space_group_name_H-M "A M A 2"
_symmetry_group_IT_number 40
_symmetry_cell_setting 'orthorhombic'
loop_
_space_group_symop_operation_xyz
x,y,z
-x,-y,z
1/2-x,y,z
1/2+x,-y,z
x,1/2+y,1/2+z
-x,1/2-y,1/2+z
1/2-x,1/2+y,1/2+z
1/2+x,1/2-y,1/2+z
loop_
_atom_site_type_symbol
_atom_site_label
_atom_site_fract_x
_atom_site_fract_y
_atom_site_fract_z
Si Si1 0.090872 0.586170 0.784050
Si Si2 0.084871 0.271977 0.635050
Si Si3 0.082337 0.900739 0.051926
Si Si4 0.914878 0.778448 0.776983
Si Si5 0.405990 0.082072 0.179361
Si Si6 0.915973 0.902256 0.690678
Si Si7 0.583078 0.901564 0.867225
Si Si8 0.579947 0.600763 0.450598
O O1 0.250000 0.594375 0.807186
O O2 0.114456 0.556261 0.731811
O O3 0.000000 0.500000 0.807888
O O4 0.010034 0.686120 0.786812
O O5 0.250000 0.299942 0.644018
O O6 0.033711 0.315104 0.586249
O O7 0.063613 0.158367 0.643153
O O8 0.989900 0.318791 0.674969
O O9 0.250000 0.925110 0.057578
O O10 0.052427 0.857011 0.001298
O O11 0.000000 0.000000 0.060913
O O12 0.750000 0.746460 0.767748
O O13 0.972206 0.840290 0.733879
O O14 0.928641 0.841093 0.821827
O O15 0.250000 0.087494 0.155013
O O16 0.500000 0.000000 0.154120
O O17 0.750000 0.928739 0.698710
O O18 0.000000 0.000000 0.685376
O O19 0.750000 0.920566 0.880167
O O20 0.501838 0.843842 0.909109
O O21 0.500000 0.000000 0.857631
O O22 0.500000 0.500000 0.449313
O O23 0.750000 0.592684 0.440341
#
# Coordination Sequence:
#
# PCOD8182848 Si02
#       8
#     8   8   8   8   8   8   8   8
#     4  10  20  32  48  68  93 125 158 194 234 279
#     4  10  19  32  48  66  91 124 159 195 234 278
#     4   9  18  30  46  70  97 126 156 189 232 284
#     4  10  20  34  50  70  95 126 163 200 237 279
#     4  10  19  29  43  65  91 121 154 189 226 270
#     4  10  21  35  50  66  91 125 159 199 240 277
#     4  10  19  30  47  71  98 128 162 199 239 283
#     4   9  16  28  45  66  95 125 155 191 235 286
#
# _framework density 16.849093
#
# number of rings (size 3 to 8) (size 9 to 14) (size 15 to 20)
#    0.000    2.250    1.250    3.000    0.000    5.000 
#    0.000    0.000    0.000    0.000    0.000    0.875 
#    0.000    4.000    0.000    0.000    0.000    0.000 
#
# Total GULP energy -396436.842129 kJ/mol
# GULP energy per Si atom -12388.651317 kJ/mol
# Density = 1.681074 g / cm^3
# Si number density = 16.849093 Si / 1000 Ang^3
#
#
#
# Elastic Constant Matrix: (Units=GPa)
#
#
# Indices 1 2 3 4 5 6 
#
# 1 107.9982 56.3250 29.8956 0.0000 0.0000 0.0000
# 2 56.3250 98.5105 32.7461 0.0000 0.0000 0.0000
# 3 29.8956 32.7461 81.2175 0.0000 0.0000 0.0000
# 4 0.0000 0.0000 0.0000 15.2401 0.0000 0.0000
# 5 0.0000 0.0000 0.0000 0.0000 2.1774 0.0000
# 6 0.0000 0.0000 0.0000 0.0000 0.0000 28.5434
#
#
#
# Elastic Compliance Matrix: (Units=1/GPa)
#
#
# Indices 1 2 3 4 5 6 
#
# 1 0.013510 -0.007011 -0.002146 0.000000 0.000000 0.000000
# 2 -0.007011 0.015361 -0.003613 0.000000 0.000000 0.000000
# 3 -0.002146 -0.003613 0.014559 0.000000 0.000000 0.000000
# 4 0.000000 0.000000 0.000000 0.065616 0.000000 0.000000
# 5 0.000000 0.000000 0.000000 0.000000 0.459269 0.000000
# 6 0.000000 0.000000 0.000000 0.000000 0.000000 0.035034
#
#
# Mechanical properties :
#
#
# Convention : Reuss Voigt Hill
#
# Bulk Modulus (GPa) = 55.89629 58.40663 57.15146
# Shear Modulus (GPa) = 7.87583 20.44279 14.15931
#
# Velocity S-wave (km/s) = 2.16437 3.48701 2.90204
# Velocity P-wave (km/s) = 6.28432 7.13807 6.72476
#
# Compressibility (1/GPa) = 0.01789027
#
# Stress axis : x y z
#
# Youngs Moduli (GPa) = 74.01859 65.10048 68.68543
#
# Poissons Ratio (x) = 0.45644 0.14741
# Poissons Ratio (y) = 0.51896 0.24813
# Poissons Ratio (z) = 0.15885 0.23518
#
# Static dielectric constant tensor:
#      x y z
#    x 3.477440 0.000000 0.000000 
#    y 0.000000 2.906770 0.000000 
#    z 0.000000 0.000000 3.595740 
# 
# 
# High freq. dielectric constant tensor:
#      x y z
#    x 1.664820 0.000000 0.000000 
#    y 0.000000 1.616490 0.000000 
#    z 0.000000 0.000000 1.634020 
# 
# From -- ./inp_files/26431.got.cif
#   From: 2010.03.12/outbox.cif.g09.slc.cpg/sg40_14_cif.got.tgz:26431.got - 2010.04.14 01:38:03.
