data_PCOD8182924
_publ_section_title
;
Structure prediction by ZEFSAII (Michael W. Deem and Ramdas Pophale) SiO2 
 PCOD8182924
Probable space group: A M A 2
;
_chemical_formula_sum "Si O2"
_cell_formula_units_Z 48
_cell_length_a 8.844631
_cell_length_b 13.666472
_cell_length_c 23.853150
_cell_angle_alpha 90.000000
_cell_angle_beta 90.000000
_cell_angle_gamma 90.000000
_cell_volume 2883.247167
_symmetry_space_group_name_H-M "A M A 2"
_symmetry_group_IT_number 40
_symmetry_cell_setting 'orthorhombic'
loop_
_space_group_symop_operation_xyz
x,y,z
-x,-y,z
1/2-x,y,z
1/2+x,-y,z
x,1/2+y,1/2+z
-x,1/2-y,1/2+z
1/2-x,1/2+y,1/2+z
1/2+x,1/2-y,1/2+z
loop_
_atom_site_type_symbol
_atom_site_label
_atom_site_fract_x
_atom_site_fract_y
_atom_site_fract_z
Si Si1 0.428604 0.603222 0.041940
Si Si2 0.424781 0.100707 0.089925
Si Si3 0.574379 0.702433 0.145497
Si Si4 0.072181 0.896308 0.759605
Si Si5 0.572422 0.780462 0.983792
Si Si6 0.571582 0.395598 0.374075
O O1 0.500000 0.500000 0.025517
O O2 0.250000 0.594718 0.040293
O O3 0.478877 0.633894 0.104319
O O4 0.483171 0.680746 0.995377
O O5 0.250000 0.078176 0.088556
O O6 0.465924 0.183837 0.135593
O O7 0.500000 0.000000 0.107964
O O8 0.479241 0.137560 0.028788
O O9 0.750000 0.682406 0.131806
O O10 0.534972 0.678508 0.209646
O O11 0.250000 0.909878 0.768914
O O12 0.997501 0.854160 0.816251
O O13 0.000000 0.000000 0.743872
O O14 0.750000 0.759246 0.990732
O O15 0.530025 0.818347 0.922238
O O16 0.500000 0.500000 0.389174
O O17 0.750000 0.409292 0.368000
#
# Coordination Sequence:
#
# PCOD8182924 Si02
#       6
#     8   8   8   8   8   8
#     4  11  21  32  50  73  97 125 157 195 238 285
#     4   9  17  30  47  68  94 122 153 190 232 278
#     4   9  19  34  49  68  97 129 160 197 238 280
#     4  10  19  31  48  69  95 126 159 196 238 284
#     4   9  19  34  49  68  97 128 157 192 234 280
#     4  10  19  31  49  72  99 128 158 196 238 281
#
# _framework density 16.647897
#
# number of rings (size 3 to 8) (size 9 to 14) (size 15 to 20)
#    0.000    2.333    0.000    5.500    0.000    6.667 
#    0.000    0.000    0.000    1.000    0.000    4.667 
#    0.000    0.000    0.000    0.000    0.000    0.000 
#
# Total GULP energy -297607.591375 kJ/mol
# GULP energy per Si atom -12400.316307 kJ/mol
# Density = 1.661001 g / cm^3
# Si number density = 16.647897 Si / 1000 Ang^3
#
#
#
# Elastic Constant Matrix: (Units=GPa)
#
#
# Indices 1 2 3 4 5 6 
#
# 1 95.3614 58.6628 56.9044 0.0000 0.0000 0.0000
# 2 58.6628 125.1345 75.2474 0.0000 0.0000 0.0000
# 3 56.9044 75.2474 138.3629 0.0000 0.0000 0.0000
# 4 0.0000 0.0000 0.0000 24.7168 0.0000 0.0000
# 5 0.0000 0.0000 0.0000 0.0000 -30.6999 0.0000
# 6 0.0000 0.0000 0.0000 0.0000 0.0000 26.9412
#
#
#
# Elastic Compliance Matrix: (Units=1/GPa)
#
#
# Indices 1 2 3 4 5 6 
#
# 1 0.015914 -0.005238 -0.003697 0.000000 0.000000 0.000000
# 2 -0.005238 0.013599 -0.005241 0.000000 0.000000 0.000000
# 3 -0.003697 -0.005241 0.011598 0.000000 0.000000 0.000000
# 4 0.000000 0.000000 0.000000 0.040458 0.000000 0.000000
# 5 0.000000 0.000000 0.000000 0.000000 -0.032573 0.000000
# 6 0.000000 0.000000 0.000000 0.000000 0.000000 0.037118
#
#
# Mechanical properties :
#
#
# Convention : Reuss Voigt Hill
#
# Bulk Modulus (GPa) = 78.37159 82.27643 80.32401
# Shear Modulus (GPa) = 42.11647 15.39458 28.75553
#
# Velocity S-wave (km/s) = 5.03521 3.04421 4.16056
# Velocity P-wave (km/s) = 8.99903 7.86671 8.45185
#
# Compressibility (1/GPa) = 0.01275973
#
# Stress axis : x y z
#
# Youngs Moduli (GPa) = 62.83651 73.53671 86.22075
#
# Poissons Ratio (x) = 0.38517 0.31872
# Poissons Ratio (y) = 0.32912 0.45192
# Poissons Ratio (z) = 0.23228 0.38543
#
# Static dielectric constant tensor:
#      x y z
#    x 3.190500 0.000000 0.000000 
#    y 0.000000 2.671770 0.000000 
#    z 0.000000 0.000000 3.178640 
# 
# 
# High freq. dielectric constant tensor:
#      x y z
#    x 1.649180 0.000000 0.000000 
#    y 0.000000 1.630480 0.000000 
#    z 0.000000 0.000000 1.634530 
# 
# From -- ./inp_files/21991.got.cif
#   From: 2010.03.12/outbox.cif.g09.slc.cpg/sg40_11_cif.got.tgz:21991.got - 2010.04.14 01:38:03.
