data_PCOD8182149
_publ_section_title
;
Structure prediction by ZEFSAII (Michael W. Deem and Ramdas Pophale) SiO2 
 PCOD8182149
Probable space group: A B M 2
;
_chemical_formula_sum "Si O2"
_cell_formula_units_Z 64
_cell_length_a 15.389901
_cell_length_b 8.641229
_cell_length_c 23.676896
_cell_angle_alpha 90.000000
_cell_angle_beta 90.000000
_cell_angle_gamma 90.000000
_cell_volume 3148.734967
_symmetry_space_group_name_H-M "A B M 2"
_symmetry_group_IT_number 39
_symmetry_cell_setting 'orthorhombic'
loop_
_space_group_symop_operation_xyz
x,y,z
-x,-y,z
-x,1/2+y,z
x,1/2-y,z
x,1/2+y,1/2+z
-x,1/2-y,1/2+z
-x,y,1/2+z
x,-y,1/2+z
loop_
_atom_site_type_symbol
_atom_site_label
_atom_site_fract_x
_atom_site_fract_y
_atom_site_fract_z
Si Si1 0.660093 0.928107 0.573290
Si Si2 0.746752 0.932370 0.267703
Si Si3 0.910124 0.568865 0.457849
Si Si4 0.753503 0.430544 0.389868
Si Si5 0.153427 0.568374 0.572474
Si Si6 0.588121 0.932648 0.963451
Si Si7 0.091121 0.567255 0.693496
Si Si8 0.592489 0.570340 0.697003
O O1 0.687893 0.750000 0.564856
O O2 0.607377 0.952089 0.630654
O O3 0.744761 0.034429 0.572548
O O4 0.597903 0.983248 0.523402
O O5 0.748429 0.750000 0.279580
O O6 0.833494 0.988775 0.235573
O O7 0.741083 0.025735 0.325294
O O8 0.664373 0.973646 0.230028
O O9 0.918319 0.750000 0.457072
O O10 0.833880 0.520512 0.416119
O O11 0.894447 0.515649 0.521650
O O12 0.000000 0.500000 0.434627
O O13 0.771962 0.250000 0.396412
O O14 0.666763 0.479462 0.422723
O O15 0.140015 0.750000 0.564840
O O16 0.111935 0.505615 0.630601
O O17 0.581749 0.750000 0.972144
O O18 0.500000 0.000000 0.935711
O O19 0.086166 0.750000 0.692997
O O20 0.000000 0.500000 0.715127
O O21 0.500000 0.500000 0.713921
O O22 0.596859 0.750000 0.714625
#
# Coordination Sequence:
#
# PCOD8182149 Si02
#       8
#     8   8   8   8   8   8   8   8
#     4  11  22  37  63  96 129 167 208 253 316 381
#     4  11  24  44  66  91 124 167 214 265 317 372
#     4  12  25  42  66  96 129 168 212 260 316 378
#     4  11  25  45  66  92 125 167 214 266 318 373
#     4  11  21  38  63  94 131 168 205 255 315 378
#     4  11  24  41  65  93 128 165 207 257 315 378
#     4  10  23  40  63  93 126 165 206 253 311 371
#     4  11  24  41  64  95 128 167 210 259 316 377
#
# _framework density 20.325624000000001
#
# number of rings (size 3 to 8) (size 9 to 14) (size 15 to 20)
#    0.000    1.000    2.500    4.125    0.000    8.000 
#    0.000    2.500    0.000    0.000    0.000    0.000 
#    0.000    0.000    0.000    0.000    0.000    0.000 
#
# Total GULP energy -397025.070748 kJ/mol
# GULP energy per Si atom -12407.033461 kJ/mol
# Density = 2.027936 g / cm^3
# Si number density = 20.325624 Si / 1000 Ang^3
#
#
#
# Elastic Constant Matrix: (Units=GPa)
#
#
# Indices 1 2 3 4 5 6 
#
# 1 153.6978 37.3969 40.0382 0.0000 0.0000 0.0000
# 2 37.3969 80.4948 27.9456 0.0000 0.0000 0.0000
# 3 40.0382 27.9456 101.2110 0.0000 0.0000 0.0000
# 4 0.0000 0.0000 0.0000 105.0853 0.0000 0.0000
# 5 0.0000 0.0000 0.0000 0.0000 -11.5246 0.0000
# 6 0.0000 0.0000 0.0000 0.0000 0.0000 37.8291
#
#
#
# Elastic Compliance Matrix: (Units=1/GPa)
#
#
# Indices 1 2 3 4 5 6 
#
# 1 0.007793 -0.002821 -0.002304 0.000000 0.000000 0.000000
# 2 -0.002821 0.014761 -0.002960 0.000000 0.000000 0.000000
# 3 -0.002304 -0.002960 0.011609 0.000000 0.000000 0.000000
# 4 0.000000 0.000000 0.000000 0.009516 0.000000 0.000000
# 5 0.000000 0.000000 0.000000 0.000000 -0.086771 0.000000
# 6 0.000000 0.000000 0.000000 0.000000 0.000000 0.026435
#
#
# Mechanical properties :
#
#
# Convention : Reuss Voigt Hill
#
# Bulk Modulus (GPa) = 55.57390 60.68500 58.12945
# Shear Modulus (GPa) = 907.48519 41.61284 474.54901
#
# Velocity S-wave (km/s) = 21.15284 4.52963 15.29641
# Velocity P-wave (km/s) = 24.97982 7.56822 18.45629
#
# Compressibility (1/GPa) = 0.01799406
#
# Stress axis : x y z
#
# Youngs Moduli (GPa) = 128.32472 67.74530 86.13966
#
# Poissons Ratio (x) = 0.19108 0.19846
# Poissons Ratio (y) = 0.36194 0.25497
# Poissons Ratio (z) = 0.29565 0.20052
#
# Static dielectric constant tensor:
#      x y z
#    x 3.974550 0.000000 0.000000 
#    y 0.000000 3.713590 0.000000 
#    z 0.000000 0.000000 3.730070 
# 
# 
# High freq. dielectric constant tensor:
#      x y z
#    x 1.810640 0.000000 0.000000 
#    y 0.000000 1.804190 0.000000 
#    z 0.000000 0.000000 1.792650 
# 
# From -- ./inp_files/16134.got.cif
#   From: 2010.03.12/outbox.cif.g09.slc.cpg/sg39_9_cif.got.tgz:16134.got - 2010.04.14 02:53:20.
