data_PCOD8182363
_publ_section_title
;
Structure prediction by ZEFSAII (Michael W. Deem and Ramdas Pophale) SiO2 
 PCOD8182363
Probable space group: A M A 2
;
_chemical_formula_sum "Si O2"
_cell_formula_units_Z 48
_cell_length_a 8.857031
_cell_length_b 31.209142
_cell_length_c 9.166581
_cell_angle_alpha 90.000000
_cell_angle_beta 90.000000
_cell_angle_gamma 90.000000
_cell_volume 2533.829420
_symmetry_space_group_name_H-M "A M A 2"
_symmetry_group_IT_number 40
_symmetry_cell_setting 'orthorhombic'
loop_
_space_group_symop_operation_xyz
x,y,z
-x,-y,z
1/2-x,y,z
1/2+x,-y,z
x,1/2+y,1/2+z
-x,1/2-y,1/2+z
1/2-x,1/2+y,1/2+z
1/2+x,1/2-y,1/2+z
loop_
_atom_site_type_symbol
_atom_site_label
_atom_site_fract_x
_atom_site_fract_y
_atom_site_fract_z
Si Si1 0.928551 0.711036 0.778780
Si Si2 0.427238 0.708346 0.093213
Si Si3 0.922410 0.134472 0.763536
Si Si4 0.075108 0.460033 0.282647
Si Si5 0.927401 0.128449 0.101084
Si Si6 0.071764 0.542339 0.596978
O O1 0.750000 0.711302 0.792163
O O2 0.986955 0.752597 0.692033
O O3 0.984040 0.668893 0.693610
O O4 0.996787 0.711817 0.937740
O O5 0.250000 0.711047 0.070694
O O6 0.468316 0.663805 0.169488
O O7 0.750000 0.150108 0.744439
O O8 0.940231 0.085729 0.702134
O O9 0.970491 0.136882 0.932665
O O10 0.250000 0.469371 0.318878
O O11 0.000000 0.500000 0.192009
O O12 0.979298 0.457290 0.429832
O O13 0.750000 0.120403 0.115164
O O14 0.010420 0.086555 0.166963
O O15 0.250000 0.540439 0.613064
O O16 0.000000 0.500000 0.674336
#
# Coordination Sequence:
#
# PCOD8182363 Si02
#       6
#     8   8   8   8   8   8
#     4  10  22  39  57  77 105 139 171 211 264 312
#     4  11  23  37  56  81 105 134 175 216 255 309
#     4   9  18  33  53  77 108 142 173 212 263 311
#     4   9  16  27  45  71 103 138 175 214 257 303
#     4   9  18  34  54  76 104 139 177 215 259 309
#     4  10  17  26  44  72 105 138 173 214 258 302
#
# _framework density 18.943657999999999
#
# number of rings (size 3 to 8) (size 9 to 14) (size 15 to 20)
#    0.000    2.333    0.000    5.500    0.000    6.667 
#    0.000    0.000    0.000    1.000    0.000    4.667 
#    0.000    0.000    0.000    0.000    0.000    0.000 
#
# Total GULP energy -297507.458793 kJ/mol
# GULP energy per Si atom -12396.144116 kJ/mol
# Density = 1.890054 g / cm^3
# Si number density = 18.943658 Si / 1000 Ang^3
#
#
#
# Elastic Constant Matrix: (Units=GPa)
#
#
# Indices 1 2 3 4 5 6 
#
# 1 65.3454 53.4185 22.6916 0.0000 0.0000 0.0000
# 2 53.4185 176.4919 58.5085 0.0000 0.0000 0.0000
# 3 22.6916 58.5085 77.0599 0.0000 0.0000 0.0000
# 4 0.0000 0.0000 0.0000 15.8451 0.0000 0.0000
# 5 0.0000 0.0000 0.0000 0.0000 24.4027 0.0000
# 6 0.0000 0.0000 0.0000 0.0000 0.0000 33.5737
#
#
#
# Elastic Compliance Matrix: (Units=1/GPa)
#
#
# Indices 1 2 3 4 5 6 
#
# 1 0.020514 -0.005621 -0.001773 0.000000 0.000000 0.000000
# 2 -0.005621 0.009112 -0.005263 0.000000 0.000000 0.000000
# 3 -0.001773 -0.005263 0.017495 0.000000 0.000000 0.000000
# 4 0.000000 0.000000 0.000000 0.063111 0.000000 0.000000
# 5 0.000000 0.000000 0.000000 0.000000 0.040979 0.000000
# 6 0.000000 0.000000 0.000000 0.000000 0.000000 0.029785
#
#
# Mechanical properties :
#
#
# Convention : Reuss Voigt Hill
#
# Bulk Modulus (GPa) = 45.85694 65.34826 55.60260
# Shear Modulus (GPa) = 23.41039 27.04953 25.22996
#
# Velocity S-wave (km/s) = 3.51919 3.78285 3.65340
# Velocity P-wave (km/s) = 6.38534 7.32468 6.87108
#
# Compressibility (1/GPa) = 0.02180695
#
# Stress axis : x y z
#
# Youngs Moduli (GPa) = 48.74674 109.74328 57.15896
#
# Poissons Ratio (x) = 0.61690 0.10133
# Poissons Ratio (y) = 0.27402 0.30084
# Poissons Ratio (z) = 0.08641 0.57760
#
# Static dielectric constant tensor:
#      x y z
#    x 3.442260 0.000000 0.000000 
#    y 0.000000 4.470050 0.000000 
#    z 0.000000 0.000000 3.042090 
# 
# 
# High freq. dielectric constant tensor:
#      x y z
#    x 1.736430 0.000000 0.000000 
#    y 0.000000 1.766270 0.000000 
#    z 0.000000 0.000000 1.684290 
# 
# From -- ./inp_files/4602.got.cif
#   From: 2010.03.12/outbox.cif.g09.slc.cpg/sg40_3_cif.got.tgz:4602.got - 2010.04.14 01:38:03.
