data_PCOD8182833
_publ_section_title
;
Structure prediction by ZEFSAII (Michael W. Deem and Ramdas Pophale) SiO2 
 PCOD8182833
Probable space group: A M A 2
;
_chemical_formula_sum "Si O2"
_cell_formula_units_Z 64
_cell_length_a 9.315706
_cell_length_b 18.550462
_cell_length_c 21.356588
_cell_angle_alpha 90.000000
_cell_angle_beta 90.000000
_cell_angle_gamma 90.000000
_cell_volume 3690.645857
_symmetry_space_group_name_H-M "A M A 2"
_symmetry_group_IT_number 40
_symmetry_cell_setting 'orthorhombic'
loop_
_space_group_symop_operation_xyz
x,y,z
-x,-y,z
1/2-x,y,z
1/2+x,-y,z
x,1/2+y,1/2+z
-x,1/2-y,1/2+z
1/2-x,1/2+y,1/2+z
1/2+x,1/2-y,1/2+z
loop_
_atom_site_type_symbol
_atom_site_label
_atom_site_fract_x
_atom_site_fract_y
_atom_site_fract_z
Si Si1 0.912540 0.568836 0.247400
Si Si2 0.416822 0.210312 0.734193
Si Si3 0.414956 0.282552 0.609349
Si Si4 0.412371 0.363944 0.789336
Si Si5 0.591938 0.564225 0.099581
Si Si6 0.585250 0.070702 0.154229
Si Si7 0.587403 0.336469 0.023100
Si Si8 0.080289 0.074132 0.403577
O O1 0.750000 0.570185 0.275074
O O2 0.904157 0.559674 0.173453
O O3 0.000000 0.500000 0.275324
O O4 0.993009 0.643708 0.262984
O O5 0.250000 0.186703 0.732019
O O6 0.476661 0.230678 0.664709
O O7 0.440153 0.279067 0.779270
O O8 0.250000 0.292919 0.630143
O O9 0.479760 0.363237 0.612146
O O10 0.428188 0.249450 0.538638
O O11 0.250000 0.376036 0.813977
O O12 0.436960 0.408810 0.726429
O O13 0.525636 0.395341 0.838190
O O14 0.500000 0.500000 0.069480
O O15 0.750000 0.559196 0.070581
O O16 0.517214 0.636083 0.076846
O O17 0.750000 0.054787 0.138682
O O18 0.500000 0.000000 0.135571
O O19 0.750000 0.361458 0.037137
O O20 0.542766 0.363117 0.954368
O O21 0.250000 0.059482 0.399426
O O22 0.000000 0.000000 0.421750
#
# Coordination Sequence:
#
# PCOD8182833 Si02
#       8
#     8   8   8   8   8   8   8   8
#     4  10  19  28  41  65  96 127 158 193 235 286
#     4   9  16  30  51  70  91 123 160 200 247 294
#     4   8  15  29  48  67  91 121 154 192 236 291
#     4   9  19  34  52  72  95 127 165 201 243 289
#     4  10  19  28  40  61  89 123 159 192 228 272
#     4   9  17  30  49  73  96 122 153 189 238 290
#     4  10  19  32  49  66  89 125 164 200 239 282
#     4  11  23  35  49  70  96 130 169 205 240 280
#
# _framework density 17.341139999999999
#
# number of rings (size 3 to 8) (size 9 to 14) (size 15 to 20)
#    0.000    2.500    1.250    3.375    0.000    5.000 
#    0.000    2.500    0.000    0.000    0.000    0.875 
#    0.000    4.000    0.000    0.000    0.000    0.125 
#
# Total GULP energy -396491.886086 kJ/mol
# GULP energy per Si atom -12390.371440 kJ/mol
# Density = 1.730167 g / cm^3
# Si number density = 17.341140 Si / 1000 Ang^3
#
#
#
# Elastic Constant Matrix: (Units=GPa)
#
#
# Indices 1 2 3 4 5 6 
#
# 1 85.5117 51.4607 24.7007 0.0000 0.0000 0.0000
# 2 51.4607 124.6084 34.2911 0.0000 0.0000 0.0000
# 3 24.7007 34.2911 51.7308 0.0000 0.0000 0.0000
# 4 0.0000 0.0000 0.0000 21.8623 0.0000 0.0000
# 5 0.0000 0.0000 0.0000 0.0000 -23.9129 0.0000
# 6 0.0000 0.0000 0.0000 0.0000 0.0000 30.1533
#
#
#
# Elastic Compliance Matrix: (Units=1/GPa)
#
#
# Indices 1 2 3 4 5 6 
#
# 1 0.016225 -0.005588 -0.004043 0.000000 0.000000 0.000000
# 2 -0.005588 0.011740 -0.005114 0.000000 0.000000 0.000000
# 3 -0.004043 -0.005114 0.024651 0.000000 0.000000 0.000000
# 4 0.000000 0.000000 0.000000 0.045741 0.000000 0.000000
# 5 0.000000 0.000000 0.000000 0.000000 -0.041818 0.000000
# 6 0.000000 0.000000 0.000000 0.000000 0.000000 0.033164
#
#
# Mechanical properties :
#
#
# Convention : Reuss Voigt Hill
#
# Bulk Modulus (GPa) = 43.24087 53.63954 48.44020
# Shear Modulus (GPa) = 39.40045 15.71376 27.55710
#
# Velocity S-wave (km/s) = 4.77180 3.01351 3.99070
# Velocity P-wave (km/s) = 7.43974 6.56562 7.01631
#
# Compressibility (1/GPa) = 0.02312627
#
# Stress axis : x y z
#
# Youngs Moduli (GPa) = 61.63333 85.17720 40.56565
#
# Poissons Ratio (x) = 0.47597 0.16401
# Poissons Ratio (y) = 0.34441 0.20746
# Poissons Ratio (z) = 0.24919 0.43561
#
# Static dielectric constant tensor:
#      x y z
#    x 3.277290 0.000000 0.000000 
#    y 0.000000 3.406460 0.000000 
#    z 0.000000 0.000000 2.800810 
# 
# 
# High freq. dielectric constant tensor:
#      x y z
#    x 1.665350 0.000000 0.000000 
#    y 0.000000 1.676350 0.000000 
#    z 0.000000 0.000000 1.617960 
# 
# From -- ./inp_files/22514.got.cif
#   From: 2010.03.12/outbox.cif.g09.slc.cpg/sg40_12_cif.got.tgz:22514.got - 2010.04.14 01:38:03.
