data_PCOD8182007
_publ_section_title
;
Structure prediction by ZEFSAII (Michael W. Deem and Ramdas Pophale) SiO2 
 PCOD8182007
Probable space group: A B M 2
;
_chemical_formula_sum "Si O2"
_cell_formula_units_Z 48
_cell_length_a 9.233887
_cell_length_b 27.453521
_cell_length_c 8.903632
_cell_angle_alpha 90.000000
_cell_angle_beta 90.000000
_cell_angle_gamma 90.000000
_cell_volume 2257.094847
_symmetry_space_group_name_H-M "A B M 2"
_symmetry_group_IT_number 39
_symmetry_cell_setting 'orthorhombic'
loop_
_space_group_symop_operation_xyz
x,y,z
-x,-y,z
-x,1/2+y,z
x,1/2-y,z
x,1/2+y,1/2+z
-x,1/2-y,1/2+z
-x,y,1/2+z
x,-y,1/2+z
loop_
_atom_site_type_symbol
_atom_site_label
_atom_site_fract_x
_atom_site_fract_y
_atom_site_fract_z
Si Si1 0.972495 0.363888 0.661300
Si Si2 0.393457 0.140467 0.446813
Si Si3 0.877509 0.304803 0.933679
Si Si4 0.222357 0.062971 0.627102
Si Si5 0.653010 0.613988 0.111684
Si Si6 0.657986 0.019221 0.431927
O O1 0.945097 0.348061 0.832630
O O2 0.817613 0.370484 0.582390
O O3 0.054691 0.316791 0.594724
O O4 0.060753 0.414511 0.645791
O O5 0.297669 0.189694 0.437064
O O6 0.326831 0.106094 0.575511
O O7 0.395909 0.114934 0.284799
O O8 0.556043 0.150367 0.506969
O O9 0.914996 0.250000 0.882896
O O10 0.267935 0.042366 0.787336
O O11 0.231972 0.021254 0.499412
O O12 0.629957 0.558695 0.061306
O O13 0.500000 0.000000 0.386122
#
# Coordination Sequence:
#
# PCOD8182007 Si02
#       6
#     8   8   8   8   8   8
#     4  10  23  42  66  94 131 173 204 269 334 391
#     4  10  22  39  62  90 124 164 210 268 324 390
#     4  10  21  42  68  96 125 163 213 265 330 407
#     4  11  23  40  61  92 129 167 225 264 324 374
#     4  11  22  40  63  89 125 168 216 262 324 377
#     4  12  23  36  64  92 125 175 225 269 307 380
#
# _framework density 21.266273000000002
#
# number of rings (size 3 to 8) (size 9 to 14) (size 15 to 20)
#    0.000    1.333    1.667    4.000    0.000    2.000 
#    0.000    5.833    0.000    0.000    0.000    0.000 
#    0.000    0.000    0.000    0.000    0.000    0.000 
#
# Total GULP energy -297523.548412 kJ/mol
# GULP energy per Si atom -12396.814517 kJ/mol
# Density = 2.121787 g / cm^3
# Si number density = 21.266273 Si / 1000 Ang^3
#
#
#
# Elastic Constant Matrix: (Units=GPa)
#
#
# Indices 1 2 3 4 5 6 
#
# 1 154.8072 49.8506 60.7162 0.0000 0.0000 0.0000
# 2 49.8506 86.8682 42.3932 0.0000 0.0000 0.0000
# 3 60.7162 42.3932 104.7880 0.0000 0.0000 0.0000
# 4 0.0000 0.0000 0.0000 24.9381 0.0000 0.0000
# 5 0.0000 0.0000 0.0000 0.0000 33.8189 0.0000
# 6 0.0000 0.0000 0.0000 0.0000 0.0000 30.1459
#
#
#
# Elastic Compliance Matrix: (Units=1/GPa)
#
#
# Indices 1 2 3 4 5 6 
#
# 1 0.009053 -0.003284 -0.003917 0.000000 0.000000 0.000000
# 2 -0.003284 0.015535 -0.004382 0.000000 0.000000 0.000000
# 3 -0.003917 -0.004382 0.013586 0.000000 0.000000 0.000000
# 4 0.000000 0.000000 0.000000 0.040099 0.000000 0.000000
# 5 0.000000 0.000000 0.000000 0.000000 0.029569 0.000000
# 6 0.000000 0.000000 0.000000 0.000000 0.000000 0.033172
#
#
# Mechanical properties :
#
#
# Convention : Reuss Voigt Hill
#
# Bulk Modulus (GPa) = 66.63300 72.48705 69.56002
# Shear Modulus (GPa) = 29.55383 30.68082 30.11732
#
# Velocity S-wave (km/s) = 3.73192 3.80241 3.76733
# Velocity P-wave (km/s) = 7.06897 7.31007 7.19053
#
# Compressibility (1/GPa) = 0.01500758
#
# Stress axis : x y z
#
# Youngs Moduli (GPa) = 110.45519 64.37222 73.60716
#
# Poissons Ratio (x) = 0.21138 0.28834
# Poissons Ratio (y) = 0.36271 0.32255
# Poissons Ratio (z) = 0.43268 0.28208
#
# Static dielectric constant tensor:
#      x y z
#    x 4.177800 0.000000 0.000000 
#    y 0.000000 3.564740 0.000000 
#    z 0.000000 0.000000 3.838500 
# 
# 
# High freq. dielectric constant tensor:
#      x y z
#    x 1.840830 0.000000 0.000000 
#    y 0.000000 1.806430 0.000000 
#    z 0.000000 0.000000 1.847200 
# 
# From -- ./inp_files/2289.got.cif
#   From: 2010.03.12/outbox.cif.g09.slc.cpg/sg39_2_cif.got.tgz:2289.got - 2010.04.14 02:53:20.
