data_PCOD8182702
_publ_section_title
;
Structure prediction by ZEFSAII (Michael W. Deem and Ramdas Pophale) SiO2 
 PCOD8182702
Probable space group: A M A 2
;
_chemical_formula_sum "Si O2"
_cell_formula_units_Z 64
_cell_length_a 21.062214
_cell_length_b 22.101990
_cell_length_c 7.537887
_cell_angle_alpha 90.000000
_cell_angle_beta 90.000000
_cell_angle_gamma 90.000000
_cell_volume 3509.013361
_symmetry_space_group_name_H-M "A M A 2"
_symmetry_group_IT_number 40
_symmetry_cell_setting 'orthorhombic'
loop_
_space_group_symop_operation_xyz
x,y,z
-x,-y,z
1/2-x,y,z
1/2+x,-y,z
x,1/2+y,1/2+z
-x,1/2-y,1/2+z
1/2-x,1/2+y,1/2+z
1/2+x,1/2-y,1/2+z
loop_
_atom_site_type_symbol
_atom_site_label
_atom_site_fract_x
_atom_site_fract_y
_atom_site_fract_z
Si Si1 0.143046 0.055127 0.589200
Si Si2 0.067228 0.706642 0.405032
Si Si3 0.939080 0.042699 0.730579
Si Si4 0.679136 0.877038 0.934969
Si Si5 0.942999 0.049046 0.133783
Si Si6 0.821279 0.476915 0.717515
Si Si7 0.024097 0.632045 0.081382
Si Si8 0.515996 0.681877 0.743148
O O1 0.177940 0.094697 0.738210
O O2 0.186502 0.050081 0.415394
O O3 0.077542 0.084555 0.527792
O O4 0.125674 0.988907 0.666306
O O5 0.137526 0.683648 0.452483
O O6 0.036165 0.657538 0.276714
O O7 0.071393 0.770227 0.297413
O O8 0.025452 0.709195 0.584046
O O9 0.955422 0.098767 0.600363
O O10 0.928218 0.063693 0.930888
O O11 0.000000 0.000000 0.730708
O O12 0.750000 0.856607 0.981207
O O13 0.655093 0.926212 0.077838
O O14 0.960362 0.113658 0.217661
O O15 0.876643 0.027243 0.221210
O O16 0.000000 0.000000 0.164052
O O17 0.750000 0.500572 0.663774
O O18 0.025132 0.681356 0.925080
#
# Coordination Sequence:
#
# PCOD8182702 Si02
#       8
#     8   8   8   8   8   8   8   8
#     4  10  18  32  54  80 114 150 185 229 283 341
#     4  11  22  36  54  84 111 148 191 238 287 334
#     4   9  17  30  52  83 115 146 183 230 286 340
#     4  10  21  37  56  79 112 150 190 237 281 333
#     4  11  20  35  59  86 116 153 188 237 293 343
#     4  11  22  36  56  88 117 150 192 234 291 350
#     4  10  19  32  52  81 112 145 188 235 286 338
#     4  12  22  36  58  83 117 148 188 236 289 337
#
# _framework density 18.238745000000002
#
# number of rings (size 3 to 8) (size 9 to 14) (size 15 to 20)
#    0.000    1.500    3.750    3.375    0.000    1.000 
#    0.000    0.625    0.000    0.000    0.000    1.750 
#    0.000    0.000    0.000    0.000    0.000    0.000 
#
# Total GULP energy -396546.312530 kJ/mol
# GULP energy per Si atom -12392.072267 kJ/mol
# Density = 1.819723 g / cm^3
# Si number density = 18.238745 Si / 1000 Ang^3
#
#
#
# Elastic Constant Matrix: (Units=GPa)
#
#
# Indices 1 2 3 4 5 6 
#
# 1 82.5436 40.2081 19.2798 0.0000 0.0000 0.0000
# 2 40.2081 89.9441 18.1236 0.0000 0.0000 0.0000
# 3 19.2798 18.1236 99.0870 0.0000 0.0000 0.0000
# 4 0.0000 0.0000 0.0000 29.4316 0.0000 0.0000
# 5 0.0000 0.0000 0.0000 0.0000 19.2828 0.0000
# 6 0.0000 0.0000 0.0000 0.0000 0.0000 20.3922
#
#
#
# Elastic Compliance Matrix: (Units=1/GPa)
#
#
# Indices 1 2 3 4 5 6 
#
# 1 0.015808 -0.006694 -0.001851 0.000000 0.000000 0.000000
# 2 -0.006694 0.014378 -0.001327 0.000000 0.000000 0.000000
# 3 -0.001851 -0.001327 0.010695 0.000000 0.000000 0.000000
# 4 0.000000 0.000000 0.000000 0.033977 0.000000 0.000000
# 5 0.000000 0.000000 0.000000 0.000000 0.051860 0.000000
# 6 0.000000 0.000000 0.000000 0.000000 0.000000 0.049038
#
#
# Mechanical properties :
#
#
# Convention : Reuss Voigt Hill
#
# Bulk Modulus (GPa) = 47.31300 47.42196 47.36748
# Shear Modulus (GPa) = 24.68575 26.75220 25.71898
#
# Velocity S-wave (km/s) = 3.68296 3.83401 3.75924
# Velocity P-wave (km/s) = 6.63949 6.75697 6.69849
#
# Compressibility (1/GPa) = 0.02113584
#
# Stress axis : x y z
#
# Youngs Moduli (GPa) = 63.26003 69.55206 93.50010
#
# Poissons Ratio (x) = 0.46555 0.17311
# Poissons Ratio (y) = 0.42343 0.12411
# Poissons Ratio (z) = 0.11713 0.09232
#
# Static dielectric constant tensor:
#      x y z
#    x 3.169720 0.000000 0.000000 
#    y 0.000000 3.326110 0.000000 
#    z 0.000000 0.000000 3.604730 
# 
# 
# High freq. dielectric constant tensor:
#      x y z
#    x 1.677710 0.000000 0.000000 
#    y 0.000000 1.684780 0.000000 
#    z 0.000000 0.000000 1.733760 
# 
# From -- ./inp_files/8538.got.cif
#   From: 2010.03.12/outbox.cif.g09.slc.cpg/sg40_5_cif.got.tgz:8538.got - 2010.04.14 01:38:03.
