data_PCOD8182148
_publ_section_title
;
Structure prediction by ZEFSAII (Michael W. Deem and Ramdas Pophale) SiO2 
 PCOD8182148
Probable space group: A B M 2
;
_chemical_formula_sum "Si O2"
_cell_formula_units_Z 40
_cell_length_a 25.096913
_cell_length_b 13.173751
_cell_length_c 5.191878
_cell_angle_alpha 90.000000
_cell_angle_beta 90.000000
_cell_angle_gamma 90.000000
_cell_volume 1716.541211
_symmetry_space_group_name_H-M "A B M 2"
_symmetry_group_IT_number 39
_symmetry_cell_setting 'orthorhombic'
loop_
_space_group_symop_operation_xyz
x,y,z
-x,-y,z
-x,1/2+y,z
x,1/2-y,z
x,1/2+y,1/2+z
-x,1/2-y,1/2+z
-x,y,1/2+z
x,-y,1/2+z
loop_
_atom_site_type_symbol
_atom_site_label
_atom_site_fract_x
_atom_site_fract_y
_atom_site_fract_z
Si Si1 0.200672 0.750000 0.814301
Si Si2 0.534815 0.250000 0.806732
Si Si3 0.882418 0.071913 0.783041
Si Si4 0.577591 0.042459 0.680857
Si Si5 0.730656 0.250000 0.314581
Si Si6 0.695172 0.038804 0.196739
Si Si7 0.965725 0.750000 0.249920
O O1 0.168168 0.853614 0.774401
O O2 0.247590 0.750000 0.604073
O O3 0.221845 0.750000 0.107352
O O4 0.488463 0.250000 0.593968
O O5 0.574866 0.157025 0.772729
O O6 0.933294 0.145849 0.788718
O O7 0.882310 0.999159 0.534615
O O8 0.549126 0.026663 0.402808
O O9 0.637826 0.007932 0.620360
O O10 0.691505 0.155527 0.273046
O O11 0.725993 0.976918 0.424134
O O12 0.012593 0.750000 0.459241
#
# Coordination Sequence:
#
# PCOD8182148 Si02
#       7
#     4   4   8   8   4   8   4
#     4  11  26  42  63  95 130 167 216 272 317 385
#     4  12  26  42  66  96 125 164 209 252 306 374
#     4  11  24  43  66  92 131 179 218 265 335 386
#     4  10  23  42  65  91 126 162 199 252 307 366
#     4  12  24  41  65  95 126 161 212 267 319 378
#     4  10  23  40  63  93 124 161 204 251 313 377
#     4  11  24  41  64 100 135 168 225 279 320 389
#
# _framework density 23.302672999999999
#
# number of rings (size 3 to 8) (size 9 to 14) (size 15 to 20)
#    0.000    1.200    0.000    4.800    0.000   19.200 
#    0.000    0.000    0.000    0.000    0.000    0.000 
#    0.000    0.000    0.000    0.000    0.000    0.000 
#
# Total GULP energy -247895.593531 kJ/mol
# GULP energy per Si atom -12394.779677 kJ/mol
# Density = 2.324963 g / cm^3
# Si number density = 23.302673 Si / 1000 Ang^3
#
#
#
# Elastic Constant Matrix: (Units=GPa)
#
#
# Indices 1 2 3 4 5 6 
#
# 1 61.4311 29.9444 -0.9158 0.0000 0.0000 0.0000
# 2 29.9444 148.5510 26.5430 0.0000 0.0000 0.0000
# 3 -0.9158 26.5430 172.6858 0.0000 0.0000 0.0000
# 4 0.0000 0.0000 0.0000 45.1101 0.0000 0.0000
# 5 0.0000 0.0000 0.0000 0.0000 22.4430 0.0000
# 6 0.0000 0.0000 0.0000 0.0000 0.0000 34.8485
#
#
#
# Elastic Compliance Matrix: (Units=1/GPa)
#
#
# Indices 1 2 3 4 5 6 
#
# 1 0.018129 -0.003775 0.000676 0.000000 0.000000 0.000000
# 2 -0.003775 0.007708 -0.001205 0.000000 0.000000 0.000000
# 3 0.000676 -0.001205 0.005980 0.000000 0.000000 0.000000
# 4 0.000000 0.000000 0.000000 0.022168 0.000000 0.000000
# 5 0.000000 0.000000 0.000000 0.000000 0.044557 0.000000
# 6 0.000000 0.000000 0.000000 0.000000 0.000000 0.028696
#
#
# Mechanical properties :
#
#
# Convention : Reuss Voigt Hill
#
# Bulk Modulus (GPa) = 43.08644 54.86790 48.97717
# Shear Modulus (GPa) = 34.82363 42.28674 38.55518
#
# Velocity S-wave (km/s) = 3.86995 4.26452 4.07202
# Velocity P-wave (km/s) = 6.20473 6.91701 6.57053
#
# Compressibility (1/GPa) = 0.02320916
#
# Stress axis : x y z
#
# Youngs Moduli (GPa) = 55.16125 129.73613 167.23427
#
# Poissons Ratio (x) = 0.48978 -0.11312
# Poissons Ratio (y) = 0.20824 0.20148
# Poissons Ratio (z) = -0.03731 0.15630
#
# Static dielectric constant tensor:
#      x y z
#    x 4.125990 0.000000 0.000000 
#    y 0.000000 4.392630 0.000000 
#    z 0.000000 0.000000 5.000990 
# 
# 
# High freq. dielectric constant tensor:
#      x y z
#    x 1.896050 0.000000 0.000000 
#    y 0.000000 1.939770 0.000000 
#    z 0.000000 0.000000 1.963290 
# 
# From -- ./inp_files/1354.got.cif
#   From: 2010.03.12/outbox.cif.g09.slc.cpg/sg39_1_cif.got.tgz:1354.got - 2010.04.14 02:53:20.
