data_PCOD8182209
_publ_section_title
;
Structure prediction by ZEFSAII (Michael W. Deem and Ramdas Pophale) SiO2 
 PCOD8182209
Probable space group: A B M 2
;
_chemical_formula_sum "Si O2"
_cell_formula_units_Z 40
_cell_length_a 5.062214
_cell_length_b 28.023151
_cell_length_c 10.169257
_cell_angle_alpha 90.000000
_cell_angle_beta 90.000000
_cell_angle_gamma 90.000000
_cell_volume 1442.602534
_symmetry_space_group_name_H-M "A B M 2"
_symmetry_group_IT_number 39
_symmetry_cell_setting 'orthorhombic'
loop_
_space_group_symop_operation_xyz
x,y,z
-x,-y,z
-x,1/2+y,z
x,1/2-y,z
x,1/2+y,1/2+z
-x,1/2-y,1/2+z
-x,y,1/2+z
x,-y,1/2+z
loop_
_atom_site_type_symbol
_atom_site_label
_atom_site_fract_x
_atom_site_fract_y
_atom_site_fract_z
Si Si1 0.463617 0.445921 0.828750
Si Si2 0.959536 0.947290 0.498080
Si Si3 0.549518 0.696409 0.005252
Si Si4 0.198031 0.303503 0.744485
Si Si5 0.811653 0.376038 0.679794
O O1 0.500000 0.500000 0.769378
O O2 0.166108 0.436445 0.879447
O O3 0.548158 0.403014 0.731137
O O4 0.660863 0.440436 0.951630
O O5 0.986584 0.915853 0.627732
O O6 0.000000 0.000000 0.552038
O O7 0.652679 0.750000 0.035364
O O8 0.282166 0.689163 0.090939
O O9 0.753201 0.657611 0.056401
O O10 0.548214 0.689058 0.844971
O O11 0.084842 0.250000 0.765253
O O12 0.969686 0.341876 0.782671
#
# Coordination Sequence:
#
# PCOD8182209 Si02
#       5
#     8   8   8   8   8
#     4  10  25  46  68 104 150 199 251 320 392 464
#     4  10  25  46  69 102 151 199 254 321 390 463
#     4  10  24  45  72 107 153 200 257 328 402 479
#     4  10  24  47  73 113 159 207 260 331 405 483
#     4  12  25  40  78 106 149 201 271 322 401 477
#
# _framework density 27.727665999999999
#
# number of rings (size 3 to 8) (size 9 to 14) (size 15 to 20)
#    0.000    1.600    0.000    1.800    8.400    6.400 
#    0.000    4.000    0.000    0.000    0.000    0.000 
#    0.000    0.000    0.000    0.000    0.000    0.000 
#
# Total GULP energy -247777.049618 kJ/mol
# GULP energy per Si atom -12388.852481 kJ/mol
# Density = 2.766456 g / cm^3
# Si number density = 27.727666 Si / 1000 Ang^3
#
#
#
# Elastic Constant Matrix: (Units=GPa)
#
#
# Indices 1 2 3 4 5 6 
#
# 1 76.9580 40.9768 23.3833 0.0000 0.0000 0.0000
# 2 40.9768 169.9602 48.1018 0.0000 0.0000 0.0000
# 3 23.3833 48.1018 83.3576 0.0000 0.0000 0.0000
# 4 0.0000 0.0000 0.0000 14.0129 0.0000 0.0000
# 5 0.0000 0.0000 0.0000 0.0000 31.1177 0.0000
# 6 0.0000 0.0000 0.0000 0.0000 0.0000 46.3775
#
#
#
# Elastic Compliance Matrix: (Units=1/GPa)
#
#
# Indices 1 2 3 4 5 6 
#
# 1 0.015364 -0.002969 -0.002596 0.000000 0.000000 0.000000
# 2 -0.002969 0.007606 -0.003556 0.000000 0.000000 0.000000
# 3 -0.002596 -0.003556 0.014777 0.000000 0.000000 0.000000
# 4 0.000000 0.000000 0.000000 0.071363 0.000000 0.000000
# 5 0.000000 0.000000 0.000000 0.000000 0.032136 0.000000
# 6 0.000000 0.000000 0.000000 0.000000 0.000000 0.021562
#
#
# Mechanical properties :
#
#
# Convention : Reuss Voigt Hill
#
# Bulk Modulus (GPa) = 51.27363 61.68886 56.48124
# Shear Modulus (GPa) = 26.65913 32.82254 29.74083
#
# Velocity S-wave (km/s) = 3.10411 3.44429 3.27862
# Velocity P-wave (km/s) = 5.60173 6.17365 5.89463
#
# Compressibility (1/GPa) = 0.01950320
#
# Stress axis : x y z
#
# Youngs Moduli (GPa) = 65.08685 131.47338 67.67299
#
# Poissons Ratio (x) = 0.39040 0.17571
# Poissons Ratio (y) = 0.19327 0.24066
# Poissons Ratio (z) = 0.16899 0.46754
#
# Static dielectric constant tensor:
#      x y z
#    x 4.651540 0.000000 0.000000 
#    y 0.000000 5.706170 0.000000 
#    z 0.000000 0.000000 4.706890 
# 
# 
# High freq. dielectric constant tensor:
#      x y z
#    x 2.098810 0.000000 0.000000 
#    y 0.000000 2.154650 0.000000 
#    z 0.000000 0.000000 2.100110 
# 
# From -- ./inp_files/4610.got.cif
#   From: 2010.03.12/outbox.cif.g09.slc.cpg/sg39_3_cif.got.tgz:4610.got - 2010.04.14 02:53:20.
