data_PCOD8182889
_publ_section_title
;
Structure prediction by ZEFSAII (Michael W. Deem and Ramdas Pophale) SiO2 
 PCOD8182889
Probable space group: A M A 2
;
_chemical_formula_sum "Si O2"
_cell_formula_units_Z 64
_cell_length_a 9.083377
_cell_length_b 27.921471
_cell_length_c 14.386865
_cell_angle_alpha 90.000000
_cell_angle_beta 90.000000
_cell_angle_gamma 90.000000
_cell_volume 3648.814649
_symmetry_space_group_name_H-M "A M A 2"
_symmetry_group_IT_number 40
_symmetry_cell_setting 'orthorhombic'
loop_
_space_group_symop_operation_xyz
x,y,z
-x,-y,z
1/2-x,y,z
1/2+x,-y,z
x,1/2+y,1/2+z
-x,1/2-y,1/2+z
1/2-x,1/2+y,1/2+z
1/2+x,1/2-y,1/2+z
loop_
_atom_site_type_symbol
_atom_site_label
_atom_site_fract_x
_atom_site_fract_y
_atom_site_fract_z
Si Si1 0.077923 0.548679 0.503840
Si Si2 0.079431 0.140293 0.116542
Si Si3 0.422974 0.549022 0.290804
Si Si4 0.921115 0.827464 0.314853
Si Si5 0.582129 0.721604 0.303985
Si Si6 0.420565 0.866384 0.690145
Si Si7 0.919496 0.224548 0.015378
Si Si8 0.580517 0.676740 0.996926
O O1 0.250000 0.540406 0.516904
O O2 0.020615 0.591608 0.569595
O O3 0.038223 0.561855 0.397628
O O4 0.000000 0.500000 0.535927
O O5 0.250000 0.148594 0.090901
O O6 0.057475 0.136734 0.228138
O O7 0.988521 0.185409 0.082271
O O8 0.500000 0.500000 0.261485
O O9 0.250000 0.543568 0.276055
O O10 0.483906 0.589149 0.222685
O O11 0.750000 0.822412 0.343204
O O12 0.986172 0.774608 0.289097
O O13 0.008055 0.846693 0.404851
O O14 0.750000 0.725062 0.272002
O O15 0.509564 0.681055 0.239108
O O16 0.563744 0.705477 0.410472
O O17 0.250000 0.873790 0.719543
O O18 0.436167 0.861754 0.579288
O O19 0.750000 0.232244 0.042182
O O20 0.002001 0.274573 0.028215
O O21 0.750000 0.688534 0.976698
#
# Coordination Sequence:
#
# PCOD8182889 Si02
#       8
#     8   8   8   8   8   8   8   8
#     4   9  19  34  52  76 103 129 157 193 241 296
#     4  10  19  32  51  73  98 130 168 207 248 292
#     4  10  20  34  52  75 102 128 156 194 241 293
#     4   9  18  33  50  68  96 133 170 208 248 288
#     4   8  15  28  45  67  96 129 161 193 236 289
#     4  10  19  32  51  72  96 129 166 202 244 291
#     4  10  19  30  47  73 103 134 167 201 242 294
#     4  10  20  33  49  70  99 134 170 208 247 287
#
# _framework density 17.539942
#
# number of rings (size 3 to 8) (size 9 to 14) (size 15 to 20)
#    0.000    2.500    0.000    3.375    0.000    4.500 
#    0.000    2.500    0.000    0.750    0.000    3.500 
#    0.000    0.000    0.000    0.000    0.000    0.000 
#
# Total GULP energy -396780.834871 kJ/mol
# GULP energy per Si atom -12399.401090 kJ/mol
# Density = 1.750002 g / cm^3
# Si number density = 17.539942 Si / 1000 Ang^3
#
#
#
# Elastic Constant Matrix: (Units=GPa)
#
#
# Indices 1 2 3 4 5 6 
#
# 1 78.5789 42.7886 46.8199 0.0000 0.0000 0.0000
# 2 42.7886 86.9309 59.0468 0.0000 0.0000 0.0000
# 3 46.8199 59.0468 96.1445 0.0000 0.0000 0.0000
# 4 0.0000 0.0000 0.0000 28.0319 0.0000 0.0000
# 5 0.0000 0.0000 0.0000 0.0000 25.2046 0.0000
# 6 0.0000 0.0000 0.0000 0.0000 0.0000 27.3774
#
#
#
# Elastic Compliance Matrix: (Units=1/GPa)
#
#
# Indices 1 2 3 4 5 6 
#
# 1 0.019271 -0.005338 -0.006106 0.000000 0.000000 0.000000
# 2 -0.005338 0.021215 -0.010430 0.000000 0.000000 0.000000
# 3 -0.006106 -0.010430 0.019780 0.000000 0.000000 0.000000
# 4 0.000000 0.000000 0.000000 0.035674 0.000000 0.000000
# 5 0.000000 0.000000 0.000000 0.000000 0.039675 0.000000
# 6 0.000000 0.000000 0.000000 0.000000 0.000000 0.036527
#
#
# Mechanical properties :
#
#
# Convention : Reuss Voigt Hill
#
# Bulk Modulus (GPa) = 60.53882 62.10719 61.32301
# Shear Modulus (GPa) = 22.58404 23.65604 23.12004
#
# Velocity S-wave (km/s) = 3.59218 3.67644 3.63455
# Velocity P-wave (km/s) = 7.19686 7.31488 7.25611
#
# Compressibility (1/GPa) = 0.01651833
#
# Stress axis : x y z
#
# Youngs Moduli (GPa) = 51.89150 47.13637 50.55610
#
# Poissons Ratio (x) = 0.25161 0.30871
# Poissons Ratio (y) = 0.27699 0.52729
# Poissons Ratio (z) = 0.31686 0.49162
#
# Static dielectric constant tensor:
#      x y z
#    x 3.187680 0.000000 0.000000 
#    y 0.000000 3.139230 0.000000 
#    z 0.000000 0.000000 3.297530 
# 
# 
# High freq. dielectric constant tensor:
#      x y z
#    x 1.670880 0.000000 0.000000 
#    y 0.000000 1.655590 0.000000 
#    z 0.000000 0.000000 1.677110 
# 
# From -- ./inp_files/15921.got.cif
#   From: 2010.03.12/outbox.cif.g09.slc.cpg/sg40_8_cif.got.tgz:15921.got - 2010.04.14 01:38:03.
