data_PCOD8182326
_publ_section_title
;
Structure prediction by ZEFSAII (Michael W. Deem and Ramdas Pophale) SiO2 
 PCOD8182326
Probable space group: A B M 2
;
_chemical_formula_sum "Si O2"
_cell_formula_units_Z 32
_cell_length_a 21.000000
_cell_length_b 9.000000
_cell_length_c 18.000000
_cell_angle_alpha 90.000000
_cell_angle_beta 90.000000
_cell_angle_gamma 90.000000
_cell_volume 3402.000000
_symmetry_space_group_name_H-M "A B M 2"
_symmetry_group_IT_number 39
_symmetry_cell_setting 'orthorhombic'
loop_
_space_group_symop_operation_xyz
x,y,z
-x,-y,z
-x,1/2+y,z
x,1/2-y,z
x,1/2+y,1/2+z
-x,1/2-y,1/2+z
-x,y,1/2+z
x,-y,1/2+z
loop_
_atom_site_type_symbol
_atom_site_label
_atom_site_fract_x
_atom_site_fract_y
_atom_site_fract_z
Si Si1 0.567670 0.575015 0.902320
Si Si2 0.337136 0.920780 0.521637
Si Si3 0.688870 0.584475 0.813030
Si Si4 0.287566 0.589258 0.152169
Si Si5 0.803690 0.078735 0.480149
Si Si6 0.065264 0.076899 0.228349
Si Si7 0.849746 0.076332 0.121218
Si Si8 0.818449 0.923453 0.337160
O O1 0.500000 0.500000 0.887130
O O2 0.556940 0.750000 0.896505
O O3 0.622828 0.521854 0.845671
O O4 0.598070 0.526023 0.981327
O O5 0.342255 0.750000 0.537900
O O6 0.272777 0.954976 0.473805
O O7 0.333055 0.993008 0.601374
O O8 0.705562 0.750000 0.847985
O O9 0.673599 0.605576 0.727087
O O10 0.747128 0.469439 0.814188
O O11 0.278405 0.750000 0.113363
O O12 0.215492 0.526485 0.164421
O O13 0.816635 0.250000 0.500310
O O14 0.838049 0.971254 0.537446
O O15 0.836997 0.030928 0.404603
O O16 0.051455 0.250000 0.221501
O O17 0.125431 0.040354 0.280139
O O18 0.087836 0.010548 0.149674
O O19 0.000000 0.000000 0.256095
O O20 0.864326 0.250000 0.128806
O O21 0.817728 0.750000 0.358132
#
# Coordination Sequence:
#
# PCOD8182326 Si02
#       8
#     8   8   8   8   8   8   8   8
#     4  10  21  37  55  78 109 149 190 231 282 342
#     4   9  18  33  53  77 108 142 178 226 277 331
#     4  10  19  36  57  80 111 148 188 229 285 341
#     4   9  18  31  54  83 109 139 178 227 276 329
#     4  10  19  34  57  83 114 147 183 232 286 335
#     4  11  24  40  58  83 116 154 192 234 285 343
#     4  10  19  34  57  85 114 145 185 231 280 338
#     4  11  22  35  56  87 116 145 190 241 286 336
#
# _framework density 9.4062319999999993
#
# number of rings (size 3 to 8) (size 9 to 14) (size 15 to 20)
#    0.000    2.000    2.500    1.500    0.000    4.000 
#    0.000    1.250    0.000    4.500    0.000    0.000 
#    0.000    0.000    0.000    0.000    0.000    0.000 
#
# Total GULP energy -396444.662378 kJ/mol
# GULP energy per Si atom -12388.895699 kJ/mol
# Density = 0.938482 g / cm^3
# Si number density = 9.406232 Si / 1000 Ang^3
#
#
#
# Elastic Constant Matrix: (Units=GPa)
#
#
# Indices 1 2 3 4 5 6 
#
# 1 134.2266 53.7860 49.2534 0.0000 0.0000 0.0000
# 2 53.7860 61.7212 37.1375 0.0000 0.0000 0.0000
# 3 49.2534 37.1375 55.1240 0.0000 0.0000 0.0000
# 4 0.0000 0.0000 0.0000 25.5170 0.0000 0.0000
# 5 0.0000 0.0000 0.0000 0.0000 22.0665 0.0000
# 6 0.0000 0.0000 0.0000 0.0000 0.0000 33.1744
#
#
#
# Elastic Compliance Matrix: (Units=1/GPa)
#
#
# Indices 1 2 3 4 5 6 
#
# 1 0.012714 -0.007138 -0.006552 0.000000 0.000000 0.000000
# 2 -0.007138 0.031254 -0.014679 0.000000 0.000000 0.000000
# 3 -0.006552 -0.014679 0.033884 0.000000 0.000000 0.000000
# 4 0.000000 0.000000 0.000000 0.039190 0.000000 0.000000
# 5 0.000000 0.000000 0.000000 0.000000 0.045318 0.000000
# 6 0.000000 0.000000 0.000000 0.000000 0.000000 0.030144
#
#
# Mechanical properties :
#
#
# Convention : Reuss Voigt Hill
#
# Bulk Modulus (GPa) = 47.35622 59.04731 53.20177
# Shear Modulus (GPa) = 19.51014 23.54458 21.52736
#
# Velocity S-wave (km/s) = 3.22388 3.54155 3.38644
# Velocity P-wave (km/s) = 6.25182 6.94110 6.60546
#
# Compressibility (1/GPa) = 0.02111655
#
# Stress axis : x y z
#
# Youngs Moduli (GPa) = 78.65196 31.99599 29.51262
#
# Poissons Ratio (x) = 0.22837 0.19335
# Poissons Ratio (y) = 0.56139 0.43320
# Poissons Ratio (z) = 0.51529 0.46966
#
# Static dielectric constant tensor:
#      x y z
#    x 3.398360 0.000000 0.000000 
#    y 0.000000 3.419250 0.000000 
#    z 0.000000 0.000000 3.324190 
# 
# 
# High freq. dielectric constant tensor:
#      x y z
#    x 1.710230 0.000000 0.000000 
#    y 0.000000 1.729010 0.000000 
#    z 0.000000 0.000000 1.718930 
# 
# From -- ./inp_files/13095.got.cif
#   From: 2010.03.12/outbox.ucp.g09.slc.cvg/sg39_7_cif.got.tgz:13095.got - 2010.05.04 21:15:12.
