data_PCOD8182870
_publ_section_title
;
Structure prediction by ZEFSAII (Michael W. Deem and Ramdas Pophale) SiO2 
 PCOD8182870
Probable space group: A M A 2
;
_chemical_formula_sum "Si O2"
_cell_formula_units_Z 64
_cell_length_a 8.837916
_cell_length_b 26.734388
_cell_length_c 18.064174
_cell_angle_alpha 90.000000
_cell_angle_beta 90.000000
_cell_angle_gamma 90.000000
_cell_volume 4268.135752
_symmetry_space_group_name_H-M "A M A 2"
_symmetry_group_IT_number 40
_symmetry_cell_setting 'orthorhombic'
loop_
_space_group_symop_operation_xyz
x,y,z
-x,-y,z
1/2-x,y,z
1/2+x,-y,z
x,1/2+y,1/2+z
-x,1/2-y,1/2+z
1/2-x,1/2+y,1/2+z
1/2+x,1/2-y,1/2+z
loop_
_atom_site_type_symbol
_atom_site_label
_atom_site_fract_x
_atom_site_fract_y
_atom_site_fract_z
Si Si1 0.072363 0.741949 0.677990
Si Si2 0.583827 0.298259 0.056794
Si Si3 0.070637 0.852333 0.100044
Si Si4 0.571132 0.948281 0.169216
Si Si5 0.927514 0.245112 0.333639
Si Si6 0.928864 0.348103 0.913411
Si Si7 0.072797 0.050859 0.338614
Si Si8 0.583408 0.200766 0.957036
O O1 0.250000 0.733079 0.679489
O O2 0.033928 0.788140 0.622775
O O3 0.994113 0.690723 0.652923
O O4 0.013268 0.757219 0.758088
O O5 0.750000 0.309610 0.091043
O O6 0.532242 0.342934 0.001268
O O7 0.595878 0.250487 0.004842
O O8 0.250000 0.853510 0.111638
O O9 0.997196 0.904798 0.119502
O O10 0.028393 0.842406 0.013677
O O11 0.750000 0.949909 0.159284
O O12 0.522996 0.938850 0.254185
O O13 0.500000 0.000000 0.140662
O O14 0.750000 0.243782 0.319566
O O15 0.981129 0.191939 0.364766
O O16 0.966607 0.290488 0.390120
O O17 0.750000 0.339921 0.899155
O O18 0.983050 0.402900 0.888399
O O19 0.250000 0.043904 0.344241
O O20 0.000000 0.000000 0.369491
O O21 0.750000 0.188040 0.924545
#
# Coordination Sequence:
#
# PCOD8182870 Si02
#       8
#     8   8   8   8   8   8   8   8
#     4  11  20  29  42  60  85 114 143 174 210 251
#     4   8  15  28  43  59  81 108 138 172 207 246
#     4  10  19  31  46  63  84 111 144 178 213 253
#     4  10  19  30  44  62  86 115 147 181 214 248
#     4  11  20  28  42  63  85 110 143 177 207 246
#     4   9  17  30  45  60  83 113 141 171 212 253
#     4   9  18  30  43  60  82 110 141 174 210 244
#     4   8  16  30  44  59  83 111 136 169 212 253
#
# _framework density 14.994837
#
# number of rings (size 3 to 8) (size 9 to 14) (size 15 to 20)
#    0.000    2.500    0.000    5.250    0.000    7.000 
#    0.000    0.000    0.000    0.000    0.000    0.000 
#    0.000    1.000    0.000    9.250    0.000    3.875 
#
# Total GULP energy -396687.443837 kJ/mol
# GULP energy per Si atom -12396.482620 kJ/mol
# Density = 1.496071 g / cm^3
# Si number density = 14.994837 Si / 1000 Ang^3
#
#
#
# Elastic Constant Matrix: (Units=GPa)
#
#
# Indices 1 2 3 4 5 6 
#
# 1 72.2220 32.6562 36.0710 0.0000 0.0000 0.0000
# 2 32.6562 94.4640 52.1148 0.0000 0.0000 0.0000
# 3 36.0710 52.1148 82.7971 0.0000 0.0000 0.0000
# 4 0.0000 0.0000 0.0000 30.6561 0.0000 0.0000
# 5 0.0000 0.0000 0.0000 0.0000 22.6867 0.0000
# 6 0.0000 0.0000 0.0000 0.0000 0.0000 19.0430
#
#
#
# Elastic Compliance Matrix: (Units=1/GPa)
#
#
# Indices 1 2 3 4 5 6 
#
# 1 0.018215 -0.002940 -0.006085 0.000000 0.000000 0.000000
# 2 -0.002940 0.016692 -0.009226 0.000000 0.000000 0.000000
# 3 -0.006085 -0.009226 0.020536 0.000000 0.000000 0.000000
# 4 0.000000 0.000000 0.000000 0.032620 0.000000 0.000000
# 5 0.000000 0.000000 0.000000 0.000000 0.044079 0.000000
# 6 0.000000 0.000000 0.000000 0.000000 0.000000 0.052513
#
#
# Mechanical properties :
#
#
# Convention : Reuss Voigt Hill
#
# Bulk Modulus (GPa) = 52.79449 54.57415 53.68432
# Shear Modulus (GPa) = 21.98110 23.05322 22.51716
#
# Velocity S-wave (km/s) = 3.83288 3.92524 3.87933
# Velocity P-wave (km/s) = 7.40762 7.55100 7.47965
#
# Compressibility (1/GPa) = 0.01894137
#
# Stress axis : x y z
#
# Youngs Moduli (GPa) = 54.90121 59.90876 48.69603
#
# Poissons Ratio (x) = 0.17612 0.29631
# Poissons Ratio (y) = 0.16140 0.44926
# Poissons Ratio (z) = 0.33407 0.55270
#
# Static dielectric constant tensor:
#      x y z
#    x 2.931160 0.000000 0.000000 
#    y 0.000000 2.887010 0.000000 
#    z 0.000000 0.000000 3.064680 
# 
# 
# High freq. dielectric constant tensor:
#      x y z
#    x 1.582300 0.000000 0.000000 
#    y 0.000000 1.543010 0.000000 
#    z 0.000000 0.000000 1.561750 
# 
# From -- ./inp_files/19773.got.cif
#   From: 2010.03.12/outbox.cif.g09.slc.cpg/sg40_10_cif.got.tgz:19773.got - 2010.04.14 01:38:03.
