data_PCOD8182013
_publ_section_title
;
Structure prediction by ZEFSAII (Michael W. Deem and Ramdas Pophale) SiO2 
 PCOD8182013
Probable space group: A B M 2
;
_chemical_formula_sum "Si O2"
_cell_formula_units_Z 48
_cell_length_a 8.015123
_cell_length_b 9.532978
_cell_length_c 30.132069
_cell_angle_alpha 90.000000
_cell_angle_beta 90.000000
_cell_angle_gamma 90.000000
_cell_volume 2302.330864
_symmetry_space_group_name_H-M "A B M 2"
_symmetry_group_IT_number 39
_symmetry_cell_setting 'orthorhombic'
loop_
_space_group_symop_operation_xyz
x,y,z
-x,-y,z
-x,1/2+y,z
x,1/2-y,z
x,1/2+y,1/2+z
-x,1/2-y,1/2+z
-x,y,1/2+z
x,-y,1/2+z
loop_
_atom_site_type_symbol
_atom_site_label
_atom_site_fract_x
_atom_site_fract_y
_atom_site_fract_z
Si Si1 0.456156 0.750000 0.204310
Si Si2 0.188255 0.022487 0.074372
Si Si3 0.645522 0.750000 0.608910
Si Si4 0.343087 0.414886 0.404751
Si Si5 0.500000 0.500000 0.766590
Si Si6 0.170203 0.087377 0.979195
Si Si7 0.291042 0.250000 0.133628
Si Si8 0.163332 0.090197 0.316753
O O1 0.325846 0.750000 0.162744
O O2 0.426121 0.617513 0.234609
O O3 0.648047 0.750000 0.184713
O O4 0.282437 0.881622 0.084282
O O5 0.189725 0.113116 0.119660
O O6 0.000000 0.000000 0.062558
O O7 0.254016 0.090569 0.028515
O O8 0.449029 0.750000 0.600139
O O9 0.500000 0.500000 0.384113
O O10 0.384832 0.250000 0.414762
O O11 0.297808 0.502633 0.448389
O O12 0.191524 0.423048 0.369491
O O13 0.339387 0.546836 0.794592
O O14 0.143602 0.250000 0.963709
O O15 0.000000 0.000000 0.976756
O O16 0.124227 0.250000 0.302953
O O17 0.000000 0.000000 0.302570
#
# Coordination Sequence:
#
# PCOD8182013 Si02
#       8
#     4   8   4   8   4   8   4   8
#     4  10  24  42  74  92 132 176 218 282 352 412
#     4  11  22  39  64  95 132 175 224 277 333 393
#     4  10  23  39  66  91 122 175 219 269 341 405
#     4  11  24  43  67 101 139 184 231 281 338 402
#     4  12  22  48  74 100 138 182 224 288 348 426
#     4  11  24  41  63  93 136 182 227 283 337 399
#     4  10  21  43  62  91 126 169 219 267 339 407
#     4  11  26  45  73 108 141 184 230 282 346 415
#
# _framework density 20.848436
#
# number of rings (size 3 to 8) (size 9 to 14) (size 15 to 20)
#    0.500    0.667    2.500    3.500    5.833    4.000 
#    0.000    5.000    0.000    0.000    0.000    0.000 
#    0.000    0.000    0.000    0.000    0.000    0.000 
#
# Total GULP energy -297334.402198 kJ/mol
# GULP energy per Si atom -12388.933425 kJ/mol
# Density = 2.080098 g / cm^3
# Si number density = 20.848436 Si / 1000 Ang^3
#
#
#
# Elastic Constant Matrix: (Units=GPa)
#
#
# Indices 1 2 3 4 5 6 
#
# 1 84.3333 37.0842 20.5332 0.0000 0.0000 0.0000
# 2 37.0842 172.6860 33.3983 0.0000 0.0000 0.0000
# 3 20.5332 33.3983 77.9916 0.0000 0.0000 0.0000
# 4 0.0000 0.0000 0.0000 43.0869 0.0000 0.0000
# 5 0.0000 0.0000 0.0000 0.0000 26.3330 0.0000
# 6 0.0000 0.0000 0.0000 0.0000 0.0000 12.7855
#
#
#
# Elastic Compliance Matrix: (Units=1/GPa)
#
#
# Indices 1 2 3 4 5 6 
#
# 1 0.013537 -0.002418 -0.002528 0.000000 0.000000 0.000000
# 2 -0.002418 0.006746 -0.002252 0.000000 0.000000 0.000000
# 3 -0.002528 -0.002252 0.014452 0.000000 0.000000 0.000000
# 4 0.000000 0.000000 0.000000 0.023209 0.000000 0.000000
# 5 0.000000 0.000000 0.000000 0.000000 0.037975 0.000000
# 6 0.000000 0.000000 0.000000 0.000000 0.000000 0.078213
#
#
# Mechanical properties :
#
#
# Convention : Reuss Voigt Hill
#
# Bulk Modulus (GPa) = 49.17076 57.44916 53.30996
# Shear Modulus (GPa) = 25.60061 32.70743 29.15402
#
# Velocity S-wave (km/s) = 3.50800 3.96513 3.74355
# Velocity P-wave (km/s) = 6.32804 6.96982 6.65667
#
# Compressibility (1/GPa) = 0.02033729
#
# Stress axis : x y z
#
# Youngs Moduli (GPa) = 73.87396 148.24300 69.19466
#
# Poissons Ratio (x) = 0.35845 0.17495
# Poissons Ratio (y) = 0.17862 0.15583
# Poissons Ratio (z) = 0.18678 0.33386
#
# Static dielectric constant tensor:
#      x y z
#    x 3.577170 0.000000 0.000000 
#    y 0.000000 3.278440 0.000000 
#    z 0.000000 0.000000 3.757590 
# 
# 
# High freq. dielectric constant tensor:
#      x y z
#    x 1.803790 0.000000 0.000000 
#    y 0.000000 1.832010 0.000000 
#    z 0.000000 0.000000 1.817730 
# 
# From -- ./inp_files/17694.got.cif
#   From: 2010.03.12/outbox.cif.g09.slc.cpg/sg39_9_cif.got.tgz:17694.got - 2010.04.14 02:53:20.
