data_PCOD8182069
_publ_section_title
;
Structure prediction by ZEFSAII (Michael W. Deem and Ramdas Pophale) SiO2 
 PCOD8182069
Probable space group: A B M 2
;
_chemical_formula_sum "Si O2"
_cell_formula_units_Z 64
_cell_length_a 34.974099
_cell_length_b 9.127246
_cell_length_c 9.900542
_cell_angle_alpha 90.000000
_cell_angle_beta 90.000000
_cell_angle_gamma 90.000000
_cell_volume 3160.423347
_symmetry_space_group_name_H-M "A B M 2"
_symmetry_group_IT_number 39
_symmetry_cell_setting 'orthorhombic'
loop_
_space_group_symop_operation_xyz
x,y,z
-x,-y,z
-x,1/2+y,z
x,1/2-y,z
x,1/2+y,1/2+z
-x,1/2-y,1/2+z
-x,y,1/2+z
x,-y,1/2+z
loop_
_atom_site_type_symbol
_atom_site_label
_atom_site_fract_x
_atom_site_fract_y
_atom_site_fract_z
Si Si1 0.712245 0.919102 0.128720
Si Si2 0.418117 0.918625 0.900847
Si Si3 0.917146 0.919432 0.468872
Si Si4 0.790205 0.420015 0.150067
Si Si5 0.330901 0.418636 0.398853
Si Si6 0.461439 0.918968 0.630363
Si Si7 0.039665 0.079794 0.196265
Si Si8 0.833495 0.080775 0.877197
O O1 0.721961 0.750000 0.104938
O O2 0.680444 0.941272 0.243476
O O3 0.750580 0.998489 0.175682
O O4 0.696486 0.984277 0.990304
O O5 0.422895 0.750000 0.944577
O O6 0.374478 0.970779 0.915677
O O7 0.430054 0.941268 0.746101
O O8 0.445110 0.017273 0.992138
O O9 0.916553 0.750000 0.512890
O O10 0.947178 0.946906 0.349078
O O11 0.875299 0.970795 0.423165
O O12 0.928383 0.016694 0.596511
O O13 0.784599 0.250000 0.182454
O O14 0.822113 0.483228 0.249903
O O15 0.803371 0.445132 0.996885
O O16 0.325811 0.250000 0.442145
O O17 0.471254 0.750000 0.606029
O O18 0.500000 0.000000 0.673841
O O19 0.034182 0.250000 0.164192
O O20 0.000000 0.000000 0.169506
O O21 0.834196 0.250000 0.832338
#
# Coordination Sequence:
#
# PCOD8182069 Si02
#       8
#     8   8   8   8   8   8   8   8
#     4  11  23  39  60  86 117 153 193 238 287 341
#     4  10  22  40  61  86 116 150 190 237 287 340
#     4  10  22  40  61  86 116 151 192 238 288 341
#     4  11  23  38  59  87 117 153 195 237 286 343
#     4  10  22  40  60  85 117 150 189 238 288 340
#     4  11  23  39  60  87 118 153 194 237 285 341
#     4  11  23  38  59  86 115 150 191 234 284 341
#     4  10  22  40  60  85 118 152 190 239 289 339
#
# _framework density 20.250451000000002
#
# number of rings (size 3 to 8) (size 9 to 14) (size 15 to 20)
#    0.000    1.500    0.000    4.500    0.000   11.000 
#    0.000    0.000    0.000    0.000    0.000    0.000 
#    0.000    0.000    0.000    0.000    0.000    0.000 
#
# Total GULP energy -397052.122536 kJ/mol
# GULP energy per Si atom -12407.878829 kJ/mol
# Density = 2.020436 g / cm^3
# Si number density = 20.250451 Si / 1000 Ang^3
#
#
#
# Elastic Constant Matrix: (Units=GPa)
#
#
# Indices 1 2 3 4 5 6 
#
# 1 95.5649 34.9541 0.9578 0.0000 0.0000 0.0000
# 2 34.9541 101.3277 34.9682 0.0000 0.0000 0.0000
# 3 0.9578 34.9682 56.6007 0.0000 0.0000 0.0000
# 4 0.0000 0.0000 0.0000 31.7322 0.0000 0.0000
# 5 0.0000 0.0000 0.0000 0.0000 36.1341 0.0000
# 6 0.0000 0.0000 0.0000 0.0000 0.0000 36.1317
#
#
#
# Elastic Compliance Matrix: (Units=1/GPa)
#
#
# Indices 1 2 3 4 5 6 
#
# 1 0.012386 -0.005338 0.003089 0.000000 0.000000 0.000000
# 2 -0.005338 0.014844 -0.009080 0.000000 0.000000 0.000000
# 3 0.003089 -0.009080 0.023225 0.000000 0.000000 0.000000
# 4 0.000000 0.000000 0.000000 0.031514 0.000000 0.000000
# 5 0.000000 0.000000 0.000000 0.000000 0.027675 0.000000
# 6 0.000000 0.000000 0.000000 0.000000 0.000000 0.027677
#
#
# Mechanical properties :
#
#
# Convention : Reuss Voigt Hill
#
# Bulk Modulus (GPa) = 35.97838 43.91705 39.94772
# Shear Modulus (GPa) = 29.54282 32.97381 31.25831
#
# Velocity S-wave (km/s) = 3.82366 4.03960 3.93311
# Velocity P-wave (km/s) = 6.10730 6.59483 6.35574
#
# Compressibility (1/GPa) = 0.02779447
#
# Stress axis : x y z
#
# Youngs Moduli (GPa) = 80.73796 67.36637 43.05643
#
# Poissons Ratio (x) = 0.35963 -0.13298
# Poissons Ratio (y) = 0.43102 0.39097
# Poissons Ratio (z) = -0.24936 0.61172
#
# Static dielectric constant tensor:
#      x y z
#    x 3.773240 0.000000 0.000000 
#    y 0.000000 3.717900 0.000000 
#    z 0.000000 0.000000 3.577350 
# 
# 
# High freq. dielectric constant tensor:
#      x y z
#    x 1.806130 0.000000 0.000000 
#    y 0.000000 1.794000 0.000000 
#    z 0.000000 0.000000 1.796810 
# 
# From -- ./inp_files/7092.got.cif
#   From: 2010.03.12/outbox.cif.g09.slc.cpg/sg39_4_cif.got.tgz:7092.got - 2010.04.14 02:53:20.
