data_PCOD8182225
_publ_section_title
;
Structure prediction by ZEFSAII (Michael W. Deem and Ramdas Pophale) SiO2 
 PCOD8182225
Probable space group: A B M 2
;
_chemical_formula_sum "Si O2"
_cell_formula_units_Z 48
_cell_length_a 9.718303
_cell_length_b 14.253850
_cell_length_c 16.045906
_cell_angle_alpha 90.000000
_cell_angle_beta 90.000000
_cell_angle_gamma 90.000000
_cell_volume 2222.730779
_symmetry_space_group_name_H-M "A B M 2"
_symmetry_group_IT_number 39
_symmetry_cell_setting 'orthorhombic'
loop_
_space_group_symop_operation_xyz
x,y,z
-x,-y,z
-x,1/2+y,z
x,1/2-y,z
x,1/2+y,1/2+z
-x,1/2-y,1/2+z
-x,y,1/2+z
x,-y,1/2+z
loop_
_atom_site_type_symbol
_atom_site_label
_atom_site_fract_x
_atom_site_fract_y
_atom_site_fract_z
Si Si1 0.294781 0.919913 0.817590
Si Si2 0.924217 0.250000 0.465413
Si Si3 0.090345 0.750000 0.136479
Si Si4 0.516866 0.851412 0.448877
Si Si5 0.903408 0.750000 0.298223
Si Si6 0.288518 0.094613 0.583666
Si Si7 0.500000 0.000000 0.189981
Si Si8 0.240731 0.556293 0.462745
O O1 0.428366 0.870218 0.856518
O O2 0.185197 0.843791 0.787164
O O3 0.362314 0.968192 0.737722
O O4 0.218152 0.995589 0.878218
O O5 0.837785 0.345683 0.457413
O O6 0.993334 0.250000 0.555779
O O7 0.032192 0.250000 0.390422
O O8 0.183376 0.656790 0.136287
O O9 0.013202 0.750000 0.224105
O O10 0.444680 0.750000 0.452801
O O11 0.656752 0.850937 0.502621
O O12 0.404453 0.928657 0.472072
O O13 0.431147 0.080052 0.633507
O O14 0.206316 0.002630 0.547231
#
# Coordination Sequence:
#
# PCOD8182225 Si02
#       8
#     8   4   4   8   4   8   4   8
#     4  11  24  44  70 101 137 178 232 293 357 409
#     4  12  28  50  66 100 144 196 238 276 344 420
#     4  12  30  48  68 102 146 196 238 276 342 426
#     4  11  18  41  73 101 132 176 227 299 361 405
#     4  12  30  48  68 102 146 196 238 276 342 426
#     4  11  24  44  70 101 137 178 232 293 357 409
#     4  12  24  40  74 108 132 172 228 304 368 394
#     4  11  23  43  74 102 135 184 235 292 351 421
#
# _framework density 21.59506
#
# number of rings (size 3 to 8) (size 9 to 14) (size 15 to 20)
#    0.000    0.667    5.833    3.000    4.667    3.333 
#    0.000    0.000    0.000    0.000    0.000    0.000 
#    0.000    0.000    0.000    0.000    0.000    0.000 
#
# Total GULP energy -297442.762420 kJ/mol
# GULP energy per Si atom -12393.448434 kJ/mol
# Density = 2.154591 g / cm^3
# Si number density = 21.595060 Si / 1000 Ang^3
#
#
#
# Elastic Constant Matrix: (Units=GPa)
#
#
# Indices 1 2 3 4 5 6 
#
# 1 87.9508 48.7590 20.4416 0.0000 0.0000 0.0000
# 2 48.7590 136.4497 27.3506 0.0000 0.0000 0.0000
# 3 20.4416 27.3506 70.1689 0.0000 0.0000 0.0000
# 4 0.0000 0.0000 0.0000 5.9561 0.0000 0.0000
# 5 0.0000 0.0000 0.0000 0.0000 42.4420 0.0000
# 6 0.0000 0.0000 0.0000 0.0000 0.0000 44.0104
#
#
#
# Elastic Compliance Matrix: (Units=1/GPa)
#
#
# Indices 1 2 3 4 5 6 
#
# 1 0.014542 -0.004716 -0.002398 0.000000 0.000000 0.000000
# 2 -0.004716 0.009479 -0.002321 0.000000 0.000000 0.000000
# 3 -0.002398 -0.002321 0.015855 0.000000 0.000000 0.000000
# 4 0.000000 0.000000 0.000000 0.167896 0.000000 0.000000
# 5 0.000000 0.000000 0.000000 0.000000 0.023562 0.000000
# 6 0.000000 0.000000 0.000000 0.000000 0.000000 0.022722
#
#
# Mechanical properties :
#
#
# Convention : Reuss Voigt Hill
#
# Bulk Modulus (GPa) = 47.60615 54.18576 50.89595
# Shear Modulus (GPa) = 17.86186 31.68292 24.77239
#
# Velocity S-wave (km/s) = 2.87910 3.83448 3.39061
# Velocity P-wave (km/s) = 5.75718 6.68958 6.24082
#
# Compressibility (1/GPa) = 0.02100569
#
# Stress axis : x y z
#
# Youngs Moduli (GPa) = 68.76788 105.49615 63.07291
#
# Poissons Ratio (x) = 0.49748 0.15126
# Poissons Ratio (y) = 0.32428 0.14639
# Poissons Ratio (z) = 0.16492 0.24486
#
# Static dielectric constant tensor:
#      x y z
#    x 3.744530 0.000000 0.000000 
#    y 0.000000 4.204350 0.000000 
#    z 0.000000 0.000000 3.862330 
# 
# 
# High freq. dielectric constant tensor:
#      x y z
#    x 1.841390 0.000000 0.000000 
#    y 0.000000 1.862500 0.000000 
#    z 0.000000 0.000000 1.847860 
# 
# From -- ./inp_files/11662.got.cif
#   From: 2010.03.12/outbox.cif.g09.slc.cpg/sg39_6_cif.got.tgz:11662.got - 2010.04.14 02:53:20.
