data_PCOD8182825
_publ_section_title
;
Structure prediction by ZEFSAII (Michael W. Deem and Ramdas Pophale) SiO2 
 PCOD8182825
Probable space group: A M A 2
;
_chemical_formula_sum "Si O2"
_cell_formula_units_Z 44
_cell_length_a 11.551657
_cell_length_b 14.460497
_cell_length_c 13.295521
_cell_angle_alpha 90.000000
_cell_angle_beta 90.000000
_cell_angle_gamma 90.000000
_cell_volume 2220.919744
_symmetry_space_group_name_H-M "A M A 2"
_symmetry_group_IT_number 40
_symmetry_cell_setting 'orthorhombic'
loop_
_space_group_symop_operation_xyz
x,y,z
-x,-y,z
1/2-x,y,z
1/2+x,-y,z
x,1/2+y,1/2+z
-x,1/2-y,1/2+z
1/2-x,1/2+y,1/2+z
1/2+x,1/2-y,1/2+z
loop_
_atom_site_type_symbol
_atom_site_label
_atom_site_fract_x
_atom_site_fract_y
_atom_site_fract_z
Si Si1 0.474156 0.396047 0.476730
Si Si2 0.112725 0.749983 0.598025
Si Si3 0.025853 0.103953 0.476781
Si Si4 0.750000 0.147397 0.081562
Si Si5 0.750000 0.749961 0.771763
Si Si6 0.493228 0.249975 0.319188
Si Si7 0.250000 0.647407 0.081604
O O1 0.500000 0.500000 0.444682
O O2 0.575339 0.342036 0.537234
O O3 0.363466 0.406273 0.548108
O O4 0.444167 0.341229 0.374233
O O5 0.250000 0.749987 0.615784
O O6 0.075328 0.842021 0.537273
O O7 0.044371 0.749955 0.703680
O O8 0.136534 0.093725 0.548171
O O9 0.055870 0.158760 0.374284
O O10 0.000000 0.000000 0.444743
O O11 0.750000 0.157245 0.202630
O O12 0.750000 0.250003 0.031597
O O13 0.633085 0.749952 0.836591
O O14 0.750000 0.842704 0.702668
#
# Coordination Sequence:
#
# PCOD8182825 Si02
#       7
#     8   8   8   4   4   8   4
#     4  11  25  41  64  94 123 163 206 252 308 362
#     4  11  24  43  63  91 129 160 203 259 303 359
#     4  11  25  41  64  94 123 163 206 252 308 362
#     4  10  18  45  63  82 125 176 193 243 308 380
#     4  10  18  40  66  84 120 170 198 248 308 368
#     4  11  22  41  64  91 124 160 208 249 312 357
#     4  10  18  45  63  82 125 176 193 243 308 380
#
# _framework density 19.811612
#
# number of rings (size 3 to 8) (size 9 to 14) (size 15 to 20)
#    0.545    0.727    7.273    0.000   10.182    1.455 
#    0.000    0.000    0.000    0.000    0.000    0.000 
#    0.000    0.000    0.000    0.000    0.000    0.000 
#
# Total GULP energy -272693.945859 kJ/mol
# GULP energy per Si atom -12395.179357 kJ/mol
# Density = 1.976652 g / cm^3
# Si number density = 19.811612 Si / 1000 Ang^3
#
#
#
# Elastic Constant Matrix: (Units=GPa)
#
#
# Indices 1 2 3 4 5 6 
#
# 1 96.4904 6.9129 -6.4837 0.0000 0.0000 0.0000
# 2 6.9129 148.4650 35.2285 0.0000 0.0000 0.0000
# 3 -6.4837 35.2285 84.7136 0.0000 0.0000 0.0000
# 4 0.0000 0.0000 0.0000 7.0617 0.0000 0.0000
# 5 0.0000 0.0000 0.0000 0.0000 27.2614 0.0000
# 6 0.0000 0.0000 0.0000 0.0000 0.0000 16.4251
#
#
#
# Elastic Compliance Matrix: (Units=1/GPa)
#
#
# Indices 1 2 3 4 5 6 
#
# 1 0.010493 -0.000753 0.001116 0.000000 0.000000 0.000000
# 2 -0.000753 0.007527 -0.003188 0.000000 0.000000 0.000000
# 3 0.001116 -0.003188 0.013216 0.000000 0.000000 0.000000
# 4 0.000000 0.000000 0.000000 0.141609 0.000000 0.000000
# 5 0.000000 0.000000 0.000000 0.000000 0.036682 0.000000
# 6 0.000000 0.000000 0.000000 0.000000 0.000000 0.060882
#
#
# Mechanical properties :
#
#
# Convention : Reuss Voigt Hill
#
# Bulk Modulus (GPa) = 39.08446 44.55383 41.81915
# Shear Modulus (GPa) = 17.56930 29.75039 23.65985
#
# Velocity S-wave (km/s) = 2.98118 3.87934 3.45953
# Velocity P-wave (km/s) = 5.62324 6.52711 6.09196
#
# Compressibility (1/GPa) = 0.02558561
#
# Stress axis : x y z
#
# Youngs Moduli (GPa) = 95.30418 132.85318 75.66810
#
# Poissons Ratio (x) = 0.10010 -0.08448
# Poissons Ratio (y) = 0.07181 0.24122
# Poissons Ratio (z) = -0.10640 0.42352
#
# Static dielectric constant tensor:
#      x y z
#    x 3.591530 0.000000 0.000000 
#    y 0.000000 3.336540 0.000000 
#    z 0.000000 0.000000 3.527110 
# 
# 
# High freq. dielectric constant tensor:
#      x y z
#    x 1.776910 0.000000 0.000000 
#    y 0.000000 1.749210 0.000000 
#    z 0.000000 0.000000 1.773370 
# 
# From -- ./inp_files/16322.got.cif
#   From: 2010.03.12/outbox.cif.g09.slc.cpg/sg40_9_cif.got.tgz:16322.got - 2010.04.14 01:38:03.
