data_PCOD8182823
_publ_section_title
;
Structure prediction by ZEFSAII (Michael W. Deem and Ramdas Pophale) SiO2 
 PCOD8182823
Probable space group: A M A 2
;
_chemical_formula_sum "Si O2"
_cell_formula_units_Z 48
_cell_length_a 17.850339
_cell_length_b 8.941178
_cell_length_c 15.527915
_cell_angle_alpha 90.000000
_cell_angle_beta 90.000000
_cell_angle_gamma 90.000000
_cell_volume 2478.302724
_symmetry_space_group_name_H-M "A M A 2"
_symmetry_group_IT_number 40
_symmetry_cell_setting 'orthorhombic'
loop_
_space_group_symop_operation_xyz
x,y,z
-x,-y,z
1/2-x,y,z
1/2+x,-y,z
x,1/2+y,1/2+z
-x,1/2-y,1/2+z
1/2-x,1/2+y,1/2+z
1/2+x,1/2-y,1/2+z
loop_
_atom_site_type_symbol
_atom_site_label
_atom_site_fract_x
_atom_site_fract_y
_atom_site_fract_z
Si Si1 0.084009 0.538686 0.015890
Si Si2 0.551485 0.181435 0.918976
Si Si3 0.161265 0.712225 0.168988
Si Si4 0.391066 0.100457 0.852274
Si Si5 0.420416 0.981473 0.098778
Si Si6 0.833725 0.765617 0.011414
O O1 0.126740 0.610254 0.095476
O O2 0.000000 0.500000 0.045523
O O3 0.082054 0.649813 0.932298
O O4 0.128051 0.391377 0.989529
O O5 0.466721 0.182900 0.884772
O O6 0.600103 0.081267 0.852153
O O7 0.556694 0.101810 0.011159
O O8 0.250000 0.703541 0.164439
O O9 0.131597 0.652142 0.258840
O O10 0.135677 0.883450 0.156506
O O11 0.327731 0.144386 0.921439
O O12 0.500000 0.000000 0.149028
O O13 0.381337 0.141237 0.081661
O O14 0.750000 0.741815 0.047424
#
# Coordination Sequence:
#
# PCOD8182823 Si02
#       6
#     8   8   8   8   8   8
#     4  11  21  38  61  89 117 156 204 252 295 361
#     4   9  18  37  63  85 108 151 209 253 281 354
#     4  11  24  38  57  90 125 155 194 250 315 365
#     4  10  19  38  59  84 119 150 200 246 305 359
#     4  10  18  40  61  84 112 156 208 243 287 362
#     4  11  20  35  61  86 116 156 196 245 299 357
#
# _framework density 19.368092999999998
#
# number of rings (size 3 to 8) (size 9 to 14) (size 15 to 20)
#    0.000    1.667    5.000    2.500    2.333    0.000 
#    3.000    2.500    0.000    0.000    0.000    0.000 
#    0.000    0.000    0.000    0.000    0.000    0.000 
#
# Total GULP energy -297486.170258 kJ/mol
# GULP energy per Si atom -12395.257094 kJ/mol
# Density = 1.932401 g / cm^3
# Si number density = 19.368093 Si / 1000 Ang^3
#
#
#
# Elastic Constant Matrix: (Units=GPa)
#
#
# Indices 1 2 3 4 5 6 
#
# 1 154.0580 70.1606 43.8673 0.0000 0.0000 0.0000
# 2 70.1606 149.2929 39.5027 0.0000 0.0000 0.0000
# 3 43.8673 39.5027 74.2982 0.0000 0.0000 0.0000
# 4 0.0000 0.0000 0.0000 21.9234 0.0000 0.0000
# 5 0.0000 0.0000 0.0000 0.0000 14.5489 0.0000
# 6 0.0000 0.0000 0.0000 0.0000 0.0000 25.2414
#
#
#
# Elastic Compliance Matrix: (Units=1/GPa)
#
#
# Indices 1 2 3 4 5 6 
#
# 1 0.009004 -0.003287 -0.003569 0.000000 0.000000 0.000000
# 2 -0.003287 0.008995 -0.002842 0.000000 0.000000 0.000000
# 3 -0.003569 -0.002842 0.017077 0.000000 0.000000 0.000000
# 4 0.000000 0.000000 0.000000 0.045613 0.000000 0.000000
# 5 0.000000 0.000000 0.000000 0.000000 0.068734 0.000000
# 6 0.000000 0.000000 0.000000 0.000000 0.000000 0.039617
#
#
# Mechanical properties :
#
#
# Convention : Reuss Voigt Hill
#
# Bulk Modulus (GPa) = 63.76943 76.07890 69.92417
# Shear Modulus (GPa) = 23.40135 27.28397 25.34266
#
# Velocity S-wave (km/s) = 3.47975 3.75735 3.62121
# Velocity P-wave (km/s) = 7.01009 7.62819 7.32566
#
# Compressibility (1/GPa) = 0.01568149
#
# Stress axis : x y z
#
# Youngs Moduli (GPa) = 111.05798 111.17276 58.55841
#
# Poissons Ratio (x) = 0.36547 0.20897
# Poissons Ratio (y) = 0.36509 0.16639
# Poissons Ratio (z) = 0.39631 0.31590
#
# Static dielectric constant tensor:
#      x y z
#    x 3.622860 0.000000 0.000000 
#    y 0.000000 3.971740 0.000000 
#    z 0.000000 0.000000 3.218910 
# 
# 
# High freq. dielectric constant tensor:
#      x y z
#    x 1.760550 0.000000 0.000000 
#    y 0.000000 1.764030 0.000000 
#    z 0.000000 0.000000 1.717450 
# 
# From -- ./inp_files/17655.got.cif
#   From: 2010.03.12/outbox.cif.g09.slc.cpg/sg40_9_cif.got.tgz:17655.got - 2010.04.14 01:38:03.
