data_PCOD8182041
_publ_section_title
;
Structure prediction by ZEFSAII (Michael W. Deem and Ramdas Pophale) SiO2 
 PCOD8182041
Probable space group: A B M 2
;
_chemical_formula_sum "Si O2"
_cell_formula_units_Z 64
_cell_length_a 15.390204
_cell_length_b 8.767770
_cell_length_c 23.716477
_cell_angle_alpha 90.000000
_cell_angle_beta 90.000000
_cell_angle_gamma 90.000000
_cell_volume 3200.248493
_symmetry_space_group_name_H-M "A B M 2"
_symmetry_group_IT_number 39
_symmetry_cell_setting 'orthorhombic'
loop_
_space_group_symop_operation_xyz
x,y,z
-x,-y,z
-x,1/2+y,z
x,1/2-y,z
x,1/2+y,1/2+z
-x,1/2-y,1/2+z
-x,y,1/2+z
x,-y,1/2+z
loop_
_atom_site_type_symbol
_atom_site_label
_atom_site_fract_x
_atom_site_fract_y
_atom_site_fract_z
Si Si1 0.086442 0.429672 0.448740
Si Si2 0.842929 0.429765 0.339593
Si Si3 0.090538 0.428678 0.717514
Si Si4 0.587968 0.570608 0.950551
Si Si5 0.591737 0.070076 0.717339
Si Si6 0.257478 0.426043 0.517168
Si Si7 0.655262 0.569686 0.339255
Si Si8 0.255911 0.571855 0.148356
O O1 0.077154 0.250000 0.438958
O O2 0.094756 0.516056 0.389295
O O3 0.166478 0.469934 0.488967
O O4 0.000000 0.500000 0.477515
O O5 0.824054 0.250000 0.342754
O O6 0.888650 0.476525 0.281417
O O7 0.754110 0.520747 0.346149
O O8 0.081062 0.250000 0.710817
O O9 0.168115 0.489435 0.677770
O O10 0.000000 0.500000 0.697511
O O11 0.500000 0.500000 0.976626
O O12 0.578918 0.750000 0.948000
O O13 0.598464 0.507745 0.887490
O O14 0.667859 0.528258 0.990412
O O15 0.584148 0.250000 0.715819
O O16 0.619012 0.012127 0.779359
O O17 0.500000 0.000000 0.699740
O O18 0.662178 0.017967 0.672144
O O19 0.280809 0.250000 0.506031
O O20 0.248921 0.463389 0.582634
O O21 0.648896 0.750000 0.346060
O O22 0.268973 0.750000 0.161314
#
# Coordination Sequence:
#
# PCOD8182041 Si02
#       8
#     8   8   8   8   8   8   8   8
#     4  11  23  39  61  90 125 162 205 252 306 366
#     4  11  21  36  61  92 124 161 202 247 307 368
#     4  10  22  38  60  90 123 160 202 248 301 361
#     4  12  25  41  65  93 125 161 203 250 304 366
#     4  11  24  40  63  93 124 161 201 248 303 362
#     4  10  23  43  65  88 120 162 207 256 308 360
#     4  11  22  38  62  93 127 161 199 246 306 368
#     4  10  22  43  65  87 120 162 207 256 306 358
#
# _framework density 19.998446999999999
#
# number of rings (size 3 to 8) (size 9 to 14) (size 15 to 20)
#    0.000    1.250    2.500    3.375    0.000    7.000 
#    0.000    0.000    0.000    0.000    0.000    0.000 
#    0.000    0.000    0.000    0.000    0.000    0.000 
#
# Total GULP energy -397002.865187 kJ/mol
# GULP energy per Si atom -12406.339537 kJ/mol
# Density = 1.995293 g / cm^3
# Si number density = 19.998447 Si / 1000 Ang^3
#
#
#
# Elastic Constant Matrix: (Units=GPa)
#
#
# Indices 1 2 3 4 5 6 
#
# 1 156.5205 47.7879 53.5436 0.0000 0.0000 0.0000
# 2 47.7879 83.9461 43.0215 0.0000 0.0000 0.0000
# 3 53.5436 43.0215 117.4017 0.0000 0.0000 0.0000
# 4 0.0000 0.0000 0.0000 11.6947 0.0000 0.0000
# 5 0.0000 0.0000 0.0000 0.0000 1.9640 0.0000
# 6 0.0000 0.0000 0.0000 0.0000 0.0000 38.7134
#
#
#
# Elastic Compliance Matrix: (Units=1/GPa)
#
#
# Indices 1 2 3 4 5 6 
#
# 1 0.008301 -0.003429 -0.002529 0.000000 0.000000 0.000000
# 2 -0.003429 0.016084 -0.004330 0.000000 0.000000 0.000000
# 3 -0.002529 -0.004330 0.011258 0.000000 0.000000 0.000000
# 4 0.000000 0.000000 0.000000 0.085509 0.000000 0.000000
# 5 0.000000 0.000000 0.000000 0.000000 0.509171 0.000000
# 6 0.000000 0.000000 0.000000 0.000000 0.000000 0.025831
#
#
# Mechanical properties :
#
#
# Convention : Reuss Voigt Hill
#
# Bulk Modulus (GPa) = 66.37492 71.84160 69.10826
# Shear Modulus (GPa) = 7.33404 24.70877 16.02141
#
# Velocity S-wave (km/s) = 1.91710 3.51883 2.83350
# Velocity P-wave (km/s) = 6.17758 7.24646 6.73326
#
# Compressibility (1/GPa) = 0.01506593
#
# Stress axis : x y z
#
# Youngs Moduli (GPa) = 120.46439 62.17508 88.82651
#
# Poissons Ratio (x) = 0.21322 0.22466
# Poissons Ratio (y) = 0.41312 0.38460
# Poissons Ratio (z) = 0.30468 0.26920
#
# Static dielectric constant tensor:
#      x y z
#    x 3.765980 0.000000 0.000000 
#    y 0.000000 3.616140 0.000000 
#    z 0.000000 0.000000 3.706650 
# 
# 
# High freq. dielectric constant tensor:
#      x y z
#    x 1.798070 0.000000 0.000000 
#    y 0.000000 1.782070 0.000000 
#    z 0.000000 0.000000 1.777780 
# 
# From -- ./inp_files/16173.got.cif
#   From: 2010.03.12/outbox.cif.g09.slc.cpg/sg39_9_cif.got.tgz:16173.got - 2010.04.14 02:53:20.
