data_PCOD8182684
_publ_section_title
;
Structure prediction by ZEFSAII (Michael W. Deem and Ramdas Pophale) SiO2 
 PCOD8182684
Probable space group: A M A 2
;
_chemical_formula_sum "Si O2"
_cell_formula_units_Z 64
_cell_length_a 9.035781
_cell_length_b 22.899039
_cell_length_c 18.908580
_cell_angle_alpha 90.000000
_cell_angle_beta 90.000000
_cell_angle_gamma 90.000000
_cell_volume 3912.387552
_symmetry_space_group_name_H-M "A M A 2"
_symmetry_group_IT_number 40
_symmetry_cell_setting 'orthorhombic'
loop_
_space_group_symop_operation_xyz
x,y,z
-x,-y,z
1/2-x,y,z
1/2+x,-y,z
x,1/2+y,1/2+z
-x,1/2-y,1/2+z
1/2-x,1/2+y,1/2+z
1/2+x,1/2-y,1/2+z
loop_
_atom_site_type_symbol
_atom_site_label
_atom_site_fract_x
_atom_site_fract_y
_atom_site_fract_z
Si Si1 0.926260 0.439976 0.667350
Si Si2 0.921587 0.331908 0.760417
Si Si3 0.077923 0.881272 0.038958
Si Si4 0.077625 0.438500 0.389341
Si Si5 0.421085 0.239794 0.032526
Si Si6 0.078062 0.269304 0.877355
Si Si7 0.419096 0.785217 0.680249
Si Si8 0.423861 0.652758 0.296884
O O1 0.750000 0.445992 0.663057
O O2 0.976886 0.391462 0.724245
O O3 0.000000 0.500000 0.692646
O O4 0.986007 0.423437 0.590090
O O5 0.750000 0.335551 0.776396
O O6 0.960743 0.279503 0.707096
O O7 0.999185 0.322062 0.836075
O O8 0.250000 0.885128 0.059260
O O9 0.024050 0.815286 0.046682
O O10 0.047799 0.901350 0.959433
O O11 0.250000 0.448001 0.374714
O O12 0.000000 0.500000 0.398304
O O13 0.006598 0.404883 0.323161
O O14 0.250000 0.218396 0.029864
O O15 0.444595 0.286183 0.095791
O O16 0.465619 0.271948 0.959846
O O17 0.250000 0.278182 0.865052
O O18 0.027568 0.206710 0.846661
O O19 0.250000 0.800212 0.699715
O O20 0.524123 0.833151 0.716865
O O21 0.250000 0.641269 0.298305
#
# Coordination Sequence:
#
# PCOD8182684 Si02
#       8
#     8   8   8   8   8   8   8   8
#     4  11  22  36  51  70  97 134 172 208 246 289
#     4   9  18  32  49  68  95 130 163 199 246 293
#     4  11  22  33  48  72 100 134 171 206 239 285
#     4  11  23  36  50  70  97 133 172 207 245 290
#     4  10  18  32  51  73 101 135 165 200 248 294
#     4   9  18  30  49  73  98 127 162 203 247 291
#     4   9  17  31  50  70  97 130 162 198 245 299
#     4  10  19  32  50  72  98 128 163 206 247 290
#
# _framework density 16.358297
#
# number of rings (size 3 to 8) (size 9 to 14) (size 15 to 20)
#    0.000    2.000    2.500    1.875    0.000    5.000 
#    0.000    0.000    0.000    0.000    0.000    0.875 
#    0.000    2.000    0.000    0.000    0.000    0.000 
#
# Total GULP energy -396875.232904 kJ/mol
# GULP energy per Si atom -12402.351028 kJ/mol
# Density = 1.632106 g / cm^3
# Si number density = 16.358297 Si / 1000 Ang^3
#
#
#
# Elastic Constant Matrix: (Units=GPa)
#
#
# Indices 1 2 3 4 5 6 
#
# 1 68.4537 32.5889 33.2278 0.0000 0.0000 0.0000
# 2 32.5889 40.0045 20.3923 0.0000 0.0000 0.0000
# 3 33.2278 20.3923 89.7470 0.0000 0.0000 0.0000
# 4 0.0000 0.0000 0.0000 21.7857 0.0000 0.0000
# 5 0.0000 0.0000 0.0000 0.0000 27.3231 0.0000
# 6 0.0000 0.0000 0.0000 0.0000 0.0000 28.4524
#
#
#
# Elastic Compliance Matrix: (Units=1/GPa)
#
#
# Indices 1 2 3 4 5 6 
#
# 1 0.026024 -0.018422 -0.005449 0.000000 0.000000 0.000000
# 2 -0.018422 0.041313 -0.002567 0.000000 0.000000 0.000000
# 3 -0.005449 -0.002567 0.013743 0.000000 0.000000 0.000000
# 4 0.000000 0.000000 0.000000 0.045902 0.000000 0.000000
# 5 0.000000 0.000000 0.000000 0.000000 0.036599 0.000000
# 6 0.000000 0.000000 0.000000 0.000000 0.000000 0.035146
#
#
# Mechanical properties :
#
#
# Convention : Reuss Voigt Hill
#
# Bulk Modulus (GPa) = 35.45590 41.18039 38.31814
# Shear Modulus (GPa) = 19.15686 22.97865 21.06775
#
# Velocity S-wave (km/s) = 3.42582 3.75201 3.59262
# Velocity P-wave (km/s) = 6.11309 6.63316 6.37843
#
# Compressibility (1/GPa) = 0.02820405
#
# Stress axis : x y z
#
# Youngs Moduli (GPa) = 38.42655 24.20569 72.76393
#
# Poissons Ratio (x) = 0.44592 0.39650
# Poissons Ratio (y) = 0.70789 0.18675
# Poissons Ratio (z) = 0.20939 0.06212
#
# Static dielectric constant tensor:
#      x y z
#    x 3.130310 0.000000 0.000000 
#    y 0.000000 2.915050 0.000000 
#    z 0.000000 0.000000 3.186620 
# 
# 
# High freq. dielectric constant tensor:
#      x y z
#    x 1.638020 0.000000 0.000000 
#    y 0.000000 1.599430 0.000000 
#    z 0.000000 0.000000 1.624940 
# 
# From -- ./inp_files/19610.got.cif
#   From: 2010.03.12/outbox.cif.g09.slc.cpg/sg40_10_cif.got.tgz:19610.got - 2010.04.14 01:38:03.
