data_PCOD8182953
_publ_section_title
;
Structure prediction by ZEFSAII (Michael W. Deem and Ramdas Pophale) SiO2 
 PCOD8182953
Probable space group: A M A 2
;
_chemical_formula_sum "Si O2"
_cell_formula_units_Z 64
_cell_length_a 8.600705
_cell_length_b 22.627918
_cell_length_c 15.636476
_cell_angle_alpha 90.000000
_cell_angle_beta 90.000000
_cell_angle_gamma 90.000000
_cell_volume 3043.109156
_symmetry_space_group_name_H-M "A M A 2"
_symmetry_group_IT_number 40
_symmetry_cell_setting 'orthorhombic'
loop_
_space_group_symop_operation_xyz
x,y,z
-x,-y,z
1/2-x,y,z
1/2+x,-y,z
x,1/2+y,1/2+z
-x,1/2-y,1/2+z
1/2-x,1/2+y,1/2+z
1/2+x,1/2-y,1/2+z
loop_
_atom_site_type_symbol
_atom_site_label
_atom_site_fract_x
_atom_site_fract_y
_atom_site_fract_z
Si Si1 0.565169 0.438689 0.001510
Si Si2 0.432743 0.676262 0.264075
Si Si3 0.569339 0.760691 0.404630
Si Si4 0.572015 0.436475 0.502116
Si Si5 0.568767 0.065216 0.832842
Si Si6 0.566172 0.314198 0.076138
Si Si7 0.429940 0.564780 0.688623
Si Si8 0.431216 0.879462 0.346374
O O1 0.500000 0.500000 0.042281
O O2 0.750000 0.442316 0.993591
O O3 0.510013 0.381510 0.056399
O O4 0.486360 0.432604 0.907853
O O5 0.250000 0.671339 0.265345
O O6 0.482850 0.712131 0.347814
O O7 0.500947 0.610041 0.263175
O O8 0.487506 0.704372 0.172357
O O9 0.750000 0.744462 0.402174
O O10 0.506053 0.767169 0.503617
O O11 0.540586 0.823761 0.362685
O O12 0.500000 0.500000 0.515377
O O13 0.750000 0.441952 0.471916
O O14 0.476321 0.405869 0.425434
O O15 0.558343 0.404703 0.594176
O O16 0.750000 0.061087 0.821479
O O17 0.500000 0.000000 0.820959
O O18 0.750000 0.314255 0.068460
O O19 0.500000 0.500000 0.687684
O O20 0.250000 0.562514 0.718534
O O21 0.537618 0.603814 0.748805
O O22 0.250000 0.864180 0.359467
#
# Coordination Sequence:
#
# PCOD8182953 Si02
#       8
#     8   8   8   8   8   8   8   8
#     4  10  19  34  55  83 118 157 196 243 296 356
#     4  11  22  41  66  93 120 155 199 246 296 358
#     4  10  21  42  64  86 116 154 196 248 302 352
#     4   9  17  31  51  75 107 147 189 236 288 343
#     4  11  22  38  60  88 121 158 194 240 295 355
#     4   8  19  39  63  86 118 157 197 245 299 349
#     4  10  19  31  49  76 111 151 196 247 299 355
#     4  11  21  34  53  79 111 153 199 247 298 354
#
# _framework density 21.031123000000001
#
# number of rings (size 3 to 8) (size 9 to 14) (size 15 to 20)
#    0.000    2.000    0.000    6.000    0.000    2.000 
#    2.250    8.750    0.000    0.000    0.000    0.000 
#    0.000    0.000    0.000    0.000    0.000    0.000 
#
# Total GULP energy -396524.635064 kJ/mol
# GULP energy per Si atom -12391.394846 kJ/mol
# Density = 2.098326 g / cm^3
# Si number density = 21.031123 Si / 1000 Ang^3
#
#
#
# Elastic Constant Matrix: (Units=GPa)
#
#
# Indices 1 2 3 4 5 6 
#
# 1 100.2582 19.4832 43.6466 0.0000 0.0000 0.0000
# 2 19.4832 66.1452 48.4747 0.0000 0.0000 0.0000
# 3 43.6466 48.4747 139.1864 0.0000 0.0000 0.0000
# 4 0.0000 0.0000 0.0000 26.0621 0.0000 0.0000
# 5 0.0000 0.0000 0.0000 0.0000 61.2823 0.0000
# 6 0.0000 0.0000 0.0000 0.0000 0.0000 31.6779
#
#
#
# Elastic Compliance Matrix: (Units=1/GPa)
#
#
# Indices 1 2 3 4 5 6 
#
# 1 0.011601 -0.001008 -0.003287 0.000000 0.000000 0.000000
# 2 -0.001008 0.020387 -0.006784 0.000000 0.000000 0.000000
# 3 -0.003287 -0.006784 0.010578 0.000000 0.000000 0.000000
# 4 0.000000 0.000000 0.000000 0.038370 0.000000 0.000000
# 5 0.000000 0.000000 0.000000 0.000000 0.016318 0.000000
# 6 0.000000 0.000000 0.000000 0.000000 0.000000 0.031568
#
#
# Mechanical properties :
#
#
# Convention : Reuss Voigt Hill
#
# Bulk Modulus (GPa) = 49.00107 58.75542 53.87824
# Shear Modulus (GPa) = 31.68922 36.73680 34.21301
#
# Velocity S-wave (km/s) = 3.88593 4.18399 4.03771
# Velocity P-wave (km/s) = 6.59423 7.16512 6.88560
#
# Compressibility (1/GPa) = 0.02040772
#
# Stress axis : x y z
#
# Youngs Moduli (GPa) = 86.19907 49.05099 94.53648
#
# Poissons Ratio (x) = 0.04947 0.31071
# Poissons Ratio (y) = 0.08693 0.64133
# Poissons Ratio (z) = 0.28331 0.33276
#
# Static dielectric constant tensor:
#      x y z
#    x 3.486610 0.000000 0.000000 
#    y 0.000000 3.545950 0.000000 
#    z 0.000000 0.000000 4.506430 
# 
# 
# High freq. dielectric constant tensor:
#      x y z
#    x 1.821800 0.000000 0.000000 
#    y 0.000000 1.798140 0.000000 
#    z 0.000000 0.000000 1.833440 
# 
# From -- ./inp_files/15640.got.cif
#   From: 2010.03.12/outbox.cif.g09.slc.cpg/sg40_8_cif.got.tgz:15640.got - 2010.04.14 01:38:03.
