data_PCOD8182268
_publ_section_title
;
Structure prediction by ZEFSAII (Michael W. Deem and Ramdas Pophale) SiO2 
 PCOD8182268
Probable space group: A B M 2
;
_chemical_formula_sum "Si O2"
_cell_formula_units_Z 40
_cell_length_a 14.792672
_cell_length_b 9.334260
_cell_length_c 15.002173
_cell_angle_alpha 90.000000
_cell_angle_beta 90.000000
_cell_angle_gamma 90.000000
_cell_volume 2071.479743
_symmetry_space_group_name_H-M "A B M 2"
_symmetry_group_IT_number 39
_symmetry_cell_setting 'orthorhombic'
loop_
_space_group_symop_operation_xyz
x,y,z
-x,-y,z
-x,1/2+y,z
x,1/2-y,z
x,1/2+y,1/2+z
-x,1/2-y,1/2+z
-x,y,1/2+z
x,-y,1/2+z
loop_
_atom_site_type_symbol
_atom_site_label
_atom_site_fract_x
_atom_site_fract_y
_atom_site_fract_z
Si Si1 0.581479 0.908457 0.664900
Si Si2 0.418936 0.407012 0.876589
Si Si3 0.783729 0.079564 0.375399
Si Si4 0.777062 0.918751 0.674555
Si Si5 0.905296 0.578825 0.515289
O O1 0.574024 0.750000 0.623366
O O2 0.571950 0.900637 0.770812
O O3 0.679229 0.981400 0.643355
O O4 0.500000 0.000000 0.622515
O O5 0.500000 0.500000 0.918845
O O6 0.430881 0.250000 0.917602
O O7 0.318922 0.464455 0.901640
O O8 0.800092 0.250000 0.389404
O O9 0.804111 0.031618 0.273677
O O10 0.850642 0.983418 0.432544
O O11 0.761962 0.750000 0.677791
O O12 0.854425 0.964626 0.606188
O O13 0.916783 0.750000 0.505455
O O14 0.000000 0.500000 0.519181
#
# Coordination Sequence:
#
# PCOD8182268 Si02
#       5
#     8   8   8   8   8
#     4   8  13  25  46  73 102 135 170 205 246 296
#     4   8  14  25  46  74 105 138 172 208 249 297
#     4   9  18  36  58  80 107 141 177 216 260 309
#     4   8  17  35  57  77 105 142 175 209 258 312
#     4  11  23  39  57  78 103 134 173 222 272 320
#
# _framework density 19.309868000000002
#
# number of rings (size 3 to 8) (size 9 to 14) (size 15 to 20)
#    0.000    3.200    0.000    3.000    0.000    1.600 
#    0.000   10.000    0.000    4.800    0.000    0.000 
#    0.000    0.000    0.000    0.000    0.000    0.000 
#
# Total GULP energy -247841.227645 kJ/mol
# GULP energy per Si atom -12392.061382 kJ/mol
# Density = 1.926592 g / cm^3
# Si number density = 19.309868 Si / 1000 Ang^3
#
#
#
# Elastic Constant Matrix: (Units=GPa)
#
#
# Indices 1 2 3 4 5 6 
#
# 1 194.1602 79.3544 73.6834 0.0000 0.0000 0.0000
# 2 79.3544 81.1008 41.4346 0.0000 0.0000 0.0000
# 3 73.6834 41.4346 83.4562 0.0000 0.0000 0.0000
# 4 0.0000 0.0000 0.0000 17.1366 0.0000 0.0000
# 5 0.0000 0.0000 0.0000 0.0000 61.5449 0.0000
# 6 0.0000 0.0000 0.0000 0.0000 0.0000 35.9790
#
#
#
# Elastic Compliance Matrix: (Units=1/GPa)
#
#
# Indices 1 2 3 4 5 6 
#
# 1 0.010113 -0.007146 -0.005381 0.000000 0.000000 0.000000
# 2 -0.007146 0.021571 -0.004400 0.000000 0.000000 0.000000
# 3 -0.005381 -0.004400 0.018918 0.000000 0.000000 0.000000
# 4 0.000000 0.000000 0.000000 0.058355 0.000000 0.000000
# 5 0.000000 0.000000 0.000000 0.000000 0.016248 0.000000
# 6 0.000000 0.000000 0.000000 0.000000 0.000000 0.027794
#
#
# Mechanical properties :
#
#
# Convention : Reuss Voigt Hill
#
# Bulk Modulus (GPa) = 59.71181 83.07355 71.39268
# Shear Modulus (GPa) = 25.98278 33.88176 29.93227
#
# Velocity S-wave (km/s) = 3.67218 4.19338 3.94140
# Velocity P-wave (km/s) = 6.99785 8.15847 7.60035
#
# Compressibility (1/GPa) = 0.01674711
#
# Stress axis : x y z
#
# Youngs Moduli (GPa) = 98.88124 46.35919 52.86060
#
# Poissons Ratio (x) = 0.33129 0.28444
# Poissons Ratio (y) = 0.70663 0.23259
# Poissons Ratio (z) = 0.53207 0.20398
#
# Static dielectric constant tensor:
#      x y z
#    x 3.518190 0.000000 0.000000 
#    y 0.000000 3.528870 0.000000 
#    z 0.000000 0.000000 3.336070 
# 
# 
# High freq. dielectric constant tensor:
#      x y z
#    x 1.761210 0.000000 0.000000 
#    y 0.000000 1.728150 0.000000 
#    z 0.000000 0.000000 1.732520 
# 
# From -- ./inp_files/9045.got.cif
#   From: 2010.03.12/outbox.cif.g09.slc.cpg/sg39_5_cif.got.tgz:9045.got - 2010.04.14 02:53:20.
