data_PCOD8182642
_publ_section_title
;
Structure prediction by ZEFSAII (Michael W. Deem and Ramdas Pophale) SiO2 
 PCOD8182642
Probable space group: A M A 2
;
_chemical_formula_sum "Si O2"
_cell_formula_units_Z 64
_cell_length_a 8.947544
_cell_length_b 14.230410
_cell_length_c 23.823566
_cell_angle_alpha 90.000000
_cell_angle_beta 90.000000
_cell_angle_gamma 90.000000
_cell_volume 3033.388420
_symmetry_space_group_name_H-M "A M A 2"
_symmetry_group_IT_number 40
_symmetry_cell_setting 'orthorhombic'
loop_
_space_group_symop_operation_xyz
x,y,z
-x,-y,z
1/2-x,y,z
1/2+x,-y,z
x,1/2+y,1/2+z
-x,1/2-y,1/2+z
1/2-x,1/2+y,1/2+z
1/2+x,1/2-y,1/2+z
loop_
_atom_site_type_symbol
_atom_site_label
_atom_site_fract_x
_atom_site_fract_y
_atom_site_fract_z
Si Si1 0.415004 0.078102 0.036590
Si Si2 0.415137 0.884784 0.145892
Si Si3 0.428929 0.098415 0.526059
Si Si4 0.577474 0.197950 0.758355
Si Si5 0.415245 0.665527 0.146908
Si Si6 0.576449 0.908157 0.256321
Si Si7 0.918439 0.756041 0.956296
Si Si8 0.924711 0.600436 0.373843
O O1 0.250000 0.044429 0.053634
O O2 0.530406 0.075365 0.087684
O O3 0.500000 0.000000 0.996356
O O4 0.405385 0.179396 0.010487
O O5 0.250000 0.922834 0.162907
O O6 0.406657 0.774888 0.137681
O O7 0.539893 0.916058 0.190470
O O8 0.250000 0.097450 0.523811
O O9 0.485635 0.122956 0.589451
O O10 0.487066 0.167084 0.476828
O O11 0.500000 0.000000 0.509281
O O12 0.750000 0.213431 0.744469
O O13 0.508744 0.146951 0.703540
O O14 0.513625 0.303614 0.773722
O O15 0.549779 0.126917 0.809027
O O16 0.250000 0.622513 0.156227
O O17 0.750000 0.916271 0.269585
O O18 0.500000 0.000000 0.286643
O O19 0.750000 0.727665 0.936607
O O20 0.001406 0.814181 0.907988
O O21 0.750000 0.593674 0.389168
O O22 0.000000 0.500000 0.385510
#
# Coordination Sequence:
#
# PCOD8182642 Si02
#       8
#     8   8   8   8   8   8   8   8
#     4  11  22  33  50  78 112 150 194 240 294 356
#     4  10  18  31  50  76 112 154 197 239 291 351
#     4  11  23  41  64  94 129 167 208 257 312 376
#     4   9  21  39  61  88 122 164 209 257 313 372
#     4   9  19  35  58  87 122 163 205 252 307 363
#     4  10  19  33  52  79 115 156 199 243 296 356
#     4  11  24  42  64  90 120 160 205 255 314 372
#     4  11  24  44  68  94 124 161 206 262 320 379
#
# _framework density 21.098519
#
# number of rings (size 3 to 8) (size 9 to 14) (size 15 to 20)
#    0.000    1.750    1.250    3.000    0.000    6.000 
#    0.000    3.125    0.000    1.500    0.000    0.000 
#    0.000    0.000    0.000    0.000    0.000    0.000 
#
# Total GULP energy -396459.034065 kJ/mol
# GULP energy per Si atom -12389.344815 kJ/mol
# Density = 2.105050 g / cm^3
# Si number density = 21.098519 Si / 1000 Ang^3
#
#
#
# Elastic Constant Matrix: (Units=GPa)
#
#
# Indices 1 2 3 4 5 6 
#
# 1 117.7659 46.7007 46.0211 0.0000 0.0000 0.0000
# 2 46.7007 103.8666 37.2409 0.0000 0.0000 0.0000
# 3 46.0211 37.2409 80.6754 0.0000 0.0000 0.0000
# 4 0.0000 0.0000 0.0000 21.7816 0.0000 0.0000
# 5 0.0000 0.0000 0.0000 0.0000 28.1882 0.0000
# 6 0.0000 0.0000 0.0000 0.0000 0.0000 31.9732
#
#
#
# Elastic Compliance Matrix: (Units=1/GPa)
#
#
# Indices 1 2 3 4 5 6 
#
# 1 0.011900 -0.003495 -0.005175 0.000000 0.000000 0.000000
# 2 -0.003495 0.012564 -0.003806 0.000000 0.000000 0.000000
# 3 -0.005175 -0.003806 0.017104 0.000000 0.000000 0.000000
# 4 0.000000 0.000000 0.000000 0.045910 0.000000 0.000000
# 5 0.000000 0.000000 0.000000 0.000000 0.035476 0.000000
# 6 0.000000 0.000000 0.000000 0.000000 0.000000 0.031276
#
#
# Mechanical properties :
#
#
# Convention : Reuss Voigt Hill
#
# Bulk Modulus (GPa) = 60.18220 62.47037 61.32629
# Shear Modulus (GPa) = 27.06803 27.87828 27.47316
#
# Velocity S-wave (km/s) = 3.58569 3.63897 3.61243
# Velocity P-wave (km/s) = 6.76234 6.87963 6.82123
#
# Compressibility (1/GPa) = 0.01661621
#
# Stress axis : x y z
#
# Youngs Moduli (GPa) = 84.03657 79.59427 58.46529
#
# Poissons Ratio (x) = 0.27817 0.30255
# Poissons Ratio (y) = 0.29370 0.22251
# Poissons Ratio (z) = 0.43487 0.30293
#
# Static dielectric constant tensor:
#      x y z
#    x 3.980560 0.000000 0.000000 
#    y 0.000000 4.089220 0.000000 
#    z 0.000000 0.000000 3.564200 
# 
# 
# High freq. dielectric constant tensor:
#      x y z
#    x 1.832450 0.000000 0.000000 
#    y 0.000000 1.840600 0.000000 
#    z 0.000000 0.000000 1.800180 
# 
# From -- ./inp_files/24253.got.cif
#   From: 2010.03.12/outbox.cif.g09.slc.cpg/sg40_13_cif.got.tgz:24253.got - 2010.04.14 01:38:03.
