data_PCOD8182392
_publ_section_title
;
Structure prediction by ZEFSAII (Michael W. Deem and Ramdas Pophale) SiO2 
 PCOD8182392
Probable space group: A M A 2
;
_chemical_formula_sum "Si O2"
_cell_formula_units_Z 64
_cell_length_a 17.483239
_cell_length_b 16.471750
_cell_length_c 12.307996
_cell_angle_alpha 90.000000
_cell_angle_beta 90.000000
_cell_angle_gamma 90.000000
_cell_volume 3544.451051
_symmetry_space_group_name_H-M "A M A 2"
_symmetry_group_IT_number 40
_symmetry_cell_setting 'orthorhombic'
loop_
_space_group_symop_operation_xyz
x,y,z
-x,-y,z
1/2-x,y,z
1/2+x,-y,z
x,1/2+y,1/2+z
-x,1/2-y,1/2+z
1/2-x,1/2+y,1/2+z
1/2+x,1/2-y,1/2+z
loop_
_atom_site_type_symbol
_atom_site_label
_atom_site_fract_x
_atom_site_fract_y
_atom_site_fract_z
Si Si1 0.159081 0.915650 0.636030
Si Si2 0.158785 0.828976 0.849182
Si Si3 0.341161 0.865912 0.402699
Si Si4 0.337789 0.897104 0.073880
Si Si5 0.340809 0.145380 0.364159
Si Si6 0.158629 0.095851 0.602706
Si Si7 0.837441 0.753772 0.729795
Si Si8 0.909907 0.999851 0.251255
O O1 0.250000 0.918243 0.640578
O O2 0.125356 0.870584 0.740831
O O3 0.133059 0.866402 0.528264
O O4 0.127256 0.007477 0.635380
O O5 0.250000 0.828003 0.851152
O O6 0.128755 0.736974 0.850441
O O7 0.129969 0.881117 0.952682
O O8 0.250000 0.872256 0.389808
O O9 0.372083 0.783974 0.342078
O O10 0.374411 0.945031 0.345430
O O11 0.250000 0.925774 0.071639
O O12 0.346035 0.812232 0.135651
O O13 0.385737 0.968105 0.132054
O O14 0.250000 0.139722 0.352339
O O15 0.369617 0.115016 0.481444
O O16 0.378936 0.091236 0.269630
O O17 0.250000 0.100017 0.604261
O O18 0.123882 0.162364 0.687953
O O19 0.750000 0.774273 0.753180
O O20 0.000000 0.000000 0.260211
#
# Coordination Sequence:
#
# PCOD8182392 Si02
#       8
#     8   8   8   8   8   8   8   8
#     4   9  16  26  44  74 105 128 151 197 258 301
#     4   9  17  29  50  78 103 127 162 204 252 306
#     4   9  16  29  49  71 100 132 161 201 255 296
#     4   9  16  30  51  75  99 127 165 212 256 297
#     4  10  17  30  52  77 100 128 169 212 246 291
#     4   9  14  23  43  72  99 123 158 195 233 284
#     4   8  13  22  41  69  92 117 157 198 229 275
#     4  11  21  31  49  74 104 129 172 215 259 297
#
# _framework density 18.056391999999999
#
# number of rings (size 3 to 8) (size 9 to 14) (size 15 to 20)
#    0.000    2.750    2.500    1.875    0.000    0.000 
#    0.000    1.250    2.750    6.750    0.000    0.000 
#    0.000    0.000    0.000    0.000    0.000    0.000 
#
# Total GULP energy -396591.066731 kJ/mol
# GULP energy per Si atom -12393.470835 kJ/mol
# Density = 1.801530 g / cm^3
# Si number density = 18.056392 Si / 1000 Ang^3
#
#
#
# Elastic Constant Matrix: (Units=GPa)
#
#
# Indices 1 2 3 4 5 6 
#
# 1 26.8989 15.9459 18.7908 0.0000 0.0000 0.0000
# 2 15.9459 130.7801 84.0761 0.0000 0.0000 0.0000
# 3 18.7908 84.0761 154.4183 0.0000 0.0000 0.0000
# 4 0.0000 0.0000 0.0000 35.9604 0.0000 0.0000
# 5 0.0000 0.0000 0.0000 0.0000 4.5234 0.0000
# 6 0.0000 0.0000 0.0000 0.0000 0.0000 3.6197
#
#
#
# Elastic Compliance Matrix: (Units=1/GPa)
#
#
# Indices 1 2 3 4 5 6 
#
# 1 0.041274 -0.002775 -0.003512 0.000000 0.000000 0.000000
# 2 -0.002775 0.011951 -0.006169 0.000000 0.000000 0.000000
# 3 -0.003512 -0.006169 0.010262 0.000000 0.000000 0.000000
# 4 0.000000 0.000000 0.000000 0.027808 0.000000 0.000000
# 5 0.000000 0.000000 0.000000 0.000000 0.221071 0.000000
# 6 0.000000 0.000000 0.000000 0.000000 0.000000 0.276263
#
#
# Mechanical properties :
#
#
# Convention : Reuss Voigt Hill
#
# Bulk Modulus (GPa) = 25.92303 61.08034 43.50168
# Shear Modulus (GPa) = 7.98212 21.70636 14.84424
#
# Velocity S-wave (km/s) = 2.10482 3.47095 2.87035
# Velocity P-wave (km/s) = 4.50498 7.06855 5.92702
#
# Compressibility (1/GPa) = 0.03857574
#
# Stress axis : x y z
#
# Youngs Moduli (GPa) = 24.22809 83.67622 97.44516
#
# Poissons Ratio (x) = 0.23220 0.34220
# Poissons Ratio (y) = 0.06723 0.60116
# Poissons Ratio (z) = 0.08508 0.51621
#
# Static dielectric constant tensor:
#      x y z
#    x 2.714840 0.000000 0.000000 
#    y 0.000000 3.538990 0.000000 
#    z 0.000000 0.000000 3.584270 
# 
# 
# High freq. dielectric constant tensor:
#      x y z
#    x 1.632530 0.000000 0.000000 
#    y 0.000000 1.700260 0.000000 
#    z 0.000000 0.000000 1.700150 
# 
# From -- ./inp_files/13238.got.cif
#   From: 2010.03.12/outbox.cif.g09.slc.cpg/sg40_7_cif.got.tgz:13238.got - 2010.04.14 01:38:03.
