data_PCOD8182519
_publ_section_title
;
Structure prediction by ZEFSAII (Michael W. Deem and Ramdas Pophale) SiO2 
 PCOD8182519
Probable space group: A M A 2
;
_chemical_formula_sum "Si O2"
_cell_formula_units_Z 52
_cell_length_a 9.290223
_cell_length_b 14.835560
_cell_length_c 19.616372
_cell_angle_alpha 90.000000
_cell_angle_beta 90.000000
_cell_angle_gamma 90.000000
_cell_volume 2703.639432
_symmetry_space_group_name_H-M "A M A 2"
_symmetry_group_IT_number 40
_symmetry_cell_setting 'orthorhombic'
loop_
_space_group_symop_operation_xyz
x,y,z
-x,-y,z
1/2-x,y,z
1/2+x,-y,z
x,1/2+y,1/2+z
-x,1/2-y,1/2+z
1/2-x,1/2+y,1/2+z
1/2+x,1/2-y,1/2+z
loop_
_atom_site_type_symbol
_atom_site_label
_atom_site_fract_x
_atom_site_fract_y
_atom_site_fract_z
Si Si1 0.586650 0.175289 0.046900
Si Si2 0.000000 0.500000 0.618182
Si Si3 0.423034 0.405082 0.274171
Si Si4 0.903431 0.378371 0.730482
Si Si5 0.921316 0.218732 0.900658
Si Si6 0.578845 0.275699 0.179072
Si Si7 0.589325 0.418971 0.879796
O O1 0.750000 0.203438 0.036869
O O2 0.580270 0.071894 0.070759
O O3 0.525691 0.246809 0.102764
O O4 0.512194 0.183409 0.972587
O O5 0.109466 0.552932 0.667217
O O6 0.500000 0.500000 0.285699
O O7 0.250000 0.415676 0.268109
O O8 0.472946 0.343355 0.338041
O O9 0.489606 0.362391 0.204693
O O10 0.750000 0.323924 0.731990
O O11 0.914112 0.436194 0.798906
O O12 0.036599 0.309538 0.726347
O O13 0.750000 0.217618 0.899600
O O14 0.979255 0.320752 0.893375
O O15 0.750000 0.292601 0.183672
O O16 0.500000 0.500000 0.915077
O O17 0.750000 0.423956 0.910003
#
# Coordination Sequence:
#
# PCOD8182519 Si02
#       7
#     8   4   8   8   8   8   8
#     4   9  19  34  53  78 110 151 189 228 282 344
#     4  10  18  28  50  80 112 142 180 228 278 346
#     4  11  22  38  61  86 115 153 197 243 287 340
#     4  10  18  30  49  78 111 140 173 222 283 335
#     4   9  19  37  56  77 113 153 188 228 285 345
#     4  10  20  35  56  81 109 144 188 234 280 335
#     4  10  19  33  54  80 107 141 179 226 278 328
#
# _framework density 19.233335
#
# number of rings (size 3 to 8) (size 9 to 14) (size 15 to 20)
#    0.000    2.154    2.308    1.385    1.077    1.231 
#    0.000    0.769    0.000   10.154    0.000    0.000 
#    0.000    0.000    0.000    0.000    0.000    0.000 
#
# Total GULP energy -322111.488605 kJ/mol
# GULP energy per Si atom -12388.903408 kJ/mol
# Density = 1.918956 g / cm^3
# Si number density = 19.233335 Si / 1000 Ang^3
#
#
#
# Elastic Constant Matrix: (Units=GPa)
#
#
# Indices 1 2 3 4 5 6 
#
# 1 69.2251 35.2611 20.6369 0.0000 0.0000 0.0000
# 2 35.2611 141.5169 47.9474 0.0000 0.0000 0.0000
# 3 20.6369 47.9474 97.5206 0.0000 0.0000 0.0000
# 4 0.0000 0.0000 0.0000 20.1803 0.0000 0.0000
# 5 0.0000 0.0000 0.0000 0.0000 15.8727 0.0000
# 6 0.0000 0.0000 0.0000 0.0000 0.0000 32.9796
#
#
#
# Elastic Compliance Matrix: (Units=1/GPa)
#
#
# Indices 1 2 3 4 5 6 
#
# 1 0.016804 -0.003578 -0.001797 0.000000 0.000000 0.000000
# 2 -0.003578 0.009241 -0.003786 0.000000 0.000000 0.000000
# 3 -0.001797 -0.003786 0.012496 0.000000 0.000000 0.000000
# 4 0.000000 0.000000 0.000000 0.049553 0.000000 0.000000
# 5 0.000000 0.000000 0.000000 0.000000 0.063001 0.000000
# 6 0.000000 0.000000 0.000000 0.000000 0.000000 0.030322
#
#
# Mechanical properties :
#
#
# Convention : Reuss Voigt Hill
#
# Bulk Modulus (GPa) = 49.45971 57.32817 53.39394
# Shear Modulus (GPa) = 24.21561 27.43432 25.82496
#
# Velocity S-wave (km/s) = 3.55215 3.78086 3.66829
# Velocity P-wave (km/s) = 6.52650 6.99509 6.76485
#
# Compressibility (1/GPa) = 0.02021848
#
# Stress axis : x y z
#
# Youngs Moduli (GPa) = 59.51009 108.21782 80.02608
#
# Poissons Ratio (x) = 0.38723 0.14378
# Poissons Ratio (y) = 0.21294 0.30299
# Poissons Ratio (z) = 0.10692 0.40972
#
# Static dielectric constant tensor:
#      x y z
#    x 3.341920 0.000000 0.000000 
#    y 0.000000 3.523220 0.000000 
#    z 0.000000 0.000000 3.742590 
# 
# 
# High freq. dielectric constant tensor:
#      x y z
#    x 1.723080 0.000000 0.000000 
#    y 0.000000 1.744980 0.000000 
#    z 0.000000 0.000000 1.738850 
# 
# From -- ./inp_files/22068.got.cif
#   From: 2010.03.12/outbox.cif.g09.slc.cpg/sg40_12_cif.got.tgz:22068.got - 2010.04.14 01:38:03.
