data_PCOD8182676
_publ_section_title
;
Structure prediction by ZEFSAII (Michael W. Deem and Ramdas Pophale) SiO2 
 PCOD8182676
Probable space group: A M A 2
;
_chemical_formula_sum "Si O2"
_cell_formula_units_Z 64
_cell_length_a 19.675636
_cell_length_b 9.543450
_cell_length_c 18.676086
_cell_angle_alpha 90.000000
_cell_angle_beta 90.000000
_cell_angle_gamma 90.000000
_cell_volume 3506.873071
_symmetry_space_group_name_H-M "A M A 2"
_symmetry_group_IT_number 40
_symmetry_cell_setting 'orthorhombic'
loop_
_space_group_symop_operation_xyz
x,y,z
-x,-y,z
1/2-x,y,z
1/2+x,-y,z
x,1/2+y,1/2+z
-x,1/2-y,1/2+z
1/2-x,1/2+y,1/2+z
1/2+x,1/2-y,1/2+z
loop_
_atom_site_type_symbol
_atom_site_label
_atom_site_fract_x
_atom_site_fract_y
_atom_site_fract_z
Si Si1 0.673756 0.032485 0.065100
Si Si2 0.955941 0.362113 0.075234
Si Si3 0.824806 0.813461 0.650992
Si Si4 0.827251 0.622885 0.401683
Si Si5 0.076682 0.638901 0.917627
Si Si6 0.326340 0.152567 0.819660
Si Si7 0.546770 0.367846 0.544521
Si Si8 0.071789 0.822897 0.407677
O O1 0.750000 0.968027 0.070678
O O2 0.665812 0.155195 0.123433
O O3 0.615976 0.918390 0.083871
O O4 0.660050 0.082760 0.984103
O O5 0.889903 0.399000 0.122530
O O6 0.000000 0.500000 0.067365
O O7 0.004452 0.232074 0.100246
O O8 0.931371 0.307214 0.998541
O O9 0.750000 0.867699 0.623764
O O10 0.827193 0.831691 0.735189
O O11 0.750000 0.663137 0.387948
O O12 0.868558 0.761931 0.379550
O O13 0.850257 0.499467 0.347850
O O14 0.100615 0.478168 0.923532
O O15 0.004730 0.660161 0.877048
O O16 0.250000 0.181373 0.849194
O O17 0.379009 0.265755 0.847296
O O18 0.500000 0.500000 0.520943
O O19 0.571859 0.276901 0.476704
#
# Coordination Sequence:
#
# PCOD8182676 Si02
#       8
#     8   8   8   8   8   8   8   8
#     4  10  18  31  56  86 111 146 194 240 291 346
#     4  11  20  36  56  84 119 146 187 240 297 353
#     4  10  21  39  59  79 115 159 195 238 299 360
#     4  10  19  33  57  85 110 143 197 244 281 343
#     4  10  19  35  54  83 117 145 184 238 297 349
#     4  10  22  38  57  83 114 150 198 244 287 356
#     4  11  18  31  55  86 114 146 187 248 296 341
#     4  10  20  33  53  80 114 150 183 237 296 345
#
# _framework density 18.249877999999999
#
# number of rings (size 3 to 8) (size 9 to 14) (size 15 to 20)
#    0.000    1.750    6.250    0.750    0.000    0.500 
#    2.250    3.125    0.000    0.000    0.000    0.000 
#    0.000    0.000    0.000    0.000    0.000    0.000 
#
# Total GULP energy -396498.010846 kJ/mol
# GULP energy per Si atom -12390.562839 kJ/mol
# Density = 1.820834 g / cm^3
# Si number density = 18.249878 Si / 1000 Ang^3
#
#
#
# Elastic Constant Matrix: (Units=GPa)
#
#
# Indices 1 2 3 4 5 6 
#
# 1 116.2258 55.3297 36.0728 0.0000 0.0000 0.0000
# 2 55.3297 110.0972 34.1624 0.0000 0.0000 0.0000
# 3 36.0728 34.1624 59.3116 0.0000 0.0000 0.0000
# 4 0.0000 0.0000 0.0000 21.6999 0.0000 0.0000
# 5 0.0000 0.0000 0.0000 0.0000 23.1540 0.0000
# 6 0.0000 0.0000 0.0000 0.0000 0.0000 27.3264
#
#
#
# Elastic Compliance Matrix: (Units=1/GPa)
#
#
# Indices 1 2 3 4 5 6 
#
# 1 0.012333 -0.004713 -0.004786 0.000000 0.000000 0.000000
# 2 -0.004713 0.012860 -0.004541 0.000000 0.000000 0.000000
# 3 -0.004786 -0.004541 0.022387 0.000000 0.000000 0.000000
# 4 0.000000 0.000000 0.000000 0.046083 0.000000 0.000000
# 5 0.000000 0.000000 0.000000 0.000000 0.043189 0.000000
# 6 0.000000 0.000000 0.000000 0.000000 0.000000 0.036595
#
#
# Mechanical properties :
#
#
# Convention : Reuss Voigt Hill
#
# Bulk Modulus (GPa) = 51.28294 59.64049 55.46172
# Shear Modulus (GPa) = 24.03532 25.10738 24.57135
#
# Velocity S-wave (km/s) = 3.63300 3.71314 3.67329
# Velocity P-wave (km/s) = 6.76459 7.15081 6.96038
#
# Compressibility (1/GPa) = 0.01949966
#
# Stress axis : x y z
#
# Youngs Moduli (GPa) = 81.08303 77.75813 44.66946
#
# Poissons Ratio (x) = 0.36646 0.21380
# Poissons Ratio (y) = 0.38213 0.20285
# Poissons Ratio (z) = 0.38809 0.35310
#
# Static dielectric constant tensor:
#      x y z
#    x 3.916940 0.000000 0.000000 
#    y 0.000000 3.358490 0.000000 
#    z 0.000000 0.000000 3.005710 
# 
# 
# High freq. dielectric constant tensor:
#      x y z
#    x 1.729980 0.000000 0.000000 
#    y 0.000000 1.704390 0.000000 
#    z 0.000000 0.000000 1.659460 
# 
# From -- ./inp_files/21392.got.cif
#   From: 2010.03.12/outbox.cif.g09.slc.cpg/sg40_11_cif.got.tgz:21392.got - 2010.04.14 01:38:03.
