data_PCOD8182202
_publ_section_title
;
Structure prediction by ZEFSAII (Michael W. Deem and Ramdas Pophale) SiO2 
 PCOD8182202
Probable space group: A B M 2
;
_chemical_formula_sum "Si O2"
_cell_formula_units_Z 60
_cell_length_a 8.673392
_cell_length_b 20.369107
_cell_length_c 16.355860
_cell_angle_alpha 90.000000
_cell_angle_beta 90.000000
_cell_angle_gamma 90.000000
_cell_volume 2889.577514
_symmetry_space_group_name_H-M "A B M 2"
_symmetry_group_IT_number 39
_symmetry_cell_setting 'orthorhombic'
loop_
_space_group_symop_operation_xyz
x,y,z
-x,-y,z
-x,1/2+y,z
x,1/2-y,z
x,1/2+y,1/2+z
-x,1/2-y,1/2+z
-x,y,1/2+z
x,-y,1/2+z
loop_
_atom_site_type_symbol
_atom_site_label
_atom_site_fract_x
_atom_site_fract_y
_atom_site_fract_z
Si Si1 0.000000 0.500000 0.438431
Si Si2 0.342305 0.328196 0.449625
Si Si3 0.312905 0.827040 0.420309
Si Si4 0.157543 0.597323 0.819235
Si Si5 0.875659 0.825298 0.766207
Si Si6 0.841280 0.409057 0.550354
Si Si7 0.816299 0.387327 0.108190
Si Si8 0.322047 0.018275 0.182205
O O1 0.938121 0.559682 0.387014
O O2 0.859038 0.474213 0.494475
O O3 0.327947 0.250000 0.463667
O O4 0.515112 0.353605 0.433652
O O5 0.254783 0.347568 0.366646
O O6 0.281676 0.367210 0.529030
O O7 0.317946 0.750000 0.415607
O O8 0.237879 0.854310 0.336340
O O9 0.210580 0.847212 0.497307
O O10 0.260309 0.544930 0.769249
O O11 0.035394 0.634238 0.761590
O O12 0.914467 0.750000 0.784602
O O13 0.792027 0.832545 0.678604
O O14 0.709593 0.423013 0.617873
O O15 0.004702 0.390491 0.587606
O O16 0.770725 0.455819 0.150022
O O17 0.500000 0.000000 0.190359
#
# Coordination Sequence:
#
# PCOD8182202 Si02
#       8
#     4   8   8   8   8   8   8   8
#     4  12  22  38  68  94 118 170 220 274 324 380
#     4  11  24  45  69  98 137 176 220 274 339 401
#     4  10  24  44  68  99 133 172 217 272 337 400
#     4  12  24  41  67  97 132 175 221 273 326 396
#     4  11  23  41  68  98 129 171 223 276 327 389
#     4  12  22  42  67  95 128 170 226 274 322 393
#     4  12  23  44  67  97 130 173 226 274 327 389
#     4  12  27  42  63  99 139 175 218 273 336 400
#
# _framework density 20.764282000000001
#
# number of rings (size 3 to 8) (size 9 to 14) (size 15 to 20)
#    0.000    0.533    5.333    2.400    1.867    2.133 
#    0.000    0.667    0.000    0.000    0.000    0.000 
#    0.000    0.000    0.000    0.000    0.000    0.000 
#
# Total GULP energy -372008.004106 kJ/mol
# GULP energy per Si atom -12400.266804 kJ/mol
# Density = 2.071702 g / cm^3
# Si number density = 20.764282 Si / 1000 Ang^3
#
#
#
# Elastic Constant Matrix: (Units=GPa)
#
#
# Indices 1 2 3 4 5 6 
#
# 1 134.4345 32.4550 63.8867 0.0000 0.0000 0.0000
# 2 32.4550 45.5115 37.8363 0.0000 0.0000 0.0000
# 3 63.8867 37.8363 126.4980 0.0000 0.0000 0.0000
# 4 0.0000 0.0000 0.0000 39.9826 0.0000 0.0000
# 5 0.0000 0.0000 0.0000 0.0000 18.9487 0.0000
# 6 0.0000 0.0000 0.0000 0.0000 0.0000 36.1660
#
#
#
# Elastic Compliance Matrix: (Units=1/GPa)
#
#
# Indices 1 2 3 4 5 6 
#
# 1 0.010314 -0.004025 -0.004005 0.000000 0.000000 0.000000
# 2 -0.004025 0.030816 -0.007184 0.000000 0.000000 0.000000
# 3 -0.004005 -0.007184 0.012077 0.000000 0.000000 0.000000
# 4 0.000000 0.000000 0.000000 0.025011 0.000000 0.000000
# 5 0.000000 0.000000 0.000000 0.000000 0.052774 0.000000
# 6 0.000000 0.000000 0.000000 0.000000 0.000000 0.027650
#
#
# Mechanical properties :
#
#
# Convention : Reuss Voigt Hill
#
# Bulk Modulus (GPa) = 43.90348 63.86666 53.88507
# Shear Modulus (GPa) = 25.42435 30.50387 27.96411
#
# Velocity S-wave (km/s) = 3.50298 3.83698 3.67378
# Velocity P-wave (km/s) = 6.12787 7.10314 6.63345
#
# Compressibility (1/GPa) = 0.02277724
#
# Stress axis : x y z
#
# Youngs Moduli (GPa) = 96.96014 32.45111 82.80441
#
# Poissons Ratio (x) = 0.13063 0.33161
# Poissons Ratio (y) = 0.39030 0.59488
# Poissons Ratio (z) = 0.38830 0.23313
#
# Static dielectric constant tensor:
#      x y z
#    x 4.613020 0.000000 0.000000 
#    y 0.000000 3.688040 0.000000 
#    z 0.000000 0.000000 4.020140 
# 
# 
# High freq. dielectric constant tensor:
#      x y z
#    x 1.811090 0.000000 0.000000 
#    y 0.000000 1.812230 0.000000 
#    z 0.000000 0.000000 1.831520 
# 
# From -- ./inp_files/8715.got.cif
#   From: 2010.03.12/outbox.cif.g09.slc.cpg/sg39_5_cif.got.tgz:8715.got - 2010.04.14 02:53:20.
