data_PCOD8182760
_publ_section_title
;
Structure prediction by ZEFSAII (Michael W. Deem and Ramdas Pophale) SiO2 
 PCOD8182760
Probable space group: A M A 2
;
_chemical_formula_sum "Si O2"
_cell_formula_units_Z 56
_cell_length_a 14.468723
_cell_length_b 14.341042
_cell_length_c 12.463001
_cell_angle_alpha 90.000000
_cell_angle_beta 90.000000
_cell_angle_gamma 90.000000
_cell_volume 2586.029887
_symmetry_space_group_name_H-M "A M A 2"
_symmetry_group_IT_number 40
_symmetry_cell_setting 'orthorhombic'
loop_
_space_group_symop_operation_xyz
x,y,z
-x,-y,z
1/2-x,y,z
1/2+x,-y,z
x,1/2+y,1/2+z
-x,1/2-y,1/2+z
1/2-x,1/2+y,1/2+z
1/2+x,1/2-y,1/2+z
loop_
_atom_site_type_symbol
_atom_site_label
_atom_site_fract_x
_atom_site_fract_y
_atom_site_fract_z
Si Si1 0.893514 0.988462 0.357070
Si Si2 0.148652 0.111788 0.571708
Si Si3 0.856025 0.382939 0.412876
Si Si4 0.855523 0.533400 0.250564
Si Si5 0.353341 0.819393 0.438438
Si Si6 0.962007 0.686995 0.148206
Si Si7 0.854633 0.369428 0.656734
O O1 0.859073 0.914702 0.446049
O O2 0.868415 0.952599 0.239594
O O3 0.849510 0.091999 0.360187
O O4 0.000000 0.000000 0.375670
O O5 0.250000 0.158834 0.588996
O O6 0.071426 0.181598 0.620817
O O7 0.143176 0.014835 0.634561
O O8 0.750000 0.384567 0.377722
O O9 0.900532 0.462679 0.338298
O O10 0.894921 0.277459 0.387730
O O11 0.871589 0.409009 0.537297
O O12 0.750000 0.565727 0.278888
O O13 0.926699 0.620127 0.244533
O O14 0.250000 0.793633 0.477160
O O15 0.411135 0.848120 0.541601
O O16 0.931423 0.790859 0.180804
O O17 0.750000 0.329389 0.665882
#
# Coordination Sequence:
#
# PCOD8182760 Si02
#       7
#     8   8   8   8   8   8   8
#     4  12  22  38  62  93 130 168 212 262 322 378
#     4  11  22  37  60  92 125 161 209 271 323 358
#     4   8  18  35  58  88 123 167 211 246 305 382
#     4  10  18  33  61  91 124 159 203 266 323 374
#     4  10  18  34  61  89 120 162 212 255 303 376
#     4  11  20  37  61  96 120 163 215 260 314 383
#     4  10  22  40  64  94 131 171 209 256 316 386
#
# _framework density 21.654813999999998
#
# number of rings (size 3 to 8) (size 9 to 14) (size 15 to 20)
#    0.000    1.714    2.857    3.857    0.000    1.143 
#    0.000    1.429    3.143    1.714    0.000    0.000 
#    0.000    0.000    0.000    0.000    0.000    0.000 
#
# Total GULP energy -347012.099758 kJ/mol
# GULP energy per Si atom -12393.289277 kJ/mol
# Density = 2.160553 g / cm^3
# Si number density = 21.654814 Si / 1000 Ang^3
#
#
#
# Elastic Constant Matrix: (Units=GPa)
#
#
# Indices 1 2 3 4 5 6 
#
# 1 120.7901 30.3159 18.0611 0.0000 0.0000 0.0000
# 2 30.3159 111.9117 67.2314 0.0000 0.0000 0.0000
# 3 18.0611 67.2314 100.1040 0.0000 0.0000 0.0000
# 4 0.0000 0.0000 0.0000 41.1570 0.0000 0.0000
# 5 0.0000 0.0000 0.0000 0.0000 20.5482 0.0000
# 6 0.0000 0.0000 0.0000 0.0000 0.0000 156.1880
#
#
#
# Elastic Compliance Matrix: (Units=1/GPa)
#
#
# Indices 1 2 3 4 5 6 
#
# 1 0.008883 -0.002420 0.000023 0.000000 0.000000 0.000000
# 2 -0.002420 0.015639 -0.010067 0.000000 0.000000 0.000000
# 3 0.000023 -0.010067 0.016746 0.000000 0.000000 0.000000
# 4 0.000000 0.000000 0.000000 0.024297 0.000000 0.000000
# 5 0.000000 0.000000 0.000000 0.000000 0.048666 0.000000
# 6 0.000000 0.000000 0.000000 0.000000 0.000000 0.006403
#
#
# Mechanical properties :
#
#
# Convention : Reuss Voigt Hill
#
# Bulk Modulus (GPa) = 61.19902 62.66920 61.93411
# Shear Modulus (GPa) = 33.11078 58.05845 45.58462
#
# Velocity S-wave (km/s) = 3.91452 5.18354 4.59307
# Velocity P-wave (km/s) = 6.98239 8.05160 7.53598
#
# Compressibility (1/GPa) = 0.01634013
#
# Stress axis : x y z
#
# Youngs Moduli (GPa) = 112.57736 63.94412 59.71426
#
# Poissons Ratio (x) = 0.15473 -0.00134
# Poissons Ratio (y) = 0.27241 0.60112
# Poissons Ratio (z) = -0.00253 0.64370
#
# Static dielectric constant tensor:
#      x y z
#    x 4.024140 0.000000 0.000000 
#    y 0.000000 3.943290 0.000000 
#    z 0.000000 0.000000 3.832760 
# 
# 
# High freq. dielectric constant tensor:
#      x y z
#    x 1.852090 0.000000 0.000000 
#    y 0.000000 1.829720 0.000000 
#    z 0.000000 0.000000 1.838350 
# 
# From -- ./inp_files/12234.got.cif
#   From: 2010.03.12/outbox.cif.g09.slc.cpg/sg40_7_cif.got.tgz:12234.got - 2010.04.14 01:38:03.
