data_PCOD8182103
_publ_section_title
;
Structure prediction by ZEFSAII (Michael W. Deem and Ramdas Pophale) SiO2 
 PCOD8182103
Probable space group: A B M 2
;
_chemical_formula_sum "Si O2"
_cell_formula_units_Z 36
_cell_length_a 10.254911
_cell_length_b 15.400385
_cell_length_c 11.989486
_cell_angle_alpha 90.000000
_cell_angle_beta 90.000000
_cell_angle_gamma 90.000000
_cell_volume 1893.494459
_symmetry_space_group_name_H-M "A B M 2"
_symmetry_group_IT_number 39
_symmetry_cell_setting 'orthorhombic'
loop_
_space_group_symop_operation_xyz
x,y,z
-x,-y,z
-x,1/2+y,z
x,1/2-y,z
x,1/2+y,1/2+z
-x,1/2-y,1/2+z
-x,y,1/2+z
x,-y,1/2+z
loop_
_atom_site_type_symbol
_atom_site_label
_atom_site_fract_x
_atom_site_fract_y
_atom_site_fract_z
Si Si1 0.514428 0.250000 0.282120
Si Si2 0.731796 0.750000 0.412893
Si Si3 0.853372 0.396886 0.062414
Si Si4 0.154982 0.091260 0.023726
Si Si5 0.262947 0.250000 0.163408
Si Si6 0.236008 0.343902 0.799418
O O1 0.425443 0.250000 0.394586
O O2 0.420822 0.250000 0.173689
O O3 0.607180 0.164100 0.278371
O O4 0.769572 0.836668 0.480004
O O5 0.799031 0.750000 0.289078
O O6 0.841549 0.365702 0.188266
O O7 0.805252 0.496108 0.065650
O O8 0.001840 0.390678 0.023911
O O9 0.204408 0.088896 0.896417
O O10 0.224537 0.163236 0.098590
O O11 0.183792 0.250000 0.841390
#
# Coordination Sequence:
#
# PCOD8182103 Si02
#       6
#     4   4   8   8   4   8
#     4   8  22  40  68  88 120 162 212 256 286 374
#     4  10  22  41  64  86 126 162 203 245 317 348
#     4  11  25  39  63  95 127 159 201 259 304 369
#     4  11  25  39  63  95 127 159 201 259 304 369
#     4  10  22  41  64  86 126 162 203 245 317 348
#     4  10  22  41  63  87 125 163 207 243 307 357
#
# _framework density 19.012467999999998
#
# number of rings (size 3 to 8) (size 9 to 14) (size 15 to 20)
#    1.333    0.444    2.222    0.667    6.222    5.333 
#    0.000    6.667    0.000    0.000    0.000    0.000 
#    0.000    0.000    0.000    0.000    0.000    0.000 
#
# Total GULP energy -223056.190968 kJ/mol
# GULP energy per Si atom -12392.010609 kJ/mol
# Density = 1.896920 g / cm^3
# Si number density = 19.012468 Si / 1000 Ang^3
#
#
#
# Elastic Constant Matrix: (Units=GPa)
#
#
# Indices 1 2 3 4 5 6 
#
# 1 92.2206 45.3226 28.3376 0.0000 0.0000 0.0000
# 2 45.3226 107.1557 29.6015 0.0000 0.0000 0.0000
# 3 28.3376 29.6015 112.4336 0.0000 0.0000 0.0000
# 4 0.0000 0.0000 0.0000 18.0537 0.0000 0.0000
# 5 0.0000 0.0000 0.0000 0.0000 38.8332 0.0000
# 6 0.0000 0.0000 0.0000 0.0000 0.0000 -0.5507
#
#
#
# Elastic Compliance Matrix: (Units=1/GPa)
#
#
# Indices 1 2 3 4 5 6 
#
# 1 0.014154 -0.005393 -0.002147 0.000000 0.000000 0.000000
# 2 -0.005393 0.012119 -0.001831 0.000000 0.000000 0.000000
# 3 -0.002147 -0.001831 0.009918 0.000000 0.000000 0.000000
# 4 0.000000 0.000000 0.000000 0.055390 0.000000 0.000000
# 5 0.000000 0.000000 0.000000 0.000000 0.025751 0.000000
# 6 0.000000 0.000000 0.000000 0.000000 0.000000 -1.815942
#
#
# Mechanical properties :
#
#
# Convention : Reuss Voigt Hill
#
# Bulk Modulus (GPa) = 57.31814 57.59261 57.45537
# Shear Modulus (GPa) = -2.98677 25.17045 11.09184
#
# Velocity S-wave (km/s) = -1.25474 3.64248 2.41798
# Velocity P-wave (km/s) = 5.30226 6.93167 6.17098
#
# Compressibility (1/GPa) = 0.01744648
#
# Stress axis : x y z
#
# Youngs Moduli (GPa) = 70.65117 82.51276 100.83143
#
# Poissons Ratio (x) = 0.44502 0.21653
# Poissons Ratio (y) = 0.38105 0.18467
# Poissons Ratio (z) = 0.15172 0.15112
#
# Static dielectric constant tensor:
#      x y z
#    x 3.368320 0.000000 0.000000 
#    y 0.000000 3.518900 0.000000 
#    z 0.000000 0.000000 3.474230 
# 
# 
# High freq. dielectric constant tensor:
#      x y z
#    x 1.731960 0.000000 0.000000 
#    y 0.000000 1.735540 0.000000 
#    z 0.000000 0.000000 1.749620 
# 
# From -- ./inp_files/5644.got.cif
#   From: 2010.03.12/outbox.cif.g09.slc.cpg/sg39_3_cif.got.tgz:5644.got - 2010.04.14 02:53:20.
