data_PCOD8182216
_publ_section_title
;
Structure prediction by ZEFSAII (Michael W. Deem and Ramdas Pophale) SiO2 
 PCOD8182216
Probable space group: A B M 2
;
_chemical_formula_sum "Si O2"
_cell_formula_units_Z 64
_cell_length_a 11.715892
_cell_length_b 17.273333
_cell_length_c 15.129920
_cell_angle_alpha 90.000000
_cell_angle_beta 90.000000
_cell_angle_gamma 90.000000
_cell_volume 3061.879794
_symmetry_space_group_name_H-M "A B M 2"
_symmetry_group_IT_number 39
_symmetry_cell_setting 'orthorhombic'
loop_
_space_group_symop_operation_xyz
x,y,z
-x,-y,z
-x,1/2+y,z
x,1/2-y,z
x,1/2+y,1/2+z
-x,1/2-y,1/2+z
-x,y,1/2+z
x,-y,1/2+z
loop_
_atom_site_type_symbol
_atom_site_label
_atom_site_fract_x
_atom_site_fract_y
_atom_site_fract_z
Si Si1 0.008416 0.910235 0.918500
Si Si2 0.997981 0.659252 0.229193
Si Si3 0.257468 0.159725 0.695866
Si Si4 0.593330 0.338362 0.575422
Si Si5 0.550642 0.919592 0.426235
Si Si6 0.159689 0.096042 0.073191
Si Si7 0.224747 0.426188 0.527413
Si Si8 0.482937 0.590532 0.244511
O O1 0.030661 0.860891 0.830492
O O2 0.899194 0.885891 0.978061
O O3 0.000000 0.000000 0.891729
O O4 0.113764 0.892009 0.981762
O O5 0.978797 0.750000 0.212158
O O6 0.922425 0.612947 0.157242
O O7 0.129606 0.634799 0.220483
O O8 0.279859 0.250000 0.711084
O O9 0.274760 0.137949 0.593506
O O10 0.347673 0.109947 0.752583
O O11 0.568707 0.250000 0.554122
O O12 0.531570 0.386564 0.500134
O O13 0.728660 0.351612 0.578153
O O14 0.538816 0.359618 0.667962
O O15 0.679469 0.935636 0.453613
O O16 0.544418 0.875069 0.332627
O O17 0.500000 0.000000 0.394718
O O18 0.196085 0.006100 0.077919
O O19 0.500000 0.500000 0.222353
#
# Coordination Sequence:
#
# PCOD8182216 Si02
#       8
#     8   8   8   8   8   8   8   8
#     4  10  25  41  67 102 133 175 231 283 335 405
#     4  11  26  44  68 101 140 183 225 280 347 415
#     4  11  24  43  68  98 135 182 227 274 346 418
#     4  12  25  42  66  97 135 173 218 279 342 407
#     4  11  24  44  68  96 129 172 227 273 340 405
#     4  11  24  45  67  99 135 180 231 278 340 403
#     4  11  22  44  72  95 131 180 226 288 334 405
#     4  11  25  43  68  98 131 176 224 284 333 406
#
# _framework density 20.902191999999999
#
# number of rings (size 3 to 8) (size 9 to 14) (size 15 to 20)
#    0.000    1.000    3.750    1.875    5.250    3.500 
#    0.000    0.000    0.000    0.000    0.000    0.000 
#    0.000    0.000    0.000    0.000    0.000    0.000 
#
# Total GULP energy -396782.658384 kJ/mol
# GULP energy per Si atom -12399.458074 kJ/mol
# Density = 2.085462 g / cm^3
# Si number density = 20.902192 Si / 1000 Ang^3
#
#
#
# Elastic Constant Matrix: (Units=GPa)
#
#
# Indices 1 2 3 4 5 6 
#
# 1 110.6060 35.5707 23.5183 0.0000 0.0000 0.0000
# 2 35.5707 59.8143 21.0519 0.0000 0.0000 0.0000
# 3 23.5183 21.0519 114.8661 0.0000 0.0000 0.0000
# 4 0.0000 0.0000 0.0000 46.5393 0.0000 0.0000
# 5 0.0000 0.0000 0.0000 0.0000 22.7068 0.0000
# 6 0.0000 0.0000 0.0000 0.0000 0.0000 31.0679
#
#
#
# Elastic Compliance Matrix: (Units=1/GPa)
#
#
# Indices 1 2 3 4 5 6 
#
# 1 0.011322 -0.006325 -0.001159 0.000000 0.000000 0.000000
# 2 -0.006325 0.021405 -0.002628 0.000000 0.000000 0.000000
# 3 -0.001159 -0.002628 0.009425 0.000000 0.000000 0.000000
# 4 0.000000 0.000000 0.000000 0.021487 0.000000 0.000000
# 5 0.000000 0.000000 0.000000 0.000000 0.044040 0.000000
# 6 0.000000 0.000000 0.000000 0.000000 0.000000 0.032188
#
#
# Mechanical properties :
#
#
# Convention : Reuss Voigt Hill
#
# Bulk Modulus (GPa) = 45.60467 49.50756 47.55611
# Shear Modulus (GPa) = 29.86893 33.73916 31.80404
#
# Velocity S-wave (km/s) = 3.78429 4.02200 3.90496
# Velocity P-wave (km/s) = 6.40000 6.73093 6.56755
#
# Compressibility (1/GPa) = 0.02192758
#
# Stress axis : x y z
#
# Youngs Moduli (GPa) = 88.32675 46.71878 106.10439
#
# Poissons Ratio (x) = 0.29549 0.12296
# Poissons Ratio (y) = 0.55866 0.27883
# Poissons Ratio (z) = 0.10236 0.12277
#
# Static dielectric constant tensor:
#      x y z
#    x 4.126010 0.000000 0.000000 
#    y 0.000000 3.665940 0.000000 
#    z 0.000000 0.000000 3.874820 
# 
# 
# High freq. dielectric constant tensor:
#      x y z
#    x 1.835710 0.000000 0.000000 
#    y 0.000000 1.809960 0.000000 
#    z 0.000000 0.000000 1.828510 
# 
# From -- ./inp_files/9450.got.cif
#   From: 2010.03.12/outbox.cif.g09.slc.cpg/sg39_5_cif.got.tgz:9450.got - 2010.04.14 02:53:20.
