data_PCOD8182081
_publ_section_title
;
Structure prediction by ZEFSAII (Michael W. Deem and Ramdas Pophale) SiO2 
 PCOD8182081
Probable space group: A B M 2
;
_chemical_formula_sum "Si O2"
_cell_formula_units_Z 56
_cell_length_a 13.756229
_cell_length_b 17.647015
_cell_length_c 10.711123
_cell_angle_alpha 90.000000
_cell_angle_beta 90.000000
_cell_angle_gamma 90.000000
_cell_volume 2600.193440
_symmetry_space_group_name_H-M "A B M 2"
_symmetry_group_IT_number 39
_symmetry_cell_setting 'orthorhombic'
loop_
_space_group_symop_operation_xyz
x,y,z
-x,-y,z
-x,1/2+y,z
x,1/2-y,z
x,1/2+y,1/2+z
-x,1/2-y,1/2+z
-x,y,1/2+z
x,-y,1/2+z
loop_
_atom_site_type_symbol
_atom_site_label
_atom_site_fract_x
_atom_site_fract_y
_atom_site_fract_z
Si Si1 0.088665 0.546453 0.869630
Si Si2 0.133770 0.835028 0.680258
Si Si3 0.241333 0.835237 0.211063
Si Si4 0.940967 0.667479 0.553567
Si Si5 0.538575 0.161434 0.210947
Si Si6 0.777929 0.079434 0.456354
Si Si7 0.551756 0.580040 0.974961
O O1 0.156205 0.597524 0.778342
O O2 0.159392 0.497557 0.958805
O O3 0.000000 0.500000 0.803147
O O4 0.028170 0.603842 0.956439
O O5 0.169492 0.750000 0.720450
O O6 0.185867 0.856839 0.551994
O O7 0.016902 0.834210 0.667226
O O8 0.235321 0.750000 0.263756
O O9 0.169267 0.847668 0.096183
O O10 0.350746 0.852763 0.167498
O O11 0.206252 0.890979 0.317577
O O12 0.945890 0.750000 0.487655
O O13 0.512514 0.250000 0.221135
O O14 0.473184 0.124912 0.102392
O O15 0.521799 0.125730 0.349171
O O16 0.665738 0.062872 0.482178
O O17 0.500000 0.500000 0.972830
#
# Coordination Sequence:
#
# PCOD8182081 Si02
#       7
#     8   8   8   8   8   8   8
#     4  12  25  39  63  94 133 170 217 262 321 377
#     4  11  25  43  65  94 129 172 218 266 316 378
#     4   9  20  40  66  93 125 170 216 262 321 388
#     4  10  22  40  63  91 129 172 216 264 315 378
#     4  10  22  43  71  97 130 173 225 273 329 398
#     4  11  25  41  66  92 132 167 213 265 328 387
#     4  11  25  44  67 100 133 174 214 277 343 401
#
# _framework density 21.536859
#
# number of rings (size 3 to 8) (size 9 to 14) (size 15 to 20)
#    0.000    1.429    1.429    2.571    6.000    4.000 
#    0.000    0.000    0.000    0.000    0.000    0.000 
#    0.000    0.000    0.000    0.000    0.000    0.000 
#
# Total GULP energy -347097.565348 kJ/mol
# GULP energy per Si atom -12396.341620 kJ/mol
# Density = 2.148784 g / cm^3
# Si number density = 21.536859 Si / 1000 Ang^3
#
#
#
# Elastic Constant Matrix: (Units=GPa)
#
#
# Indices 1 2 3 4 5 6 
#
# 1 88.8722 44.3807 30.2161 0.0000 0.0000 0.0000
# 2 44.3807 150.0100 49.8887 0.0000 0.0000 0.0000
# 3 30.2161 49.8887 83.6061 0.0000 0.0000 0.0000
# 4 0.0000 0.0000 0.0000 41.8222 0.0000 0.0000
# 5 0.0000 0.0000 0.0000 0.0000 29.1709 0.0000
# 6 0.0000 0.0000 0.0000 0.0000 0.0000 21.8173
#
#
#
# Elastic Compliance Matrix: (Units=1/GPa)
#
#
# Indices 1 2 3 4 5 6 
#
# 1 0.013855 -0.003036 -0.003196 0.000000 0.000000 0.000000
# 2 -0.003036 0.008982 -0.004262 0.000000 0.000000 0.000000
# 3 -0.003196 -0.004262 0.015659 0.000000 0.000000 0.000000
# 4 0.000000 0.000000 0.000000 0.023911 0.000000 0.000000
# 5 0.000000 0.000000 0.000000 0.000000 0.034281 0.000000
# 6 0.000000 0.000000 0.000000 0.000000 0.000000 0.045835
#
#
# Mechanical properties :
#
#
# Convention : Reuss Voigt Hill
#
# Bulk Modulus (GPa) = 57.11752 63.49548 60.30650
# Shear Modulus (GPa) = 29.52524 31.76228 30.64376
#
# Velocity S-wave (km/s) = 3.70661 3.84446 3.77616
# Velocity P-wave (km/s) = 6.70052 7.01803 6.86111
#
# Compressibility (1/GPa) = 0.01750776
#
# Stress axis : x y z
#
# Youngs Moduli (GPa) = 72.17723 111.33351 63.86048
#
# Poissons Ratio (x) = 0.33803 0.20407
# Poissons Ratio (y) = 0.21915 0.27220
# Poissons Ratio (z) = 0.23064 0.47454
#
# Static dielectric constant tensor:
#      x y z
#    x 3.844950 0.000000 0.000000 
#    y 0.000000 4.194820 0.000000 
#    z 0.000000 0.000000 3.678780 
# 
# 
# High freq. dielectric constant tensor:
#      x y z
#    x 1.841430 0.000000 0.000000 
#    y 0.000000 1.866990 0.000000 
#    z 0.000000 0.000000 1.832770 
# 
# From -- ./inp_files/6466.got.cif
#   From: 2010.03.12/outbox.cif.g09.slc.cpg/sg39_4_cif.got.tgz:6466.got - 2010.04.14 02:53:20.
