data_PCOD8182117
_publ_section_title
;
Structure prediction by ZEFSAII (Michael W. Deem and Ramdas Pophale) SiO2 
 PCOD8182117
Probable space group: A B M 2
;
_chemical_formula_sum "Si O2"
_cell_formula_units_Z 56
_cell_length_a 13.814565
_cell_length_b 16.912082
_cell_length_c 11.246960
_cell_angle_alpha 90.000000
_cell_angle_beta 90.000000
_cell_angle_gamma 90.000000
_cell_volume 2627.661636
_symmetry_space_group_name_H-M "A B M 2"
_symmetry_group_IT_number 39
_symmetry_cell_setting 'orthorhombic'
loop_
_space_group_symop_operation_xyz
x,y,z
-x,-y,z
-x,1/2+y,z
x,1/2-y,z
x,1/2+y,1/2+z
-x,1/2-y,1/2+z
-x,y,1/2+z
x,-y,1/2+z
loop_
_atom_site_type_symbol
_atom_site_label
_atom_site_fract_x
_atom_site_fract_y
_atom_site_fract_z
Si Si1 0.406294 0.542628 0.135120
Si Si2 0.965097 0.910140 0.287704
Si Si3 0.726658 0.595789 0.049800
Si Si4 0.425096 0.338702 0.435909
Si Si5 0.236366 0.340032 0.294912
Si Si6 0.950024 0.584420 0.024932
Si Si7 0.625054 0.337881 0.324037
O O1 0.500000 0.500000 0.193586
O O2 0.331162 0.484254 0.074195
O O3 0.346042 0.594391 0.230167
O O4 0.453032 0.601264 0.039052
O O5 0.851057 0.901435 0.316109
O O6 0.981508 0.874000 0.152427
O O7 0.019050 0.868812 0.401993
O O8 0.000000 0.000000 0.278997
O O9 0.722985 0.653683 0.162048
O O10 0.835852 0.572017 0.018960
O O11 0.680247 0.645998 0.945277
O O12 0.417295 0.250000 0.488079
O O13 0.322923 0.365325 0.381260
O O14 0.509138 0.342164 0.338052
O O15 0.201980 0.250000 0.317749
O O16 0.000000 0.500000 0.015876
O O17 0.654681 0.250000 0.279364
#
# Coordination Sequence:
#
# PCOD8182117 Si02
#       7
#     8   8   8   8   8   8   8
#     4  12  25  38  63  97 135 168 226 272 326 378
#     4   9  19  37  62  90 123 158 216 264 330 386
#     4  11  24  39  66  96 132 167 220 274 326 395
#     4  10  23  41  63  90 132 177 217 265 328 393
#     4  10  22  42  66  93 127 174 218 262 330 404
#     4   9  20  37  60  92 121 162 204 271 334 389
#     4  11  25  44  64  92 135 180 218 270 332 393
#
# _framework density 21.311724999999999
#
# number of rings (size 3 to 8) (size 9 to 14) (size 15 to 20)
#    0.000    1.714    1.429    1.714    8.000    3.429 
#    0.000    3.571    0.000    0.000    0.000    0.000 
#    0.000    0.000    0.000    0.000    0.000    0.000 
#
# Total GULP energy -346976.288769 kJ/mol
# GULP energy per Si atom -12392.010313 kJ/mol
# Density = 2.126322 g / cm^3
# Si number density = 21.311725 Si / 1000 Ang^3
#
#
#
# Elastic Constant Matrix: (Units=GPa)
#
#
# Indices 1 2 3 4 5 6 
#
# 1 98.3629 38.5710 29.9018 0.0000 0.0000 0.0000
# 2 38.5710 76.2551 22.4805 0.0000 0.0000 0.0000
# 3 29.9018 22.4805 126.0929 0.0000 0.0000 0.0000
# 4 0.0000 0.0000 0.0000 31.9732 0.0000 0.0000
# 5 0.0000 0.0000 0.0000 0.0000 34.0397 0.0000
# 6 0.0000 0.0000 0.0000 0.0000 0.0000 4.4648
#
#
#
# Elastic Compliance Matrix: (Units=1/GPa)
#
#
# Indices 1 2 3 4 5 6 
#
# 1 0.013162 -0.006055 -0.002042 0.000000 0.000000 0.000000
# 2 -0.006055 0.016627 -0.001528 0.000000 0.000000 0.000000
# 3 -0.002042 -0.001528 0.008687 0.000000 0.000000 0.000000
# 4 0.000000 0.000000 0.000000 0.031276 0.000000 0.000000
# 5 0.000000 0.000000 0.000000 0.000000 0.029377 0.000000
# 6 0.000000 0.000000 0.000000 0.000000 0.000000 0.223976
#
#
# Mechanical properties :
#
#
# Convention : Reuss Voigt Hill
#
# Bulk Modulus (GPa) = 52.01449 53.62415 52.81932
# Shear Modulus (GPa) = 14.33628 28.07939 21.20783
#
# Velocity S-wave (km/s) = 2.59645 3.63375 3.15798
# Velocity P-wave (km/s) = 5.78344 6.54385 6.17536
#
# Compressibility (1/GPa) = 0.01922541
#
# Stress axis : x y z
#
# Youngs Moduli (GPa) = 75.97869 60.14158 115.11067
#
# Poissons Ratio (x) = 0.36419 0.23500
# Poissons Ratio (y) = 0.46009 0.17594
# Poissons Ratio (z) = 0.15511 0.09192
#
# Static dielectric constant tensor:
#      x y z
#    x 3.852150 0.000000 0.000000 
#    y 0.000000 3.768110 0.000000 
#    z 0.000000 0.000000 4.459180 
# 
# 
# High freq. dielectric constant tensor:
#      x y z
#    x 1.832290 0.000000 0.000000 
#    y 0.000000 1.816290 0.000000 
#    z 0.000000 0.000000 1.847780 
# 
# From -- ./inp_files/6465.got.cif
#   From: 2010.03.12/outbox.cif.g09.slc.cpg/sg39_4_cif.got.tgz:6465.got - 2010.04.14 02:53:20.
