data_PCOD8182000
_publ_section_title
;
Structure prediction by ZEFSAII (Michael W. Deem and Ramdas Pophale) SiO2 
 PCOD8182000
Probable space group: A B M 2
;
_chemical_formula_sum "Si O2"
_cell_formula_units_Z 64
_cell_length_a 9.077627
_cell_length_b 28.458379
_cell_length_c 11.199731
_cell_angle_alpha 90.000000
_cell_angle_beta 90.000000
_cell_angle_gamma 90.000000
_cell_volume 2893.277463
_symmetry_space_group_name_H-M "A B M 2"
_symmetry_group_IT_number 39
_symmetry_cell_setting 'orthorhombic'
loop_
_space_group_symop_operation_xyz
x,y,z
-x,-y,z
-x,1/2+y,z
x,1/2-y,z
x,1/2+y,1/2+z
-x,1/2-y,1/2+z
-x,y,1/2+z
x,-y,1/2+z
loop_
_atom_site_type_symbol
_atom_site_label
_atom_site_fract_x
_atom_site_fract_y
_atom_site_fract_z
Si Si1 0.136068 0.196831 0.706830
Si Si2 0.341761 0.892648 0.603093
Si Si3 0.868933 0.620072 0.886811
Si Si4 0.203897 0.197746 0.210670
Si Si5 0.171377 0.161072 0.459004
Si Si6 0.349060 0.576636 0.021349
Si Si7 0.637325 0.027957 0.787432
Si Si8 0.872758 0.964138 0.717344
O O1 0.163435 0.250000 0.750813
O O2 0.202790 0.161603 0.805996
O O3 0.214391 0.187332 0.581109
O O4 0.964861 0.186537 0.679886
O O5 0.252080 0.900208 0.479258
O O6 0.310246 0.839975 0.648743
O O7 0.516734 0.899516 0.591388
O O8 0.297361 0.931378 0.701239
O O9 0.929757 0.580216 0.794941
O O10 0.002441 0.643440 0.958539
O O11 0.249645 0.250000 0.167059
O O12 0.213303 0.196533 0.353879
O O13 0.270320 0.115678 0.442417
O O14 0.227373 0.552511 0.106134
O O15 0.413895 0.542436 0.919950
O O16 0.500000 0.000000 0.725643
O O17 0.770834 0.992470 0.808554
O O18 0.000000 0.000000 0.671821
#
# Coordination Sequence:
#
# PCOD8182000 Si02
#       8
#     8   8   8   8   8   8   8   8
#     4  10  21  41  71 106 138 176 232 292 346 412
#     4  12  26  46  71  97 142 185 229 285 344 430
#     4  11  25  43  70 103 136 180 232 289 351 409
#     4  10  22  42  70 103 137 180 230 285 350 412
#     4  11  21  42  71 102 136 179 228 289 351 404
#     4  12  27  44  72  97 141 183 229 283 348 417
#     4  12  27  48  68 100 131 185 236 278 344 414
#     4  12  28  44  69 103 141 179 233 290 347 413
#
# _framework density 22.120242999999999
#
# number of rings (size 3 to 8) (size 9 to 14) (size 15 to 20)
#    0.000    0.750    5.000    1.875    7.000    1.500 
#    0.000    1.250    0.000    0.000    0.000    0.000 
#    0.000    0.000    0.000    0.000    0.000    0.000 
#
# Total GULP energy -396681.377617 kJ/mol
# GULP energy per Si atom -12396.293051 kJ/mol
# Density = 2.206990 g / cm^3
# Si number density = 22.120243 Si / 1000 Ang^3
#
#
#
# Elastic Constant Matrix: (Units=GPa)
#
#
# Indices 1 2 3 4 5 6 
#
# 1 68.0481 27.3593 21.0708 0.0000 0.0000 0.0000
# 2 27.3593 132.4067 55.0497 0.0000 0.0000 0.0000
# 3 21.0708 55.0497 89.9278 0.0000 0.0000 0.0000
# 4 0.0000 0.0000 0.0000 23.0414 0.0000 0.0000
# 5 0.0000 0.0000 0.0000 0.0000 28.3130 0.0000
# 6 0.0000 0.0000 0.0000 0.0000 0.0000 26.2786
#
#
#
# Elastic Compliance Matrix: (Units=1/GPa)
#
#
# Indices 1 2 3 4 5 6 
#
# 1 0.016395 -0.002402 -0.002371 0.000000 0.000000 0.000000
# 2 -0.002402 0.010483 -0.005854 0.000000 0.000000 0.000000
# 3 -0.002371 -0.005854 0.015259 0.000000 0.000000 0.000000
# 4 0.000000 0.000000 0.000000 0.043400 0.000000 0.000000
# 5 0.000000 0.000000 0.000000 0.000000 0.035320 0.000000
# 6 0.000000 0.000000 0.000000 0.000000 0.000000 0.038054
#
#
# Mechanical properties :
#
#
# Convention : Reuss Voigt Hill
#
# Bulk Modulus (GPa) = 47.88653 55.26022 51.57338
# Shear Modulus (GPa) = 26.71984 27.98678 27.35331
#
# Velocity S-wave (km/s) = 3.47931 3.56084 3.52031
# Velocity P-wave (km/s) = 6.15110 6.47627 6.31578
#
# Compressibility (1/GPa) = 0.02088270
#
# Stress axis : x y z
#
# Youngs Moduli (GPa) = 60.99252 95.39437 65.53359
#
# Poissons Ratio (x) = 0.22913 0.15539
# Poissons Ratio (y) = 0.14650 0.38365
# Poissons Ratio (z) = 0.14463 0.55847
#
# Static dielectric constant tensor:
#      x y z
#    x 3.712600 0.000000 0.000000 
#    y 0.000000 4.119880 0.000000 
#    z 0.000000 0.000000 3.919160 
# 
# 
# High freq. dielectric constant tensor:
#      x y z
#    x 1.845420 0.000000 0.000000 
#    y 0.000000 1.882680 0.000000 
#    z 0.000000 0.000000 1.876960 
# 
# From -- ./inp_files/5410.got.cif
#   From: 2010.03.12/outbox.cif.g09.slc.cpg/sg39_3_cif.got.tgz:5410.got - 2010.04.14 02:53:20.
