data_PCOD8182819
_publ_section_title
;
Structure prediction by ZEFSAII (Michael W. Deem and Ramdas Pophale) SiO2 
 PCOD8182819
Probable space group: A M A 2
;
_chemical_formula_sum "Si O2"
_cell_formula_units_Z 52
_cell_length_a 12.298273
_cell_length_b 26.585810
_cell_length_c 7.684180
_cell_angle_alpha 90.000000
_cell_angle_beta 90.000000
_cell_angle_gamma 90.000000
_cell_volume 2512.416030
_symmetry_space_group_name_H-M "A M A 2"
_symmetry_group_IT_number 40
_symmetry_cell_setting 'orthorhombic'
loop_
_space_group_symop_operation_xyz
x,y,z
-x,-y,z
1/2-x,y,z
1/2+x,-y,z
x,1/2+y,1/2+z
-x,1/2-y,1/2+z
1/2-x,1/2+y,1/2+z
1/2+x,1/2-y,1/2+z
loop_
_atom_site_type_symbol
_atom_site_label
_atom_site_fract_x
_atom_site_fract_y
_atom_site_fract_z
Si Si1 0.123475 0.101434 0.365720
Si Si2 0.250000 0.822748 0.372406
Si Si3 0.369141 0.217618 0.391659
Si Si4 0.480511 0.402234 0.190379
Si Si5 0.931125 0.210528 0.593187
Si Si6 0.983188 0.558331 0.557603
Si Si7 0.250000 0.904120 0.671483
Si Si8 0.750000 0.604597 0.562991
O O1 0.250000 0.086428 0.367141
O O2 0.104887 0.160515 0.336102
O O3 0.070923 0.083472 0.548680
O O4 0.062434 0.073435 0.212350
O O5 0.140621 0.791531 0.415094
O O6 0.250000 0.866618 0.513024
O O7 0.250000 0.844540 0.177991
O O8 0.250000 0.220871 0.477462
O O9 0.454031 0.234997 0.538158
O O10 0.371610 0.252522 0.223988
O O11 0.448598 0.343497 0.182021
O O12 0.524408 0.413615 0.382862
O O13 0.365938 0.434012 0.160078
O O14 0.857799 0.571634 0.604790
O O15 0.000000 0.500000 0.523701
O O16 0.250000 0.877320 0.862851
#
# Coordination Sequence:
#
# PCOD8182819 Si02
#       8
#     8   4   8   8   8   8   4   4
#     4  10  23  42  64  89 130 172 206 252 314 383
#     4  10  18  38  62  87 124 164 204 263 310 362
#     4  10  21  39  58  89 127 163 207 253 305 377
#     4   9  20  39  61  91 123 166 206 260 314 363
#     4  10  20  37  60  89 126 166 210 254 310 367
#     4  11  24  40  67  94 125 163 214 265 320 374
#     4   8  16  32  60  88 114 148 200 258 310 350
#     4  10  20  38  62  95 120 152 208 267 318 364
#
# _framework density 20.697209000000001
#
# number of rings (size 3 to 8) (size 9 to 14) (size 15 to 20)
#    0.000    2.154    0.769    2.769    3.231    1.231 
#    4.154    0.000    3.385    0.000    0.000    0.000 
#    0.000    0.000    0.000    0.000    0.000    0.000 
#
# Total GULP energy -322214.383919 kJ/mol
# GULP energy per Si atom -12392.860920 kJ/mol
# Density = 2.065010 g / cm^3
# Si number density = 20.697209 Si / 1000 Ang^3
#
#
#
# Elastic Constant Matrix: (Units=GPa)
#
#
# Indices 1 2 3 4 5 6 
#
# 1 149.9934 29.1020 61.7893 0.0000 0.0000 0.0000
# 2 29.1020 49.1587 27.8570 0.0000 0.0000 0.0000
# 3 61.7893 27.8570 121.1509 0.0000 0.0000 0.0000
# 4 0.0000 0.0000 0.0000 21.5072 0.0000 0.0000
# 5 0.0000 0.0000 0.0000 0.0000 29.4731 0.0000
# 6 0.0000 0.0000 0.0000 0.0000 0.0000 14.6971
#
#
#
# Elastic Compliance Matrix: (Units=1/GPa)
#
#
# Indices 1 2 3 4 5 6 
#
# 1 0.008827 -0.003075 -0.003795 0.000000 0.000000 0.000000
# 2 -0.003075 0.024461 -0.004056 0.000000 0.000000 0.000000
# 3 -0.003795 -0.004056 0.011122 0.000000 0.000000 0.000000
# 4 0.000000 0.000000 0.000000 0.046496 0.000000 0.000000
# 5 0.000000 0.000000 0.000000 0.000000 0.033929 0.000000
# 6 0.000000 0.000000 0.000000 0.000000 0.000000 0.068041
#
#
# Mechanical properties :
#
#
# Convention : Reuss Voigt Hill
#
# Bulk Modulus (GPa) = 44.32965 61.97774 53.15370
# Shear Modulus (GPa) = 22.49738 26.57244 24.53491
#
# Velocity S-wave (km/s) = 3.30051 3.58699 3.44673
# Velocity P-wave (km/s) = 5.99910 6.86770 6.44804
#
# Compressibility (1/GPa) = 0.02255826
#
# Stress axis : x y z
#
# Youngs Moduli (GPa) = 113.29079 40.88092 89.90986
#
# Poissons Ratio (x) = 0.12571 0.34119
# Poissons Ratio (y) = 0.34838 0.36469
# Poissons Ratio (z) = 0.42991 0.16582
#
# Static dielectric constant tensor:
#      x y z
#    x 4.385200 0.000000 0.000000 
#    y 0.000000 3.475330 0.000000 
#    z 0.000000 0.000000 3.657760 
# 
# 
# High freq. dielectric constant tensor:
#      x y z
#    x 1.834760 0.000000 0.000000 
#    y 0.000000 1.772380 0.000000 
#    z 0.000000 0.000000 1.809250 
# 
# From -- ./inp_files/5563.got.cif
#   From: 2010.03.12/outbox.cif.g09.slc.cpg/sg40_3_cif.got.tgz:5563.got - 2010.04.14 01:38:03.
