data_PCOD8182826
_publ_section_title
;
Structure prediction by ZEFSAII (Michael W. Deem and Ramdas Pophale) SiO2 
 PCOD8182826
Probable space group: A M A 2
;
_chemical_formula_sum "Si O2"
_cell_formula_units_Z 48
_cell_length_a 13.577369
_cell_length_b 15.029453
_cell_length_c 11.501382
_cell_angle_alpha 90.000000
_cell_angle_beta 90.000000
_cell_angle_gamma 90.000000
_cell_volume 2346.976948
_symmetry_space_group_name_H-M "A M A 2"
_symmetry_group_IT_number 40
_symmetry_cell_setting 'orthorhombic'
loop_
_space_group_symop_operation_xyz
x,y,z
-x,-y,z
1/2-x,y,z
1/2+x,-y,z
x,1/2+y,1/2+z
-x,1/2-y,1/2+z
1/2-x,1/2+y,1/2+z
1/2+x,1/2-y,1/2+z
loop_
_atom_site_type_symbol
_atom_site_label
_atom_site_fract_x
_atom_site_fract_y
_atom_site_fract_z
Si Si1 0.750000 0.970504 0.086720
Si Si2 0.750000 0.421285 0.336574
Si Si3 0.139351 0.811703 0.827719
Si Si4 0.250000 0.847539 0.227185
Si Si5 0.250000 0.265968 0.956089
Si Si6 0.458155 0.090677 0.711256
Si Si7 0.091337 0.761577 0.081893
Si Si8 0.889162 0.814603 0.126021
O O1 0.844886 0.912316 0.117003
O O2 0.750000 0.057330 0.165498
O O3 0.750000 0.990091 0.947532
O O4 0.750000 0.320526 0.376564
O O5 0.647563 0.434314 0.267903
O O6 0.250000 0.853605 0.801953
O O7 0.125500 0.721310 0.755443
O O8 0.044658 0.874964 0.800854
O O9 0.143339 0.776982 0.959751
O O10 0.250000 0.851769 0.369417
O O11 0.157151 0.789809 0.190132
O O12 0.155164 0.260928 0.039212
O O13 0.442443 0.159994 0.605921
O O14 0.500000 0.000000 0.655677
O O15 0.000297 0.828477 0.088090
#
# Coordination Sequence:
#
# PCOD8182826 Si02
#       8
#     4   4   8   4   4   8   8   8
#     4  10  22  39  58  95 121 165 220 255 324 381
#     4  10  20  42  61  89 132 167 215 281 320 389
#     4  11  21  41  67  94 126 167 222 268 332 388
#     4  12  24  36  61  94 129 162 210 261 324 379
#     4  10  18  41  60  88 122 172 193 253 328 389
#     4  11  25  40  67  96 130 175 225 274 338 393
#     4  11  23  40  62  95 126 168 209 273 330 383
#     4   9  21  41  66  83 125 173 208 257 321 396
#
# _framework density 20.451841000000002
#
# number of rings (size 3 to 8) (size 9 to 14) (size 15 to 20)
#    0.000    1.667    4.167    2.000    5.833    0.667 
#    0.000    3.333    0.000    0.000    0.000    0.000 
#    0.000    0.000    0.000    0.000    0.000    0.000 
#
# Total GULP energy -297315.646556 kJ/mol
# GULP energy per Si atom -12388.151940 kJ/mol
# Density = 2.040529 g / cm^3
# Si number density = 20.451841 Si / 1000 Ang^3
#
#
#
# Elastic Constant Matrix: (Units=GPa)
#
#
# Indices 1 2 3 4 5 6 
#
# 1 148.9828 22.0528 15.7973 0.0000 0.0000 0.0000
# 2 22.0528 95.4189 17.5828 0.0000 0.0000 0.0000
# 3 15.7973 17.5828 76.6154 0.0000 0.0000 0.0000
# 4 0.0000 0.0000 0.0000 36.3019 0.0000 0.0000
# 5 0.0000 0.0000 0.0000 0.0000 25.0320 0.0000
# 6 0.0000 0.0000 0.0000 0.0000 0.0000 17.0147
#
#
#
# Elastic Compliance Matrix: (Units=1/GPa)
#
#
# Indices 1 2 3 4 5 6 
#
# 1 0.007042 -0.001420 -0.001126 0.000000 0.000000 0.000000
# 2 -0.001420 0.011229 -0.002284 0.000000 0.000000 0.000000
# 3 -0.001126 -0.002284 0.013809 0.000000 0.000000 0.000000
# 4 0.000000 0.000000 0.000000 0.027547 0.000000 0.000000
# 5 0.000000 0.000000 0.000000 0.000000 0.039949 0.000000
# 6 0.000000 0.000000 0.000000 0.000000 0.000000 0.058773
#
#
# Mechanical properties :
#
#
# Convention : Reuss Voigt Hill
#
# Bulk Modulus (GPa) = 44.60502 47.98700 46.29601
# Shear Modulus (GPa) = 28.49303 33.37533 30.93418
#
# Velocity S-wave (km/s) = 3.73658 4.04406 3.89336
# Velocity P-wave (km/s) = 6.36185 6.73203 6.54956
#
# Compressibility (1/GPa) = 0.02241900
#
# Stress axis : x y z
#
# Youngs Moduli (GPa) = 142.00968 89.05353 72.41855
#
# Poissons Ratio (x) = 0.12645 0.08155
# Poissons Ratio (y) = 0.20165 0.16542
# Poissons Ratio (z) = 0.15991 0.20342
#
# Static dielectric constant tensor:
#      x y z
#    x 4.130470 0.000000 0.000000 
#    y 0.000000 3.436990 0.000000 
#    z 0.000000 0.000000 3.705640 
# 
# 
# High freq. dielectric constant tensor:
#      x y z
#    x 1.826750 0.000000 0.000000 
#    y 0.000000 1.773910 0.000000 
#    z 0.000000 0.000000 1.789920 
# 
# From -- ./inp_files/12189.got.cif
#   From: 2010.03.12/outbox.cif.g09.slc.cpg/sg40_7_cif.got.tgz:12189.got - 2010.04.14 01:38:03.
