data_PCOD8182064
_publ_section_title
;
Structure prediction by ZEFSAII (Michael W. Deem and Ramdas Pophale) SiO2 
 PCOD8182064
Probable space group: A B M 2
;
_chemical_formula_sum "Si O2"
_cell_formula_units_Z 64
_cell_length_a 18.849932
_cell_length_b 8.984662
_cell_length_c 19.450440
_cell_angle_alpha 90.000000
_cell_angle_beta 90.000000
_cell_angle_gamma 90.000000
_cell_volume 3294.131726
_symmetry_space_group_name_H-M "A B M 2"
_symmetry_group_IT_number 39
_symmetry_cell_setting 'orthorhombic'
loop_
_space_group_symop_operation_xyz
x,y,z
-x,-y,z
-x,1/2+y,z
x,1/2-y,z
x,1/2+y,1/2+z
-x,1/2-y,1/2+z
-x,y,1/2+z
x,-y,1/2+z
loop_
_atom_site_type_symbol
_atom_site_label
_atom_site_fract_x
_atom_site_fract_y
_atom_site_fract_z
Si Si1 0.927333 0.575091 0.311830
Si Si2 0.802227 0.925602 0.567779
Si Si3 0.343858 0.077573 0.765752
Si Si4 0.431171 0.419359 0.155480
Si Si5 0.664967 0.080438 0.526488
Si Si6 0.573249 0.420781 0.401603
Si Si7 0.927941 0.924606 0.467760
Si Si8 0.202189 0.573137 0.715742
O O1 0.938473 0.750000 0.307252
O O2 0.908762 0.525136 0.389882
O O3 0.864343 0.522902 0.261949
O O4 0.000000 0.500000 0.286432
O O5 0.800246 0.750000 0.580915
O O6 0.867218 0.975711 0.520004
O O7 0.732715 0.974158 0.525914
O O8 0.808367 0.009046 0.639928
O O9 0.333059 0.250000 0.746253
O O10 0.366640 0.055560 0.844277
O O11 0.408124 0.009631 0.722355
O O12 0.271702 0.989897 0.752384
O O13 0.500000 0.500000 0.123877
O O14 0.449745 0.250000 0.175261
O O15 0.367398 0.425493 0.102072
O O16 0.686799 0.250000 0.507520
O O17 0.607726 0.018050 0.472081
O O18 0.500000 0.500000 0.383385
O O19 0.552721 0.250000 0.410226
O O20 0.939346 0.750000 0.470642
O O21 0.000000 0.000000 0.493185
O O22 0.209801 0.750000 0.710742
#
# Coordination Sequence:
#
# PCOD8182064 Si02
#       8
#     8   8   8   8   8   8   8   8
#     4   9  20  39  62  88 119 154 196 239 287 345
#     4  11  23  38  60  88 120 155 197 243 289 347
#     4  11  23  39  59  86 119 153 198 245 291 349
#     4  11  22  37  60  85 114 153 196 241 291 348
#     4  10  22  40  59  84 118 154 196 239 290 348
#     4  10  23  41  60  86 117 152 194 242 293 350
#     4   9  20  39  61  89 119 153 196 239 286 344
#     4  11  23  39  60  86 120 158 196 242 295 350
#
# _framework density 19.428488000000002
#
# number of rings (size 3 to 8) (size 9 to 14) (size 15 to 20)
#    0.000    1.750    1.250    2.250    1.750    5.500 
#    0.000    2.500    0.000    0.000    0.000    0.000 
#    0.000    0.000    0.000    0.000    0.000    0.000 
#
# Total GULP energy -396916.473807 kJ/mol
# GULP energy per Si atom -12403.639806 kJ/mol
# Density = 1.938427 g / cm^3
# Si number density = 19.428488 Si / 1000 Ang^3
#
#
#
# Elastic Constant Matrix: (Units=GPa)
#
#
# Indices 1 2 3 4 5 6 
#
# 1 145.3744 59.2446 53.6340 0.0000 0.0000 0.0000
# 2 59.2446 84.3040 41.8536 0.0000 0.0000 0.0000
# 3 53.6340 41.8536 90.8526 0.0000 0.0000 0.0000
# 4 0.0000 0.0000 0.0000 26.8907 0.0000 0.0000
# 5 0.0000 0.0000 0.0000 0.0000 35.4297 0.0000
# 6 0.0000 0.0000 0.0000 0.0000 0.0000 38.9967
#
#
#
# Elastic Compliance Matrix: (Units=1/GPa)
#
#
# Indices 1 2 3 4 5 6 
#
# 1 0.010486 -0.005569 -0.003624 0.000000 0.000000 0.000000
# 2 -0.005569 0.018337 -0.005160 0.000000 0.000000 0.000000
# 3 -0.003624 -0.005160 0.015523 0.000000 0.000000 0.000000
# 4 0.000000 0.000000 0.000000 0.037188 0.000000 0.000000
# 5 0.000000 0.000000 0.000000 0.000000 0.028225 0.000000
# 6 0.000000 0.000000 0.000000 0.000000 0.000000 0.025643
#
#
# Mechanical properties :
#
#
# Convention : Reuss Voigt Hill
#
# Bulk Modulus (GPa) = 63.94132 69.99948 66.97040
# Shear Modulus (GPa) = 29.52946 31.31667 30.42307
#
# Velocity S-wave (km/s) = 3.90283 4.01920 3.96144
# Velocity P-wave (km/s) = 7.30013 7.59250 7.44775
#
# Compressibility (1/GPa) = 0.01563934
#
# Stress axis : x y z
#
# Youngs Moduli (GPa) = 95.36802 54.53353 64.41865
#
# Poissons Ratio (x) = 0.30372 0.23348
# Poissons Ratio (y) = 0.53115 0.33238
# Poissons Ratio (z) = 0.34566 0.28138
#
# Static dielectric constant tensor:
#      x y z
#    x 3.578170 0.000000 0.000000 
#    y 0.000000 3.575360 0.000000 
#    z 0.000000 0.000000 3.637120 
# 
# 
# High freq. dielectric constant tensor:
#      x y z
#    x 1.763960 0.000000 0.000000 
#    y 0.000000 1.758870 0.000000 
#    z 0.000000 0.000000 1.762550 
# 
# From -- ./inp_files/13153.got.cif
#   From: 2010.03.12/outbox.cif.g09.slc.cpg/sg39_7_cif.got.tgz:13153.got - 2010.04.14 02:53:20.
