data_PCOD8182551
_publ_section_title
;
Structure prediction by ZEFSAII (Michael W. Deem and Ramdas Pophale) SiO2 
 PCOD8182551
Probable space group: A M A 2
;
_chemical_formula_sum "Si O2"
_cell_formula_units_Z 56
_cell_length_a 8.745748
_cell_length_b 18.326345
_cell_length_c 20.798598
_cell_angle_alpha 90.000000
_cell_angle_beta 90.000000
_cell_angle_gamma 90.000000
_cell_volume 3333.549270
_symmetry_space_group_name_H-M "A M A 2"
_symmetry_group_IT_number 40
_symmetry_cell_setting 'orthorhombic'
loop_
_space_group_symop_operation_xyz
x,y,z
-x,-y,z
1/2-x,y,z
1/2+x,-y,z
x,1/2+y,1/2+z
-x,1/2-y,1/2+z
1/2-x,1/2+y,1/2+z
1/2+x,1/2-y,1/2+z
loop_
_atom_site_type_symbol
_atom_site_label
_atom_site_fract_x
_atom_site_fract_y
_atom_site_fract_z
Si Si1 0.931488 0.078295 0.262900
Si Si2 0.067427 0.422686 0.270891
Si Si3 0.929472 0.151097 0.393937
Si Si4 0.081532 0.283694 0.341124
Si Si5 0.421405 0.709997 0.703120
Si Si6 0.432420 0.420223 0.025255
Si Si7 0.931480 0.346695 0.148001
O O1 0.750000 0.075903 0.259760
O O2 0.990495 0.105036 0.332945
O O3 0.993926 0.132281 0.207698
O O4 0.000000 0.000000 0.248021
O O5 0.250000 0.424976 0.263321
O O6 0.018896 0.365540 0.327362
O O7 0.000000 0.500000 0.292234
O O8 0.996708 0.399715 0.202855
O O9 0.750000 0.150175 0.394582
O O10 0.993102 0.113888 0.458315
O O11 0.978821 0.236223 0.389592
O O12 0.250000 0.287536 0.371770
O O13 0.087079 0.245009 0.272786
O O14 0.250000 0.700007 0.675190
O O15 0.519629 0.762793 0.657609
O O16 0.500000 0.500000 0.033105
O O17 0.250000 0.423287 0.028797
O O18 0.497800 0.369686 0.080681
O O19 0.750000 0.353651 0.147242
#
# Coordination Sequence:
#
# PCOD8182551 Si02
#       7
#     8   8   8   8   8   8   8
#     4  10  18  29  46  71  98 125 156 193 235 279
#     4  10  19  31  47  70  96 124 154 191 235 278
#     4   9  19  32  47  66  92 125 160 193 229 272
#     4   8  16  29  46  66  90 118 151 188 231 277
#     4   9  17  31  48  67  91 121 154 192 234 280
#     4  11  22  35  48  67  94 126 161 195 228 269
#     4  11  21  33  48  67  92 125 159 194 232 277
#
# _framework density 16.798912999999999
#
# number of rings (size 3 to 8) (size 9 to 14) (size 15 to 20)
#    0.000    2.286    0.000    4.714    0.000    5.714 
#    0.000    0.000    0.000    0.000    0.000    1.000 
#    0.000    4.571    0.000    0.000    0.000    0.000 
#
# Total GULP energy -347138.248242 kJ/mol
# GULP energy per Si atom -12397.794580 kJ/mol
# Density = 1.676068 g / cm^3
# Si number density = 16.798913 Si / 1000 Ang^3
#
#
#
# Elastic Constant Matrix: (Units=GPa)
#
#
# Indices 1 2 3 4 5 6 
#
# 1 78.8759 40.7506 25.2425 0.0000 0.0000 0.0000
# 2 40.7506 145.8324 45.9867 0.0000 0.0000 0.0000
# 3 25.2425 45.9867 56.2434 0.0000 0.0000 0.0000
# 4 0.0000 0.0000 0.0000 24.7345 0.0000 0.0000
# 5 0.0000 0.0000 0.0000 0.0000 20.4505 0.0000
# 6 0.0000 0.0000 0.0000 0.0000 0.0000 34.2800
#
#
#
# Elastic Compliance Matrix: (Units=1/GPa)
#
#
# Indices 1 2 3 4 5 6 
#
# 1 0.015672 -0.002912 -0.004653 0.000000 0.000000 0.000000
# 2 -0.002912 0.009781 -0.006690 0.000000 0.000000 0.000000
# 3 -0.004653 -0.006690 0.025338 0.000000 0.000000 0.000000
# 4 0.000000 0.000000 0.000000 0.040429 0.000000 0.000000
# 5 0.000000 0.000000 0.000000 0.000000 0.048899 0.000000
# 6 0.000000 0.000000 0.000000 0.000000 0.000000 0.029172
#
#
# Mechanical properties :
#
#
# Convention : Reuss Voigt Hill
#
# Bulk Modulus (GPa) = 44.88144 56.10125 50.49135
# Shear Modulus (GPa) = 24.36344 27.15780 25.76062
#
# Velocity S-wave (km/s) = 3.81241 4.02511 3.92020
# Velocity P-wave (km/s) = 6.79369 7.42093 7.11423
#
# Compressibility (1/GPa) = 0.02228092
#
# Stress axis : x y z
#
# Youngs Moduli (GPa) = 63.80986 102.24402 39.46653
#
# Poissons Ratio (x) = 0.29774 0.18362
# Poissons Ratio (y) = 0.18582 0.26403
# Poissons Ratio (z) = 0.29688 0.68401
#
# Static dielectric constant tensor:
#      x y z
#    x 3.301480 0.000000 0.000000 
#    y 0.000000 3.424280 0.000000 
#    z 0.000000 0.000000 3.026500 
# 
# 
# High freq. dielectric constant tensor:
#      x y z
#    x 1.659530 0.000000 0.000000 
#    y 0.000000 1.654240 0.000000 
#    z 0.000000 0.000000 1.604520 
# 
# From -- ./inp_files/22307.got.cif
#   From: 2010.03.12/outbox.cif.g09.slc.cpg/sg40_12_cif.got.tgz:22307.got - 2010.04.14 01:38:03.
