data_PCOD8182809
_publ_section_title
;
Structure prediction by ZEFSAII (Michael W. Deem and Ramdas Pophale) SiO2 
 PCOD8182809
Probable space group: A M A 2
;
_chemical_formula_sum "Si O2"
_cell_formula_units_Z 64
_cell_length_a 17.578026
_cell_length_b 12.002062
_cell_length_c 15.683127
_cell_angle_alpha 90.000000
_cell_angle_beta 90.000000
_cell_angle_gamma 90.000000
_cell_volume 3308.709419
_symmetry_space_group_name_H-M "A M A 2"
_symmetry_group_IT_number 40
_symmetry_cell_setting 'orthorhombic'
loop_
_space_group_symop_operation_xyz
x,y,z
-x,-y,z
1/2-x,y,z
1/2+x,-y,z
x,1/2+y,1/2+z
-x,1/2-y,1/2+z
1/2-x,1/2+y,1/2+z
1/2+x,1/2-y,1/2+z
loop_
_atom_site_type_symbol
_atom_site_label
_atom_site_fract_x
_atom_site_fract_y
_atom_site_fract_z
Si Si1 0.085425 0.458652 0.849700
Si Si2 0.336069 0.040650 0.191647
Si Si3 0.662005 0.606877 0.097005
Si Si4 0.410423 0.746431 0.457097
Si Si5 0.335548 0.282231 0.266356
Si Si6 0.662105 0.974490 0.996811
Si Si7 0.581834 0.691267 0.437913
Si Si8 0.162661 0.100457 0.490543
O O1 0.108377 0.467084 0.750745
O O2 0.096974 0.330553 0.877410
O O3 0.141082 0.538157 0.903100
O O4 0.000000 0.500000 0.866347
O O5 0.250000 0.996669 0.202655
O O6 0.341864 0.169719 0.213432
O O7 0.363748 0.029491 0.094938
O O8 0.750000 0.637748 0.074757
O O9 0.646818 0.619650 0.197971
O O10 0.605782 0.686136 0.043909
O O11 0.645073 0.478663 0.071473
O O12 0.352142 0.643584 0.449918
O O13 0.493144 0.691771 0.456578
O O14 0.250000 0.297046 0.304381
O O15 0.398206 0.279501 0.340044
O O16 0.750000 0.004856 0.986958
O O17 0.612778 0.068730 0.952637
O O18 0.617881 0.783859 0.500783
O O19 0.250000 0.132690 0.484023
#
# Coordination Sequence:
#
# PCOD8182809 Si02
#       8
#     8   8   8   8   8   8   8   8
#     4  11  20  35  59  91 125 152 194 252 307 359
#     4  10  20  36  59  88 115 151 205 250 293 357
#     4   9  19  35  62  90 115 153 204 250 290 351
#     4  11  22  38  59  88 126 155 198 245 312 366
#     4  10  18  36  62  88 116 157 209 248 285 358
#     4  11  24  42  62  84 117 163 207 249 302 366
#     4  12  23  38  59  90 122 157 197 249 309 363
#     4  10  19  34  58  88 117 154 198 245 296 350
#
# _framework density 19.342890000000001
#
# number of rings (size 3 to 8) (size 9 to 14) (size 15 to 20)
#    0.000    1.500    3.750    2.250    0.000    2.500 
#    2.250    1.250    2.750    1.500    0.000    0.000 
#    0.000    0.000    0.000    0.000    0.000    0.000 
#
# Total GULP energy -396848.461976 kJ/mol
# GULP energy per Si atom -12401.514437 kJ/mol
# Density = 1.929886 g / cm^3
# Si number density = 19.342890 Si / 1000 Ang^3
#
#
#
# Elastic Constant Matrix: (Units=GPa)
#
#
# Indices 1 2 3 4 5 6 
#
# 1 51.7153 6.3343 21.6018 0.0000 0.0000 0.0000
# 2 6.3343 94.3959 22.1721 0.0000 0.0000 0.0000
# 3 21.6018 22.1721 65.8258 0.0000 0.0000 0.0000
# 4 0.0000 0.0000 0.0000 30.8416 0.0000 0.0000
# 5 0.0000 0.0000 0.0000 0.0000 21.1510 0.0000
# 6 0.0000 0.0000 0.0000 0.0000 0.0000 31.3390
#
#
#
# Elastic Compliance Matrix: (Units=1/GPa)
#
#
# Indices 1 2 3 4 5 6 
#
# 1 0.022413 0.000243 -0.007437 0.000000 0.000000 0.000000
# 2 0.000243 0.011506 -0.003955 0.000000 0.000000 0.000000
# 3 -0.007437 -0.003955 0.018965 0.000000 0.000000 0.000000
# 4 0.000000 0.000000 0.000000 0.032424 0.000000 0.000000
# 5 0.000000 0.000000 0.000000 0.000000 0.047279 0.000000
# 6 0.000000 0.000000 0.000000 0.000000 0.000000 0.031909
#
#
# Mechanical properties :
#
#
# Convention : Reuss Voigt Hill
#
# Bulk Modulus (GPa) = 32.69576 34.68372 33.68974
# Shear Modulus (GPa) = 25.38190 27.45489 26.41839
#
# Velocity S-wave (km/s) = 3.62637 3.77155 3.69967
# Velocity P-wave (km/s) = 5.87146 6.07750 5.97537
#
# Compressibility (1/GPa) = 0.03058500
#
# Stress axis : x y z
#
# Youngs Moduli (GPa) = 44.61614 86.90778 52.73002
#
# Poissons Ratio (x) = -0.02110 0.39216
# Poissons Ratio (y) = -0.01083 0.20857
# Poissons Ratio (z) = 0.33182 0.34376
#
# Static dielectric constant tensor:
#      x y z
#    x 3.534590 0.000000 0.000000 
#    y 0.000000 3.624000 0.000000 
#    z 0.000000 0.000000 3.437510 
# 
# 
# High freq. dielectric constant tensor:
#      x y z
#    x 1.751940 0.000000 0.000000 
#    y 0.000000 1.753140 0.000000 
#    z 0.000000 0.000000 1.736660 
# 
# From -- ./inp_files/17867.got.cif
#   From: 2010.03.12/outbox.cif.g09.slc.cpg/sg40_9_cif.got.tgz:17867.got - 2010.04.14 01:38:03.
