data_PCOD8182629
_publ_section_title
;
Structure prediction by ZEFSAII (Michael W. Deem and Ramdas Pophale) SiO2 
 PCOD8182629
Probable space group: A M A 2
;
_chemical_formula_sum "Si O2"
_cell_formula_units_Z 52
_cell_length_a 9.107962
_cell_length_b 10.729513
_cell_length_c 27.000317
_cell_angle_alpha 90.000000
_cell_angle_beta 90.000000
_cell_angle_gamma 90.000000
_cell_volume 2638.578889
_symmetry_space_group_name_H-M "A M A 2"
_symmetry_group_IT_number 40
_symmetry_cell_setting 'orthorhombic'
loop_
_space_group_symop_operation_xyz
x,y,z
-x,-y,z
1/2-x,y,z
1/2+x,-y,z
x,1/2+y,1/2+z
-x,1/2-y,1/2+z
1/2-x,1/2+y,1/2+z
1/2+x,1/2-y,1/2+z
loop_
_atom_site_type_symbol
_atom_site_label
_atom_site_fract_x
_atom_site_fract_y
_atom_site_fract_z
Si Si1 0.425104 0.875510 0.625000
Si Si2 0.419439 0.375241 0.784946
Si Si3 0.086563 0.765954 0.384494
Si Si4 0.074570 0.365910 0.672798
Si Si5 0.908642 0.346575 0.029660
Si Si6 0.416714 0.878710 0.963714
Si Si7 0.500000 0.000000 0.442340
O O1 0.250000 0.874414 0.634568
O O2 0.500023 0.746890 0.642698
O O3 0.458825 0.885733 0.566053
O O4 0.500000 0.000000 0.649753
O O5 0.500000 0.500000 0.799731
O O6 0.250000 0.408520 0.788166
O O7 0.460278 0.271840 0.826376
O O8 0.460321 0.330445 0.729792
O O9 0.250000 0.710919 0.389482
O O10 0.976466 0.675356 0.412178
O O11 0.087921 0.904469 0.407829
O O12 0.250000 0.373181 0.662226
O O13 0.000000 0.500000 0.659510
O O14 0.750000 0.354705 0.057478
O O15 0.939966 0.207386 0.011439
O O16 0.892140 0.427024 0.979559
O O17 0.250000 0.911107 0.953188
O O18 0.500000 0.000000 0.980274
#
# Coordination Sequence:
#
# PCOD8182629 Si02
#       7
#     8   8   8   8   8   8   4
#     4  12  25  41  63  89 120 158 202 254 312 366
#     4   9  18  33  56  86 117 151 190 240 293 348
#     4  10  19  32  54  84 117 151 187 230 282 340
#     4  10  21  40  64  90 122 157 202 253 307 367
#     4  10  21  36  56  83 114 148 189 235 287 348
#     4  10  22  38  55  78 111 152 195 237 284 344
#     4  10  18  30  56  86 120 146 184 220 284 336
#
# _framework density 19.707578000000002
#
# number of rings (size 3 to 8) (size 9 to 14) (size 15 to 20)
#    0.000    1.846    1.538    2.769    0.000    5.538 
#    0.000    2.308    0.000    0.000    0.000    0.000 
#    0.000    0.000    0.000    0.000    0.000    0.000 
#
# Total GULP energy -322199.912549 kJ/mol
# GULP energy per Si atom -12392.304329 kJ/mol
# Density = 1.966272 g / cm^3
# Si number density = 19.707578 Si / 1000 Ang^3
#
#
#
# Elastic Constant Matrix: (Units=GPa)
#
#
# Indices 1 2 3 4 5 6 
#
# 1 119.8597 51.4104 27.4428 0.0000 0.0000 0.0000
# 2 51.4104 113.4089 21.9881 0.0000 0.0000 0.0000
# 3 27.4428 21.9881 63.3316 0.0000 0.0000 0.0000
# 4 0.0000 0.0000 0.0000 98.1770 0.0000 0.0000
# 5 0.0000 0.0000 0.0000 0.0000 33.7086 0.0000
# 6 0.0000 0.0000 0.0000 0.0000 0.0000 30.0191
#
#
#
# Elastic Compliance Matrix: (Units=1/GPa)
#
#
# Indices 1 2 3 4 5 6 
#
# 1 0.010943 -0.004333 -0.003237 0.000000 0.000000 0.000000
# 2 -0.004333 0.011170 -0.002000 0.000000 0.000000 0.000000
# 3 -0.003237 -0.002000 0.017887 0.000000 0.000000 0.000000
# 4 0.000000 0.000000 0.000000 0.010186 0.000000 0.000000
# 5 0.000000 0.000000 0.000000 0.000000 0.029666 0.000000
# 6 0.000000 0.000000 0.000000 0.000000 0.000000 0.033312
#
#
# Mechanical properties :
#
#
# Convention : Reuss Voigt Hill
#
# Bulk Modulus (GPa) = 47.94269 55.36477 51.65373
# Shear Modulus (GPa) = 35.90461 45.43152 40.66806
#
# Velocity S-wave (km/s) = 4.27297 4.80654 4.54759
# Velocity P-wave (km/s) = 6.98027 7.67841 7.33765
#
# Compressibility (1/GPa) = 0.02085824
#
# Stress axis : x y z
#
# Youngs Moduli (GPa) = 91.38442 89.52792 55.90564
#
# Poissons Ratio (x) = 0.38792 0.18099
# Poissons Ratio (y) = 0.39596 0.11184
# Poissons Ratio (z) = 0.29585 0.17910
#
# Static dielectric constant tensor:
#      x y z
#    x 3.562140 0.000000 0.000000 
#    y 0.000000 3.321060 0.000000 
#    z 0.000000 0.000000 3.671760 
# 
# 
# High freq. dielectric constant tensor:
#      x y z
#    x 1.773470 0.000000 0.000000 
#    y 0.000000 1.762260 0.000000 
#    z 0.000000 0.000000 1.761220 
# 
# From -- ./inp_files/25335.got.cif
#   From: 2010.03.12/outbox.cif.g09.slc.cpg/sg40_13_cif.got.tgz:25335.got - 2010.04.14 01:38:03.
