data_PCOD8182456
_publ_section_title
;
Structure prediction by ZEFSAII (Michael W. Deem and Ramdas Pophale) SiO2 
 PCOD8182456
Probable space group: A M A 2
;
_chemical_formula_sum "Si O2"
_cell_formula_units_Z 64
_cell_length_a 8.925649
_cell_length_b 26.132731
_cell_length_c 18.454465
_cell_angle_alpha 90.000000
_cell_angle_beta 90.000000
_cell_angle_gamma 90.000000
_cell_volume 4304.533199
_symmetry_space_group_name_H-M "A M A 2"
_symmetry_group_IT_number 40
_symmetry_cell_setting 'orthorhombic'
loop_
_space_group_symop_operation_xyz
x,y,z
-x,-y,z
1/2-x,y,z
1/2+x,-y,z
x,1/2+y,1/2+z
-x,1/2-y,1/2+z
1/2-x,1/2+y,1/2+z
1/2+x,1/2-y,1/2+z
loop_
_atom_site_type_symbol
_atom_site_label
_atom_site_fract_x
_atom_site_fract_y
_atom_site_fract_z
Si Si1 0.079164 0.756446 0.895320
Si Si2 0.573937 0.947998 0.896002
Si Si3 0.421237 0.203369 0.671665
Si Si4 0.079428 0.643760 0.623125
Si Si5 0.418822 0.209972 0.250408
Si Si6 0.572204 0.553135 0.548404
Si Si7 0.923140 0.347293 0.312922
Si Si8 0.424209 0.249850 0.045426
O O1 0.250000 0.765223 0.917492
O O2 0.062285 0.709263 0.837619
O O3 0.022178 0.809019 0.860261
O O4 0.990907 0.741418 0.966621
O O5 0.750000 0.956142 0.909968
O O6 0.541432 0.904968 0.836436
O O7 0.500000 0.000000 0.866371
O O8 0.496280 0.931458 0.970928
O O9 0.250000 0.202834 0.647100
O O10 0.454047 0.253425 0.719212
O O11 0.458861 0.156305 0.726428
O O12 0.518404 0.204690 0.598367
O O13 0.250000 0.628266 0.603762
O O14 0.062943 0.655332 0.709747
O O15 0.032260 0.694312 0.577671
O O16 0.968658 0.597584 0.604942
O O17 0.250000 0.230794 0.231358
O O18 0.500000 0.500000 0.575587
O O19 0.750000 0.547228 0.542914
O O20 0.750000 0.333093 0.327643
O O21 0.250000 0.256155 0.037939
#
# Coordination Sequence:
#
# PCOD8182456 Si02
#       8
#     8   8   8   8   8   8   8   8
#     4  10  18  27  42  63  84 109 142 172 198 239
#     4  10  19  31  44  59  81 108 138 171 207 242
#     4   9  16  27  42  59  79 105 138 171 201 240
#     4   9  17  30  44  57  79 110 139 167 203 243
#     4   8  16  29  42  58  82 109 134 165 205 243
#     4  11  21  31  43  60  81 106 138 173 206 238
#     4   9  18  30  43  59  82 111 138 169 210 247
#     4  10  19  29  41  59  85 114 139 168 207 242
#
# _framework density 14.868046
#
# number of rings (size 3 to 8) (size 9 to 14) (size 15 to 20)
#    0.000    2.500    0.000    4.875    0.000    7.500 
#    0.000    0.000    0.000    0.000    0.000    0.000 
#    0.000    1.000    0.000    6.000    0.000    4.250 
#
# Total GULP energy -396589.120087 kJ/mol
# GULP energy per Si atom -12393.410003 kJ/mol
# Density = 1.483421 g / cm^3
# Si number density = 14.868046 Si / 1000 Ang^3
#
#
#
# Elastic Constant Matrix: (Units=GPa)
#
#
# Indices 1 2 3 4 5 6 
#
# 1 86.3119 41.7175 51.7269 0.0000 0.0000 0.0000
# 2 41.7175 74.5566 52.6372 0.0000 0.0000 0.0000
# 3 51.7269 52.6372 113.6110 0.0000 0.0000 0.0000
# 4 0.0000 0.0000 0.0000 26.1045 0.0000 0.0000
# 5 0.0000 0.0000 0.0000 0.0000 24.3604 0.0000
# 6 0.0000 0.0000 0.0000 0.0000 0.0000 19.9449
#
#
#
# Elastic Compliance Matrix: (Units=1/GPa)
#
#
# Indices 1 2 3 4 5 6 
#
# 1 0.017706 -0.006265 -0.005159 0.000000 0.000000 0.000000
# 2 -0.006265 0.022149 -0.007410 0.000000 0.000000 0.000000
# 3 -0.005159 -0.007410 0.014584 0.000000 0.000000 0.000000
# 4 0.000000 0.000000 0.000000 0.038308 0.000000 0.000000
# 5 0.000000 0.000000 0.000000 0.000000 0.041050 0.000000
# 6 0.000000 0.000000 0.000000 0.000000 0.000000 0.050138
#
#
# Mechanical properties :
#
#
# Convention : Reuss Voigt Hill
#
# Bulk Modulus (GPa) = 59.62295 62.96030 61.29163
# Shear Modulus (GPa) = 22.00785 22.64182 22.32484
#
# Velocity S-wave (km/s) = 3.85153 3.90661 3.87916
# Velocity P-wave (km/s) = 7.74387 7.92381 7.83435
#
# Compressibility (1/GPa) = 0.01677206
#
# Stress axis : x y z
#
# Youngs Moduli (GPa) = 56.47947 45.14814 68.56987
#
# Poissons Ratio (x) = 0.28285 0.35373
# Poissons Ratio (y) = 0.35384 0.50808
# Poissons Ratio (z) = 0.29136 0.33453
#
# Static dielectric constant tensor:
#      x y z
#    x 2.996380 0.000000 0.000000 
#    y 0.000000 2.701190 0.000000 
#    z 0.000000 0.000000 3.019510 
# 
# 
# High freq. dielectric constant tensor:
#      x y z
#    x 1.585530 0.000000 0.000000 
#    y 0.000000 1.528290 0.000000 
#    z 0.000000 0.000000 1.562040 
# 
# From -- ./inp_files/19763.got.cif
#   From: 2010.03.12/outbox.cif.g09.slc.cpg/sg40_10_cif.got.tgz:19763.got - 2010.04.14 01:38:03.
