data_PCOD8182664
_publ_section_title
;
Structure prediction by ZEFSAII (Michael W. Deem and Ramdas Pophale) SiO2 
 PCOD8182664
Probable space group: A M A 2
;
_chemical_formula_sum "Si O2"
_cell_formula_units_Z 64
_cell_length_a 9.119383
_cell_length_b 28.710036
_cell_length_c 12.122039
_cell_angle_alpha 90.000000
_cell_angle_beta 90.000000
_cell_angle_gamma 90.000000
_cell_volume 3173.765755
_symmetry_space_group_name_H-M "A M A 2"
_symmetry_group_IT_number 40
_symmetry_cell_setting 'orthorhombic'
loop_
_space_group_symop_operation_xyz
x,y,z
-x,-y,z
1/2-x,y,z
1/2+x,-y,z
x,1/2+y,1/2+z
-x,1/2-y,1/2+z
1/2-x,1/2+y,1/2+z
1/2+x,1/2-y,1/2+z
loop_
_atom_site_type_symbol
_atom_site_label
_atom_site_fract_x
_atom_site_fract_y
_atom_site_fract_z
Si Si1 0.921073 0.311078 0.476290
Si Si2 0.918072 0.952947 0.265989
Si Si3 0.081938 0.572197 0.012762
Si Si4 0.577412 0.161699 0.569770
Si Si5 0.924347 0.778381 0.410575
Si Si6 0.088440 0.460891 0.220433
Si Si7 0.423551 0.652110 0.715285
Si Si8 0.412132 0.862078 0.813917
O O1 0.750000 0.298038 0.471618
O O2 0.971197 0.322896 0.601013
O O3 0.019986 0.274702 0.404317
O O4 0.960732 0.356549 0.404848
O O5 0.750000 0.957106 0.226990
O O6 0.930862 0.954653 0.397817
O O7 0.982651 0.901854 0.225114
O O8 0.000000 0.000000 0.220471
O O9 0.250000 0.580530 0.046227
O O10 0.004951 0.622100 0.000306
O O11 0.998751 0.544346 0.106549
O O12 0.750000 0.157044 0.548857
O O13 0.510167 0.209055 0.523281
O O14 0.541619 0.161635 0.698870
O O15 0.750000 0.780389 0.423306
O O16 0.978675 0.812250 0.311169
O O17 0.250000 0.478070 0.187708
O O18 0.096556 0.416753 0.296745
O O19 0.000000 0.500000 0.289012
O O20 0.250000 0.648448 0.724101
O O21 0.250000 0.844214 0.851097
#
# Coordination Sequence:
#
# PCOD8182664 Si02
#       8
#     8   8   8   8   8   8   8   8
#     4  11  24  41  63  89 116 155 206 252 300 363
#     4  10  20  36  57  84 117 159 201 241 300 360
#     4  10  18  31  53  81 118 158 194 237 296 362
#     4  10  20  35  57  86 120 154 192 240 291 348
#     4  11  22  40  64  88 119 158 194 239 304 367
#     4  10  20  34  54  82 117 157 200 248 303 356
#     4   9  21  43  63  83 122 164 197 245 310 366
#     4   9  21  40  58  81 119 158 193 243 300 349
#
# _framework density 20.165320000000001
#
# number of rings (size 3 to 8) (size 9 to 14) (size 15 to 20)
#    0.000    2.000    1.250    3.000    1.750    5.000 
#    0.000    3.750    0.000    3.000    0.000    0.000 
#    0.000    0.000    0.000    0.000    0.000    0.000 
#
# Total GULP energy -396448.527887 kJ/mol
# GULP energy per Si atom -12389.016496 kJ/mol
# Density = 2.011942 g / cm^3
# Si number density = 20.165320 Si / 1000 Ang^3
#
#
#
# Elastic Constant Matrix: (Units=GPa)
#
#
# Indices 1 2 3 4 5 6 
#
# 1 104.4106 39.8384 44.7170 0.0000 0.0000 0.0000
# 2 39.8384 93.0329 46.2880 0.0000 0.0000 0.0000
# 3 44.7170 46.2880 84.6290 0.0000 0.0000 0.0000
# 4 0.0000 0.0000 0.0000 6.2743 0.0000 0.0000
# 5 0.0000 0.0000 0.0000 0.0000 24.0959 0.0000
# 6 0.0000 0.0000 0.0000 0.0000 0.0000 38.2044
#
#
#
# Elastic Compliance Matrix: (Units=1/GPa)
#
#
# Indices 1 2 3 4 5 6 
#
# 1 0.012938 -0.002939 -0.005229 0.000000 0.000000 0.000000
# 2 -0.002939 0.015435 -0.006889 0.000000 0.000000 0.000000
# 3 -0.005229 -0.006889 0.018348 0.000000 0.000000 0.000000
# 4 0.000000 0.000000 0.000000 0.159380 0.000000 0.000000
# 5 0.000000 0.000000 0.000000 0.000000 0.041501 0.000000
# 6 0.000000 0.000000 0.000000 0.000000 0.000000 0.026175
#
#
# Mechanical properties :
#
#
# Convention : Reuss Voigt Hill
#
# Bulk Modulus (GPa) = 60.21806 60.41770 60.31788
# Shear Modulus (GPa) = 16.15888 23.79687 19.97788
#
# Velocity S-wave (km/s) = 2.83383 3.43897 3.15096
# Velocity P-wave (km/s) = 6.37452 6.76719 6.57379
#
# Compressibility (1/GPa) = 0.01660631
#
# Stress axis : x y z
#
# Youngs Moduli (GPa) = 77.28931 64.78730 54.50331
#
# Poissons Ratio (x) = 0.19039 0.28501
# Poissons Ratio (y) = 0.22713 0.37550
# Poissons Ratio (z) = 0.40416 0.44635
#
# Static dielectric constant tensor:
#      x y z
#    x 3.751090 0.000000 0.000000 
#    y 0.000000 3.363370 0.000000 
#    z 0.000000 0.000000 3.445480 
# 
# 
# High freq. dielectric constant tensor:
#      x y z
#    x 1.780430 0.000000 0.000000 
#    y 0.000000 1.803430 0.000000 
#    z 0.000000 0.000000 1.762450 
# 
# From -- ./inp_files/10671.got.cif
#   From: 2010.03.12/outbox.cif.g09.slc.cpg/sg40_6_cif.got.tgz:10671.got - 2010.04.14 01:38:03.
