data_PCOD8182132
_publ_section_title
;
Structure prediction by ZEFSAII (Michael W. Deem and Ramdas Pophale) SiO2 
 PCOD8182132
Probable space group: A B M 2
;
_chemical_formula_sum "Si O2"
_cell_formula_units_Z 56
_cell_length_a 13.404179
_cell_length_b 17.889058
_cell_length_c 9.517756
_cell_angle_alpha 90.000000
_cell_angle_beta 90.000000
_cell_angle_gamma 90.000000
_cell_volume 2282.244966
_symmetry_space_group_name_H-M "A B M 2"
_symmetry_group_IT_number 39
_symmetry_cell_setting 'orthorhombic'
loop_
_space_group_symop_operation_xyz
x,y,z
-x,-y,z
-x,1/2+y,z
x,1/2-y,z
x,1/2+y,1/2+z
-x,1/2-y,1/2+z
-x,y,1/2+z
x,-y,1/2+z
loop_
_atom_site_type_symbol
_atom_site_label
_atom_site_fract_x
_atom_site_fract_y
_atom_site_fract_z
Si Si1 0.808923 0.831357 0.626970
Si Si2 0.743132 0.525800 0.744964
Si Si3 0.989087 0.335581 0.460207
Si Si4 0.387540 0.531134 0.511576
Si Si5 0.930761 0.070514 0.702736
Si Si6 0.611384 0.666651 0.483901
Si Si7 0.556502 0.337377 0.683975
O O1 0.791734 0.750000 0.698404
O O2 0.801860 0.894698 0.746836
O O3 0.913621 0.835129 0.554126
O O4 0.728655 0.842985 0.502245
O O5 0.684739 0.523898 0.597387
O O6 0.823741 0.458616 0.760389
O O7 0.656498 0.526054 0.857747
O O8 0.952379 0.250000 0.430976
O O9 0.013130 0.376212 0.314071
O O10 0.911461 0.383239 0.556895
O O11 0.500000 0.500000 0.513627
O O12 0.376000 0.614379 0.576329
O O13 0.000000 0.000000 0.665304
O O14 0.579258 0.750000 0.447715
O O15 0.556252 0.645934 0.630614
O O16 0.571280 0.626175 0.340678
O O17 0.587369 0.250000 0.673423
#
# Coordination Sequence:
#
# PCOD8182132 Si02
#       7
#     8   8   8   8   8   8   8
#     4  10  22  43  72 103 142 189 243 301 364 441
#     4  12  28  47  73 106 144 197 247 295 382 439
#     4  11  25  47  77 111 148 192 239 303 371 437
#     4  12  29  46  70 102 145 189 245 313 363 442
#     4  12  26  47  77 107 151 193 245 303 368 452
#     4   9  20  38  64  97 136 184 241 298 364 434
#     4  10  23  41  66  96 134 187 244 308 369 432
#
# _framework density 24.537243
#
# number of rings (size 3 to 8) (size 9 to 14) (size 15 to 20)
#    0.000    1.143    1.429    3.000   12.000    0.571 
#    0.000    0.714    0.000    0.857    0.000    0.000 
#    0.000    0.000    0.000    0.000    0.000    0.000 
#
# Total GULP energy -346965.131598 kJ/mol
# GULP energy per Si atom -12391.611843 kJ/mol
# Density = 2.448140 g / cm^3
# Si number density = 24.537243 Si / 1000 Ang^3
#
#
#
# Elastic Constant Matrix: (Units=GPa)
#
#
# Indices 1 2 3 4 5 6 
#
# 1 74.3031 1.9045 17.5850 0.0000 0.0000 0.0000
# 2 1.9045 134.9564 28.2744 0.0000 0.0000 0.0000
# 3 17.5850 28.2744 113.6790 0.0000 0.0000 0.0000
# 4 0.0000 0.0000 0.0000 29.6524 0.0000 0.0000
# 5 0.0000 0.0000 0.0000 0.0000 32.4232 0.0000
# 6 0.0000 0.0000 0.0000 0.0000 0.0000 26.1061
#
#
#
# Elastic Compliance Matrix: (Units=1/GPa)
#
#
# Indices 1 2 3 4 5 6 
#
# 1 0.013979 0.000270 -0.002230 0.000000 0.000000 0.000000
# 2 0.000270 0.007822 -0.001987 0.000000 0.000000 0.000000
# 3 -0.002230 -0.001987 0.009636 0.000000 0.000000 0.000000
# 4 0.000000 0.000000 0.000000 0.033724 0.000000 0.000000
# 5 0.000000 0.000000 0.000000 0.000000 0.030842 0.000000
# 6 0.000000 0.000000 0.000000 0.000000 0.000000 0.038305
#
#
# Mechanical properties :
#
#
# Convention : Reuss Voigt Hill
#
# Bulk Modulus (GPa) = 42.47495 46.49625 44.48560
# Shear Modulus (GPa) = 33.32209 35.98131 34.65170
#
# Velocity S-wave (km/s) = 3.68913 3.83351 3.76201
# Velocity P-wave (km/s) = 5.95770 6.21167 6.08601
#
# Compressibility (1/GPa) = 0.02354329
#
# Stress axis : x y z
#
# Youngs Moduli (GPa) = 71.53517 127.83876 103.77884
#
# Poissons Ratio (x) = -0.03449 0.23138
# Poissons Ratio (y) = -0.01930 0.20624
# Poissons Ratio (z) = 0.15949 0.25406
#
# Static dielectric constant tensor:
#      x y z
#    x 4.379340 0.000000 0.000000 
#    y 0.000000 5.262800 0.000000 
#    z 0.000000 0.000000 4.376890 
# 
# 
# High freq. dielectric constant tensor:
#      x y z
#    x 1.966050 0.000000 0.000000 
#    y 0.000000 2.002230 0.000000 
#    z 0.000000 0.000000 1.970340 
# 
# From -- ./inp_files/3398.got.cif
#   From: 2010.03.12/outbox.cif.g09.slc.cpg/sg39_2_cif.got.tgz:3398.got - 2010.04.14 02:53:20.
