data_PCOD8182682
_publ_section_title
;
Structure prediction by ZEFSAII (Michael W. Deem and Ramdas Pophale) SiO2 
 PCOD8182682
Probable space group: A M A 2
;
_chemical_formula_sum "Si O2"
_cell_formula_units_Z 56
_cell_length_a 23.405332
_cell_length_b 4.993521
_cell_length_c 25.152097
_cell_angle_alpha 90.000000
_cell_angle_beta 90.000000
_cell_angle_gamma 90.000000
_cell_volume 2939.651761
_symmetry_space_group_name_H-M "A M A 2"
_symmetry_group_IT_number 40
_symmetry_cell_setting 'orthorhombic'
loop_
_space_group_symop_operation_xyz
x,y,z
-x,-y,z
1/2-x,y,z
1/2+x,-y,z
x,1/2+y,1/2+z
-x,1/2-y,1/2+z
1/2-x,1/2+y,1/2+z
1/2+x,1/2-y,1/2+z
loop_
_atom_site_type_symbol
_atom_site_label
_atom_site_fract_x
_atom_site_fract_y
_atom_site_fract_z
Si Si1 0.815731 0.523303 0.595420
Si Si2 0.961747 0.745229 0.841594
Si Si3 0.817595 0.343230 0.708338
Si Si4 0.187394 0.912358 0.873544
Si Si5 0.354543 0.644912 0.269596
Si Si6 0.631694 0.587053 0.917361
Si Si7 0.316959 0.489431 0.027230
O O1 0.750000 0.566978 0.608804
O O2 0.843597 0.442274 0.651773
O O3 0.825732 0.302167 0.550832
O O4 0.839486 0.799956 0.571283
O O5 0.917263 0.817286 0.794814
O O6 0.931626 0.670680 0.898063
O O7 0.000000 0.500000 0.821138
O O8 0.000000 0.000000 0.854179
O O9 0.750000 0.277053 0.705571
O O10 0.829840 0.570708 0.751680
O O11 0.852683 0.071885 0.721930
O O12 0.250000 0.813199 0.889388
O O13 0.147104 0.653941 0.877273
O O14 0.187281 0.025418 0.814095
O O15 0.171242 0.151428 0.913393
O O16 0.640373 0.479462 0.977075
O O17 0.250000 0.542777 0.012057
#
# Coordination Sequence:
#
# PCOD8182682 Si02
#       7
#     8   8   8   8   8   8   8
#     4   9  19  31  49  75 112 151 180 206 245 299
#     4  11  23  41  57  76 105 136 181 238 278 323
#     4  11  20  34  53  82 117 149 179 214 255 319
#     4  11  20  32  48  78 115 143 168 210 260 327
#     4  11  22  34  54  79 105 144 184 216 269 324
#     4  11  22  34  54  79 105 144 184 216 269 324
#     4  10  18  32  50  77 111 145 178 212 250 310
#
# _framework density 19.049873999999999
#
# number of rings (size 3 to 8) (size 9 to 14) (size 15 to 20)
#    0.000    1.429    0.000    8.571    0.000    3.429 
#    0.000    0.000    0.000    0.000    0.000   15.000 
#    0.000    0.000    0.000    0.000    0.000    0.000 
#
# Total GULP energy -347139.279993 kJ/mol
# GULP energy per Si atom -12397.831428 kJ/mol
# Density = 1.900652 g / cm^3
# Si number density = 19.049874 Si / 1000 Ang^3
#
#
#
# Elastic Constant Matrix: (Units=GPa)
#
#
# Indices 1 2 3 4 5 6 
#
# 1 77.7042 37.3635 37.7077 0.0000 0.0000 0.0000
# 2 37.3635 106.5147 14.5328 0.0000 0.0000 0.0000
# 3 37.7077 14.5328 85.1284 0.0000 0.0000 0.0000
# 4 0.0000 0.0000 0.0000 32.9609 0.0000 0.0000
# 5 0.0000 0.0000 0.0000 0.0000 -3.9362 0.0000
# 6 0.0000 0.0000 0.0000 0.0000 0.0000 36.2179
#
#
#
# Elastic Compliance Matrix: (Units=1/GPa)
#
#
# Indices 1 2 3 4 5 6 
#
# 1 0.019302 -0.005738 -0.007570 0.000000 0.000000 0.000000
# 2 -0.005738 0.011318 0.000609 0.000000 0.000000 0.000000
# 3 -0.007570 0.000609 0.014996 0.000000 0.000000 0.000000
# 4 0.000000 0.000000 0.000000 0.030339 0.000000 0.000000
# 5 0.000000 0.000000 0.000000 0.000000 -0.254053 0.000000
# 6 0.000000 0.000000 0.000000 0.000000 0.000000 0.027611
#
#
# Mechanical properties :
#
#
# Convention : Reuss Voigt Hill
#
# Bulk Modulus (GPa) = 49.45925 49.83948 49.64937
# Shear Modulus (GPa) = -42.24744 25.03142 -8.60801
#
# Velocity S-wave (km/s) = -4.71439 3.62884 -2.12802
# Velocity P-wave (km/s) = 1.90119 6.61645 4.48123
#
# Compressibility (1/GPa) = 0.02021867
#
# Stress axis : x y z
#
# Youngs Moduli (GPa) = 51.80811 88.35497 66.68367
#
# Poissons Ratio (x) = 0.50697 0.50481
# Poissons Ratio (y) = 0.29727 -0.04064
# Poissons Ratio (z) = 0.39220 -0.05385
#
# Static dielectric constant tensor:
#      x y z
#    x 3.187500 0.000000 0.000000 
#    y 0.000000 3.719890 0.000000 
#    z 0.000000 0.000000 3.578770 
# 
# 
# High freq. dielectric constant tensor:
#      x y z
#    x 1.688650 0.000000 0.000000 
#    y 0.000000 1.770620 0.000000 
#    z 0.000000 0.000000 1.738080 
# 
# From -- ./inp_files/24967.got.cif
#   From: 2010.03.12/outbox.cif.g09.slc.cpg/sg40_13_cif.got.tgz:24967.got - 2010.04.14 01:38:03.
