data_PCOD8182006
_publ_section_title
;
Structure prediction by ZEFSAII (Michael W. Deem and Ramdas Pophale) SiO2 
 PCOD8182006
Probable space group: A B M 2
;
_chemical_formula_sum "Si O2"
_cell_formula_units_Z 64
_cell_length_a 20.398727
_cell_length_b 15.460690
_cell_length_c 9.829405
_cell_angle_alpha 90.000000
_cell_angle_beta 90.000000
_cell_angle_gamma 90.000000
_cell_volume 3099.981968
_symmetry_space_group_name_H-M "A B M 2"
_symmetry_group_IT_number 39
_symmetry_cell_setting 'orthorhombic'
loop_
_space_group_symop_operation_xyz
x,y,z
-x,-y,z
-x,1/2+y,z
x,1/2-y,z
x,1/2+y,1/2+z
-x,1/2-y,1/2+z
-x,y,1/2+z
x,-y,1/2+z
loop_
_atom_site_type_symbol
_atom_site_label
_atom_site_fract_x
_atom_site_fract_y
_atom_site_fract_z
Si Si1 0.151088 0.346636 0.384580
Si Si2 0.073581 0.603057 0.635764
Si Si3 0.540681 0.586524 0.046509
Si Si4 0.658144 0.507521 0.668477
Si Si5 0.437678 0.346635 0.744451
Si Si6 0.254422 0.505501 0.917931
Si Si7 0.843624 0.151657 0.385794
Si Si8 0.075389 0.599153 0.138427
O O1 0.175572 0.250000 0.421451
O O2 0.119450 0.343128 0.235817
O O3 0.210996 0.412038 0.384480
O O4 0.095018 0.380152 0.484903
O O5 0.097197 0.624093 0.484193
O O6 0.081274 0.502150 0.667625
O O7 0.998680 0.632484 0.655880
O O8 0.500000 0.500000 0.022730
O O9 0.611835 0.568626 0.112166
O O10 0.503810 0.646808 0.155324
O O11 0.547755 0.630340 0.900464
O O12 0.618164 0.596298 0.674512
O O13 0.682600 0.487935 0.820469
O O14 0.721636 0.515389 0.572686
O O15 0.410807 0.250000 0.739337
O O16 0.217239 0.414062 0.900260
O O17 0.819151 0.250000 0.413640
O O18 0.874270 0.148684 0.235707
#
# Coordination Sequence:
#
# PCOD8182006 Si02
#       8
#     8   8   8   8   8   8   8   8
#     4  12  25  42  65  92 125 167 217 274 331 387
#     4  11  22  41  66  94 127 165 208 272 343 407
#     4  10  21  42  68 100 132 174 208 252 321 376
#     4  11  24  42  70  90 129 182 220 253 316 380
#     4  11  23  41  69 106 138 164 209 268 316 371
#     4  12  24  45  64  90 132 176 222 272 312 375
#     4  12  25  42  66  93 125 171 219 271 334 393
#     4  11  22  41  67  93 126 165 210 270 346 404
#
# _framework density 20.645281000000001
#
# number of rings (size 3 to 8) (size 9 to 14) (size 15 to 20)
#    0.000    0.750    3.750    4.500    1.750    6.000 
#    0.000    1.250    0.000    0.000    0.000    0.000 
#    0.000    0.000    0.000    0.000    0.000    0.000 
#
# Total GULP energy -396954.295351 kJ/mol
# GULP energy per Si atom -12404.821730 kJ/mol
# Density = 2.059829 g / cm^3
# Si number density = 20.645281 Si / 1000 Ang^3
#
#
#
# Elastic Constant Matrix: (Units=GPa)
#
#
# Indices 1 2 3 4 5 6 
#
# 1 95.5398 45.9040 25.9648 0.0000 0.0000 0.0000
# 2 45.9040 110.0809 22.7280 0.0000 0.0000 0.0000
# 3 25.9648 22.7280 89.2306 0.0000 0.0000 0.0000
# 4 0.0000 0.0000 0.0000 17.9418 0.0000 0.0000
# 5 0.0000 0.0000 0.0000 0.0000 49.1323 0.0000
# 6 0.0000 0.0000 0.0000 0.0000 0.0000 5.2277
#
#
#
# Elastic Compliance Matrix: (Units=1/GPa)
#
#
# Indices 1 2 3 4 5 6 
#
# 1 0.013665 -0.005148 -0.002665 0.000000 0.000000 0.000000
# 2 -0.005148 0.011528 -0.001438 0.000000 0.000000 0.000000
# 3 -0.002665 -0.001438 0.012349 0.000000 0.000000 0.000000
# 4 0.000000 0.000000 0.000000 0.055736 0.000000 0.000000
# 5 0.000000 0.000000 0.000000 0.000000 0.020353 0.000000
# 6 0.000000 0.000000 0.000000 0.000000 0.000000 0.191289
#
#
# Mechanical properties :
#
#
# Convention : Reuss Voigt Hill
#
# Bulk Modulus (GPa) = 52.52435 53.78277 53.15356
# Shear Modulus (GPa) = 15.16216 27.81065 21.48641
#
# Velocity S-wave (km/s) = 2.71295 3.67423 3.22955
# Velocity P-wave (km/s) = 5.94222 6.64134 6.30148
#
# Compressibility (1/GPa) = 0.01903879
#
# Stress axis : x y z
#
# Youngs Moduli (GPa) = 73.18230 86.74624 80.97996
#
# Poissons Ratio (x) = 0.44656 0.21581
# Poissons Ratio (y) = 0.37674 0.11647
# Poissons Ratio (z) = 0.19503 0.12477
#
# Static dielectric constant tensor:
#      x y z
#    x 3.733470 0.000000 0.000000 
#    y 0.000000 3.730720 0.000000 
#    z 0.000000 0.000000 3.873100 
# 
# 
# High freq. dielectric constant tensor:
#      x y z
#    x 1.804990 0.000000 0.000000 
#    y 0.000000 1.805260 0.000000 
#    z 0.000000 0.000000 1.825590 
# 
# From -- ./inp_files/4101.got.cif
#   From: 2010.03.12/outbox.cif.g09.slc.cpg/sg39_3_cif.got.tgz:4101.got - 2010.04.14 02:53:20.
