data_PCOD8182245
_publ_section_title
;
Structure prediction by ZEFSAII (Michael W. Deem and Ramdas Pophale) SiO2 
 PCOD8182245
Probable space group: A B M 2
;
_chemical_formula_sum "Si O2"
_cell_formula_units_Z 64
_cell_length_a 11.395234
_cell_length_b 30.336961
_cell_length_c 8.886342
_cell_angle_alpha 90.000000
_cell_angle_beta 90.000000
_cell_angle_gamma 90.000000
_cell_volume 3071.979722
_symmetry_space_group_name_H-M "A B M 2"
_symmetry_group_IT_number 39
_symmetry_cell_setting 'orthorhombic'
loop_
_space_group_symop_operation_xyz
x,y,z
-x,-y,z
-x,1/2+y,z
x,1/2-y,z
x,1/2+y,1/2+z
-x,1/2-y,1/2+z
-x,y,1/2+z
x,-y,1/2+z
loop_
_atom_site_type_symbol
_atom_site_label
_atom_site_fract_x
_atom_site_fract_y
_atom_site_fract_z
Si Si1 0.230776 0.597595 0.105330
Si Si2 0.752077 0.000603 0.667063
Si Si3 0.598375 0.971008 0.915002
Si Si4 0.441911 0.377023 0.811728
Si Si5 0.875306 0.699758 0.059760
Si Si6 0.658614 0.148973 0.613870
Si Si7 0.962698 0.650277 0.768500
Si Si8 0.823192 0.412223 0.776655
O O1 0.189571 0.547761 0.149625
O O2 0.351850 0.613377 0.177661
O O3 0.134272 0.632752 0.153990
O O4 0.250395 0.598525 0.927061
O O5 0.717092 0.025772 0.513228
O O6 0.838664 0.035042 0.752271
O O7 0.630695 0.993023 0.755994
O O8 0.538854 0.923199 0.898015
O O9 0.500000 0.000000 0.996079
O O10 0.555818 0.353525 0.739177
O O11 0.391277 0.346428 0.944389
O O12 0.885698 0.750000 0.006671
O O13 0.901782 0.666802 0.921222
O O14 0.744670 0.691342 0.128555
O O15 0.969283 0.690849 0.191542
O O16 0.745864 0.107186 0.638446
O O17 0.049797 0.609405 0.797487
#
# Coordination Sequence:
#
# PCOD8182245 Si02
#       8
#     8   8   8   8   8   8   8   8
#     4  11  23  41  61  94 132 179 229 267 320 392
#     4  11  22  35  54  86 129 175 225 272 311 364
#     4  11  22  33  52  83 122 172 228 271 306 357
#     4  11  23  37  62  90 133 176 217 262 321 386
#     4  11  24  46  74 102 129 159 215 279 341 415
#     4  11  23  40  66  97 131 174 214 264 332 390
#     4  11  23  43  72  98 126 171 214 274 343 398
#     4  11  22  41  61  90 136 172 228 277 318 382
#
# _framework density 20.833469999999998
#
# number of rings (size 3 to 8) (size 9 to 14) (size 15 to 20)
#    0.000    1.000    5.000    2.250    3.500    0.500 
#    0.000    1.875    0.000    0.000    0.000    0.000 
#    0.000    0.000    0.000    0.000    0.000    0.000 
#
# Total GULP energy -396566.682132 kJ/mol
# GULP energy per Si atom -12392.708817 kJ/mol
# Density = 2.078605 g / cm^3
# Si number density = 20.833470 Si / 1000 Ang^3
#
#
#
# Elastic Constant Matrix: (Units=GPa)
#
#
# Indices 1 2 3 4 5 6 
#
# 1 97.9676 46.6277 30.1032 0.0000 0.0000 0.0000
# 2 46.6277 90.8750 18.5753 0.0000 0.0000 0.0000
# 3 30.1032 18.5753 85.7280 0.0000 0.0000 0.0000
# 4 0.0000 0.0000 0.0000 23.4131 0.0000 0.0000
# 5 0.0000 0.0000 0.0000 0.0000 34.7392 0.0000
# 6 0.0000 0.0000 0.0000 0.0000 0.0000 21.9269
#
#
#
# Elastic Compliance Matrix: (Units=1/GPa)
#
#
# Indices 1 2 3 4 5 6 
#
# 1 0.014519 -0.006704 -0.003645 0.000000 0.000000 0.000000
# 2 -0.006704 0.014610 -0.000811 0.000000 0.000000 0.000000
# 3 -0.003645 -0.000811 0.013121 0.000000 0.000000 0.000000
# 4 0.000000 0.000000 0.000000 0.042711 0.000000 0.000000
# 5 0.000000 0.000000 0.000000 0.000000 0.028786 0.000000
# 6 0.000000 0.000000 0.000000 0.000000 0.000000 0.045606
#
#
# Mechanical properties :
#
#
# Convention : Reuss Voigt Hill
#
# Bulk Modulus (GPa) = 50.18369 51.68698 50.93534
# Shear Modulus (GPa) = 26.55099 27.96681 27.25890
#
# Velocity S-wave (km/s) = 3.57380 3.66785 3.62113
# Velocity P-wave (km/s) = 6.41636 6.54224 6.47961
#
# Compressibility (1/GPa) = 0.01992679
#
# Stress axis : x y z
#
# Youngs Moduli (GPa) = 68.87756 68.44666 76.21526
#
# Poissons Ratio (x) = 0.45888 0.27784
# Poissons Ratio (y) = 0.46177 0.06184
# Poissons Ratio (z) = 0.25109 0.05554
#
# Static dielectric constant tensor:
#      x y z
#    x 3.641630 0.000000 0.000000 
#    y 0.000000 3.487500 0.000000 
#    z 0.000000 0.000000 3.835630 
# 
# 
# High freq. dielectric constant tensor:
#      x y z
#    x 1.806310 0.000000 0.000000 
#    y 0.000000 1.783460 0.000000 
#    z 0.000000 0.000000 1.830170 
# 
# From -- ./inp_files/2894.got.cif
#   From: 2010.03.12/outbox.cif.g09.slc.cpg/sg39_2_cif.got.tgz:2894.got - 2010.04.14 02:53:20.
