data_PCOD8182169
_publ_section_title
;
Structure prediction by ZEFSAII (Michael W. Deem and Ramdas Pophale) SiO2 
 PCOD8182169
Probable space group: A B M 2
;
_chemical_formula_sum "Si O2"
_cell_formula_units_Z 64
_cell_length_a 14.489471
_cell_length_b 9.118589
_cell_length_c 24.224729
_cell_angle_alpha 90.000000
_cell_angle_beta 90.000000
_cell_angle_gamma 90.000000
_cell_volume 3200.656730
_symmetry_space_group_name_H-M "A B M 2"
_symmetry_group_IT_number 39
_symmetry_cell_setting 'orthorhombic'
loop_
_space_group_symop_operation_xyz
x,y,z
-x,-y,z
-x,1/2+y,z
x,1/2-y,z
x,1/2+y,1/2+z
-x,1/2-y,1/2+z
-x,y,1/2+z
x,-y,1/2+z
loop_
_atom_site_type_symbol
_atom_site_label
_atom_site_fract_x
_atom_site_fract_y
_atom_site_fract_z
Si Si1 0.217811 0.083177 0.511340
Si Si2 0.208394 0.577585 0.824525
Si Si3 0.100036 0.425199 0.921082
Si Si4 0.159540 0.912329 0.701694
Si Si5 0.410179 0.922429 0.791810
Si Si6 0.917367 0.913729 0.607653
Si Si7 0.410321 0.922776 0.058891
Si Si8 0.366291 0.414445 0.169144
O O1 0.210076 0.250000 0.488129
O O2 0.174921 0.073949 0.572196
O O3 0.324049 0.035508 0.519542
O O4 0.165486 0.971731 0.471548
O O5 0.195569 0.750000 0.837981
O O6 0.151143 0.477835 0.866085
O O7 0.168369 0.537526 0.764746
O O8 0.317400 0.535774 0.825787
O O9 0.087824 0.250000 0.920755
O O10 0.000000 0.500000 0.926520
O O11 0.116138 0.750000 0.699138
O O12 0.256669 0.911041 0.670853
O O13 0.094687 0.023750 0.669207
O O14 0.424192 0.750000 0.794551
O O15 0.402167 0.973466 0.728142
O O16 0.500000 0.000000 0.818608
O O17 0.951926 0.750000 0.614022
O O18 0.000000 0.000000 0.576944
O O19 0.423941 0.750000 0.060557
O O20 0.500000 0.000000 0.032206
O O21 0.399815 0.976961 0.121704
O O22 0.403475 0.250000 0.156942
#
# Coordination Sequence:
#
# PCOD8182169 Si02
#       8
#     8   8   8   8   8   8   8   8
#     4  10  23  43  63  86 119 155 197 248 298 349
#     4   9  20  40  62  86 120 157 198 247 297 348
#     4  12  26  44  69  94 114 147 196 248 304 360
#     4   9  18  34  57  84 118 159 196 238 293 348
#     4   9  18  32  53  84 121 162 202 242 289 343
#     4  11  22  36  56  85 118 154 194 237 295 358
#     4  11  22  36  56  86 121 159 200 242 292 347
#     4   9  17  31  52  81 118 160 202 241 285 340
#
# _framework density 19.995898
#
# number of rings (size 3 to 8) (size 9 to 14) (size 15 to 20)
#    0.000    2.000    1.250    4.125    0.000    6.000 
#    0.000    3.125    0.000    0.000    0.000    0.000 
#    0.000    0.000    0.000    0.000    0.000    0.000 
#
# Total GULP energy -396723.816741 kJ/mol
# GULP energy per Si atom -12397.619273 kJ/mol
# Density = 1.995039 g / cm^3
# Si number density = 19.995898 Si / 1000 Ang^3
#
#
#
# Elastic Constant Matrix: (Units=GPa)
#
#
# Indices 1 2 3 4 5 6 
#
# 1 137.7975 69.6902 48.2190 0.0000 0.0000 0.0000
# 2 69.6902 123.8695 51.2309 0.0000 0.0000 0.0000
# 3 48.2190 51.2309 78.9389 0.0000 0.0000 0.0000
# 4 0.0000 0.0000 0.0000 31.3835 0.0000 0.0000
# 5 0.0000 0.0000 0.0000 0.0000 23.8630 0.0000
# 6 0.0000 0.0000 0.0000 0.0000 0.0000 37.8897
#
#
#
# Elastic Compliance Matrix: (Units=1/GPa)
#
#
# Indices 1 2 3 4 5 6 
#
# 1 0.010861 -0.004602 -0.003648 0.000000 0.000000 0.000000
# 2 -0.004602 0.012985 -0.005616 0.000000 0.000000 0.000000
# 3 -0.003648 -0.005616 0.018541 0.000000 0.000000 0.000000
# 4 0.000000 0.000000 0.000000 0.031864 0.000000 0.000000
# 5 0.000000 0.000000 0.000000 0.000000 0.041906 0.000000
# 6 0.000000 0.000000 0.000000 0.000000 0.000000 0.026392
#
#
# Mechanical properties :
#
#
# Convention : Reuss Voigt Hill
#
# Bulk Modulus (GPa) = 68.23395 75.43178 71.83287
# Shear Modulus (GPa) = 28.54453 30.05828 29.30140
#
# Velocity S-wave (km/s) = 3.78235 3.88135 3.83217
# Velocity P-wave (km/s) = 7.29883 7.60868 7.45537
#
# Compressibility (1/GPa) = 0.01465546
#
# Stress axis : x y z
#
# Youngs Moduli (GPa) = 92.07474 77.01343 53.93453
#
# Poissons Ratio (x) = 0.35440 0.19674
# Poissons Ratio (y) = 0.42370 0.30290
# Poissons Ratio (z) = 0.33586 0.43252
#
# Static dielectric constant tensor:
#      x y z
#    x 3.863670 0.000000 0.000000 
#    y 0.000000 3.578840 0.000000 
#    z 0.000000 0.000000 3.395890 
# 
# 
# High freq. dielectric constant tensor:
#      x y z
#    x 1.794430 0.000000 0.000000 
#    y 0.000000 1.775780 0.000000 
#    z 0.000000 0.000000 1.757830 
# 
# From -- ./inp_files/16241.got.cif
#   From: 2010.03.12/outbox.cif.g09.slc.cpg/sg39_9_cif.got.tgz:16241.got - 2010.04.14 02:53:20.
