data_PCOD8182563
_publ_section_title
;
Structure prediction by ZEFSAII (Michael W. Deem and Ramdas Pophale) SiO2 
 PCOD8182563
Probable space group: A M A 2
;
_chemical_formula_sum "Si O2"
_cell_formula_units_Z 60
_cell_length_a 9.135819
_cell_length_b 14.359475
_cell_length_c 23.954316
_cell_angle_alpha 90.000000
_cell_angle_beta 90.000000
_cell_angle_gamma 90.000000
_cell_volume 3142.460468
_symmetry_space_group_name_H-M "A M A 2"
_symmetry_group_IT_number 40
_symmetry_cell_setting 'orthorhombic'
loop_
_space_group_symop_operation_xyz
x,y,z
-x,-y,z
1/2-x,y,z
1/2+x,-y,z
x,1/2+y,1/2+z
-x,1/2-y,1/2+z
1/2-x,1/2+y,1/2+z
1/2+x,1/2-y,1/2+z
loop_
_atom_site_type_symbol
_atom_site_label
_atom_site_fract_x
_atom_site_fract_y
_atom_site_fract_z
Si Si1 0.907981 0.384225 0.192620
Si Si2 0.575929 0.797523 0.070953
Si Si3 0.082921 0.785582 0.266410
Si Si4 0.000000 0.500000 0.287001
Si Si5 0.580520 0.087062 0.584940
Si Si6 0.923986 0.596709 0.667394
Si Si7 0.425498 0.901059 0.969521
Si Si8 0.085541 0.321040 0.353962
O O1 0.750000 0.374704 0.162092
O O2 0.959209 0.286973 0.218256
O O3 0.883408 0.453380 0.245148
O O4 0.032008 0.415502 0.149618
O O5 0.750000 0.817638 0.072349
O O6 0.544837 0.687957 0.058795
O O7 0.501580 0.824843 0.129423
O O8 0.496303 0.856772 0.023917
O O9 0.250000 0.778614 0.284576
O O10 0.048859 0.882375 0.233824
O O11 0.997288 0.764124 0.323467
O O12 0.925684 0.578616 0.324663
O O13 0.750000 0.064640 0.582775
O O14 0.500000 0.000000 0.553596
O O15 0.750000 0.593680 0.654525
O O16 0.000000 0.500000 0.652014
O O17 0.250000 0.912446 0.975872
O O18 0.467494 0.834002 0.917637
O O19 0.500000 0.000000 0.958872
O O20 0.250000 0.286790 0.353208
#
# Coordination Sequence:
#
# PCOD8182563 Si02
#       8
#     8   8   8   4   8   8   8   8
#     4  10  18  29  48  75 110 147 180 217 267 326
#     4  11  24  41  59  83 114 154 196 244 293 345
#     4   9  20  35  53  79 113 149 185 227 281 334
#     4  10  18  30  48  80 116 148 182 214 270 330
#     4  11  23  36  55  81 113 148 188 231 284 342
#     4  11  22  38  59  87 118 156 198 242 290 345
#     4  11  23  40  61  86 115 153 195 242 291 346
#     4  10  21  35  55  83 115 150 189 229 279 338
#
# _framework density 19.093318
#
# number of rings (size 3 to 8) (size 9 to 14) (size 15 to 20)
#    0.000    1.600    2.667    2.400    0.000    6.400 
#    0.000    0.000    0.000    0.800    0.000    0.000 
#    0.000    0.000    0.000    0.000    0.000    0.000 
#
# Total GULP energy -371720.449441 kJ/mol
# GULP energy per Si atom -12390.681648 kJ/mol
# Density = 1.904986 g / cm^3
# Si number density = 19.093318 Si / 1000 Ang^3
#
#
#
# Elastic Constant Matrix: (Units=GPa)
#
#
# Indices 1 2 3 4 5 6 
#
# 1 106.5578 45.4739 42.0989 0.0000 0.0000 0.0000
# 2 45.4739 69.5255 16.2684 0.0000 0.0000 0.0000
# 3 42.0989 16.2684 84.2087 0.0000 0.0000 0.0000
# 4 0.0000 0.0000 0.0000 17.8855 0.0000 0.0000
# 5 0.0000 0.0000 0.0000 0.0000 24.6055 0.0000
# 6 0.0000 0.0000 0.0000 0.0000 0.0000 23.6483
#
#
#
# Elastic Compliance Matrix: (Units=1/GPa)
#
#
# Indices 1 2 3 4 5 6 
#
# 1 0.015502 -0.008720 -0.006065 0.000000 0.000000 0.000000
# 2 -0.008720 0.019969 0.000502 0.000000 0.000000 0.000000
# 3 -0.006065 0.000502 0.014811 0.000000 0.000000 0.000000
# 4 0.000000 0.000000 0.000000 0.055911 0.000000 0.000000
# 5 0.000000 0.000000 0.000000 0.000000 0.040641 0.000000
# 6 0.000000 0.000000 0.000000 0.000000 0.000000 0.042286
#
#
# Mechanical properties :
#
#
# Convention : Reuss Voigt Hill
#
# Bulk Modulus (GPa) = 46.05267 51.99716 49.02492
# Shear Modulus (GPa) = 22.22940 23.65791 22.94365
#
# Velocity S-wave (km/s) = 3.41581 3.52386 3.47026
# Velocity P-wave (km/s) = 6.30311 6.62186 6.46445
#
# Compressibility (1/GPa) = 0.02171427
#
# Stress axis : x y z
#
# Youngs Moduli (GPa) = 64.50660 50.07669 67.51879
#
# Poissons Ratio (x) = 0.43668 0.40953
# Poissons Ratio (y) = 0.56251 -0.03387
# Poissons Ratio (z) = 0.39126 -0.02512
#
# Static dielectric constant tensor:
#      x y z
#    x 3.536290 0.000000 0.000000 
#    y 0.000000 4.202590 0.000000 
#    z 0.000000 0.000000 3.363780 
# 
# 
# High freq. dielectric constant tensor:
#      x y z
#    x 1.750030 0.000000 0.000000 
#    y 0.000000 1.736920 0.000000 
#    z 0.000000 0.000000 1.717940 
# 
# From -- ./inp_files/24215.got.cif
#   From: 2010.03.12/outbox.cif.g09.slc.cpg/sg40_13_cif.got.tgz:24215.got - 2010.04.14 01:38:03.
