data_PCOD8182858
_publ_section_title
;
Structure prediction by ZEFSAII (Michael W. Deem and Ramdas Pophale) SiO2 
 PCOD8182858
Probable space group: A M A 2
;
_chemical_formula_sum "Si O2"
_cell_formula_units_Z 64
_cell_length_a 8.922903
_cell_length_b 22.562927
_cell_length_c 15.501564
_cell_angle_alpha 90.000000
_cell_angle_beta 90.000000
_cell_angle_gamma 90.000000
_cell_volume 3120.880415
_symmetry_space_group_name_H-M "A M A 2"
_symmetry_group_IT_number 40
_symmetry_cell_setting 'orthorhombic'
loop_
_space_group_symop_operation_xyz
x,y,z
-x,-y,z
1/2-x,y,z
1/2+x,-y,z
x,1/2+y,1/2+z
-x,1/2-y,1/2+z
1/2-x,1/2+y,1/2+z
1/2+x,1/2-y,1/2+z
loop_
_atom_site_type_symbol
_atom_site_label
_atom_site_fract_x
_atom_site_fract_y
_atom_site_fract_z
Si Si1 0.428026 0.435271 0.319950
Si Si2 0.571582 0.688036 0.079512
Si Si3 0.576732 0.937476 0.987185
Si Si4 0.928666 0.325668 0.253953
Si Si5 0.423706 0.939389 0.506474
Si Si6 0.075974 0.883949 0.330311
Si Si7 0.427211 0.261039 0.902788
Si Si8 0.420654 0.062333 0.174348
O O1 0.500000 0.500000 0.307024
O O2 0.250000 0.439692 0.314602
O O3 0.484081 0.406022 0.410927
O O4 0.492444 0.390338 0.248922
O O5 0.750000 0.690014 0.093368
O O6 0.485932 0.707282 0.167146
O O7 0.520700 0.620935 0.053275
O O8 0.524127 0.735910 0.004271
O O9 0.750000 0.944099 0.958199
O O10 0.563909 0.905669 0.080186
O O11 0.500000 0.000000 0.000981
O O12 0.750000 0.331430 0.252345
O O13 0.985844 0.292384 0.341652
O O14 0.250000 0.947166 0.525659
O O15 0.455194 0.933051 0.403898
O O16 0.500000 0.000000 0.540940
O O17 0.250000 0.881191 0.307846
O O18 0.013749 0.821398 0.361765
O O19 0.987226 0.893885 0.243326
O O20 0.250000 0.259275 0.900533
O O21 0.250000 0.049231 0.196442
O O22 0.500000 0.000000 0.179078
#
# Coordination Sequence:
#
# PCOD8182858 Si02
#       8
#     8   8   8   8   8   8   8   8
#     4  11  22  38  60  86 115 149 188 233 287 347
#     4   9  19  39  61  82 112 153 195 238 286 342
#     4   9  17  31  49  71 105 144 183 226 278 334
#     4  11  22  39  63  90 118 152 192 238 291 348
#     4   9  18  31  51  78 110 147 186 227 281 339
#     4   9  17  32  52  74 104 146 191 235 283 339
#     4   8  18  39  62  80 110 154 193 236 293 343
#     4  10  19  29  45  73 108 147 189 235 287 342
#
# _framework density 20.507034999999998
#
# number of rings (size 3 to 8) (size 9 to 14) (size 15 to 20)
#    0.000    2.500    0.000    4.875    0.000    4.000 
#    2.250    5.625    0.000    0.000    0.000    0.000 
#    0.000    0.000    0.000    0.000    0.000    0.000 
#
# Total GULP energy -396425.364653 kJ/mol
# GULP energy per Si atom -12388.292645 kJ/mol
# Density = 2.046036 g / cm^3
# Si number density = 20.507035 Si / 1000 Ang^3
#
#
#
# Elastic Constant Matrix: (Units=GPa)
#
#
# Indices 1 2 3 4 5 6 
#
# 1 96.1332 28.6148 46.1489 0.0000 0.0000 0.0000
# 2 28.6148 71.7500 38.4963 0.0000 0.0000 0.0000
# 3 46.1489 38.4963 123.7871 0.0000 0.0000 0.0000
# 4 0.0000 0.0000 0.0000 28.6298 0.0000 0.0000
# 5 0.0000 0.0000 0.0000 0.0000 25.6914 0.0000
# 6 0.0000 0.0000 0.0000 0.0000 0.0000 19.1963
#
#
#
# Elastic Compliance Matrix: (Units=1/GPa)
#
#
# Indices 1 2 3 4 5 6 
#
# 1 0.013241 -0.003159 -0.003954 0.000000 0.000000 0.000000
# 2 -0.003159 0.017482 -0.004259 0.000000 0.000000 0.000000
# 3 -0.003954 -0.004259 0.010877 0.000000 0.000000 0.000000
# 4 0.000000 0.000000 0.000000 0.034929 0.000000 0.000000
# 5 0.000000 0.000000 0.000000 0.000000 0.038924 0.000000
# 6 0.000000 0.000000 0.000000 0.000000 0.000000 0.052093
#
#
# Mechanical properties :
#
#
# Convention : Reuss Voigt Hill
#
# Bulk Modulus (GPa) = 53.03382 57.57669 55.30526
# Shear Modulus (GPa) = 25.43563 26.59751 26.01657
#
# Velocity S-wave (km/s) = 3.52566 3.60529 3.56570
# Velocity P-wave (km/s) = 6.51852 6.74302 6.63172
#
# Compressibility (1/GPa) = 0.01885589
#
# Stress axis : x y z
#
# Youngs Moduli (GPa) = 75.52535 57.20065 91.93818
#
# Poissons Ratio (x) = 0.18071 0.36350
# Poissons Ratio (y) = 0.23860 0.39157
# Poissons Ratio (z) = 0.29861 0.24362
#
# Static dielectric constant tensor:
#      x y z
#    x 3.554400 0.000000 0.000000 
#    y 0.000000 3.626970 0.000000 
#    z 0.000000 0.000000 4.246060 
# 
# 
# High freq. dielectric constant tensor:
#      x y z
#    x 1.785140 0.000000 0.000000 
#    y 0.000000 1.777710 0.000000 
#    z 0.000000 0.000000 1.815910 
# 
# From -- ./inp_files/15672.got.cif
#   From: 2010.03.12/outbox.cif.g09.slc.cpg/sg40_8_cif.got.tgz:15672.got - 2010.04.14 01:38:03.
