data_PCOD8182709
_publ_section_title
;
Structure prediction by ZEFSAII (Michael W. Deem and Ramdas Pophale) SiO2 
 PCOD8182709
Probable space group: A M A 2
;
_chemical_formula_sum "Si O2"
_cell_formula_units_Z 60
_cell_length_a 9.367196
_cell_length_b 15.554302
_cell_length_c 20.813748
_cell_angle_alpha 90.000000
_cell_angle_beta 90.000000
_cell_angle_gamma 90.000000
_cell_volume 3032.567152
_symmetry_space_group_name_H-M "A M A 2"
_symmetry_group_IT_number 40
_symmetry_cell_setting 'orthorhombic'
loop_
_space_group_symop_operation_xyz
x,y,z
-x,-y,z
1/2-x,y,z
1/2+x,-y,z
x,1/2+y,1/2+z
-x,1/2-y,1/2+z
1/2-x,1/2+y,1/2+z
1/2+x,1/2-y,1/2+z
loop_
_atom_site_type_symbol
_atom_site_label
_atom_site_fract_x
_atom_site_fract_y
_atom_site_fract_z
Si Si1 0.418925 0.238758 0.280780
Si Si2 0.907967 0.115081 0.867826
Si Si3 0.588544 0.580141 0.819560
Si Si4 0.408424 0.162903 0.684849
Si Si5 0.500000 0.500000 0.257187
Si Si6 0.081591 0.917525 0.007697
Si Si7 0.087137 0.224417 0.542082
Si Si8 0.586543 0.584238 0.971366
O O1 0.250000 0.221486 0.282680
O O2 0.475041 0.297032 0.340323
O O3 0.510645 0.154613 0.282131
O O4 0.460906 0.284970 0.214882
O O5 0.750000 0.137346 0.890630
O O6 0.982821 0.086629 0.934178
O O7 0.897521 0.048219 0.808372
O O8 0.500000 0.500000 0.795448
O O9 0.750000 0.572706 0.795055
O O10 0.581224 0.590495 0.895325
O O11 0.250000 0.196793 0.704278
O O12 0.429732 0.175299 0.609367
O O13 0.416834 0.064152 0.709357
O O14 0.250000 0.936970 0.011370
O O15 0.045326 0.826467 0.043266
O O16 0.000000 0.000000 0.039647
O O17 0.250000 0.216954 0.517114
O O18 0.984191 0.172760 0.494584
O O19 0.500000 0.500000 0.995669
O O20 0.750000 0.576861 0.996024
#
# Coordination Sequence:
#
# PCOD8182709 Si02
#       8
#     8   8   8   8   4   8   8   8
#     4  10  20  35  56  82 112 148 187 231 289 351
#     4   9  17  30  51  80 111 141 174 227 293 351
#     4  10  20  35  56  83 114 146 186 236 291 346
#     4  10  22  38  56  80 114 154 194 237 288 352
#     4  10  18  32  54  84 114 144 186 236 292 352
#     4  10  20  36  57  82 112 146 189 241 295 348
#     4  10  22  39  57  80 115 160 201 244 297 353
#     4  10  21  36  57  86 117 152 193 239 292 353
#
# _framework density 19.785216999999999
#
# number of rings (size 3 to 8) (size 9 to 14) (size 15 to 20)
#    0.000    2.133    0.667    2.400    0.933    4.267 
#    0.000    1.333    0.000    1.600    0.000    0.000 
#    0.000    0.000    0.000    0.000    0.000    0.000 
#
# Total GULP energy -371675.565949 kJ/mol
# GULP energy per Si atom -12389.185532 kJ/mol
# Density = 1.974018 g / cm^3
# Si number density = 19.785217 Si / 1000 Ang^3
#
#
#
# Elastic Constant Matrix: (Units=GPa)
#
#
# Indices 1 2 3 4 5 6 
#
# 1 111.5833 51.4720 15.1782 0.0000 0.0000 0.0000
# 2 51.4720 123.2929 24.7372 0.0000 0.0000 0.0000
# 3 15.1782 24.7372 46.1844 0.0000 0.0000 0.0000
# 4 0.0000 0.0000 0.0000 28.8999 0.0000 0.0000
# 5 0.0000 0.0000 0.0000 0.0000 21.6117 0.0000
# 6 0.0000 0.0000 0.0000 0.0000 0.0000 38.6981
#
#
#
# Elastic Compliance Matrix: (Units=1/GPa)
#
#
# Indices 1 2 3 4 5 6 
#
# 1 0.011170 -0.004400 -0.001315 0.000000 0.000000 0.000000
# 2 -0.004400 0.010820 -0.004350 0.000000 0.000000 0.000000
# 3 -0.001315 -0.004350 0.024414 0.000000 0.000000 0.000000
# 4 0.000000 0.000000 0.000000 0.034602 0.000000 0.000000
# 5 0.000000 0.000000 0.000000 0.000000 0.046271 0.000000
# 6 0.000000 0.000000 0.000000 0.000000 0.000000 0.025841
#
#
# Mechanical properties :
#
#
# Convention : Reuss Voigt Hill
#
# Bulk Modulus (GPa) = 38.05600 51.53729 44.79665
# Shear Modulus (GPa) = 27.47172 30.48682 28.97927
#
# Velocity S-wave (km/s) = 3.73030 3.92967 3.83128
# Velocity P-wave (km/s) = 6.15059 6.83335 6.50094
#
# Compressibility (1/GPa) = 0.02627706
#
# Stress axis : x y z
#
# Youngs Moduli (GPa) = 89.52404 92.41990 40.95997
#
# Poissons Ratio (x) = 0.40661 0.05384
# Poissons Ratio (y) = 0.39387 0.17816
# Poissons Ratio (z) = 0.11768 0.40199
#
# Static dielectric constant tensor:
#      x y z
#    x 3.966650 0.000000 0.000000 
#    y 0.000000 3.413120 0.000000 
#    z 0.000000 0.000000 3.423640 
# 
# 
# High freq. dielectric constant tensor:
#      x y z
#    x 1.765310 0.000000 0.000000 
#    y 0.000000 1.780620 0.000000 
#    z 0.000000 0.000000 1.748660 
# 
# From -- ./inp_files/24200.got.cif
#   From: 2010.03.12/outbox.cif.g09.slc.cpg/sg40_13_cif.got.tgz:24200.got - 2010.04.14 01:38:03.
