data_PCOD8182718
_publ_section_title
;
Structure prediction by ZEFSAII (Michael W. Deem and Ramdas Pophale) SiO2 
 PCOD8182718
Probable space group: A M A 2
;
_chemical_formula_sum "Si O2"
_cell_formula_units_Z 48
_cell_length_a 18.493017
_cell_length_b 11.460163
_cell_length_c 11.293832
_cell_angle_alpha 90.000000
_cell_angle_beta 90.000000
_cell_angle_gamma 90.000000
_cell_volume 2393.535575
_symmetry_space_group_name_H-M "A M A 2"
_symmetry_group_IT_number 40
_symmetry_cell_setting 'orthorhombic'
loop_
_space_group_symop_operation_xyz
x,y,z
-x,-y,z
1/2-x,y,z
1/2+x,-y,z
x,1/2+y,1/2+z
-x,1/2-y,1/2+z
1/2-x,1/2+y,1/2+z
1/2+x,1/2-y,1/2+z
loop_
_atom_site_type_symbol
_atom_site_label
_atom_site_fract_x
_atom_site_fract_y
_atom_site_fract_z
Si Si1 0.833176 0.093374 0.146400
Si Si2 0.427186 0.556107 0.483545
Si Si3 0.551651 0.762640 0.187944
Si Si4 0.893448 0.323841 0.249143
Si Si5 0.582100 0.958151 0.336807
Si Si6 0.915744 0.025666 0.596008
O O1 0.750000 0.070432 0.118013
O O2 0.841449 0.225615 0.194769
O O3 0.876125 0.051227 0.027679
O O4 0.859166 0.014357 0.253049
O O5 0.500000 0.500000 0.425215
O O6 0.453082 0.632112 0.594835
O O7 0.388340 0.643852 0.389245
O O8 0.473311 0.715766 0.216675
O O9 0.583869 0.818130 0.310088
O O10 0.600868 0.659150 0.133879
O O11 0.871902 0.443872 0.184946
O O12 0.500000 0.000000 0.313223
O O13 0.610598 0.993993 0.465124
O O14 0.000000 0.000000 0.603963
#
# Coordination Sequence:
#
# PCOD8182718 Si02
#       6
#     8   8   8   8   8   8
#     4  11  23  40  59  85 121 165 209 252 317 386
#     4  11  21  37  62  90 125 158 211 266 309 365
#     4  10  18  32  55  87 118 150 190 253 308 350
#     4  11  21  35  58  88 120 157 199 257 314 366
#     4  10  18  36  60  83 117 149 199 256 300 360
#     4   9  20  31  52  90 116 145 190 245 309 364
#
# _framework density 20.054016000000001
#
# number of rings (size 3 to 8) (size 9 to 14) (size 15 to 20)
#    0.000    1.667    3.333    3.500    4.667    2.000 
#    0.000    0.833    0.000    4.000    0.000    0.000 
#    0.000    0.000    0.000    0.000    0.000    0.000 
#
# Total GULP energy -297335.320022 kJ/mol
# GULP energy per Si atom -12388.971668 kJ/mol
# Density = 2.000837 g / cm^3
# Si number density = 20.054016 Si / 1000 Ang^3
#
#
#
# Elastic Constant Matrix: (Units=GPa)
#
#
# Indices 1 2 3 4 5 6 
#
# 1 70.0729 21.5847 28.2843 0.0000 0.0000 0.0000
# 2 21.5847 126.9562 47.0098 0.0000 0.0000 0.0000
# 3 28.2843 47.0098 102.6521 0.0000 0.0000 0.0000
# 4 0.0000 0.0000 0.0000 37.6500 0.0000 0.0000
# 5 0.0000 0.0000 0.0000 0.0000 3.5577 0.0000
# 6 0.0000 0.0000 0.0000 0.0000 0.0000 14.5368
#
#
#
# Elastic Compliance Matrix: (Units=1/GPa)
#
#
# Indices 1 2 3 4 5 6 
#
# 1 0.016241 -0.001330 -0.003866 0.000000 0.000000 0.000000
# 2 -0.001330 0.009594 -0.004027 0.000000 0.000000 0.000000
# 3 -0.003866 -0.004027 0.012651 0.000000 0.000000 0.000000
# 4 0.000000 0.000000 0.000000 0.026560 0.000000 0.000000
# 5 0.000000 0.000000 0.000000 0.000000 0.281084 0.000000
# 6 0.000000 0.000000 0.000000 0.000000 0.000000 0.068791
#
#
# Mechanical properties :
#
#
# Convention : Reuss Voigt Hill
#
# Bulk Modulus (GPa) = 49.89970 54.82653 52.36311
# Shear Modulus (GPa) = 11.36240 24.66904 18.01572
#
# Velocity S-wave (km/s) = 2.38290 3.51113 3.00052
# Velocity P-wave (km/s) = 5.70154 6.62088 6.17834
#
# Compressibility (1/GPa) = 0.02004020
#
# Stress axis : x y z
#
# Youngs Moduli (GPa) = 61.57290 104.23159 79.04421
#
# Poissons Ratio (x) = 0.13860 0.30559
# Poissons Ratio (y) = 0.08187 0.31833
# Poissons Ratio (z) = 0.23804 0.41976
#
# Static dielectric constant tensor:
#      x y z
#    x 3.063500 0.000000 0.000000 
#    y 0.000000 4.415730 0.000000 
#    z 0.000000 0.000000 3.940130 
# 
# 
# High freq. dielectric constant tensor:
#      x y z
#    x 1.716880 0.000000 0.000000 
#    y 0.000000 1.801410 0.000000 
#    z 0.000000 0.000000 1.790860 
# 
# From -- ./inp_files/12898.got.cif
#   From: 2010.03.12/outbox.cif.g09.slc.cpg/sg40_7_cif.got.tgz:12898.got - 2010.04.14 01:38:03.
