data_PCOD8182518
_publ_section_title
;
Structure prediction by ZEFSAII (Michael W. Deem and Ramdas Pophale) SiO2 
 PCOD8182518
Probable space group: A M A 2
;
_chemical_formula_sum "Si O2"
_cell_formula_units_Z 64
_cell_length_a 8.884597
_cell_length_b 33.349951
_cell_length_c 11.712999
_cell_angle_alpha 90.000000
_cell_angle_beta 90.000000
_cell_angle_gamma 90.000000
_cell_volume 3470.571848
_symmetry_space_group_name_H-M "A M A 2"
_symmetry_group_IT_number 40
_symmetry_cell_setting 'orthorhombic'
loop_
_space_group_symop_operation_xyz
x,y,z
-x,-y,z
1/2-x,y,z
1/2+x,-y,z
x,1/2+y,1/2+z
-x,1/2-y,1/2+z
1/2-x,1/2+y,1/2+z
1/2+x,1/2-y,1/2+z
loop_
_atom_site_type_symbol
_atom_site_label
_atom_site_fract_x
_atom_site_fract_y
_atom_site_fract_z
Si Si1 0.575882 0.539166 0.976230
Si Si2 0.076390 0.371937 0.304785
Si Si3 0.428382 0.767658 0.440014
Si Si4 0.922746 0.317162 0.739119
Si Si5 0.076060 0.812190 0.998983
Si Si6 0.573035 0.540901 0.236745
Si Si7 0.417668 0.612681 0.902121
Si Si8 0.426402 0.673113 0.101386
O O1 0.500000 0.500000 0.923570
O O2 0.750000 0.532054 0.972450
O O3 0.532684 0.576075 0.895480
O O4 0.519919 0.546605 0.105858
O O5 0.250000 0.370899 0.264730
O O6 0.055559 0.354294 0.431829
O O7 0.019517 0.418409 0.302193
O O8 0.983545 0.342621 0.222335
O O9 0.250000 0.772735 0.429890
O O10 0.508202 0.787033 0.330993
O O11 0.473899 0.721216 0.438287
O O12 0.486635 0.786848 0.559683
O O13 0.750000 0.304328 0.713740
O O14 0.928376 0.362302 0.786271
O O15 0.022657 0.317870 0.627312
O O16 0.250000 0.798637 0.997658
O O17 0.500000 0.500000 0.288083
O O18 0.750000 0.535252 0.247763
O O19 0.250000 0.595718 0.920257
O O20 0.464778 0.639633 0.008805
O O21 0.250000 0.683171 0.107921
#
# Coordination Sequence:
#
# PCOD8182518 Si02
#       8
#     8   8   8   8   8   8   8   8
#     4  10  18  28  48  77 112 145 178 220 273 334
#     4  10  21  37  56  82 116 151 190 234 283 339
#     4  11  23  39  60  82 111 148 186 232 285 336
#     4  10  22  41  60  81 110 144 187 233 280 336
#     4  11  24  40  59  82 111 148 192 238 282 335
#     4   9  18  32  51  79 113 149 184 227 281 339
#     4   9  18  33  53  77 106 141 178 224 273 326
#     4  10  20  34  55  82 112 144 185 228 276 335
#
# _framework density 18.440764999999999
#
# number of rings (size 3 to 8) (size 9 to 14) (size 15 to 20)
#    0.000    2.000    1.250    3.375    1.750    4.500 
#    0.000    0.000    0.000    0.750    0.000    3.500 
#    0.000    0.000    0.000    0.000    0.000    0.000 
#
# Total GULP energy -396802.317993 kJ/mol
# GULP energy per Si atom -12400.072437 kJ/mol
# Density = 1.839879 g / cm^3
# Si number density = 18.440765 Si / 1000 Ang^3
#
#
#
# Elastic Constant Matrix: (Units=GPa)
#
#
# Indices 1 2 3 4 5 6 
#
# 1 65.6044 34.9679 13.7509 0.0000 0.0000 0.0000
# 2 34.9679 114.8743 29.2005 0.0000 0.0000 0.0000
# 3 13.7509 29.2005 69.1768 0.0000 0.0000 0.0000
# 4 0.0000 0.0000 0.0000 21.9807 0.0000 0.0000
# 5 0.0000 0.0000 0.0000 0.0000 23.3314 0.0000
# 6 0.0000 0.0000 0.0000 0.0000 0.0000 33.6856
#
#
#
# Elastic Compliance Matrix: (Units=1/GPa)
#
#
# Indices 1 2 3 4 5 6 
#
# 1 0.018323 -0.005211 -0.001443 0.000000 0.000000 0.000000
# 2 -0.005211 0.011233 -0.003706 0.000000 0.000000 0.000000
# 3 -0.001443 -0.003706 0.016307 0.000000 0.000000 0.000000
# 4 0.000000 0.000000 0.000000 0.045494 0.000000 0.000000
# 5 0.000000 0.000000 0.000000 0.000000 0.042861 0.000000
# 6 0.000000 0.000000 0.000000 0.000000 0.000000 0.029686
#
#
# Mechanical properties :
#
#
# Convention : Reuss Voigt Hill
#
# Bulk Modulus (GPa) = 39.77069 45.05491 42.41280
# Shear Modulus (GPa) = 25.90617 27.24863 26.57740
#
# Velocity S-wave (km/s) = 3.75217 3.84817 3.80047
# Velocity P-wave (km/s) = 6.35494 6.65055 6.50442
#
# Compressibility (1/GPa) = 0.02514414
#
# Stress axis : x y z
#
# Youngs Moduli (GPa) = 54.57734 89.02057 61.32397
#
# Poissons Ratio (x) = 0.46386 0.08847
# Poissons Ratio (y) = 0.28439 0.22727
# Poissons Ratio (z) = 0.07874 0.32991
#
# Static dielectric constant tensor:
#      x y z
#    x 3.421250 0.000000 0.000000 
#    y 0.000000 3.559450 0.000000 
#    z 0.000000 0.000000 3.185600 
# 
# 
# High freq. dielectric constant tensor:
#      x y z
#    x 1.723870 0.000000 0.000000 
#    y 0.000000 1.719410 0.000000 
#    z 0.000000 0.000000 1.683760 
# 
# From -- ./inp_files/10677.got.cif
#   From: 2010.03.12/outbox.cif.g09.slc.cpg/sg40_6_cif.got.tgz:10677.got - 2010.04.14 01:38:03.
