data_PCOD8182176
_publ_section_title
;
Structure prediction by ZEFSAII (Michael W. Deem and Ramdas Pophale) SiO2 
 PCOD8182176
Probable space group: A B M 2
;
_chemical_formula_sum "Si O2"
_cell_formula_units_Z 48
_cell_length_a 8.672440
_cell_length_b 9.971593
_cell_length_c 27.491815
_cell_angle_alpha 90.000000
_cell_angle_beta 90.000000
_cell_angle_gamma 90.000000
_cell_volume 2377.438332
_symmetry_space_group_name_H-M "A B M 2"
_symmetry_group_IT_number 39
_symmetry_cell_setting 'orthorhombic'
loop_
_space_group_symop_operation_xyz
x,y,z
-x,-y,z
-x,1/2+y,z
x,1/2-y,z
x,1/2+y,1/2+z
-x,1/2-y,1/2+z
-x,y,1/2+z
x,-y,1/2+z
loop_
_atom_site_type_symbol
_atom_site_label
_atom_site_fract_x
_atom_site_fract_y
_atom_site_fract_z
Si Si1 0.187248 0.750000 0.035370
Si Si2 0.354238 0.095165 0.372089
Si Si3 0.837001 0.250000 0.514887
Si Si4 0.193819 0.750000 0.629137
Si Si5 0.318765 0.485837 0.477571
Si Si6 0.318262 0.985452 0.687834
Si Si7 0.840702 0.750000 0.649693
Si Si8 0.856482 0.096499 0.781782
O O1 0.196099 0.750000 0.093059
O O2 0.020247 0.750000 0.010694
O O3 0.273338 0.617405 0.019026
O O4 0.408907 0.250000 0.368736
O O5 0.225881 0.061536 0.332301
O O6 0.500000 0.000000 0.363269
O O7 0.274660 0.067410 0.424091
O O8 0.798329 0.250000 0.571425
O O9 0.768622 0.376502 0.487031
O O10 0.282201 0.882971 0.644735
O O11 0.025522 0.750000 0.654326
O O12 0.500000 0.500000 0.481026
O O13 0.265236 0.925694 0.738978
O O14 0.500000 0.000000 0.690514
O O15 0.230326 0.122789 0.676674
O O16 0.914529 0.250000 0.781115
O O17 0.000000 0.000000 0.774226
#
# Coordination Sequence:
#
# PCOD8182176 Si02
#       8
#     4   8   4   4   8   8   4   8
#     4  11  23  43  62  95 132 171 221 270 320 387
#     4  10  23  44  68  96 131 169 215 268 322 385
#     4  11  25  39  66  93 130 177 217 268 326 379
#     4  11  23  45  62  93 132 171 223 268 320 387
#     4  11  23  41  65  96 130 173 215 267 325 379
#     4  12  25  42  66  98 129 170 215 270 324 383
#     4  11  25  41  68  91 130 177 217 266 328 379
#     4  11  25  45  68  98 132 169 215 265 322 392
#
# _framework density 20.189799000000001
#
# number of rings (size 3 to 8) (size 9 to 14) (size 15 to 20)
#    0.000    1.000    1.667    4.500    4.667    8.667 
#    0.000    0.000    0.000    0.000    0.000    0.000 
#    0.000    0.000    0.000    0.000    0.000    0.000 
#
# Total GULP energy -297730.247849 kJ/mol
# GULP energy per Si atom -12405.426994 kJ/mol
# Density = 2.014385 g / cm^3
# Si number density = 20.189799 Si / 1000 Ang^3
#
#
#
# Elastic Constant Matrix: (Units=GPa)
#
#
# Indices 1 2 3 4 5 6 
#
# 1 99.9627 30.5870 46.7164 0.0000 0.0000 0.0000
# 2 30.5870 128.0609 27.1846 0.0000 0.0000 0.0000
# 3 46.7164 27.1846 80.9758 0.0000 0.0000 0.0000
# 4 0.0000 0.0000 0.0000 19.2182 0.0000 0.0000
# 5 0.0000 0.0000 0.0000 0.0000 32.2970 0.0000
# 6 0.0000 0.0000 0.0000 0.0000 0.0000 38.6881
#
#
#
# Elastic Compliance Matrix: (Units=1/GPa)
#
#
# Indices 1 2 3 4 5 6 
#
# 1 0.014056 -0.001761 -0.007518 0.000000 0.000000 0.000000
# 2 -0.001761 0.008629 -0.001881 0.000000 0.000000 0.000000
# 3 -0.007518 -0.001881 0.017318 0.000000 0.000000 0.000000
# 4 0.000000 0.000000 0.000000 0.052034 0.000000 0.000000
# 5 0.000000 0.000000 0.000000 0.000000 0.030963 0.000000
# 6 0.000000 0.000000 0.000000 0.000000 0.000000 0.025848
#
#
# Mechanical properties :
#
#
# Convention : Reuss Voigt Hill
#
# Bulk Modulus (GPa) = 56.55157 57.55282 57.05219
# Shear Modulus (GPa) = 28.23881 31.67474 29.95677
#
# Velocity S-wave (km/s) = 3.74393 3.96517 3.85614
# Velocity P-wave (km/s) = 6.83814 7.03784 6.93871
#
# Compressibility (1/GPa) = 0.01768298
#
# Stress axis : x y z
#
# Youngs Moduli (GPa) = 71.14355 115.89244 57.74361
#
# Poissons Ratio (x) = 0.20413 0.43411
# Poissons Ratio (y) = 0.12531 0.10859
# Poissons Ratio (z) = 0.53485 0.21795
#
# Static dielectric constant tensor:
#      x y z
#    x 3.688120 0.000000 0.000000 
#    y 0.000000 3.941290 0.000000 
#    z 0.000000 0.000000 3.880380 
# 
# 
# High freq. dielectric constant tensor:
#      x y z
#    x 1.791950 0.000000 0.000000 
#    y 0.000000 1.807860 0.000000 
#    z 0.000000 0.000000 1.806410 
# 
# From -- ./inp_files/16840.got.cif
#   From: 2010.03.12/outbox.cif.g09.slc.cpg/sg39_9_cif.got.tgz:16840.got - 2010.04.14 02:53:20.
