data_PCOD8182630
_publ_section_title
;
Structure prediction by ZEFSAII (Michael W. Deem and Ramdas Pophale) SiO2 
 PCOD8182630
Probable space group: A M A 2
;
_chemical_formula_sum "Si O2"
_cell_formula_units_Z 64
_cell_length_a 8.824670
_cell_length_b 30.551697
_cell_length_c 14.668830
_cell_angle_alpha 90.000000
_cell_angle_beta 90.000000
_cell_angle_gamma 90.000000
_cell_volume 3954.843365
_symmetry_space_group_name_H-M "A M A 2"
_symmetry_group_IT_number 40
_symmetry_cell_setting 'orthorhombic'
loop_
_space_group_symop_operation_xyz
x,y,z
-x,-y,z
1/2-x,y,z
1/2+x,-y,z
x,1/2+y,1/2+z
-x,1/2-y,1/2+z
1/2-x,1/2+y,1/2+z
1/2+x,1/2-y,1/2+z
loop_
_atom_site_type_symbol
_atom_site_label
_atom_site_fract_x
_atom_site_fract_y
_atom_site_fract_z
Si Si1 0.429129 0.725847 0.548130
Si Si2 0.070045 0.822083 0.548129
Si Si3 0.428734 0.365504 0.231139
Si Si4 0.071654 0.455195 0.151682
Si Si5 0.071655 0.955195 0.444551
Si Si6 0.429648 0.207351 0.248276
Si Si7 0.428732 0.865502 0.365113
Si Si8 0.570352 0.792659 0.847990
O O1 0.250000 0.729335 0.548137
O O2 0.500362 0.774043 0.548111
O O3 0.482523 0.703476 0.642342
O O4 0.482510 0.703465 0.453927
O O5 0.250000 0.822216 0.548138
O O6 0.010498 0.846153 0.636871
O O7 0.010514 0.846165 0.459397
O O8 0.250000 0.358586 0.245610
O O9 0.472044 0.416936 0.223922
O O10 0.516521 0.339319 0.309243
O O11 0.250000 0.460678 0.149287
O O12 0.014694 0.444745 0.048117
O O13 0.000000 0.500000 0.188722
O O14 0.250000 0.960681 0.446950
O O15 0.027965 0.916936 0.372310
O O16 0.000000 0.000000 0.407511
O O17 0.250000 0.212345 0.256795
O O18 0.483469 0.160691 0.287026
O O19 0.500000 0.250004 0.298135
O O20 0.250000 0.858579 0.350639
O O21 0.750000 0.787666 0.839466
#
# Coordination Sequence:
#
# PCOD8182630 Si02
#       8
#     8   8   8   8   8   8   8   8
#     4   9  18  32  48  63  90 130 160 187 232 285
#     4   9  14  26  47  65  91 130 161 182 224 286
#     4  10  18  31  49  69  94 129 164 192 231 281
#     4   9  17  29  47  69  96 129 160 191 232 283
#     4   9  17  29  47  69  96 129 160 191 232 283
#     4  11  21  33  49  69  93 125 162 198 234 279
#     4  10  18  31  49  69  94 129 164 192 231 281
#     4  11  21  33  49  69  93 125 162 198 234 279
#
# _framework density 16.182689
#
# number of rings (size 3 to 8) (size 9 to 14) (size 15 to 20)
#    0.000    2.250    3.750    0.750    0.000    1.000 
#    0.000    4.375    0.000    0.000    0.000    0.875 
#    0.000    0.000    0.000    0.000    0.000    0.000 
#
# Total GULP energy -396478.932307 kJ/mol
# GULP energy per Si atom -12389.966635 kJ/mol
# Density = 1.614586 g / cm^3
# Si number density = 16.182689 Si / 1000 Ang^3
#
#
#
# Elastic Constant Matrix: (Units=GPa)
#
#
# Indices 1 2 3 4 5 6 
#
# 1 39.2371 36.2081 32.4735 0.0000 0.0000 0.0000
# 2 36.2081 138.1132 65.6866 0.0000 0.0000 0.0000
# 3 32.4735 65.6866 118.9649 0.0000 0.0000 0.0000
# 4 0.0000 0.0000 0.0000 19.1025 0.0000 0.0000
# 5 0.0000 0.0000 0.0000 0.0000 18.8173 0.0000
# 6 0.0000 0.0000 0.0000 0.0000 0.0000 28.4000
#
#
#
# Elastic Compliance Matrix: (Units=1/GPa)
#
#
# Indices 1 2 3 4 5 6 
#
# 1 0.036910 -0.006624 -0.006418 0.000000 0.000000 0.000000
# 2 -0.006624 0.011008 -0.004270 0.000000 0.000000 0.000000
# 3 -0.006418 -0.004270 0.012515 0.000000 0.000000 0.000000
# 4 0.000000 0.000000 0.000000 0.052349 0.000000 0.000000
# 5 0.000000 0.000000 0.000000 0.000000 0.053143 0.000000
# 6 0.000000 0.000000 0.000000 0.000000 0.000000 0.035211
#
#
# Mechanical properties :
#
#
# Convention : Reuss Voigt Hill
#
# Bulk Modulus (GPa) = 38.74476 62.78351 50.76414
# Shear Modulus (GPa) = 20.46135 24.06043 22.26089
#
# Velocity S-wave (km/s) = 3.55969 3.86009 3.71293
# Velocity P-wave (km/s) = 6.39447 7.66472 7.05823
#
# Compressibility (1/GPa) = 0.02580994
#
# Stress axis : x y z
#
# Youngs Moduli (GPa) = 27.09259 90.84507 79.90267
#
# Poissons Ratio (x) = 0.60178 0.51280
# Poissons Ratio (y) = 0.17947 0.34116
# Poissons Ratio (z) = 0.17387 0.38789
#
# Static dielectric constant tensor:
#      x y z
#    x 2.834450 0.000000 0.000000 
#    y 0.000000 3.195490 0.000000 
#    z 0.000000 0.000000 3.394030 
# 
# 
# High freq. dielectric constant tensor:
#      x y z
#    x 1.602560 0.000000 0.000000 
#    y 0.000000 1.619440 0.000000 
#    z 0.000000 0.000000 1.601030 
# 
# From -- ./inp_files/15920.got.cif
#   From: 2010.03.12/outbox.cif.g09.slc.cpg/sg40_8_cif.got.tgz:15920.got - 2010.04.14 01:38:03.
