data_PCOD8182331
_publ_section_title
;
Structure prediction by ZEFSAII (Michael W. Deem and Ramdas Pophale) SiO2 
 PCOD8182331
Probable space group: A M A 2
;
_chemical_formula_sum "Si O2"
_cell_formula_units_Z 48
_cell_length_a 8.883450
_cell_length_b 31.523792
_cell_length_c 9.381045
_cell_angle_alpha 90.000000
_cell_angle_beta 90.000000
_cell_angle_gamma 90.000000
_cell_volume 2627.068124
_symmetry_space_group_name_H-M "A M A 2"
_symmetry_group_IT_number 40
_symmetry_cell_setting 'orthorhombic'
loop_
_space_group_symop_operation_xyz
x,y,z
-x,-y,z
1/2-x,y,z
1/2+x,-y,z
x,1/2+y,1/2+z
-x,1/2-y,1/2+z
1/2-x,1/2+y,1/2+z
1/2+x,1/2-y,1/2+z
loop_
_atom_site_type_symbol
_atom_site_label
_atom_site_fract_x
_atom_site_fract_y
_atom_site_fract_z
Si Si1 0.072354 0.459788 0.534360
Si Si2 0.423807 0.214675 0.049023
Si Si3 0.580602 0.626006 0.212952
Si Si4 0.928400 0.458045 0.225450
Si Si5 0.416940 0.868265 0.052051
Si Si6 0.574744 0.788915 0.718241
O O1 0.250000 0.466144 0.503658
O O2 0.045907 0.415033 0.617684
O O3 0.000000 0.500000 0.621076
O O4 0.978495 0.458140 0.389026
O O5 0.250000 0.223202 0.081149
O O6 0.465527 0.167276 0.103840
O O7 0.523245 0.248194 0.131934
O O8 0.464896 0.218676 0.883255
O O9 0.750000 0.623650 0.154263
O O10 0.490394 0.585187 0.152786
O O11 0.576844 0.625908 0.382979
O O12 0.506823 0.669442 0.156184
O O13 0.750000 0.459318 0.211288
O O14 0.000000 0.500000 0.150292
O O15 0.250000 0.853609 0.099003
O O16 0.750000 0.796193 0.696822
#
# Coordination Sequence:
#
# PCOD8182331 Si02
#       6
#     8   8   8   8   8   8
#     4   9  15  22  33  51  76 108 143 178 219 265
#     4  10  20  32  48  69  91 120 156 191 230 274
#     4   9  16  27  41  58  82 112 146 183 224 269
#     4  10  16  22  33  51  77 109 144 179 218 265
#     4   8  15  26  39  56  81 113 145 180 223 267
#     4  10  20  33  49  69  93 122 155 191 232 276
#
# _framework density 18.271318000000001
#
# number of rings (size 3 to 8) (size 9 to 14) (size 15 to 20)
#    0.000    2.667    0.000    5.500    0.000    6.667 
#    0.000    0.000    0.000    0.000    0.000    0.000 
#    0.000    1.333    0.000    7.000    0.000   10.000 
#
# Total GULP energy -297409.522278 kJ/mol
# GULP energy per Si atom -12392.063428 kJ/mol
# Density = 1.822973 g / cm^3
# Si number density = 18.271318 Si / 1000 Ang^3
#
#
#
# Elastic Constant Matrix: (Units=GPa)
#
#
# Indices 1 2 3 4 5 6 
#
# 1 123.9489 72.6473 21.1714 0.0000 0.0000 0.0000
# 2 72.6473 176.7671 24.0556 0.0000 0.0000 0.0000
# 3 21.1714 24.0556 13.1162 0.0000 0.0000 0.0000
# 4 0.0000 0.0000 0.0000 12.3207 0.0000 0.0000
# 5 0.0000 0.0000 0.0000 0.0000 12.3901 0.0000
# 6 0.0000 0.0000 0.0000 0.0000 0.0000 42.9907
#
#
#
# Elastic Compliance Matrix: (Units=1/GPa)
#
#
# Indices 1 2 3 4 5 6 
#
# 1 0.012322 -0.003142 -0.014128 0.000000 0.000000 0.000000
# 2 -0.003142 0.008340 -0.010224 0.000000 0.000000 0.000000
# 3 -0.014128 -0.010224 0.117798 0.000000 0.000000 0.000000
# 4 0.000000 0.000000 0.000000 0.081164 0.000000 0.000000
# 5 0.000000 0.000000 0.000000 0.000000 0.080709 0.000000
# 6 0.000000 0.000000 0.000000 0.000000 0.000000 0.023261
#
#
# Mechanical properties :
#
#
# Convention : Reuss Voigt Hill
#
# Bulk Modulus (GPa) = 11.98004 61.06454 36.52229
# Shear Modulus (GPa) = 12.30293 26.60416 19.45354
#
# Velocity S-wave (km/s) = 2.59771 3.81998 3.26652
# Velocity P-wave (km/s) = 3.94568 7.27666 5.85313
#
# Compressibility (1/GPa) = 0.08347215
#
# Stress axis : x y z
#
# Youngs Moduli (GPa) = 81.15349 119.90895 8.48907
#
# Poissons Ratio (x) = 0.37670 0.11994
# Poissons Ratio (y) = 0.25495 0.08680
# Poissons Ratio (z) = 1.14656 1.22599
#
# Static dielectric constant tensor:
#      x y z
#    x 3.484580 0.000000 0.000000 
#    y 0.000000 4.291710 0.000000 
#    z 0.000000 0.000000 2.569370 
# 
# 
# High freq. dielectric constant tensor:
#      x y z
#    x 1.723260 0.000000 0.000000 
#    y 0.000000 1.742670 0.000000 
#    z 0.000000 0.000000 1.606110 
# 
# From -- ./inp_files/10450.got.cif
#   From: 2010.03.12/outbox.cif.g09.slc.cpg/sg40_6_cif.got.tgz:10450.got - 2010.04.14 01:38:03.
