data_PCOD8182999
_publ_section_title
;
Structure prediction by ZEFSAII (Michael W. Deem and Ramdas Pophale) SiO2 
 PCOD8182999
Probable space group: A M A 2
;
_chemical_formula_sum "Si O2"
_cell_formula_units_Z 64
_cell_length_a 8.791600
_cell_length_b 16.337636
_cell_length_c 22.731345
_cell_angle_alpha 90.000000
_cell_angle_beta 90.000000
_cell_angle_gamma 90.000000
_cell_volume 3264.993113
_symmetry_space_group_name_H-M "A M A 2"
_symmetry_group_IT_number 40
_symmetry_cell_setting 'orthorhombic'
loop_
_space_group_symop_operation_xyz
x,y,z
-x,-y,z
1/2-x,y,z
1/2+x,-y,z
x,1/2+y,1/2+z
-x,1/2-y,1/2+z
1/2-x,1/2+y,1/2+z
1/2+x,1/2-y,1/2+z
loop_
_atom_site_type_symbol
_atom_site_label
_atom_site_fract_x
_atom_site_fract_y
_atom_site_fract_z
Si Si1 0.929546 0.421822 0.072180
Si Si2 0.923818 0.613849 0.953021
Si Si3 0.067889 0.587042 0.825802
Si Si4 0.930112 0.919419 0.911582
Si Si5 0.429591 0.084752 0.778926
Si Si6 0.928219 0.749708 0.615577
Si Si7 0.570187 0.231985 0.246165
Si Si8 0.579378 0.793572 0.001796
O O1 0.750000 0.425658 0.073758
O O2 0.992996 0.341753 0.105745
O O3 0.000000 0.500000 0.106350
O O4 0.986777 0.430519 0.005095
O O5 0.750000 0.581788 0.947108
O O6 0.011675 0.598834 0.892347
O O7 0.925975 0.707481 0.970386
O O8 0.250000 0.583284 0.823424
O O9 0.000000 0.500000 0.801855
O O10 0.013153 0.665422 0.787218
O O11 0.750000 0.920230 0.912114
O O12 0.988726 0.907816 0.845522
O O13 0.998543 0.849761 0.952901
O O14 0.000000 0.000000 0.939631
O O15 0.250000 0.075919 0.771907
O O16 0.482592 0.172583 0.752403
O O17 0.500000 0.000000 0.751319
O O18 0.750000 0.754527 0.609107
O O19 0.972642 0.711252 0.678459
O O20 0.991342 0.694716 0.562939
O O21 0.750000 0.225235 0.259288
O O22 0.750000 0.820933 0.016074
#
# Coordination Sequence:
#
# PCOD8182999 Si02
#       8
#     8   8   8   8   8   8   8   8
#     4  10  19  32  50  78 112 144 177 216 263 319
#     4  10  19  34  56  81 109 142 176 218 272 330
#     4  12  25  40  59  84 111 143 184 233 284 339
#     4   9  17  30  48  74 103 132 165 206 257 313
#     4   9  18  33  55  82 114 146 179 219 266 322
#     4   9  20  36  54  75 102 137 179 222 265 312
#     4  10  21  40  60  79 109 150 189 230 278 327
#     4   9  18  33  54  77 104 138 176 216 264 318
#
# _framework density 19.601877999999999
#
# number of rings (size 3 to 8) (size 9 to 14) (size 15 to 20)
#    0.000    2.250    0.000    3.000    0.000    5.000 
#    0.000    3.125    0.000    1.500    0.000    0.000 
#    0.000    0.000    0.000    0.000    0.000    0.000 
#
# Total GULP energy -396460.801729 kJ/mol
# GULP energy per Si atom -12389.400054 kJ/mol
# Density = 1.955726 g / cm^3
# Si number density = 19.601878 Si / 1000 Ang^3
#
#
#
# Elastic Constant Matrix: (Units=GPa)
#
#
# Indices 1 2 3 4 5 6 
#
# 1 59.9506 25.5258 32.2999 0.0000 0.0000 0.0000
# 2 25.5258 69.6375 26.9231 0.0000 0.0000 0.0000
# 3 32.2999 26.9231 77.7463 0.0000 0.0000 0.0000
# 4 0.0000 0.0000 0.0000 -39.3304 0.0000 0.0000
# 5 0.0000 0.0000 0.0000 0.0000 19.7046 0.0000
# 6 0.0000 0.0000 0.0000 0.0000 0.0000 31.1912
#
#
#
# Elastic Compliance Matrix: (Units=1/GPa)
#
#
# Indices 1 2 3 4 5 6 
#
# 1 0.023190 -0.005514 -0.007725 0.000000 0.000000 0.000000
# 2 -0.005514 0.017891 -0.003905 0.000000 0.000000 0.000000
# 3 -0.007725 -0.003905 0.017424 0.000000 0.000000 0.000000
# 4 0.000000 0.000000 0.000000 -0.025426 0.000000 0.000000
# 5 0.000000 0.000000 0.000000 0.000000 0.050750 0.000000
# 6 0.000000 0.000000 0.000000 0.000000 0.000000 0.032060
#
#
# Mechanical properties :
#
#
# Convention : Reuss Voigt Hill
#
# Bulk Modulus (GPa) = 41.29204 41.87023 41.58113
# Shear Modulus (GPa) = 31.59581 10.48544 21.04063
#
# Velocity S-wave (km/s) = 4.01917 2.31534 3.27983
# Velocity P-wave (km/s) = 6.53065 5.34364 5.96674
#
# Compressibility (1/GPa) = 0.02421774
#
# Stress axis : x y z
#
# Youngs Moduli (GPa) = 43.12185 55.89455 57.39232
#
# Poissons Ratio (x) = 0.30819 0.44336
# Poissons Ratio (y) = 0.23776 0.22410
# Poissons Ratio (z) = 0.33312 0.21826
#
# Static dielectric constant tensor:
#      x y z
#    x 3.561910 0.000000 0.000000 
#    y 0.000000 4.194750 0.000000 
#    z 0.000000 0.000000 3.688500 
# 
# 
# High freq. dielectric constant tensor:
#      x y z
#    x 1.753700 0.000000 0.000000 
#    y 0.000000 1.768990 0.000000 
#    z 0.000000 0.000000 1.758480 
# 
# From -- ./inp_files/22359.got.cif
#   From: 2010.03.12/outbox.cif.g09.slc.cpg/sg40_12_cif.got.tgz:22359.got - 2010.04.14 01:38:03.
