data_PCOD8182834
_publ_section_title
;
Structure prediction by ZEFSAII (Michael W. Deem and Ramdas Pophale) SiO2 
 PCOD8182834
Probable space group: A M A 2
;
_chemical_formula_sum "Si O2"
_cell_formula_units_Z 64
_cell_length_a 8.768757
_cell_length_b 18.305898
_cell_length_c 26.306353
_cell_angle_alpha 90.000000
_cell_angle_beta 90.000000
_cell_angle_gamma 90.000000
_cell_volume 4222.695027
_symmetry_space_group_name_H-M "A M A 2"
_symmetry_group_IT_number 40
_symmetry_cell_setting 'orthorhombic'
loop_
_space_group_symop_operation_xyz
x,y,z
-x,-y,z
1/2-x,y,z
1/2+x,-y,z
x,1/2+y,1/2+z
-x,1/2-y,1/2+z
1/2-x,1/2+y,1/2+z
1/2+x,1/2-y,1/2+z
loop_
_atom_site_type_symbol
_atom_site_label
_atom_site_fract_x
_atom_site_fract_y
_atom_site_fract_z
Si Si1 0.421325 0.294327 0.990750
Si Si2 0.931023 0.921596 0.132603
Si Si3 0.430462 0.078959 0.433823
Si Si4 0.069512 0.834188 0.042834
Si Si5 0.072695 0.921971 0.943533
Si Si6 0.071022 0.423645 0.739015
Si Si7 0.571903 0.157948 0.340147
Si Si8 0.418384 0.200081 0.889435
O O1 0.250000 0.310012 0.010564
O O2 0.507215 0.369863 0.979142
O O3 0.415866 0.248160 0.939743
O O4 0.514760 0.248612 0.032855
O O5 0.750000 0.927423 0.132257
O O6 0.986030 0.861280 0.093104
O O7 0.989646 0.896473 0.187801
O O8 0.000000 0.000000 0.117539
O O9 0.250000 0.075325 0.437334
O O10 0.475653 0.107759 0.378083
O O11 0.500000 0.000000 0.442867
O O12 0.250000 0.835468 0.050337
O O13 0.017316 0.886674 0.996514
O O14 0.250000 0.933340 0.943632
O O15 0.029186 0.868991 0.896418
O O16 0.000000 0.000000 0.935255
O O17 0.250000 0.434237 0.728623
O O18 0.037982 0.364326 0.782400
O O19 0.000000 0.500000 0.757277
O O20 0.750000 0.147564 0.354294
O O21 0.526096 0.243944 0.345283
O O22 0.250000 0.169286 0.877386
#
# Coordination Sequence:
#
# PCOD8182834 Si02
#       8
#     8   8   8   8   8   8   8   8
#     4   9  17  30  45  62  85 112 142 176 214 255
#     4  11  21  32  45  62  85 114 147 183 220 254
#     4  11  20  29  43  63  88 117 148 181 215 254
#     4  10  19  31  46  64  85 112 146 179 215 258
#     4  10  19  28  41  61  84 111 142 174 208 248
#     4  10  19  31  45  62  85 112 144 181 218 255
#     4   9  18  31  46  63  84 113 146 179 218 260
#     4   8  15  28  43  59  82 109 137 171 209 250
#
# _framework density 15.156198
#
# number of rings (size 3 to 8) (size 9 to 14) (size 15 to 20)
#    0.000    2.250    0.000    6.000    0.000    7.500 
#    0.000    0.000    0.000    0.000    0.000    0.000 
#    0.000    1.000    0.000    8.500    0.000    4.500 
#
# Total GULP energy -396757.125284 kJ/mol
# GULP energy per Si atom -12398.660165 kJ/mol
# Density = 1.512170 g / cm^3
# Si number density = 15.156198 Si / 1000 Ang^3
#
#
#
# Elastic Constant Matrix: (Units=GPa)
#
#
# Indices 1 2 3 4 5 6 
#
# 1 98.5224 50.0398 37.8352 0.0000 0.0000 0.0000
# 2 50.0398 109.5487 52.9426 0.0000 0.0000 0.0000
# 3 37.8352 52.9426 76.6770 0.0000 0.0000 0.0000
# 4 0.0000 0.0000 0.0000 24.2811 0.0000 0.0000
# 5 0.0000 0.0000 0.0000 0.0000 17.5055 0.0000
# 6 0.0000 0.0000 0.0000 0.0000 0.0000 26.8870
#
#
#
# Elastic Compliance Matrix: (Units=1/GPa)
#
#
# Indices 1 2 3 4 5 6 
#
# 1 0.013886 -0.004550 -0.003710 0.000000 0.000000 0.000000
# 2 -0.004550 0.015190 -0.008243 0.000000 0.000000 0.000000
# 3 -0.003710 -0.008243 0.020564 0.000000 0.000000 0.000000
# 4 0.000000 0.000000 0.000000 0.041184 0.000000 0.000000
# 5 0.000000 0.000000 0.000000 0.000000 0.057125 0.000000
# 6 0.000000 0.000000 0.000000 0.000000 0.000000 0.037193
#
#
# Mechanical properties :
#
#
# Convention : Reuss Voigt Hill
#
# Bulk Modulus (GPa) = 60.11942 62.93149 61.52546
# Shear Modulus (GPa) = 22.35200 23.33008 22.84104
#
# Velocity S-wave (km/s) = 3.84445 3.92766 3.88628
# Velocity P-wave (km/s) = 7.71097 7.88548 7.79871
#
# Compressibility (1/GPa) = 0.01663356
#
# Stress axis : x y z
#
# Youngs Moduli (GPa) = 72.01715 65.83101 48.62779
#
# Poissons Ratio (x) = 0.29950 0.18043
# Poissons Ratio (y) = 0.32764 0.40086
# Poissons Ratio (z) = 0.26721 0.54268
#
# Static dielectric constant tensor:
#      x y z
#    x 3.079440 0.000000 0.000000 
#    y 0.000000 3.118550 0.000000 
#    z 0.000000 0.000000 2.802850 
# 
# 
# High freq. dielectric constant tensor:
#      x y z
#    x 1.597690 0.000000 0.000000 
#    y 0.000000 1.570470 0.000000 
#    z 0.000000 0.000000 1.546370 
# 
# From -- ./inp_files/24400.got.cif
#   From: 2010.03.12/outbox.cif.g09.slc.cpg/sg40_13_cif.got.tgz:24400.got - 2010.04.14 01:38:03.
