data_PCOD8182580
_publ_section_title
;
Structure prediction by ZEFSAII (Michael W. Deem and Ramdas Pophale) SiO2 
 PCOD8182580
Probable space group: A M A 2
;
_chemical_formula_sum "Si O2"
_cell_formula_units_Z 64
_cell_length_a 8.961000
_cell_length_b 14.181574
_cell_length_c 29.091304
_cell_angle_alpha 90.000000
_cell_angle_beta 90.000000
_cell_angle_gamma 90.000000
_cell_volume 3696.954465
_symmetry_space_group_name_H-M "A M A 2"
_symmetry_group_IT_number 40
_symmetry_cell_setting 'orthorhombic'
loop_
_space_group_symop_operation_xyz
x,y,z
-x,-y,z
1/2-x,y,z
1/2+x,-y,z
x,1/2+y,1/2+z
-x,1/2-y,1/2+z
1/2-x,1/2+y,1/2+z
1/2+x,1/2-y,1/2+z
loop_
_atom_site_type_symbol
_atom_site_label
_atom_site_fract_x
_atom_site_fract_y
_atom_site_fract_z
Si Si1 0.927389 0.102309 0.326670
Si Si2 0.425900 0.101801 0.506760
Si Si3 0.426864 0.703448 0.910940
Si Si4 0.586832 0.585558 0.513345
Si Si5 0.076043 0.600513 0.739074
Si Si6 0.422848 0.101256 0.137467
Si Si7 0.589300 0.585626 0.408295
Si Si8 0.926399 0.258889 0.557847
O O1 0.750000 0.097267 0.324940
O O2 0.978483 0.150153 0.373142
O O3 0.991758 0.156091 0.280802
O O4 0.000000 0.000000 0.326060
O O5 0.250000 0.090994 0.513997
O O6 0.464467 0.158875 0.460331
O O7 0.495149 0.157166 0.550936
O O8 0.500000 0.000000 0.503496
O O9 0.250000 0.696408 0.901778
O O10 0.485209 0.811160 0.906549
O O11 0.500000 0.500000 0.539097
O O12 0.750000 0.601701 0.536420
O O13 0.612465 0.557268 0.461025
O O14 0.485127 0.678572 0.515288
O O15 0.250000 0.591218 0.751552
O O16 0.053010 0.645935 0.688564
O O17 0.000000 0.500000 0.735034
O O18 0.250000 0.082407 0.127831
O O19 0.481670 0.183308 0.103044
O O20 0.500000 0.000000 0.130412
O O21 0.500000 0.500000 0.383781
O O22 0.750000 0.589674 0.383557
O O23 0.750000 0.244577 0.556701
#
# Coordination Sequence:
#
# PCOD8182580 Si02
#       8
#     8   8   8   8   8   8   8   8
#     4  11  21  32  49  75 102 132 169 208 251 300
#     4  11  23  39  54  71  97 131 172 215 256 298
#     4  10  20  36  53  72  99 132 171 209 248 295
#     4  10  18  30  45  67  95 128 164 202 241 286
#     4   9  16  30  49  70 100 134 164 201 248 297
#     4   9  19  32  49  75 105 136 169 202 244 298
#     4   9  18  32  48  68  95 127 162 201 241 287
#     4  11  21  33  49  72  99 132 169 206 247 297
#
# _framework density 17.311546
#
# number of rings (size 3 to 8) (size 9 to 14) (size 15 to 20)
#    0.000    2.000    1.250    4.125    0.000    5.500 
#    0.000    0.000    0.000    0.000    0.000    0.875 
#    0.000    4.000    0.000    0.000    0.000    0.000 
#
# Total GULP energy -396427.259089 kJ/mol
# GULP energy per Si atom -12388.351847 kJ/mol
# Density = 1.727214 g / cm^3
# Si number density = 17.311546 Si / 1000 Ang^3
#
#
#
# Elastic Constant Matrix: (Units=GPa)
#
#
# Indices 1 2 3 4 5 6 
#
# 1 100.2844 47.2508 47.9611 0.0000 0.0000 0.0000
# 2 47.2508 101.7605 34.5796 0.0000 0.0000 0.0000
# 3 47.9611 34.5796 85.6051 0.0000 0.0000 0.0000
# 4 0.0000 0.0000 0.0000 16.0532 0.0000 0.0000
# 5 0.0000 0.0000 0.0000 0.0000 21.7980 0.0000
# 6 0.0000 0.0000 0.0000 0.0000 0.0000 28.6939
#
#
#
# Elastic Compliance Matrix: (Units=1/GPa)
#
#
# Indices 1 2 3 4 5 6 
#
# 1 0.015489 -0.004918 -0.006691 0.000000 0.000000 0.000000
# 2 -0.004918 0.012952 -0.002476 0.000000 0.000000 0.000000
# 3 -0.006691 -0.002476 0.016431 0.000000 0.000000 0.000000
# 4 0.000000 0.000000 0.000000 0.062293 0.000000 0.000000
# 5 0.000000 0.000000 0.000000 0.000000 0.045876 0.000000
# 6 0.000000 0.000000 0.000000 0.000000 0.000000 0.034851
#
#
# Mechanical properties :
#
#
# Convention : Reuss Voigt Hill
#
# Bulk Modulus (GPa) = 59.87979 60.80366 60.34172
# Shear Modulus (GPa) = 22.56014 23.83292 23.19653
#
# Velocity S-wave (km/s) = 3.61388 3.71443 3.66450
# Velocity P-wave (km/s) = 7.21652 7.32089 7.26889
#
# Compressibility (1/GPa) = 0.01670013
#
# Stress axis : x y z
#
# Youngs Moduli (GPa) = 64.56177 77.20658 60.86180
#
# Poissons Ratio (x) = 0.37973 0.40724
# Poissons Ratio (y) = 0.31754 0.15072
# Poissons Ratio (z) = 0.43199 0.19120
#
# Static dielectric constant tensor:
#      x y z
#    x 3.693000 0.000000 0.000000 
#    y 0.000000 3.120500 0.000000 
#    z 0.000000 0.000000 3.739460 
# 
# 
# High freq. dielectric constant tensor:
#      x y z
#    x 1.681920 0.000000 0.000000 
#    y 0.000000 1.641350 0.000000 
#    z 0.000000 0.000000 1.649790 
# 
# From -- ./inp_files/26481.got.cif
#   From: 2010.03.12/outbox.cif.g09.slc.cpg/sg40_14_cif.got.tgz:26481.got - 2010.04.14 01:38:03.
