data_PCOD8182998
_publ_section_title
;
Structure prediction by ZEFSAII (Michael W. Deem and Ramdas Pophale) SiO2 
 PCOD8182998
Probable space group: A M A 2
;
_chemical_formula_sum "Si O2"
_cell_formula_units_Z 64
_cell_length_a 8.860416
_cell_length_b 27.459564
_cell_length_c 14.482844
_cell_angle_alpha 90.000000
_cell_angle_beta 90.000000
_cell_angle_gamma 90.000000
_cell_volume 3523.721714
_symmetry_space_group_name_H-M "A M A 2"
_symmetry_group_IT_number 40
_symmetry_cell_setting 'orthorhombic'
loop_
_space_group_symop_operation_xyz
x,y,z
-x,-y,z
1/2-x,y,z
1/2+x,-y,z
x,1/2+y,1/2+z
-x,1/2-y,1/2+z
1/2-x,1/2+y,1/2+z
1/2+x,1/2-y,1/2+z
loop_
_atom_site_type_symbol
_atom_site_label
_atom_site_fract_x
_atom_site_fract_y
_atom_site_fract_z
Si Si1 0.577273 0.367272 0.173960
Si Si2 0.076909 0.219794 0.805253
Si Si3 0.425644 0.331330 0.790470
Si Si4 0.073900 0.950317 0.786574
Si Si5 0.574522 0.717636 0.491623
Si Si6 0.428745 0.949252 0.996791
Si Si7 0.424327 0.170550 0.478128
Si Si8 0.927966 0.862555 0.110835
O O1 0.750000 0.382901 0.190365
O O2 0.546673 0.314454 0.218028
O O3 0.470478 0.406934 0.219074
O O4 0.540204 0.363717 0.065414
O O5 0.250000 0.217276 0.839073
O O6 0.035515 0.274487 0.775345
O O7 0.971272 0.201436 0.888450
O O8 0.250000 0.342283 0.776303
O O9 0.474224 0.347679 0.893170
O O10 0.520446 0.362652 0.717319
O O11 0.250000 0.958183 0.781948
O O12 0.022095 0.938383 0.891117
O O13 0.000000 0.000000 0.750691
O O14 0.750000 0.705872 0.507702
O O15 0.535712 0.774179 0.505654
O O16 0.478054 0.688190 0.565712
O O17 0.250000 0.951953 0.007618
O O18 0.492451 0.906854 0.059773
O O19 0.500000 0.000000 0.030249
O O20 0.250000 0.167440 0.448546
O O21 0.750000 0.869025 0.104061
#
# Coordination Sequence:
#
# PCOD8182998 Si02
#       8
#     8   8   8   8   8   8   8   8
#     4  10  19  32  52  75 103 138 173 210 254 306
#     4   9  18  32  50  75 107 141 174 210 257 310
#     4  10  20  35  53  74 103 139 179 221 260 302
#     4  10  21  36  55  79 106 134 166 206 254 307
#     4  10  19  32  50  74 106 141 177 217 258 304
#     4  10  21  38  58  81 108 136 167 209 260 313
#     4   9  19  35  52  73 104 141 177 215 261 308
#     4  12  23  34  52  77 105 140 179 216 258 310
#
# _framework density 18.162614999999999
#
# number of rings (size 3 to 8) (size 9 to 14) (size 15 to 20)
#    0.000    2.000    0.000    4.125    0.000    7.500 
#    0.000    1.250    0.000    0.750    0.000    1.750 
#    0.000    0.000    0.000    0.000    0.000    0.000 
#
# Total GULP energy -396931.481350 kJ/mol
# GULP energy per Si atom -12404.108792 kJ/mol
# Density = 1.812128 g / cm^3
# Si number density = 18.162615 Si / 1000 Ang^3
#
#
#
# Elastic Constant Matrix: (Units=GPa)
#
#
# Indices 1 2 3 4 5 6 
#
# 1 73.9234 31.4752 36.8965 0.0000 0.0000 0.0000
# 2 31.4752 72.2924 45.6740 0.0000 0.0000 0.0000
# 3 36.8965 45.6740 96.6509 0.0000 0.0000 0.0000
# 4 0.0000 0.0000 0.0000 24.2500 0.0000 0.0000
# 5 0.0000 0.0000 0.0000 0.0000 32.8641 0.0000
# 6 0.0000 0.0000 0.0000 0.0000 0.0000 30.7616
#
#
#
# Elastic Compliance Matrix: (Units=1/GPa)
#
#
# Indices 1 2 3 4 5 6 
#
# 1 0.017873 -0.004948 -0.004485 0.000000 0.000000 0.000000
# 2 -0.004948 0.021091 -0.008078 0.000000 0.000000 0.000000
# 3 -0.004485 -0.008078 0.015876 0.000000 0.000000 0.000000
# 4 0.000000 0.000000 0.000000 0.041237 0.000000 0.000000
# 5 0.000000 0.000000 0.000000 0.000000 0.030428 0.000000
# 6 0.000000 0.000000 0.000000 0.000000 0.000000 0.032508
#
#
# Mechanical properties :
#
#
# Convention : Reuss Voigt Hill
#
# Bulk Modulus (GPa) = 50.45906 52.32867 51.39387
# Shear Modulus (GPa) = 24.92030 26.16320 25.54175
#
# Velocity S-wave (km/s) = 3.70816 3.79951 3.75411
# Velocity P-wave (km/s) = 6.79530 6.93701 6.86652
#
# Compressibility (1/GPa) = 0.01981805
#
# Stress axis : x y z
#
# Youngs Moduli (GPa) = 55.95120 47.41448 62.98913
#
# Poissons Ratio (x) = 0.23462 0.28248
# Poissons Ratio (y) = 0.27686 0.50881
# Poissons Ratio (z) = 0.25091 0.38300
#
# Static dielectric constant tensor:
#      x y z
#    x 3.431410 0.000000 0.000000 
#    y 0.000000 3.190630 0.000000 
#    z 0.000000 0.000000 3.379420 
# 
# 
# High freq. dielectric constant tensor:
#      x y z
#    x 1.710850 0.000000 0.000000 
#    y 0.000000 1.681810 0.000000 
#    z 0.000000 0.000000 1.702700 
# 
# From -- ./inp_files/15684.got.cif
#   From: 2010.03.12/outbox.cif.g09.slc.cpg/sg40_8_cif.got.tgz:15684.got - 2010.04.14 01:38:03.
