data_PCOD8183725
_publ_section_title
;
Structure prediction by ZEFSAII (Michael W. Deem and Ramdas Pophale) SiO2 
 PCOD8183725
Probable space group: A M A 2
;
_chemical_formula_sum "Si O2"
_cell_formula_units_Z 64
_cell_length_a 24.084015
_cell_length_b 16.275782
_cell_length_c 7.984143
_cell_angle_alpha 90.000000
_cell_angle_beta 90.000000
_cell_angle_gamma 90.000000
_cell_volume 3129.673698
_symmetry_space_group_name_H-M "A M A 2"
_symmetry_group_IT_number 40
_symmetry_cell_setting 'orthorhombic'
loop_
_space_group_symop_operation_xyz
x,y,z
-x,-y,z
1/2-x,y,z
1/2+x,-y,z
x,1/2+y,1/2+z
-x,1/2-y,1/2+z
1/2-x,1/2+y,1/2+z
1/2+x,1/2-y,1/2+z
loop_
_atom_site_type_symbol
_atom_site_label
_atom_site_fract_x
_atom_site_fract_y
_atom_site_fract_z
Si Si1 0.686773 0.210550 0.549810
Si Si2 0.688954 0.414947 0.116419
Si Si3 0.380741 0.647412 0.385859
Si Si4 0.484781 0.363903 0.879112
Si Si5 0.875253 0.553663 0.942965
Si Si6 0.442927 0.241574 0.612634
Si Si7 0.347220 0.218895 0.380134
Si Si8 0.090554 0.572568 0.710395
O O1 0.750000 0.230599 0.496199
O O2 0.641042 0.269640 0.470635
O O3 0.672099 0.121080 0.474618
O O4 0.683152 0.216871 0.754181
O O5 0.750000 0.455971 0.109223
O O6 0.673569 0.396442 0.308757
O O7 0.640203 0.475441 0.055855
O O8 0.692296 0.329568 0.010410
O O9 0.423029 0.669503 0.237011
O O10 0.413306 0.584743 0.509928
O O11 0.436559 0.410827 0.982244
O O12 0.460482 0.322146 0.712038
O O13 0.532179 0.425613 0.811260
O O14 0.506128 0.293801 0.005049
O O15 0.879248 0.514557 0.754133
O O16 0.393791 0.267809 0.485577
O O17 0.373121 0.149467 0.263973
#
# Coordination Sequence:
#
# PCOD8183725 Si02
#       8
#     8   8   8   8   8   8   8   8
#     4  11  21  38  63  89 119 159 204 255 311 353
#     4  10  20  39  62  86 122 164 204 250 306 362
#     4  10  20  40  60  92 116 157 211 254 288 373
#     4  11  21  37  62  88 123 163 196 246 310 372
#     4  11  23  39  57  88 124 157 198 253 302 363
#     4  10  20  35  62  93 119 156 204 257 307 356
#     4   8  19  36  61  88 118 154 208 249 293 369
#     4   9  20  38  58  83 123 161 198 238 306 370
#
# _framework density 20.449418000000001
#
# number of rings (size 3 to 8) (size 9 to 14) (size 15 to 20)
#    0.000    2.000    1.250    3.000    3.500    0.000 
#    2.250    3.125    0.000    0.000    0.000    0.000 
#    0.000    0.000    0.000    0.000    0.000    0.000 
#
# Total GULP energy -396495.661135 kJ/mol
# GULP energy per Si atom -12390.489410 kJ/mol
# Density = 2.040287 g / cm^3
# Si number density = 20.449418 Si / 1000 Ang^3
#
#
#
# Elastic Constant Matrix: (Units=GPa)
#
#
# Indices 1 2 3 4 5 6 
#
# 1 83.4713 23.9228 18.1840 0.0000 0.0000 0.0000
# 2 23.9228 81.5713 30.9959 0.0000 0.0000 0.0000
# 3 18.1840 30.9959 74.6200 0.0000 0.0000 0.0000
# 4 0.0000 0.0000 0.0000 31.4593 0.0000 0.0000
# 5 0.0000 0.0000 0.0000 0.0000 28.3261 0.0000
# 6 0.0000 0.0000 0.0000 0.0000 0.0000 25.7386
#
#
#
# Elastic Compliance Matrix: (Units=1/GPa)
#
#
# Indices 1 2 3 4 5 6 
#
# 1 0.013309 -0.003171 -0.001926 0.000000 0.000000 0.000000
# 2 -0.003171 0.015313 -0.005588 0.000000 0.000000 0.000000
# 3 -0.001926 -0.005588 0.016192 0.000000 0.000000 0.000000
# 4 0.000000 0.000000 0.000000 0.031787 0.000000 0.000000
# 5 0.000000 0.000000 0.000000 0.000000 0.035303 0.000000
# 6 0.000000 0.000000 0.000000 0.000000 0.000000 0.038852
#
#
# Mechanical properties :
#
#
# Convention : Reuss Voigt Hill
#
# Bulk Modulus (GPa) = 42.65677 42.87423 42.76550
# Shear Modulus (GPa) = 27.78715 28.20878 27.99797
#
# Velocity S-wave (km/s) = 3.69022 3.71811 3.70419
# Velocity P-wave (km/s) = 6.24995 6.28045 6.26522
#
# Compressibility (1/GPa) = 0.02344294
#
# Stress axis : x y z
#
# Youngs Moduli (GPa) = 75.13943 65.30600 61.76038
#
# Poissons Ratio (x) = 0.20710 0.11894
# Poissons Ratio (y) = 0.23829 0.34510
# Poissons Ratio (z) = 0.14471 0.36491
#
# Static dielectric constant tensor:
#      x y z
#    x 3.703360 0.000000 0.000000 
#    y 0.000000 3.550720 0.000000 
#    z 0.000000 0.000000 3.926450 
# 
# 
# High freq. dielectric constant tensor:
#      x y z
#    x 1.797350 0.000000 0.000000 
#    y 0.000000 1.779220 0.000000 
#    z 0.000000 0.000000 1.796110 
# 
# From -- ./inp_files/8988.got.cif
#   From: 2010.03.12/outbox.cif.g09.slc.cpg/sg40_5_cif.got.tgz:8988.got - 2010.04.14 01:38:03.
