data_PCOD8183974
_publ_section_title
;
Structure prediction by ZEFSAII (Michael W. Deem and Ramdas Pophale) SiO2 
 PCOD8183974
Probable space group: A M A 2
;
_chemical_formula_sum "Si O2"
_cell_formula_units_Z 32
_cell_length_a 18.246897
_cell_length_b 13.179053
_cell_length_c 7.538479
_cell_angle_alpha 90.000000
_cell_angle_beta 90.000000
_cell_angle_gamma 90.000000
_cell_volume 1812.829478
_symmetry_space_group_name_H-M "A M A 2"
_symmetry_group_IT_number 40
_symmetry_cell_setting 'orthorhombic'
loop_
_space_group_symop_operation_xyz
x,y,z
-x,-y,z
1/2-x,y,z
1/2+x,-y,z
x,1/2+y,1/2+z
-x,1/2-y,1/2+z
1/2-x,1/2+y,1/2+z
1/2+x,1/2-y,1/2+z
loop_
_atom_site_type_symbol
_atom_site_label
_atom_site_fract_x
_atom_site_fract_y
_atom_site_fract_z
Si Si1 0.910544 0.739188 0.467320
Si Si2 0.418085 0.462227 0.301965
Si Si3 0.574149 0.720734 0.081528
Si Si4 0.834925 0.831558 0.785539
O O1 0.899848 0.616502 0.462431
O O2 0.905490 0.781042 0.264251
O O3 0.848449 0.791692 0.586302
O O4 0.988749 0.765125 0.548886
O O5 0.500000 0.500000 0.331551
O O6 0.412263 0.400013 0.115392
O O7 0.360869 0.553147 0.304888
O O8 0.622599 0.758693 0.920105
O O9 0.750000 0.826341 0.831107
#
# Coordination Sequence:
#
# PCOD8183974 Si02
#       4
#     8   8   8   8
#     4  10  20  38  67  91 115 159 213 242 294 374
#     4  10  20  38  67  91 115 159 213 242 294 374
#     4  10  20  38  67  91 115 159 213 242 294 374
#     4  12  24  42  60  90 133 158 193 267 306 333
#
# _framework density 17.651964
#
# number of rings (size 3 to 8) (size 9 to 14) (size 15 to 20)
#    1.500    0.000    7.500    0.000    0.000    3.000 
#    4.500    3.750    0.000    0.000    0.000    0.000 
#    0.000    0.000    0.000    0.000    0.000    0.000 
#
# Total GULP energy -198244.467760 kJ/mol
# GULP energy per Si atom -12390.279235 kJ/mol
# Density = 1.761179 g / cm^3
# Si number density = 17.651964 Si / 1000 Ang^3
#
#
#
# Elastic Constant Matrix: (Units=GPa)
#
#
# Indices 1 2 3 4 5 6 
#
# 1 69.5071 31.2364 5.9778 0.0000 0.0000 0.0000
# 2 31.2364 65.4666 -14.4069 0.0000 0.0000 0.0000
# 3 5.9778 -14.4069 52.4962 0.0000 0.0000 0.0000
# 4 0.0000 0.0000 0.0000 -19.9852 0.0000 0.0000
# 5 0.0000 0.0000 0.0000 0.0000 20.5551 0.0000
# 6 0.0000 0.0000 0.0000 0.0000 0.0000 19.9976
#
#
#
# Elastic Compliance Matrix: (Units=1/GPa)
#
#
# Indices 1 2 3 4 5 6 
#
# 1 0.019510 -0.010428 -0.005083 0.000000 0.000000 0.000000
# 2 -0.010428 0.021830 0.007178 0.000000 0.000000 0.000000
# 3 -0.005083 0.007178 0.021598 0.000000 0.000000 0.000000
# 4 0.000000 0.000000 0.000000 -0.050037 0.000000 0.000000
# 5 0.000000 0.000000 0.000000 0.000000 0.048650 0.000000
# 6 0.000000 0.000000 0.000000 0.000000 0.000000 0.050006
#
#
# Mechanical properties :
#
#
# Convention : Reuss Voigt Hill
#
# Bulk Modulus (GPa) = 21.61096 25.89828 23.75462
# Shear Modulus (GPa) = 34.80752 15.09101 24.94926
#
# Velocity S-wave (km/s) = 4.44540 2.92707 3.76360
# Velocity P-wave (km/s) = 6.21435 5.11147 5.68970
#
# Compressibility (1/GPa) = 0.04627281
#
# Stress axis : x y z
#
# Youngs Moduli (GPa) = 51.25453 45.80816 46.30088
#
# Poissons Ratio (x) = 0.47768 0.23537
# Poissons Ratio (y) = 0.53447 -0.33237
# Poissons Ratio (z) = 0.26055 -0.32883
#
# Static dielectric constant tensor:
#      x y z
#    x 3.765340 0.000000 0.000000 
#    y 0.000000 4.519430 0.000000 
#    z 0.000000 0.000000 3.293510 
# 
# 
# High freq. dielectric constant tensor:
#      x y z
#    x 1.670450 0.000000 0.000000 
#    y 0.000000 1.680700 0.000000 
#    z 0.000000 0.000000 1.679200 
# 
# From -- ./inp_files/5882.got.cif
#   From: 2010.03.12/outbox.cif.g09.slc.cpg/sg40_3_cif.got.tgz:5882.got - 2010.04.14 01:38:03.
