data_PCOD8183007
_publ_section_title
;
Structure prediction by ZEFSAII (Michael W. Deem and Ramdas Pophale) SiO2 
 PCOD8183007
Probable space group: A M A 2
;
_chemical_formula_sum "Si O2"
_cell_formula_units_Z 64
_cell_length_a 8.644640
_cell_length_b 28.158030
_cell_length_c 14.458659
_cell_angle_alpha 90.000000
_cell_angle_beta 90.000000
_cell_angle_gamma 90.000000
_cell_volume 3519.469408
_symmetry_space_group_name_H-M "A M A 2"
_symmetry_group_IT_number 40
_symmetry_cell_setting 'orthorhombic'
loop_
_space_group_symop_operation_xyz
x,y,z
-x,-y,z
1/2-x,y,z
1/2+x,-y,z
x,1/2+y,1/2+z
-x,1/2-y,1/2+z
1/2-x,1/2+y,1/2+z
1/2+x,1/2-y,1/2+z
loop_
_atom_site_type_symbol
_atom_site_label
_atom_site_fract_x
_atom_site_fract_y
_atom_site_fract_z
Si Si1 0.064878 0.333358 0.083450
Si Si2 0.567032 0.862588 0.966182
Si Si3 0.571617 0.366902 0.893302
Si Si4 0.431767 0.450579 0.566079
Si Si5 0.572868 0.265836 0.528326
Si Si6 0.067708 0.950239 0.274754
Si Si7 0.427773 0.237107 0.346674
Si Si8 0.568118 0.822004 0.767045
O O1 0.250000 0.336247 0.080477
O O2 0.998089 0.278490 0.082546
O O3 0.995453 0.353119 0.179889
O O4 0.999027 0.361587 0.995816
O O5 0.750000 0.868541 0.976899
O O6 0.524113 0.850944 0.859829
O O7 0.483493 0.910258 0.995374
O O8 0.506160 0.819744 0.035140
O O9 0.750000 0.380363 0.904518
O O10 0.485179 0.408774 0.841867
O O11 0.551627 0.319331 0.830386
O O12 0.500000 0.500000 0.529487
O O13 0.250000 0.454599 0.564691
O O14 0.492018 0.439952 0.670246
O O15 0.750000 0.268094 0.556719
O O16 0.554852 0.252581 0.421142
O O17 0.250000 0.953792 0.277518
O O18 0.000000 0.000000 0.310906
O O19 0.250000 0.247187 0.376892
O O20 0.476177 0.270898 0.261135
O O21 0.750000 0.813611 0.758428
#
# Coordination Sequence:
#
# PCOD8183007 Si02
#       8
#     8   8   8   8   8   8   8   8
#     4  10  19  32  51  75 105 141 179 216 253 298
#     4   9  18  33  52  73 101 136 171 209 254 303
#     4  10  20  34  53  77 105 138 174 213 258 308
#     4  10  21  36  55  78 102 128 162 206 256 309
#     4   8  16  30  46  67  97 132 167 205 249 291
#     4  10  21  37  56  79 104 131 165 208 259 312
#     4   9  17  29  46  69  97 131 171 210 247 290
#     4  10  20  33  49  72 105 143 178 213 255 301
#
# _framework density 18.184559
#
# number of rings (size 3 to 8) (size 9 to 14) (size 15 to 20)
#    0.000    2.500    0.000    3.000    0.000    7.000 
#    0.000    3.750    0.000    0.750    0.000    1.750 
#    0.000    0.000    0.000    0.000    0.000    0.000 
#
# Total GULP energy -396422.749798 kJ/mol
# GULP energy per Si atom -12388.210931 kJ/mol
# Density = 1.814317 g / cm^3
# Si number density = 18.184559 Si / 1000 Ang^3
#
#
#
# Elastic Constant Matrix: (Units=GPa)
#
#
# Indices 1 2 3 4 5 6 
#
# 1 56.1004 35.6694 27.8520 0.0000 0.0000 0.0000
# 2 35.6694 119.3320 48.8811 0.0000 0.0000 0.0000
# 3 27.8520 48.8811 83.1401 0.0000 0.0000 0.0000
# 4 0.0000 0.0000 0.0000 7.3799 0.0000 0.0000
# 5 0.0000 0.0000 0.0000 0.0000 27.9354 0.0000
# 6 0.0000 0.0000 0.0000 0.0000 0.0000 28.9353
#
#
#
# Elastic Compliance Matrix: (Units=1/GPa)
#
#
# Indices 1 2 3 4 5 6 
#
# 1 0.023441 -0.004992 -0.004917 0.000000 0.000000 0.000000
# 2 -0.004992 0.012102 -0.005443 0.000000 0.000000 0.000000
# 3 -0.004917 -0.005443 0.016875 0.000000 0.000000 0.000000
# 4 0.000000 0.000000 0.000000 0.135503 0.000000 0.000000
# 5 0.000000 0.000000 0.000000 0.000000 0.035797 0.000000
# 6 0.000000 0.000000 0.000000 0.000000 0.000000 0.034560
#
#
# Mechanical properties :
#
#
# Convention : Reuss Voigt Hill
#
# Bulk Modulus (GPa) = 46.05588 53.70861 49.88224
# Shear Modulus (GPa) = 16.87938 22.59479 19.73708
#
# Velocity S-wave (km/s) = 3.04999 3.52877 3.29808
# Velocity P-wave (km/s) = 6.14696 6.79723 6.48026
#
# Compressibility (1/GPa) = 0.02171275
#
# Stress axis : x y z
#
# Youngs Moduli (GPa) = 42.66071 82.63354 59.25884
#
# Poissons Ratio (x) = 0.41253 0.29141
# Poissons Ratio (y) = 0.21298 0.32252
# Poissons Ratio (z) = 0.20978 0.44974
#
# Static dielectric constant tensor:
#      x y z
#    x 3.335390 0.000000 0.000000 
#    y 0.000000 3.392550 0.000000 
#    z 0.000000 0.000000 3.384790 
# 
# 
# High freq. dielectric constant tensor:
#      x y z
#    x 1.709920 0.000000 0.000000 
#    y 0.000000 1.688060 0.000000 
#    z 0.000000 0.000000 1.693400 
# 
# From -- ./inp_files/15933.got.cif
#   From: 2010.03.12/outbox.cif.g09.slc.cpg/sg40_8_cif.got.tgz:15933.got - 2010.04.14 01:38:03.
