data_PCOD8183909
_publ_section_title
;
Structure prediction by ZEFSAII (Michael W. Deem and Ramdas Pophale) SiO2 
 PCOD8183909
Probable space group: A M A 2
;
_chemical_formula_sum "Si O2"
_cell_formula_units_Z 40
_cell_length_a 9.970023
_cell_length_b 7.325585
_cell_length_c 26.187117
_cell_angle_alpha 90.000000
_cell_angle_beta 90.000000
_cell_angle_gamma 90.000000
_cell_volume 1912.608849
_symmetry_space_group_name_H-M "A M A 2"
_symmetry_group_IT_number 40
_symmetry_cell_setting 'orthorhombic'
loop_
_space_group_symop_operation_xyz
x,y,z
-x,-y,z
1/2-x,y,z
1/2+x,-y,z
x,1/2+y,1/2+z
-x,1/2-y,1/2+z
1/2-x,1/2+y,1/2+z
1/2+x,1/2-y,1/2+z
loop_
_atom_site_type_symbol
_atom_site_label
_atom_site_fract_x
_atom_site_fract_y
_atom_site_fract_z
Si Si1 0.403692 0.329090 0.565250
Si Si2 0.512195 0.214600 0.958446
Si Si3 0.250000 0.775108 0.402077
Si Si4 0.403590 0.662685 0.172894
Si Si5 0.750000 0.939900 0.309041
Si Si6 0.000000 0.000000 0.238389
Si Si7 0.750000 0.155701 0.888340
O O1 0.500000 0.500000 0.575518
O O2 0.250000 0.400016 0.558910
O O3 0.446934 0.213510 0.514666
O O4 0.415204 0.191654 0.612353
O O5 0.378445 0.313344 0.937979
O O6 0.623841 0.246738 0.916113
O O7 0.500000 0.000000 0.966674
O O8 0.250000 0.901343 0.352213
O O9 0.250000 0.562994 0.384744
O O10 0.500000 0.500000 0.190053
O O11 0.250000 0.617478 0.188152
O O12 0.453889 0.838757 0.202205
O O13 0.879351 0.946768 0.274524
O O14 0.750000 0.736081 0.331837
#
# Coordination Sequence:
#
# PCOD8183909 Si02
#       7
#     8   8   4   8   4   4   4
#     4  10  20  37  65  98 135 179 222 269 337 409
#     4   9  18  35  60  92 130 176 213 263 334 400
#     4  10  22  40  59  93 133 169 224 274 328 407
#     4  11  26  47  71 102 138 178 229 288 348 414
#     4  12  26  42  70  96 126 182 232 280 350 398
#     4  12  26  48  70 100 134 180 234 292 348 404
#     4  10  20  40  63  87 131 171 214 282 324 395
#
# _framework density 20.913841999999999
#
# number of rings (size 3 to 8) (size 9 to 14) (size 15 to 20)
#    0.000    1.600    3.000    1.200    5.600    2.400 
#    3.600    0.000    0.000    0.000    0.000    0.000 
#    0.000    0.000    0.000    0.000    0.000    0.000 
#
# Total GULP energy -247977.038066 kJ/mol
# GULP energy per Si atom -12398.851903 kJ/mol
# Density = 2.086624 g / cm^3
# Si number density = 20.913842 Si / 1000 Ang^3
#
#
#
# Elastic Constant Matrix: (Units=GPa)
#
#
# Indices 1 2 3 4 5 6 
#
# 1 182.4672 37.2103 57.7778 0.0000 0.0000 0.0000
# 2 37.2103 68.4581 30.6658 0.0000 0.0000 0.0000
# 3 57.7778 30.6658 124.8752 0.0000 0.0000 0.0000
# 4 0.0000 0.0000 0.0000 142.4131 0.0000 0.0000
# 5 0.0000 0.0000 0.0000 0.0000 160.2013 0.0000
# 6 0.0000 0.0000 0.0000 0.0000 0.0000 23.4834
#
#
#
# Elastic Compliance Matrix: (Units=1/GPa)
#
#
# Indices 1 2 3 4 5 6 
#
# 1 0.006801 -0.002570 -0.002516 0.000000 0.000000 0.000000
# 2 -0.002570 0.017384 -0.003080 0.000000 0.000000 0.000000
# 3 -0.002516 -0.003080 0.009928 0.000000 0.000000 0.000000
# 4 0.000000 0.000000 0.000000 0.007022 0.000000 0.000000
# 5 0.000000 0.000000 0.000000 0.000000 0.006242 0.000000
# 6 0.000000 0.000000 0.000000 0.000000 0.000000 0.042583
#
#
# Mechanical properties :
#
#
# Convention : Reuss Voigt Hill
#
# Bulk Modulus (GPa) = 56.23540 69.67871 62.95706
# Shear Modulus (GPa) = 44.55570 81.89601 63.22585
#
# Velocity S-wave (km/s) = 4.62068 6.26448 5.50429
# Velocity P-wave (km/s) = 7.44413 9.25821 8.40028
#
# Compressibility (1/GPa) = 0.01778239
#
# Stress axis : x y z
#
# Youngs Moduli (GPa) = 147.03543 57.52416 100.72199
#
# Poissons Ratio (x) = 0.14783 0.25338
# Poissons Ratio (y) = 0.37786 0.31022
# Poissons Ratio (z) = 0.36989 0.17717
#
# Static dielectric constant tensor:
#      x y z
#    x 3.824800 0.000000 0.000000 
#    y 0.000000 3.453490 0.000000 
#    z 0.000000 0.000000 4.024970 
# 
# 
# High freq. dielectric constant tensor:
#      x y z
#    x 1.840010 0.000000 0.000000 
#    y 0.000000 1.801210 0.000000 
#    z 0.000000 0.000000 1.831130 
# 
# From -- ./inp_files/23876.got.cif
#   From: 2010.03.12/outbox.cif.g09.slc.cpg/sg40_12_cif.got.tgz:23876.got - 2010.04.14 01:38:03.
