data_PCOD8183893
_publ_section_title
;
Structure prediction by ZEFSAII (Michael W. Deem and Ramdas Pophale) SiO2 
 PCOD8183893
Probable space group: A M A 2
;
_chemical_formula_sum "Si O2"
_cell_formula_units_Z 56
_cell_length_a 21.629298
_cell_length_b 20.088061
_cell_length_c 6.627002
_cell_angle_alpha 90.000000
_cell_angle_beta 90.000000
_cell_angle_gamma 90.000000
_cell_volume 2879.370457
_symmetry_space_group_name_H-M "A M A 2"
_symmetry_group_IT_number 40
_symmetry_cell_setting 'orthorhombic'
loop_
_space_group_symop_operation_xyz
x,y,z
-x,-y,z
1/2-x,y,z
1/2+x,-y,z
x,1/2+y,1/2+z
-x,1/2-y,1/2+z
1/2-x,1/2+y,1/2+z
1/2+x,1/2-y,1/2+z
loop_
_atom_site_type_symbol
_atom_site_label
_atom_site_fract_x
_atom_site_fract_y
_atom_site_fract_z
Si Si1 0.035361 0.604099 0.623940
Si Si2 0.018670 0.834647 0.512629
Si Si3 0.627846 0.625679 0.269434
Si Si4 0.815903 0.598877 0.868308
Si Si5 0.922808 0.284168 0.310784
Si Si6 0.680482 0.223492 0.082970
Si Si7 0.907504 0.035885 0.095096
O O1 0.067065 0.660395 0.484160
O O2 0.081827 0.542386 0.604108
O O3 0.025417 0.624806 0.857768
O O4 0.968248 0.580419 0.552721
O O5 0.059433 0.878309 0.666771
O O6 0.069181 0.789556 0.399625
O O7 0.974305 0.788219 0.640327
O O8 0.641619 0.694853 0.390607
O O9 0.635991 0.560314 0.412094
O O10 0.679983 0.618149 0.101935
O O11 0.750000 0.561282 0.837478
O O12 0.814081 0.665606 0.742524
O O13 0.874241 0.553366 0.806104
O O14 0.856410 0.284540 0.194680
O O15 0.750000 0.247720 0.020563
#
# Coordination Sequence:
#
# PCOD8183893 Si02
#       7
#     8   8   8   8   8   8   8
#     4  11  23  38  57  87 119 156 195 245 302 358
#     4  12  21  35  61  89 119 151 193 247 303 359
#     4  11  19  37  62  90 118 156 197 247 305 352
#     4  10  20  37  62  88 116 156 201 247 296 351
#     4  12  22  36  59  88 121 156 192 243 306 357
#     4  10  22  37  57  90 125 157 202 251 293 355
#     4  10  22  40  56  85 123 151 196 249 298 355
#
# _framework density 19.448696999999999
#
# number of rings (size 3 to 8) (size 9 to 14) (size 15 to 20)
#    0.000    1.143    5.714    2.143    0.000    1.714 
#    0.000    0.714    0.000    2.571    0.000    0.000 
#    0.000    0.000    0.000    0.000    0.000    0.000 
#
# Total GULP energy -346912.287213 kJ/mol
# GULP energy per Si atom -12389.724543 kJ/mol
# Density = 1.940443 g / cm^3
# Si number density = 19.448697 Si / 1000 Ang^3
#
#
#
# Elastic Constant Matrix: (Units=GPa)
#
#
# Indices 1 2 3 4 5 6 
#
# 1 108.1149 30.9572 38.4973 0.0000 0.0000 0.0000
# 2 30.9572 73.9956 34.7802 0.0000 0.0000 0.0000
# 3 38.4973 34.7802 115.4635 0.0000 0.0000 0.0000
# 4 0.0000 0.0000 0.0000 18.2415 0.0000 0.0000
# 5 0.0000 0.0000 0.0000 0.0000 17.2930 0.0000
# 6 0.0000 0.0000 0.0000 0.0000 0.0000 18.2293
#
#
#
# Elastic Compliance Matrix: (Units=1/GPa)
#
#
# Indices 1 2 3 4 5 6 
#
# 1 0.011188 -0.003410 -0.002703 0.000000 0.000000 0.000000
# 2 -0.003410 0.016783 -0.003918 0.000000 0.000000 0.000000
# 3 -0.002703 -0.003918 0.010742 0.000000 0.000000 0.000000
# 4 0.000000 0.000000 0.000000 0.054820 0.000000 0.000000
# 5 0.000000 0.000000 0.000000 0.000000 0.057827 0.000000
# 6 0.000000 0.000000 0.000000 0.000000 0.000000 0.054857
#
#
# Mechanical properties :
#
#
# Convention : Reuss Voigt Hill
#
# Bulk Modulus (GPa) = 53.61923 56.22707 54.92315
# Shear Modulus (GPa) = 21.50562 23.64205 22.57383
#
# Velocity S-wave (km/s) = 3.32891 3.49034 3.41058
# Velocity P-wave (km/s) = 6.51191 6.72433 6.61897
#
# Compressibility (1/GPa) = 0.01865003
#
# Stress axis : x y z
#
# Youngs Moduli (GPa) = 89.37802 59.58487 93.09000
#
# Poissons Ratio (x) = 0.20320 0.25163
# Poissons Ratio (y) = 0.30481 0.36476
# Poissons Ratio (z) = 0.24160 0.23347
#
# Static dielectric constant tensor:
#      x y z
#    x 3.816750 0.000000 0.000000 
#    y 0.000000 3.210620 0.000000 
#    z 0.000000 0.000000 3.870420 
# 
# 
# High freq. dielectric constant tensor:
#      x y z
#    x 1.753140 0.000000 0.000000 
#    y 0.000000 1.714550 0.000000 
#    z 0.000000 0.000000 1.776890 
# 
# From -- ./inp_files/2790.got.cif
#   From: 2010.03.12/outbox.cif.g09.slc.cpg/sg40_2_cif.got.tgz:2790.got - 2010.04.14 01:38:03.
