data_PCOD8183269
_publ_section_title
;
Structure prediction by ZEFSAII (Michael W. Deem and Ramdas Pophale) SiO2 
 PCOD8183269
Probable space group: A M A 2
;
_chemical_formula_sum "Si O2"
_cell_formula_units_Z 48
_cell_length_a 16.203864
_cell_length_b 5.220170
_cell_length_c 26.012629
_cell_angle_alpha 90.000000
_cell_angle_beta 90.000000
_cell_angle_gamma 90.000000
_cell_volume 2200.328291
_symmetry_space_group_name_H-M "A M A 2"
_symmetry_group_IT_number 40
_symmetry_cell_setting 'orthorhombic'
loop_
_space_group_symop_operation_xyz
x,y,z
-x,-y,z
1/2-x,y,z
1/2+x,-y,z
x,1/2+y,1/2+z
-x,1/2-y,1/2+z
1/2-x,1/2+y,1/2+z
1/2+x,1/2-y,1/2+z
loop_
_atom_site_type_symbol
_atom_site_label
_atom_site_fract_x
_atom_site_fract_y
_atom_site_fract_z
Si Si1 0.587220 0.606547 0.337460
Si Si2 0.089838 0.278712 0.217720
Si Si3 0.151669 0.308538 0.560553
Si Si4 0.344786 0.880572 0.385457
Si Si5 0.905545 0.722852 0.673949
Si Si6 0.347605 0.807297 0.500122
O O1 0.500000 0.500000 0.356926
O O2 0.584584 0.666799 0.277519
O O3 0.650213 0.375724 0.350366
O O4 0.605550 0.875201 0.364708
O O5 0.139122 0.512312 0.190437
O O6 0.000170 0.250233 0.191692
O O7 0.136846 0.012986 0.205192
O O8 0.250000 0.311350 0.570136
O O9 0.102844 0.323803 0.613732
O O10 0.120737 0.549516 0.527251
O O11 0.121581 0.054492 0.531314
O O12 0.250000 0.966831 0.387896
O O13 0.380836 0.816474 0.441868
O O14 0.250000 0.803464 0.498620
#
# Coordination Sequence:
#
# PCOD8183269 Si02
#       6
#     8   8   8   8   8   8
#     4  12  23  41  70  92 126 176 217 258 322 398
#     4  10  21  37  59  80 110 166 205 240 310 376
#     4  10  19  34  60  89 117 154 200 251 307 375
#     4  11  24  42  67  97 129 168 216 268 318 383
#     4  10  19  35  59  83 110 154 210 243 298 377
#     4   9  19  37  60  86 120 161 197 244 318 377
#
# _framework density 21.814924999999999
#
# number of rings (size 3 to 8) (size 9 to 14) (size 15 to 20)
#    0.000    1.667    1.667    4.000    2.333    2.667 
#    0.000    5.000   36.667    0.000    0.000    0.000 
#    0.000    0.000    0.000    0.000    0.000    0.000 
#
# Total GULP energy -297489.730162 kJ/mol
# GULP energy per Si atom -12395.405423 kJ/mol
# Density = 2.176527 g / cm^3
# Si number density = 21.814925 Si / 1000 Ang^3
#
#
#
# Elastic Constant Matrix: (Units=GPa)
#
#
# Indices 1 2 3 4 5 6 
#
# 1 27.6581 20.8933 47.0865 0.0000 0.0000 0.0000
# 2 20.8933 233.1059 89.0672 0.0000 0.0000 0.0000
# 3 47.0865 89.0672 181.7064 0.0000 0.0000 0.0000
# 4 0.0000 0.0000 0.0000 50.5026 0.0000 0.0000
# 5 0.0000 0.0000 0.0000 0.0000 36.0584 0.0000
# 6 0.0000 0.0000 0.0000 0.0000 0.0000 15.2199
#
#
#
# Elastic Compliance Matrix: (Units=1/GPa)
#
#
# Indices 1 2 3 4 5 6 
#
# 1 0.064804 0.000748 -0.017160 0.000000 0.000000 0.000000
# 2 0.000748 0.005287 -0.002785 0.000000 0.000000 0.000000
# 3 -0.017160 -0.002785 0.011315 0.000000 0.000000 0.000000
# 4 0.000000 0.000000 0.000000 0.019801 0.000000 0.000000
# 5 0.000000 0.000000 0.000000 0.000000 0.027733 0.000000
# 6 0.000000 0.000000 0.000000 0.000000 0.000000 0.065704
#
#
# Mechanical properties :
#
#
# Convention : Reuss Voigt Hill
#
# Bulk Modulus (GPa) = 23.24895 84.06271 53.65583
# Shear Modulus (GPa) = 20.21215 39.38441 29.79828
#
# Velocity S-wave (km/s) = 3.04720 4.25360 3.69990
# Velocity P-wave (km/s) = 4.80219 7.92100 6.54993
#
# Compressibility (1/GPa) = 0.04301270
#
# Stress axis : x y z
#
# Youngs Moduli (GPa) = 15.43106 189.13823 88.37484
#
# Poissons Ratio (x) = -0.14150 1.51649
# Poissons Ratio (y) = -0.01154 0.24617
# Poissons Ratio (z) = 0.26479 0.52684
#
# Static dielectric constant tensor:
#      x y z
#    x 3.476530 0.000000 0.000000 
#    y 0.000000 -8.093150 0.000000 
#    z 0.000000 0.000000 4.008870 
# 
# 
# High freq. dielectric constant tensor:
#      x y z
#    x 1.809090 0.000000 0.000000 
#    y 0.000000 1.895290 0.000000 
#    z 0.000000 0.000000 1.867670 
# 
# From -- ./inp_files/24886.got.cif
#   From: 2010.03.12/outbox.cif.g09.slc.cpg/sg40_13_cif.got.tgz:24886.got - 2010.04.14 01:38:03.
