data_PCOD8183241
_publ_section_title
;
Structure prediction by ZEFSAII (Michael W. Deem and Ramdas Pophale) SiO2 
 PCOD8183241
Probable space group: A M A 2
;
_chemical_formula_sum "Si O2"
_cell_formula_units_Z 48
_cell_length_a 8.529420
_cell_length_b 9.507159
_cell_length_c 31.305490
_cell_angle_alpha 90.000000
_cell_angle_beta 90.000000
_cell_angle_gamma 90.000000
_cell_volume 2538.579468
_symmetry_space_group_name_H-M "A M A 2"
_symmetry_group_IT_number 40
_symmetry_cell_setting 'orthorhombic'
loop_
_space_group_symop_operation_xyz
x,y,z
-x,-y,z
1/2-x,y,z
1/2+x,-y,z
x,1/2+y,1/2+z
-x,1/2-y,1/2+z
1/2-x,1/2+y,1/2+z
1/2+x,1/2-y,1/2+z
loop_
_atom_site_type_symbol
_atom_site_label
_atom_site_fract_x
_atom_site_fract_y
_atom_site_fract_z
Si Si1 0.936192 0.158147 0.153340
Si Si2 0.932968 0.652937 0.560474
Si Si3 0.934816 0.156199 0.728096
Si Si4 0.935625 0.655473 0.468744
Si Si5 0.435055 0.346574 0.802066
Si Si6 0.063786 0.152477 0.392902
O O1 0.750000 0.158078 0.162180
O O2 0.977554 0.223656 0.105996
O O3 0.024550 0.259640 0.185454
O O4 0.000000 0.000000 0.158700
O O5 0.750000 0.635838 0.558441
O O6 0.988149 0.722810 0.515271
O O7 0.000000 0.500000 0.561910
O O8 0.750000 0.152456 0.735030
O O9 0.014834 0.231639 0.767952
O O10 0.000000 0.000000 0.723983
O O11 0.750000 0.650234 0.465179
O O12 0.003641 0.748917 0.430423
O O13 0.000000 0.500000 0.463251
O O14 0.500000 0.500000 0.789439
O O15 0.250000 0.358475 0.804076
O O16 0.499214 0.294018 0.847601
O O17 0.250000 0.150268 0.390990
O O18 0.000000 0.000000 0.403613
#
# Coordination Sequence:
#
# PCOD8183241 Si02
#       6
#     8   8   8   8   8   8
#     4  10  19  34  57  83 110 143 183 224 266 314
#     4   8  15  29  50  76 106 139 177 220 261 305
#     4  12  25  41  58  80 110 141 176 219 271 324
#     4   9  18  32  52  78 108 141 178 220 264 312
#     4  11  22  39  61  83 107 139 180 222 266 317
#     4  10  20  35  54  78 108 141 179 221 265 314
#
# _framework density 18.908214000000001
#
# number of rings (size 3 to 8) (size 9 to 14) (size 15 to 20)
#    0.000    2.000    0.000    5.500    0.000    2.667 
#    0.000    2.500    0.000    2.000    0.000    0.000 
#    0.000    0.000    0.000    0.000    0.000    0.000 
#
# Total GULP energy -297382.440980 kJ/mol
# GULP energy per Si atom -12390.935041 kJ/mol
# Density = 1.886518 g / cm^3
# Si number density = 18.908214 Si / 1000 Ang^3
#
#
#
# Elastic Constant Matrix: (Units=GPa)
#
#
# Indices 1 2 3 4 5 6 
#
# 1 72.4457 17.3257 31.1784 0.0000 0.0000 0.0000
# 2 17.3257 80.6253 70.3699 0.0000 0.0000 0.0000
# 3 31.1784 70.3699 167.5966 0.0000 0.0000 0.0000
# 4 0.0000 0.0000 0.0000 17.2974 0.0000 0.0000
# 5 0.0000 0.0000 0.0000 0.0000 28.0621 0.0000
# 6 0.0000 0.0000 0.0000 0.0000 0.0000 27.9507
#
#
#
# Elastic Compliance Matrix: (Units=1/GPa)
#
#
# Indices 1 2 3 4 5 6 
#
# 1 0.015084 -0.001251 -0.002281 0.000000 0.000000 0.000000
# 2 -0.001251 0.019681 -0.008031 0.000000 0.000000 0.000000
# 3 -0.002281 -0.008031 0.009763 0.000000 0.000000 0.000000
# 4 0.000000 0.000000 0.000000 0.057812 0.000000 0.000000
# 5 0.000000 0.000000 0.000000 0.000000 0.035635 0.000000
# 6 0.000000 0.000000 0.000000 0.000000 0.000000 0.035777
#
#
# Mechanical properties :
#
#
# Convention : Reuss Voigt Hill
#
# Bulk Modulus (GPa) = 46.72189 62.04620 54.38404
# Shear Modulus (GPa) = 24.50824 28.11496 26.31160
#
# Velocity S-wave (km/s) = 3.60414 3.86024 3.73439
# Velocity P-wave (km/s) = 6.48716 7.26321 6.88613
#
# Compressibility (1/GPa) = 0.02140325
#
# Stress axis : x y z
#
# Youngs Moduli (GPa) = 66.29447 50.80959 102.42612
#
# Poissons Ratio (x) = 0.06354 0.23364
# Poissons Ratio (y) = 0.08290 0.82259
# Poissons Ratio (z) = 0.15122 0.40806
#
# Static dielectric constant tensor:
#      x y z
#    x 3.565170 0.000000 0.000000 
#    y 0.000000 3.525860 0.000000 
#    z 0.000000 0.000000 4.325100 
# 
# 
# High freq. dielectric constant tensor:
#      x y z
#    x 1.745400 0.000000 0.000000 
#    y 0.000000 1.703170 0.000000 
#    z 0.000000 0.000000 1.765550 
# 
# From -- ./inp_files/26125.got.cif
#   From: 2010.03.12/outbox.cif.g09.slc.cpg/sg40_14_cif.got.tgz:26125.got - 2010.04.14 01:38:03.
