data_PCOD8183155
_publ_section_title
;
Structure prediction by ZEFSAII (Michael W. Deem and Ramdas Pophale) SiO2 
 PCOD8183155
Probable space group: A M A 2
;
_chemical_formula_sum "Si O2"
_cell_formula_units_Z 64
_cell_length_a 8.598159
_cell_length_b 20.702594
_cell_length_c 19.528720
_cell_angle_alpha 90.000000
_cell_angle_beta 90.000000
_cell_angle_gamma 90.000000
_cell_volume 3476.194082
_symmetry_space_group_name_H-M "A M A 2"
_symmetry_group_IT_number 40
_symmetry_cell_setting 'orthorhombic'
loop_
_space_group_symop_operation_xyz
x,y,z
-x,-y,z
1/2-x,y,z
1/2+x,-y,z
x,1/2+y,1/2+z
-x,1/2-y,1/2+z
1/2-x,1/2+y,1/2+z
1/2+x,1/2-y,1/2+z
loop_
_atom_site_type_symbol
_atom_site_label
_atom_site_fract_x
_atom_site_fract_y
_atom_site_fract_z
Si Si1 0.571085 0.305586 0.378420
Si Si2 0.066284 0.567390 0.886553
Si Si3 0.929403 0.256840 0.524169
Si Si4 0.566997 0.933616 0.801243
Si Si5 0.567738 0.232866 0.163533
Si Si6 0.068006 0.873461 0.670654
Si Si7 0.432574 0.687856 0.799026
Si Si8 0.568008 0.880621 0.529811
O O1 0.750000 0.290862 0.359315
O O2 0.544715 0.304533 0.460205
O O3 0.521029 0.376302 0.353039
O O4 0.466581 0.252416 0.341582
O O5 0.250000 0.566632 0.882438
O O6 0.002306 0.625836 0.840002
O O7 0.000000 0.500000 0.858613
O O8 0.011678 0.577514 0.964989
O O9 0.750000 0.235561 0.530733
O O10 0.982500 0.291636 0.594356
O O11 0.034326 0.193921 0.512793
O O12 0.750000 0.938675 0.790841
O O13 0.486358 0.923282 0.727978
O O14 0.500000 0.000000 0.832560
O O15 0.750000 0.228198 0.151988
O O16 0.522504 0.306386 0.181186
O O17 0.517323 0.187373 0.225905
O O18 0.250000 0.859973 0.676497
O O19 0.027124 0.903700 0.596517
O O20 0.250000 0.683343 0.786547
O O21 0.750000 0.888921 0.544158
#
# Coordination Sequence:
#
# PCOD8183155 Si02
#       8
#     8   8   8   8   8   8   8   8
#     4  10  21  36  58  84 111 144 184 229 278 329
#     4  10  23  38  55  80 111 148 187 229 277 330
#     4  10  19  33  55  84 111 142 182 228 279 330
#     4  11  23  39  56  80 112 149 188 230 279 332
#     4  11  21  34  54  83 114 146 182 229 281 330
#     4  11  21  34  53  80 110 149 189 228 273 326
#     4  11  21  36  58  84 111 144 188 231 277 329
#     4  10  19  34  52  77 111 148 186 228 272 326
#
# _framework density 18.410941000000001
#
# number of rings (size 3 to 8) (size 9 to 14) (size 15 to 20)
#    0.000    1.500    2.500    5.250    0.000    3.500 
#    0.000    1.250    0.000    0.750    0.000    1.750 
#    0.000    0.000    0.000    0.000    0.000    0.000 
#
# Total GULP energy -396897.166605 kJ/mol
# GULP energy per Si atom -12403.036456 kJ/mol
# Density = 1.836904 g / cm^3
# Si number density = 18.410941 Si / 1000 Ang^3
#
#
#
# Elastic Constant Matrix: (Units=GPa)
#
#
# Indices 1 2 3 4 5 6 
#
# 1 57.8279 18.0729 28.5156 0.0000 0.0000 0.0000
# 2 18.0729 99.7471 54.0762 0.0000 0.0000 0.0000
# 3 28.5156 54.0762 113.4515 0.0000 0.0000 0.0000
# 4 0.0000 0.0000 0.0000 23.4350 0.0000 0.0000
# 5 0.0000 0.0000 0.0000 0.0000 26.8608 0.0000
# 6 0.0000 0.0000 0.0000 0.0000 0.0000 25.7983
#
#
#
# Elastic Compliance Matrix: (Units=1/GPa)
#
#
# Indices 1 2 3 4 5 6 
#
# 1 0.019846 -0.001202 -0.004415 0.000000 0.000000 0.000000
# 2 -0.001202 0.013591 -0.006176 0.000000 0.000000 0.000000
# 3 -0.004415 -0.006176 0.012868 0.000000 0.000000 0.000000
# 4 0.000000 0.000000 0.000000 0.042671 0.000000 0.000000
# 5 0.000000 0.000000 0.000000 0.000000 0.037229 0.000000
# 6 0.000000 0.000000 0.000000 0.000000 0.000000 0.038762
#
#
# Mechanical properties :
#
#
# Convention : Reuss Voigt Hill
#
# Bulk Modulus (GPa) = 44.01788 52.48398 48.25093
# Shear Modulus (GPa) = 25.49368 26.57625 26.03497
#
# Velocity S-wave (km/s) = 3.72520 3.80347 3.76454
# Velocity P-wave (km/s) = 6.51638 6.91790 6.72014
#
# Compressibility (1/GPa) = 0.02271804
#
# Stress axis : x y z
#
# Youngs Moduli (GPa) = 50.38921 73.57549 77.71279
#
# Poissons Ratio (x) = 0.08845 0.34311
# Poissons Ratio (y) = 0.06058 0.47997
# Poissons Ratio (z) = 0.22247 0.45441
#
# Static dielectric constant tensor:
#      x y z
#    x 3.397670 0.000000 0.000000 
#    y 0.000000 3.321200 0.000000 
#    z 0.000000 0.000000 3.690670 
# 
# 
# High freq. dielectric constant tensor:
#      x y z
#    x 1.724260 0.000000 0.000000 
#    y 0.000000 1.682790 0.000000 
#    z 0.000000 0.000000 1.720360 
# 
# From -- ./inp_files/22436.got.cif
#   From: 2010.03.12/outbox.cif.g09.slc.cpg/sg40_12_cif.got.tgz:22436.got - 2010.04.14 01:38:03.
