data_PCOD8183793
_publ_section_title
;
Structure prediction by ZEFSAII (Michael W. Deem and Ramdas Pophale) SiO2 
 PCOD8183793
Probable space group: A M A 2
;
_chemical_formula_sum "Si O2"
_cell_formula_units_Z 48
_cell_length_a 24.356450
_cell_length_b 9.355726
_cell_length_c 10.333388
_cell_angle_alpha 90.000000
_cell_angle_beta 90.000000
_cell_angle_gamma 90.000000
_cell_volume 2354.692607
_symmetry_space_group_name_H-M "A M A 2"
_symmetry_group_IT_number 40
_symmetry_cell_setting 'orthorhombic'
loop_
_space_group_symop_operation_xyz
x,y,z
-x,-y,z
1/2-x,y,z
1/2+x,-y,z
x,1/2+y,1/2+z
-x,1/2-y,1/2+z
1/2-x,1/2+y,1/2+z
1/2+x,1/2-y,1/2+z
loop_
_atom_site_type_symbol
_atom_site_label
_atom_site_fract_x
_atom_site_fract_y
_atom_site_fract_z
Si Si1 0.989450 0.165254 0.069810
Si Si2 0.029400 0.153404 0.803390
Si Si3 0.690108 0.068058 0.781267
Si Si4 0.184691 0.960686 0.489777
Si Si5 0.634326 0.234757 0.002767
Si Si6 0.153312 0.731912 0.279423
O O1 0.004125 0.250256 0.200584
O O2 0.929072 0.204397 0.022623
O O3 0.000000 0.000000 0.102006
O O4 0.973087 0.784331 0.949364
O O5 0.093596 0.155357 0.769242
O O6 0.000000 0.000000 0.800653
O O7 0.750000 0.135083 0.805941
O O8 0.671920 0.099078 0.633345
O O9 0.695084 0.897429 0.803063
O O10 0.649175 0.133308 0.884411
O O11 0.250000 0.986234 0.469829
O O12 0.150073 0.103866 0.463879
O O13 0.160392 0.847931 0.389453
O O14 0.665095 0.196375 0.138484
#
# Coordination Sequence:
#
# PCOD8183793 Si02
#       6
#     8   8   8   8   8   8
#     4  10  22  38  58  86 117 150 192 239 287 344
#     4  10  22  39  59  84 116 152 190 237 289 343
#     4  10  20  36  59  85 115 151 191 237 288 343
#     4  10  22  39  59  86 117 151 194 238 285 345
#     4  10  22  39  58  85 118 154 193 238 290 342
#     4  10  22  39  59  86 117 152 192 239 291 341
#
# _framework density 20.384826
#
# number of rings (size 3 to 8) (size 9 to 14) (size 15 to 20)
#    0.000    2.000    0.000    3.000    0.000   12.000 
#    0.000    0.000    0.000    0.000    0.000    0.000 
#    0.000    0.000    0.000    0.000    0.000    0.000 
#
# Total GULP energy -297432.906162 kJ/mol
# GULP energy per Si atom -12393.037757 kJ/mol
# Density = 2.033843 g / cm^3
# Si number density = 20.384826 Si / 1000 Ang^3
#
#
#
# Elastic Constant Matrix: (Units=GPa)
#
#
# Indices 1 2 3 4 5 6 
#
# 1 61.4422 32.3520 9.2336 0.0000 0.0000 0.0000
# 2 32.3520 91.6837 68.3211 0.0000 0.0000 0.0000
# 3 9.2336 68.3211 140.0696 0.0000 0.0000 0.0000
# 4 0.0000 0.0000 0.0000 38.5475 0.0000 0.0000
# 5 0.0000 0.0000 0.0000 0.0000 86.4224 0.0000
# 6 0.0000 0.0000 0.0000 0.0000 0.0000 29.9560
#
#
#
# Elastic Compliance Matrix: (Units=1/GPa)
#
#
# Indices 1 2 3 4 5 6 
#
# 1 0.021033 -0.010037 0.003509 0.000000 0.000000 0.000000
# 2 -0.010037 0.021925 -0.010032 0.000000 0.000000 0.000000
# 3 0.003509 -0.010032 0.011801 0.000000 0.000000 0.000000
# 4 0.000000 0.000000 0.000000 0.025942 0.000000 0.000000
# 5 0.000000 0.000000 0.000000 0.000000 0.011571 0.000000
# 6 0.000000 0.000000 0.000000 0.000000 0.000000 0.033382
#
#
# Mechanical properties :
#
#
# Convention : Reuss Voigt Hill
#
# Bulk Modulus (GPa) = 46.21325 57.00099 51.60712
# Shear Modulus (GPa) = 30.12279 43.20446 36.66362
#
# Velocity S-wave (km/s) = 3.84827 4.60873 4.24556
# Velocity P-wave (km/s) = 6.51653 7.50625 7.02883
#
# Compressibility (1/GPa) = 0.02163881
#
# Stress axis : x y z
#
# Youngs Moduli (GPa) = 47.54475 45.61080 84.73528
#
# Poissons Ratio (x) = 0.45778 -0.29733
# Poissons Ratio (y) = 0.47719 0.85010
# Poissons Ratio (z) = -0.16683 0.45759
#
# Static dielectric constant tensor:
#      x y z
#    x 3.638060 0.000000 0.000000 
#    y 0.000000 3.527880 0.000000 
#    z 0.000000 0.000000 4.209300 
# 
# 
# High freq. dielectric constant tensor:
#      x y z
#    x 1.796610 0.000000 0.000000 
#    y 0.000000 1.781880 0.000000 
#    z 0.000000 0.000000 1.819260 
# 
# From -- ./inp_files/9318.got.cif
#   From: 2010.03.12/outbox.cif.g09.slc.cpg/sg40_5_cif.got.tgz:9318.got - 2010.04.14 01:38:03.
