data_PCOD8183262
_publ_section_title
;
Structure prediction by ZEFSAII (Michael W. Deem and Ramdas Pophale) SiO2 
 PCOD8183262
Probable space group: A M A 2
;
_chemical_formula_sum "Si O2"
_cell_formula_units_Z 56
_cell_length_a 14.265526
_cell_length_b 11.250831
_cell_length_c 16.294729
_cell_angle_alpha 90.000000
_cell_angle_beta 90.000000
_cell_angle_gamma 90.000000
_cell_volume 2615.288071
_symmetry_space_group_name_H-M "A M A 2"
_symmetry_group_IT_number 40
_symmetry_cell_setting 'orthorhombic'
loop_
_space_group_symop_operation_xyz
x,y,z
-x,-y,z
1/2-x,y,z
1/2+x,-y,z
x,1/2+y,1/2+z
-x,1/2-y,1/2+z
1/2-x,1/2+y,1/2+z
1/2+x,1/2-y,1/2+z
loop_
_atom_site_type_symbol
_atom_site_label
_atom_site_fract_x
_atom_site_fract_y
_atom_site_fract_z
Si Si1 0.964819 0.240452 0.155230
Si Si2 0.859779 0.831884 0.960613
Si Si3 0.645017 0.652918 0.226155
Si Si4 0.505448 0.362163 0.994471
Si Si5 0.360893 0.103778 0.778491
Si Si6 0.359410 0.441047 0.557153
Si Si7 0.148694 0.266678 0.410602
O O1 0.905044 0.283777 0.232499
O O2 0.928186 0.107446 0.130096
O O3 0.075854 0.258652 0.176185
O O4 0.941393 0.320127 0.076367
O O5 0.750000 0.807843 0.956668
O O6 0.907330 0.705728 0.981365
O O7 0.894208 0.886679 0.873373
O O8 0.885604 0.922422 0.035024
O O9 0.750000 0.660863 0.186702
O O10 0.606345 0.517162 0.231644
O O11 0.651223 0.688455 0.319563
O O12 0.500000 0.500000 0.002084
O O13 0.572205 0.336730 0.916981
O O14 0.250000 0.111286 0.773831
O O15 0.250000 0.430102 0.583882
O O16 0.378772 0.373066 0.471900
O O17 0.250000 0.214836 0.435201
#
# Coordination Sequence:
#
# PCOD8183262 Si02
#       7
#     8   8   8   8   8   8   8
#     4  11  22  34  56  93 130 159 196 261 340 383
#     4  10  21  40  68  93 121 167 223 275 321 382
#     4  10  19  34  58  90 126 165 215 266 315 380
#     4  11  24  38  56  88 124 162 212 259 320 391
#     4  10  19  35  63  97 126 162 219 279 321 376
#     4   9  18  37  62  92 123 157 208 268 326 383
#     4   9  18  35  60  85 116 161 210 260 313 375
#
# _framework density 21.412555999999999
#
# number of rings (size 3 to 8) (size 9 to 14) (size 15 to 20)
#    0.000    2.000    1.429    2.571    0.000    4.000 
#    0.000    0.000   12.571    0.857    0.000    0.000 
#    0.000    0.000    0.000    0.000    0.000    0.000 
#
# Total GULP energy -346976.352844 kJ/mol
# GULP energy per Si atom -12392.012602 kJ/mol
# Density = 2.136382 g / cm^3
# Si number density = 21.412556 Si / 1000 Ang^3
#
#
#
# Elastic Constant Matrix: (Units=GPa)
#
#
# Indices 1 2 3 4 5 6 
#
# 1 78.3122 54.6735 42.4134 0.0000 0.0000 0.0000
# 2 54.6735 101.4014 33.1923 0.0000 0.0000 0.0000
# 3 42.4134 33.1923 69.2595 0.0000 0.0000 0.0000
# 4 0.0000 0.0000 0.0000 29.0655 0.0000 0.0000
# 5 0.0000 0.0000 0.0000 0.0000 35.4432 0.0000
# 6 0.0000 0.0000 0.0000 0.0000 0.0000 23.9887
#
#
#
# Elastic Compliance Matrix: (Units=1/GPa)
#
#
# Indices 1 2 3 4 5 6 
#
# 1 0.025947 -0.010424 -0.010894 0.000000 0.000000 0.000000
# 2 -0.010424 0.015885 -0.001229 0.000000 0.000000 0.000000
# 3 -0.010894 -0.001229 0.021699 0.000000 0.000000 0.000000
# 4 0.000000 0.000000 0.000000 0.034405 0.000000 0.000000
# 5 0.000000 0.000000 0.000000 0.000000 0.028214 0.000000
# 6 0.000000 0.000000 0.000000 0.000000 0.000000 0.041686
#
#
# Mechanical properties :
#
#
# Convention : Reuss Voigt Hill
#
# Bulk Modulus (GPa) = 54.24088 56.61458 55.42773
# Shear Modulus (GPa) = 22.82323 25.61242 24.21782
#
# Velocity S-wave (km/s) = 3.26832 3.46228 3.36670
# Velocity P-wave (km/s) = 6.29515 6.51770 6.40739
#
# Compressibility (1/GPa) = 0.01843628
#
# Stress axis : x y z
#
# Youngs Moduli (GPa) = 38.54009 62.95414 46.08586
#
# Poissons Ratio (x) = 0.65624 0.50205
# Poissons Ratio (y) = 0.40175 0.05664
# Poissons Ratio (z) = 0.41985 0.07737
#
# Static dielectric constant tensor:
#      x y z
#    x 4.573030 0.000000 0.000000 
#    y 0.000000 3.979430 0.000000 
#    z 0.000000 0.000000 3.920830 
# 
# 
# High freq. dielectric constant tensor:
#      x y z
#    x 1.854550 0.000000 0.000000 
#    y 0.000000 1.812010 0.000000 
#    z 0.000000 0.000000 1.832470 
# 
# From -- ./inp_files/17067.got.cif
#   From: 2010.03.12/outbox.cif.g09.slc.cpg/sg40_9_cif.got.tgz:17067.got - 2010.04.14 01:38:03.
