data_PCOD8183431
_publ_section_title
;
Structure prediction by ZEFSAII (Michael W. Deem and Ramdas Pophale) SiO2 
 PCOD8183431
Probable space group: A M A 2
;
_chemical_formula_sum "Si O2"
_cell_formula_units_Z 64
_cell_length_a 28.184334
_cell_length_b 13.020232
_cell_length_c 8.817826
_cell_angle_alpha 90.000000
_cell_angle_beta 90.000000
_cell_angle_gamma 90.000000
_cell_volume 3235.847340
_symmetry_space_group_name_H-M "A M A 2"
_symmetry_group_IT_number 40
_symmetry_cell_setting 'orthorhombic'
loop_
_space_group_symop_operation_xyz
x,y,z
-x,-y,z
1/2-x,y,z
1/2+x,-y,z
x,1/2+y,1/2+z
-x,1/2-y,1/2+z
1/2-x,1/2+y,1/2+z
1/2+x,1/2-y,1/2+z
loop_
_atom_site_type_symbol
_atom_site_label
_atom_site_fract_x
_atom_site_fract_y
_atom_site_fract_z
Si Si1 0.858592 0.994692 0.202420
Si Si2 0.482330 0.351896 0.022285
Si Si3 0.514834 0.351075 0.369477
Si Si4 0.576213 0.949170 0.464555
Si Si5 0.194047 0.137731 0.957134
Si Si6 0.693994 0.624740 0.944563
Si Si7 0.144713 0.006519 0.703440
Si Si8 0.423631 0.952021 0.941336
O O1 0.825774 0.076863 0.288597
O O2 0.890626 0.932555 0.320336
O O3 0.896041 0.054161 0.098421
O O4 0.827748 0.914450 0.106575
O O5 0.498993 0.342502 0.195496
O O6 0.462399 0.249636 0.944234
O O7 0.530499 0.380275 0.933493
O O8 0.440732 0.433800 0.997628
O O9 0.465612 0.370623 0.458464
O O10 0.553715 0.437826 0.397952
O O11 0.608474 0.919897 0.609866
O O12 0.250000 0.126718 0.968216
O O13 0.178244 0.256517 0.953439
O O14 0.177253 0.080748 0.804646
O O15 0.750000 0.614062 0.940807
O O16 0.675530 0.563125 0.090697
O O17 0.114566 0.928468 0.809394
#
# Coordination Sequence:
#
# PCOD8183431 Si02
#       8
#     8   8   8   8   8   8   8   8
#     4  10  23  37  64  88 120 160 196 259 299 358
#     4  11  23  37  58  83 120 162 199 250 297 347
#     4  11  23  37  58  83 120 162 199 250 297 347
#     4  10  21  40  56  81 122 154 203 246 290 353
#     4  10  22  41  65  92 122 156 199 250 310 372
#     4  10  22  41  65  92 122 156 199 250 310 372
#     4  10  19  39  64  86 120 162 196 251 305 352
#     4  10  21  40  56  81 122 154 203 246 290 353
#
# _framework density 19.778435999999999
#
# number of rings (size 3 to 8) (size 9 to 14) (size 15 to 20)
#    0.000    1.750    2.500    1.500    3.500    7.000 
#    0.000    3.750    0.000   13.500    0.000    0.000 
#    0.000    0.000    0.000    0.000    0.000    0.000 
#
# Total GULP energy -396655.606025 kJ/mol
# GULP energy per Si atom -12395.487688 kJ/mol
# Density = 1.973342 g / cm^3
# Si number density = 19.778436 Si / 1000 Ang^3
#
#
#
# Elastic Constant Matrix: (Units=GPa)
#
#
# Indices 1 2 3 4 5 6 
#
# 1 74.9436 21.6559 25.2354 0.0000 0.0000 0.0000
# 2 21.6559 95.3520 29.5041 0.0000 0.0000 0.0000
# 3 25.2354 29.5041 99.5300 0.0000 0.0000 0.0000
# 4 0.0000 0.0000 0.0000 27.3565 0.0000 0.0000
# 5 0.0000 0.0000 0.0000 0.0000 22.9605 0.0000
# 6 0.0000 0.0000 0.0000 0.0000 0.0000 7.1195
#
#
#
# Elastic Compliance Matrix: (Units=1/GPa)
#
#
# Indices 1 2 3 4 5 6 
#
# 1 0.015100 -0.002472 -0.003096 0.000000 0.000000 0.000000
# 2 -0.002472 0.011951 -0.002916 0.000000 0.000000 0.000000
# 3 -0.003096 -0.002916 0.011697 0.000000 0.000000 0.000000
# 4 0.000000 0.000000 0.000000 0.036554 0.000000 0.000000
# 5 0.000000 0.000000 0.000000 0.000000 0.043553 0.000000
# 6 0.000000 0.000000 0.000000 0.000000 0.000000 0.140459
#
#
# Mechanical properties :
#
#
# Convention : Reuss Voigt Hill
#
# Bulk Modulus (GPa) = 45.91215 46.95738 46.43477
# Shear Modulus (GPa) = 17.63412 24.38266 21.00839
#
# Velocity S-wave (km/s) = 2.98918 3.51492 3.26266
# Velocity P-wave (km/s) = 5.93104 6.34556 6.14180
#
# Compressibility (1/GPa) = 0.02178073
#
# Stress axis : x y z
#
# Youngs Moduli (GPa) = 66.22516 83.67451 85.49496
#
# Poissons Ratio (x) = 0.20680 0.26468
# Poissons Ratio (y) = 0.16368 0.24931
# Poissons Ratio (z) = 0.20503 0.24400
#
# Static dielectric constant tensor:
#      x y z
#    x 3.788530 0.000000 0.000000 
#    y 0.000000 3.426080 0.000000 
#    z 0.000000 0.000000 3.823090 
# 
# 
# High freq. dielectric constant tensor:
#      x y z
#    x 1.788270 0.000000 0.000000 
#    y 0.000000 1.749200 0.000000 
#    z 0.000000 0.000000 1.784470 
# 
# From -- ./inp_files/9423.got.cif
#   From: 2010.03.12/outbox.cif.g09.slc.cpg/sg40_5_cif.got.tgz:9423.got - 2010.04.14 01:38:03.
