data_PCOD8183849
_publ_section_title
;
Structure prediction by ZEFSAII (Michael W. Deem and Ramdas Pophale) SiO2 
 PCOD8183849
Probable space group: A M A 2
;
_chemical_formula_sum "Si O2"
_cell_formula_units_Z 64
_cell_length_a 8.561377
_cell_length_b 19.630932
_cell_length_c 20.586757
_cell_angle_alpha 90.000000
_cell_angle_beta 90.000000
_cell_angle_gamma 90.000000
_cell_volume 3459.971158
_symmetry_space_group_name_H-M "A M A 2"
_symmetry_group_IT_number 40
_symmetry_cell_setting 'orthorhombic'
loop_
_space_group_symop_operation_xyz
x,y,z
-x,-y,z
1/2-x,y,z
1/2+x,-y,z
x,1/2+y,1/2+z
-x,1/2-y,1/2+z
1/2-x,1/2+y,1/2+z
1/2+x,1/2-y,1/2+z
loop_
_atom_site_type_symbol
_atom_site_label
_atom_site_fract_x
_atom_site_fract_y
_atom_site_fract_z
Si Si1 0.433078 0.568930 0.539910
Si Si2 0.432769 0.207558 0.625168
Si Si3 0.566205 0.289447 0.743297
Si Si4 0.066978 0.215979 0.002855
Si Si5 0.066397 0.570692 0.934947
Si Si6 0.931831 0.199958 0.377058
Si Si7 0.065019 0.927069 0.576094
Si Si8 0.934534 0.930548 0.186515
O O1 0.500000 0.500000 0.506910
O O2 0.250000 0.561097 0.541570
O O3 0.482187 0.636379 0.500178
O O4 0.499591 0.576502 0.613082
O O5 0.250000 0.212092 0.638663
O O6 0.524849 0.239429 0.685068
O O7 0.471941 0.246004 0.558590
O O8 0.485790 0.129271 0.621380
O O9 0.750000 0.287445 0.754938
O O10 0.478637 0.265926 0.808771
O O11 0.506039 0.365595 0.726671
O O12 0.250000 0.224084 0.019299
O O13 0.022570 0.247126 0.933452
O O14 0.250000 0.563910 0.948125
O O15 0.000000 0.500000 0.906231
O O16 0.030834 0.630538 0.884286
O O17 0.978956 0.588434 0.001738
O O18 0.750000 0.182218 0.379376
O O19 0.250000 0.924488 0.583892
O O20 0.000000 0.000000 0.598462
O O21 0.750000 0.932802 0.186768
O O22 0.000000 0.000000 0.218582
#
# Coordination Sequence:
#
# PCOD8183849 Si02
#       8
#     8   8   8   8   8   8   8   8
#     4   9  17  32  53  81 110 142 179 223 277 330
#     4  12  23  36  59  88 114 146 193 239 285 342
#     4  11  23  40  57  78 114 155 193 238 289 341
#     4  10  20  37  59  81 113 150 186 231 288 340
#     4  11  21  35  55  82 114 153 195 235 281 337
#     4  11  23  38  57  82 113 152 193 238 290 343
#     4  11  21  36  58  86 118 150 186 234 288 339
#     4   9  18  32  52  76 107 146 184 224 274 329
#
# _framework density 18.497263
#
# number of rings (size 3 to 8) (size 9 to 14) (size 15 to 20)
#    0.000    1.500    2.500    4.875    0.000    2.500 
#    0.000    1.250    0.000    0.750    0.000    3.500 
#    0.000    0.000    0.000    0.000    0.000    0.000 
#
# Total GULP energy -396889.936332 kJ/mol
# GULP energy per Si atom -12402.810510 kJ/mol
# Density = 1.845516 g / cm^3
# Si number density = 18.497263 Si / 1000 Ang^3
#
#
#
# Elastic Constant Matrix: (Units=GPa)
#
#
# Indices 1 2 3 4 5 6 
#
# 1 54.7377 25.6494 14.3848 0.0000 0.0000 0.0000
# 2 25.6494 125.1997 50.9247 0.0000 0.0000 0.0000
# 3 14.3848 50.9247 91.5794 0.0000 0.0000 0.0000
# 4 0.0000 0.0000 0.0000 18.8232 0.0000 0.0000
# 5 0.0000 0.0000 0.0000 0.0000 25.8434 0.0000
# 6 0.0000 0.0000 0.0000 0.0000 0.0000 30.2973
#
#
#
# Elastic Compliance Matrix: (Units=1/GPa)
#
#
# Indices 1 2 3 4 5 6 
#
# 1 0.020299 -0.003698 -0.001132 0.000000 0.000000 0.000000
# 2 -0.003698 0.010996 -0.005533 0.000000 0.000000 0.000000
# 3 -0.001132 -0.005533 0.014174 0.000000 0.000000 0.000000
# 4 0.000000 0.000000 0.000000 0.053126 0.000000 0.000000
# 5 0.000000 0.000000 0.000000 0.000000 0.038695 0.000000
# 6 0.000000 0.000000 0.000000 0.000000 0.000000 0.033006
#
#
# Mechanical properties :
#
#
# Convention : Reuss Voigt Hill
#
# Bulk Modulus (GPa) = 40.41736 50.38161 45.39949
# Shear Modulus (GPa) = 25.09149 27.02997 26.06073
#
# Velocity S-wave (km/s) = 3.68706 3.82684 3.75760
# Velocity P-wave (km/s) = 6.32644 6.84271 6.58963
#
# Compressibility (1/GPa) = 0.02474184
#
# Stress axis : x y z
#
# Youngs Moduli (GPa) = 49.26260 90.94543 70.55026
#
# Poissons Ratio (x) = 0.33634 0.07987
# Poissons Ratio (y) = 0.18218 0.39039
# Poissons Ratio (z) = 0.05577 0.50324
#
# Static dielectric constant tensor:
#      x y z
#    x 3.364510 0.000000 0.000000 
#    y 0.000000 3.699450 0.000000 
#    z 0.000000 0.000000 3.207600 
# 
# 
# High freq. dielectric constant tensor:
#      x y z
#    x 1.724100 0.000000 0.000000 
#    y 0.000000 1.725120 0.000000 
#    z 0.000000 0.000000 1.688320 
# 
# From -- ./inp_files/19648.got.cif
#   From: 2010.03.12/outbox.cif.g09.slc.cpg/sg40_10_cif.got.tgz:19648.got - 2010.04.14 01:38:03.
