data_PCOD8183133
_publ_section_title
;
Structure prediction by ZEFSAII (Michael W. Deem and Ramdas Pophale) SiO2 
 PCOD8183133
Probable space group: A M A 2
;
_chemical_formula_sum "Si O2"
_cell_formula_units_Z 64
_cell_length_a 9.038602
_cell_length_b 16.069857
_cell_length_c 22.053509
_cell_angle_alpha 90.000000
_cell_angle_beta 90.000000
_cell_angle_gamma 90.000000
_cell_volume 3203.251047
_symmetry_space_group_name_H-M "A M A 2"
_symmetry_group_IT_number 40
_symmetry_cell_setting 'orthorhombic'
loop_
_space_group_symop_operation_xyz
x,y,z
-x,-y,z
1/2-x,y,z
1/2+x,-y,z
x,1/2+y,1/2+z
-x,1/2-y,1/2+z
1/2-x,1/2+y,1/2+z
1/2+x,1/2-y,1/2+z
loop_
_atom_site_type_symbol
_atom_site_label
_atom_site_fract_x
_atom_site_fract_y
_atom_site_fract_z
Si Si1 0.083550 0.582298 0.811930
Si Si2 0.422665 0.423658 0.010521
Si Si3 0.086438 0.798475 0.089685
Si Si4 0.576348 0.259459 0.470976
Si Si5 0.426317 0.415357 0.258061
Si Si6 0.416191 0.079514 0.168267
Si Si7 0.925377 0.234523 0.848002
Si Si8 0.084322 0.112078 0.630913
O O1 0.250000 0.574726 0.836268
O O2 0.078269 0.581928 0.740014
O O3 0.015916 0.672048 0.831689
O O4 0.000000 0.500000 0.837370
O O5 0.500000 0.500000 0.973575
O O6 0.250000 0.438948 0.016171
O O7 0.493051 0.429247 0.077114
O O8 0.458881 0.338711 0.975740
O O9 0.250000 0.837189 0.080180
O O10 0.101509 0.706869 0.113943
O O11 0.997878 0.840678 0.143492
O O12 0.997067 0.807270 0.027104
O O13 0.750000 0.277819 0.471495
O O14 0.504086 0.293976 0.409775
O O15 0.500000 0.500000 0.285371
O O16 0.250000 0.426039 0.255417
O O17 0.469795 0.334288 0.297929
O O18 0.490944 0.401361 0.191456
O O19 0.250000 0.077991 0.143761
O O20 0.500000 0.000000 0.141716
O O21 0.750000 0.236284 0.856962
O O22 0.250000 0.073442 0.637967
#
# Coordination Sequence:
#
# PCOD8183133 Si02
#       8
#     8   8   8   8   8   8   8   8
#     4   9  19  35  56  84 116 149 183 222 272 330
#     4  10  20  34  53  79 111 144 177 217 268 326
#     4  10  20  35  56  81 109 142 180 223 274 329
#     4  10  22  38  56  78 104 139 184 230 273 322
#     4  11  23  39  59  83 112 147 187 232 282 334
#     4  10  19  33  54  81 113 144 178 222 272 328
#     4  10  22  40  59  79 109 149 189 231 279 329
#     4  10  20  34  55  83 113 144 178 221 273 330
#
# _framework density 19.979702
#
# number of rings (size 3 to 8) (size 9 to 14) (size 15 to 20)
#    0.000    2.000    0.000    3.375    0.000    6.500 
#    0.000    3.125    0.000    1.500    0.000    0.000 
#    0.000    0.000    0.000    0.000    0.000    0.000 
#
# Total GULP energy -396688.401126 kJ/mol
# GULP energy per Si atom -12396.512535 kJ/mol
# Density = 1.993423 g / cm^3
# Si number density = 19.979702 Si / 1000 Ang^3
#
#
#
# Elastic Constant Matrix: (Units=GPa)
#
#
# Indices 1 2 3 4 5 6 
#
# 1 104.3310 29.1955 32.2242 0.0000 0.0000 0.0000
# 2 29.1955 64.2340 26.7515 0.0000 0.0000 0.0000
# 3 32.2242 26.7515 51.1626 0.0000 0.0000 0.0000
# 4 0.0000 0.0000 0.0000 -2.8794 0.0000 0.0000
# 5 0.0000 0.0000 0.0000 0.0000 31.1339 0.0000
# 6 0.0000 0.0000 0.0000 0.0000 0.0000 34.9661
#
#
#
# Elastic Compliance Matrix: (Units=1/GPa)
#
#
# Indices 1 2 3 4 5 6 
#
# 1 0.012345 -0.003033 -0.006190 0.000000 0.000000 0.000000
# 2 -0.003033 0.020647 -0.008885 0.000000 0.000000 0.000000
# 3 -0.006190 -0.008885 0.028090 0.000000 0.000000 0.000000
# 4 0.000000 0.000000 0.000000 -0.347295 0.000000 0.000000
# 5 0.000000 0.000000 0.000000 0.000000 0.032119 0.000000
# 6 0.000000 0.000000 0.000000 0.000000 0.000000 0.028599
#
#
# Mechanical properties :
#
#
# Convention : Reuss Voigt Hill
#
# Bulk Modulus (GPa) = 40.21562 44.00778 42.11170
# Shear Modulus (GPa) = -27.62599 21.41453 -3.10573
#
# Velocity S-wave (km/s) = -3.72251 3.27741 -1.24813
# Velocity P-wave (km/s) = 1.30226 6.03291 4.36416
#
# Compressibility (1/GPa) = 0.02486596
#
# Stress axis : x y z
#
# Youngs Moduli (GPa) = 81.00118 48.43245 35.60009
#
# Poissons Ratio (x) = 0.14692 0.22035
# Poissons Ratio (y) = 0.24572 0.31632
# Poissons Ratio (z) = 0.50136 0.43034
#
# Static dielectric constant tensor:
#      x y z
#    x 3.867350 0.000000 0.000000 
#    y 0.000000 3.804980 0.000000 
#    z 0.000000 0.000000 3.433670 
# 
# 
# High freq. dielectric constant tensor:
#      x y z
#    x 1.790350 0.000000 0.000000 
#    y 0.000000 1.781220 0.000000 
#    z 0.000000 0.000000 1.767970 
# 
# From -- ./inp_files/22388.got.cif
#   From: 2010.03.12/outbox.cif.g09.slc.cpg/sg40_12_cif.got.tgz:22388.got - 2010.04.14 01:38:03.
