data_PCOD8183573
_publ_section_title
;
Structure prediction by ZEFSAII (Michael W. Deem and Ramdas Pophale) SiO2 
 PCOD8183573
Probable space group: A M A 2
;
_chemical_formula_sum "Si O2"
_cell_formula_units_Z 48
_cell_length_a 8.729846
_cell_length_b 9.592606
_cell_length_c 30.603934
_cell_angle_alpha 90.000000
_cell_angle_beta 90.000000
_cell_angle_gamma 90.000000
_cell_volume 2562.833818
_symmetry_space_group_name_H-M "A M A 2"
_symmetry_group_IT_number 40
_symmetry_cell_setting 'orthorhombic'
loop_
_space_group_symop_operation_xyz
x,y,z
-x,-y,z
1/2-x,y,z
1/2+x,-y,z
x,1/2+y,1/2+z
-x,1/2-y,1/2+z
1/2-x,1/2+y,1/2+z
1/2+x,1/2-y,1/2+z
loop_
_atom_site_type_symbol
_atom_site_label
_atom_site_fract_x
_atom_site_fract_y
_atom_site_fract_z
Si Si1 0.572219 0.348916 0.346450
Si Si2 0.430427 0.644197 0.778264
Si Si3 0.929534 0.355959 0.679798
Si Si4 0.568569 0.653428 0.103759
Si Si5 0.572115 0.849845 0.942145
Si Si6 0.568441 0.155136 0.029070
O O1 0.500000 0.500000 0.346283
O O2 0.750000 0.359763 0.334438
O O3 0.486094 0.263913 0.309793
O O4 0.551268 0.276630 0.394619
O O5 0.500000 0.500000 0.795190
O O6 0.250000 0.633468 0.780346
O O7 0.487723 0.676361 0.728916
O O8 0.750000 0.378195 0.678923
O O9 0.978226 0.227479 0.649213
O O10 0.000000 0.500000 0.661836
O O11 0.500000 0.500000 0.103936
O O12 0.750000 0.645732 0.097472
O O13 0.496359 0.742741 0.065264
O O14 0.750000 0.861910 0.954907
O O15 0.500000 0.000000 0.936679
O O16 0.482399 0.776965 0.982300
O O17 0.750000 0.147304 0.032554
O O18 0.500000 0.000000 0.034638
#
# Coordination Sequence:
#
# PCOD8183573 Si02
#       6
#     8   8   8   8   8   8
#     4  10  20  34  54  81 111 144 181 222 268 317
#     4  10  20  36  56  80 110 143 180 222 268 317
#     4   9  20  37  58  81 105 138 180 222 264 316
#     4  11  23  39  56  79 111 143 177 219 270 322
#     4   9  17  31  52  78 107 139 179 223 265 312
#     4  11  21  35  57  83 109 141 181 222 266 316
#
# _framework density 18.729268000000001
#
# number of rings (size 3 to 8) (size 9 to 14) (size 15 to 20)
#    0.000    2.000    0.000    5.000    0.000    6.000 
#    0.000    2.500    0.000    4.000    0.000    0.000 
#    0.000    0.000    0.000    0.000    0.000    0.000 
#
# Total GULP energy -297510.354615 kJ/mol
# GULP energy per Si atom -12396.264776 kJ/mol
# Density = 1.868664 g / cm^3
# Si number density = 18.729268 Si / 1000 Ang^3
#
#
#
# Elastic Constant Matrix: (Units=GPa)
#
#
# Indices 1 2 3 4 5 6 
#
# 1 102.4511 47.6723 55.3071 0.0000 0.0000 0.0000
# 2 47.6723 105.8542 72.6353 0.0000 0.0000 0.0000
# 3 55.3071 72.6353 131.0366 0.0000 0.0000 0.0000
# 4 0.0000 0.0000 0.0000 28.7838 0.0000 0.0000
# 5 0.0000 0.0000 0.0000 0.0000 29.6839 0.0000
# 6 0.0000 0.0000 0.0000 0.0000 0.0000 32.8979
#
#
#
# Elastic Compliance Matrix: (Units=1/GPa)
#
#
# Indices 1 2 3 4 5 6 
#
# 1 0.013388 -0.003473 -0.003726 0.000000 0.000000 0.000000
# 2 -0.003473 0.016147 -0.007485 0.000000 0.000000 0.000000
# 3 -0.003726 -0.007485 0.013353 0.000000 0.000000 0.000000
# 4 0.000000 0.000000 0.000000 0.034742 0.000000 0.000000
# 5 0.000000 0.000000 0.000000 0.000000 0.033688 0.000000
# 6 0.000000 0.000000 0.000000 0.000000 0.000000 0.030397
#
#
# Mechanical properties :
#
#
# Convention : Reuss Voigt Hill
#
# Bulk Modulus (GPa) = 73.95735 76.73013 75.34374
# Shear Modulus (GPa) = 28.47575 29.18826 28.83201
#
# Velocity S-wave (km/s) = 3.90345 3.95198 3.92779
# Velocity P-wave (km/s) = 7.73881 7.86646 7.80289
#
# Compressibility (1/GPa) = 0.01352131
#
# Stress axis : x y z
#
# Youngs Moduli (GPa) = 74.69373 61.93184 74.89111
#
# Poissons Ratio (x) = 0.21509 0.27902
# Poissons Ratio (y) = 0.25941 0.56053
# Poissons Ratio (z) = 0.27828 0.46353
#
# Static dielectric constant tensor:
#      x y z
#    x 3.576620 0.000000 0.000000 
#    y 0.000000 3.204310 0.000000 
#    z 0.000000 0.000000 4.178390 
# 
# 
# High freq. dielectric constant tensor:
#      x y z
#    x 1.743270 0.000000 0.000000 
#    y 0.000000 1.697600 0.000000 
#    z 0.000000 0.000000 1.748020 
# 
# From -- ./inp_files/26140.got.cif
#   From: 2010.03.12/outbox.cif.g09.slc.cpg/sg40_14_cif.got.tgz:26140.got - 2010.04.14 01:38:03.
