data_PCOD8183509
_publ_section_title
;
Structure prediction by ZEFSAII (Michael W. Deem and Ramdas Pophale) SiO2 
 PCOD8183509
Probable space group: A M A 2
;
_chemical_formula_sum "Si O2"
_cell_formula_units_Z 56
_cell_length_a 9.217930
_cell_length_b 15.372129
_cell_length_c 19.310599
_cell_angle_alpha 90.000000
_cell_angle_beta 90.000000
_cell_angle_gamma 90.000000
_cell_volume 2736.296605
_symmetry_space_group_name_H-M "A M A 2"
_symmetry_group_IT_number 40
_symmetry_cell_setting 'orthorhombic'
loop_
_space_group_symop_operation_xyz
x,y,z
-x,-y,z
1/2-x,y,z
1/2+x,-y,z
x,1/2+y,1/2+z
-x,1/2-y,1/2+z
1/2-x,1/2+y,1/2+z
1/2+x,1/2-y,1/2+z
loop_
_atom_site_type_symbol
_atom_site_label
_atom_site_fract_x
_atom_site_fract_y
_atom_site_fract_z
Si Si1 0.080018 0.409890 0.387380
Si Si2 0.588008 0.920822 0.644610
Si Si3 0.091574 0.111458 0.490357
Si Si4 0.412665 0.739013 0.807599
Si Si5 0.586299 0.253914 0.649523
Si Si6 0.581068 0.080700 0.364074
Si Si7 0.916104 0.688635 0.525449
O O1 0.250000 0.429215 0.386850
O O2 0.040537 0.338025 0.327945
O O3 0.032080 0.375193 0.463724
O O4 0.000000 0.500000 0.370172
O O5 0.750000 0.916291 0.676561
O O6 0.595500 0.937868 0.562888
O O7 0.505703 0.832526 0.657526
O O8 0.500000 0.000000 0.680043
O O9 0.250000 0.097575 0.453795
O O10 0.064220 0.213760 0.499377
O O11 0.959458 0.073126 0.445400
O O12 0.250000 0.725354 0.837806
O O13 0.412951 0.711308 0.727414
O O14 0.525328 0.674397 0.841953
O O15 0.750000 0.234008 0.624079
O O16 0.513351 0.322044 0.595385
O O17 0.750000 0.073054 0.350285
O O18 0.500000 0.000000 0.325343
O O19 0.750000 0.669412 0.546175
#
# Coordination Sequence:
#
# PCOD8183509 Si02
#       7
#     8   8   8   8   8   8   8
#     4  10  21  39  63  90 122 162 206 254 307 362
#     4  10  20  33  51  77 113 151 190 234 283 346
#     4   9  17  33  55  79 111 149 185 228 285 341
#     4  10  22  43  62  83 121 162 200 247 307 365
#     4  10  21  36  59  84 112 153 197 247 304 362
#     4  12  24  36  57  86 115 149 189 239 294 355
#     4   9  18  36  60  83 115 157 194 242 298 351
#
# _framework density 20.465617000000002
#
# number of rings (size 3 to 8) (size 9 to 14) (size 15 to 20)
#    0.000    2.000    1.429    3.429    0.000    6.857 
#    0.000    2.143    0.000    1.714    0.000    0.000 
#    0.000    0.000    0.000    0.000    0.000    0.000 
#
# Total GULP energy -347000.939635 kJ/mol
# GULP energy per Si atom -12392.890701 kJ/mol
# Density = 2.041904 g / cm^3
# Si number density = 20.465617 Si / 1000 Ang^3
#
#
#
# Elastic Constant Matrix: (Units=GPa)
#
#
# Indices 1 2 3 4 5 6 
#
# 1 133.6845 41.9241 27.7198 0.0000 0.0000 0.0000
# 2 41.9241 84.5763 12.1909 0.0000 0.0000 0.0000
# 3 27.7198 12.1909 66.8177 0.0000 0.0000 0.0000
# 4 0.0000 0.0000 0.0000 13.9372 0.0000 0.0000
# 5 0.0000 0.0000 0.0000 0.0000 21.9769 0.0000
# 6 0.0000 0.0000 0.0000 0.0000 0.0000 27.7293
#
#
#
# Elastic Compliance Matrix: (Units=1/GPa)
#
#
# Indices 1 2 3 4 5 6 
#
# 1 0.009462 -0.004236 -0.003153 0.000000 0.000000 0.000000
# 2 -0.004236 0.014039 -0.000804 0.000000 0.000000 0.000000
# 3 -0.003153 -0.000804 0.016421 0.000000 0.000000 0.000000
# 4 0.000000 0.000000 0.000000 0.071751 0.000000 0.000000
# 5 0.000000 0.000000 0.000000 0.000000 0.045502 0.000000
# 6 0.000000 0.000000 0.000000 0.000000 0.000000 0.036063
#
#
# Mechanical properties :
#
#
# Convention : Reuss Voigt Hill
#
# Bulk Modulus (GPa) = 42.48671 49.86089 46.17380
# Shear Modulus (GPa) = 22.99169 26.27825 24.63497
#
# Velocity S-wave (km/s) = 3.35540 3.58721 3.47324
# Velocity P-wave (km/s) = 5.98471 6.44776 6.22054
#
# Compressibility (1/GPa) = 0.02353677
#
# Stress axis : x y z
#
# Youngs Moduli (GPa) = 105.68069 71.22842 60.89862
#
# Poissons Ratio (x) = 0.30173 0.19200
# Poissons Ratio (y) = 0.44767 0.04897
# Poissons Ratio (z) = 0.33318 0.05728
#
# Static dielectric constant tensor:
#      x y z
#    x 3.857460 0.000000 0.000000 
#    y 0.000000 3.578510 0.000000 
#    z 0.000000 0.000000 3.801120 
# 
# 
# High freq. dielectric constant tensor:
#      x y z
#    x 1.801010 0.000000 0.000000 
#    y 0.000000 1.788700 0.000000 
#    z 0.000000 0.000000 1.784970 
# 
# From -- ./inp_files/22189.got.cif
#   From: 2010.03.12/outbox.cif.g09.slc.cpg/sg40_12_cif.got.tgz:22189.got - 2010.04.14 01:38:03.
