data_PCOD8183513
_publ_section_title
;
Structure prediction by ZEFSAII (Michael W. Deem and Ramdas Pophale) SiO2 
 PCOD8183513
Probable space group: A M A 2
;
_chemical_formula_sum "Si O2"
_cell_formula_units_Z 56
_cell_length_a 9.053676
_cell_length_b 23.849168
_cell_length_c 13.584518
_cell_angle_alpha 90.000000
_cell_angle_beta 90.000000
_cell_angle_gamma 90.000000
_cell_volume 2933.204989
_symmetry_space_group_name_H-M "A M A 2"
_symmetry_group_IT_number 40
_symmetry_cell_setting 'orthorhombic'
loop_
_space_group_symop_operation_xyz
x,y,z
-x,-y,z
1/2-x,y,z
1/2+x,-y,z
x,1/2+y,1/2+z
-x,1/2-y,1/2+z
1/2-x,1/2+y,1/2+z
1/2+x,1/2-y,1/2+z
loop_
_atom_site_type_symbol
_atom_site_label
_atom_site_fract_x
_atom_site_fract_y
_atom_site_fract_z
Si Si1 0.919724 0.622634 0.032410
Si Si2 0.922142 0.057617 0.727269
Si Si3 0.924658 0.663647 0.556057
Si Si4 0.578650 0.942699 0.373582
Si Si5 0.576987 0.233381 0.650239
Si Si6 0.923194 0.442108 0.646177
Si Si7 0.423990 0.334627 0.333632
O O1 0.750000 0.618947 0.000369
O O2 0.955573 0.577120 0.116255
O O3 0.956828 0.684789 0.071065
O O4 0.018995 0.609240 0.937545
O O5 0.750000 0.048488 0.743885
O O6 0.987076 0.104609 0.801814
O O7 0.000000 0.000000 0.752250
O O8 0.750000 0.656088 0.568111
O O9 0.969406 0.680171 0.444515
O O10 0.981367 0.712302 0.626765
O O11 0.004068 0.605900 0.581095
O O12 0.750000 0.950920 0.394548
O O13 0.546358 0.928336 0.260293
O O14 0.500000 0.000000 0.405924
O O15 0.750000 0.249165 0.649793
O O16 0.521678 0.213516 0.758316
O O17 0.750000 0.446233 0.623461
O O18 0.000000 0.500000 0.615697
O O19 0.250000 0.338770 0.318739
#
# Coordination Sequence:
#
# PCOD8183513 Si02
#       7
#     8   8   8   8   8   8   8
#     4   9  18  32  52  77 108 144 180 219 267 317
#     4   9  17  31  50  74 104 140 176 213 261 314
#     4  11  22  37  59  84 107 137 177 221 266 316
#     4  10  20  33  52  77 108 144 181 221 268 319
#     4   9  19  38  58  77 107 145 180 219 266 317
#     4  10  22  40  58  79 108 142 178 219 266 317
#     4   8  18  37  56  74 104 142 177 214 262 316
#
# _framework density 19.091743999999998
#
# number of rings (size 3 to 8) (size 9 to 14) (size 15 to 20)
#    0.000    2.571    0.000    3.429    0.000    5.714 
#    0.000   10.714    0.000    0.000    0.000    0.000 
#    0.000    0.000    0.000    0.000    0.000    0.000 
#
# Total GULP energy -347213.083825 kJ/mol
# GULP energy per Si atom -12400.467279 kJ/mol
# Density = 1.904829 g / cm^3
# Si number density = 19.091744 Si / 1000 Ang^3
#
#
#
# Elastic Constant Matrix: (Units=GPa)
#
#
# Indices 1 2 3 4 5 6 
#
# 1 78.4769 51.4979 49.2212 0.0000 0.0000 0.0000
# 2 51.4979 126.4685 62.3822 0.0000 0.0000 0.0000
# 3 49.2212 62.3822 96.7883 0.0000 0.0000 0.0000
# 4 0.0000 0.0000 0.0000 27.0417 0.0000 0.0000
# 5 0.0000 0.0000 0.0000 0.0000 17.8422 0.0000
# 6 0.0000 0.0000 0.0000 0.0000 0.0000 36.2436
#
#
#
# Elastic Compliance Matrix: (Units=1/GPa)
#
#
# Indices 1 2 3 4 5 6 
#
# 1 0.020444 -0.004686 -0.007376 0.000000 0.000000 0.000000
# 2 -0.004686 0.012667 -0.005781 0.000000 0.000000 0.000000
# 3 -0.007376 -0.005781 0.017809 0.000000 0.000000 0.000000
# 4 0.000000 0.000000 0.000000 0.036980 0.000000 0.000000
# 5 0.000000 0.000000 0.000000 0.000000 0.056047 0.000000
# 6 0.000000 0.000000 0.000000 0.000000 0.000000 0.027591
#
#
# Mechanical properties :
#
#
# Convention : Reuss Voigt Hill
#
# Bulk Modulus (GPa) = 65.64731 69.77070 67.70901
# Shear Modulus (GPa) = 23.55121 25.46765 24.50943
#
# Velocity S-wave (km/s) = 3.51605 3.65631 3.58686
# Velocity P-wave (km/s) = 7.13746 7.37896 7.25921
#
# Compressibility (1/GPa) = 0.01523292
#
# Stress axis : x y z
#
# Youngs Moduli (GPa) = 48.91294 78.94592 56.15160
#
# Poissons Ratio (x) = 0.36998 0.41420
# Poissons Ratio (y) = 0.22923 0.32460
# Poissons Ratio (z) = 0.36080 0.45637
#
# Static dielectric constant tensor:
#      x y z
#    x 3.866610 0.000000 0.000000 
#    y 0.000000 3.437860 0.000000 
#    z 0.000000 0.000000 3.550640 
# 
# 
# High freq. dielectric constant tensor:
#      x y z
#    x 1.729560 0.000000 0.000000 
#    y 0.000000 1.743740 0.000000 
#    z 0.000000 0.000000 1.741570 
# 
# From -- ./inp_files/15338.got.cif
#   From: 2010.03.12/outbox.cif.g09.slc.cpg/sg40_8_cif.got.tgz:15338.got - 2010.04.14 01:38:03.
