data_PCOD8183469
_publ_section_title
;
Structure prediction by ZEFSAII (Michael W. Deem and Ramdas Pophale) SiO2 
 PCOD8183469
Probable space group: A M A 2
;
_chemical_formula_sum "Si O2"
_cell_formula_units_Z 56
_cell_length_a 9.316128
_cell_length_b 20.347027
_cell_length_c 14.736235
_cell_angle_alpha 90.000000
_cell_angle_beta 90.000000
_cell_angle_gamma 90.000000
_cell_volume 2793.334511
_symmetry_space_group_name_H-M "A M A 2"
_symmetry_group_IT_number 40
_symmetry_cell_setting 'orthorhombic'
loop_
_space_group_symop_operation_xyz
x,y,z
-x,-y,z
1/2-x,y,z
1/2+x,-y,z
x,1/2+y,1/2+z
-x,1/2-y,1/2+z
1/2-x,1/2+y,1/2+z
1/2+x,1/2-y,1/2+z
loop_
_atom_site_type_symbol
_atom_site_label
_atom_site_fract_x
_atom_site_fract_y
_atom_site_fract_z
Si Si1 0.409100 0.283952 0.482740
Si Si2 0.919318 0.314184 0.315021
Si Si3 0.078522 0.069539 0.269715
Si Si4 0.917788 0.689868 0.689588
Si Si5 0.406550 0.635216 0.957903
Si Si6 0.090671 0.440493 0.270656
Si Si7 0.403833 0.444158 0.062291
O O1 0.250000 0.316234 0.471433
O O2 0.527924 0.318377 0.419761
O O3 0.453203 0.284370 0.588201
O O4 0.402202 0.211854 0.440131
O O5 0.750000 0.327055 0.311904
O O6 0.959146 0.247022 0.261787
O O7 0.001933 0.373553 0.267557
O O8 0.250000 0.063114 0.253223
O O9 0.041513 0.096061 0.369440
O O10 0.012563 0.124430 0.202362
O O11 0.000000 0.000000 0.252284
O O12 0.750000 0.672298 0.700330
O O13 0.250000 0.609761 0.988342
O O14 0.516976 0.624154 0.040571
O O15 0.250000 0.433588 0.316257
O O16 0.115519 0.459432 0.166962
O O17 0.000000 0.500000 0.317736
O O18 0.500000 0.500000 0.014335
O O19 0.250000 0.443315 0.013515
#
# Coordination Sequence:
#
# PCOD8183469 Si02
#       7
#     8   8   8   8   8   8   8
#     4  10  21  39  61  87 119 156 200 250 305 362
#     4  11  22  38  62  91 121 156 198 249 303 364
#     4  11  23  39  61  87 122 165 210 260 314 374
#     4  10  22  40  63  90 124 164 206 254 308 368
#     4  10  20  35  56  84 117 154 193 244 307 366
#     4  10  21  37  57  83 117 157 198 244 299 359
#     4  10  20  32  50  78 112 150 190 233 285 349
#
# _framework density 20.047723999999999
#
# number of rings (size 3 to 8) (size 9 to 14) (size 15 to 20)
#    0.000    1.714    1.429    3.000    0.000    6.857 
#    0.000    0.714    0.000    3.429    0.000    0.000 
#    0.000    0.000    0.000    0.000    0.000    0.000 
#
# Total GULP energy -346984.168328 kJ/mol
# GULP energy per Si atom -12392.291726 kJ/mol
# Density = 2.000209 g / cm^3
# Si number density = 20.047724 Si / 1000 Ang^3
#
#
#
# Elastic Constant Matrix: (Units=GPa)
#
#
# Indices 1 2 3 4 5 6 
#
# 1 142.4222 62.7662 40.8716 0.0000 0.0000 0.0000
# 2 62.7662 113.8961 24.9912 0.0000 0.0000 0.0000
# 3 40.8716 24.9912 77.9559 0.0000 0.0000 0.0000
# 4 0.0000 0.0000 0.0000 28.5877 0.0000 0.0000
# 5 0.0000 0.0000 0.0000 0.0000 28.5796 0.0000
# 6 0.0000 0.0000 0.0000 0.0000 0.0000 34.9993
#
#
#
# Elastic Compliance Matrix: (Units=1/GPa)
#
#
# Indices 1 2 3 4 5 6 
#
# 1 0.010235 -0.004801 -0.003827 0.000000 0.000000 0.000000
# 2 -0.004801 0.011696 -0.001233 0.000000 0.000000 0.000000
# 3 -0.003827 -0.001233 0.015230 0.000000 0.000000 0.000000
# 4 0.000000 0.000000 0.000000 0.034980 0.000000 0.000000
# 5 0.000000 0.000000 0.000000 0.000000 0.034990 0.000000
# 6 0.000000 0.000000 0.000000 0.000000 0.000000 0.028572
#
#
# Mechanical properties :
#
#
# Convention : Reuss Voigt Hill
#
# Bulk Modulus (GPa) = 57.34026 65.72578 61.53302
# Shear Modulus (GPa) = 31.01015 32.14300 31.57657
#
# Velocity S-wave (km/s) = 3.93723 4.00850 3.97302
# Velocity P-wave (km/s) = 7.02374 7.36749 7.19767
#
# Compressibility (1/GPa) = 0.01743975
#
# Stress axis : x y z
#
# Youngs Moduli (GPa) = 97.69967 85.49937 65.66194
#
# Poissons Ratio (x) = 0.41046 0.25131
# Poissons Ratio (y) = 0.46903 0.08093
# Poissons Ratio (z) = 0.37393 0.10538
#
# Static dielectric constant tensor:
#      x y z
#    x 4.103060 0.000000 0.000000 
#    y 0.000000 3.569160 0.000000 
#    z 0.000000 0.000000 3.341950 
# 
# 
# High freq. dielectric constant tensor:
#      x y z
#    x 1.797250 0.000000 0.000000 
#    y 0.000000 1.777980 0.000000 
#    z 0.000000 0.000000 1.757650 
# 
# From -- ./inp_files/15276.got.cif
#   From: 2010.03.12/outbox.cif.g09.slc.cpg/sg40_8_cif.got.tgz:15276.got - 2010.04.14 01:38:03.
