data_PCOD8183012
_publ_section_title
;
Structure prediction by ZEFSAII (Michael W. Deem and Ramdas Pophale) SiO2 
 PCOD8183012
Probable space group: A M A 2
;
_chemical_formula_sum "Si O2"
_cell_formula_units_Z 64
_cell_length_a 9.550299
_cell_length_b 24.711550
_cell_length_c 15.269343
_cell_angle_alpha 90.000000
_cell_angle_beta 90.000000
_cell_angle_gamma 90.000000
_cell_volume 3603.606042
_symmetry_space_group_name_H-M "A M A 2"
_symmetry_group_IT_number 40
_symmetry_cell_setting 'orthorhombic'
loop_
_space_group_symop_operation_xyz
x,y,z
-x,-y,z
1/2-x,y,z
1/2+x,-y,z
x,1/2+y,1/2+z
-x,1/2-y,1/2+z
1/2-x,1/2+y,1/2+z
1/2+x,1/2-y,1/2+z
loop_
_atom_site_type_symbol
_atom_site_label
_atom_site_fract_x
_atom_site_fract_y
_atom_site_fract_z
Si Si1 0.088191 0.110868 0.800890
Si Si2 0.916258 0.853395 0.107181
Si Si3 0.912883 0.355131 0.984791
Si Si4 0.413714 0.053276 0.980365
Si Si5 0.414098 0.168586 0.295257
Si Si6 0.909213 0.233293 0.573167
Si Si7 0.590454 0.212263 0.774156
Si Si8 0.414686 0.054264 0.620974
O O1 0.250000 0.127576 0.795313
O O2 0.058905 0.070449 0.880585
O O3 0.039788 0.081152 0.712351
O O4 0.002153 0.165406 0.817091
O O5 0.750000 0.855482 0.105370
O O6 0.973842 0.860456 0.207445
O O7 0.964645 0.795025 0.070890
O O8 0.974608 0.900767 0.045516
O O9 0.750000 0.343119 0.000093
O O10 0.959901 0.406456 0.041585
O O11 0.993998 0.301094 0.009636
O O12 0.946042 0.366727 0.881967
O O13 0.250000 0.042179 0.996836
O O14 0.500000 0.000000 0.001879
O O15 0.250000 0.176245 0.278986
O O16 0.471894 0.229908 0.305775
O O17 0.750000 0.229970 0.539244
O O18 0.920486 0.208539 0.669691
O O19 0.750000 0.203748 0.805380
O O20 0.250000 0.041240 0.619507
O O21 0.500000 0.000000 0.606487
#
# Coordination Sequence:
#
# PCOD8183012 Si02
#       8
#     8   8   8   8   8   8   8   8
#     4  10  20  33  49  74 105 134 165 206 256 302
#     4   8  16  33  53  73  99 133 172 208 248 301
#     4  10  19  32  51  76 104 133 166 207 253 297
#     4  10  21  36  54  74  99 134 175 217 256 298
#     4   8  16  31  51  74 103 135 167 202 247 305
#     4   9  17  30  50  76 103 133 166 200 244 302
#     4   9  17  30  49  75 104 135 168 199 238 298
#     4  10  21  35  50  70 100 135 170 207 249 297
#
# _framework density 17.759988
#
# number of rings (size 3 to 8) (size 9 to 14) (size 15 to 20)
#    0.000    2.750    1.250    1.875    1.750    1.500 
#    0.000    1.250    0.000    2.250    0.000    0.000 
#    0.000    0.000    0.000    0.000    0.000    0.000 
#
# Total GULP energy -396709.684190 kJ/mol
# GULP energy per Si atom -12397.177631 kJ/mol
# Density = 1.771957 g / cm^3
# Si number density = 17.759988 Si / 1000 Ang^3
#
#
#
# Elastic Constant Matrix: (Units=GPa)
#
#
# Indices 1 2 3 4 5 6 
#
# 1 38.5999 42.0755 31.1757 0.0000 0.0000 0.0000
# 2 42.0755 122.5639 66.8741 0.0000 0.0000 0.0000
# 3 31.1757 66.8741 114.5644 0.0000 0.0000 0.0000
# 4 0.0000 0.0000 0.0000 25.3603 0.0000 0.0000
# 5 0.0000 0.0000 0.0000 0.0000 13.4479 0.0000
# 6 0.0000 0.0000 0.0000 0.0000 0.0000 29.0375
#
#
#
# Elastic Compliance Matrix: (Units=1/GPa)
#
#
# Indices 1 2 3 4 5 6 
#
# 1 0.042936 -0.012274 -0.004519 0.000000 0.000000 0.000000
# 2 -0.012274 0.015481 -0.005696 0.000000 0.000000 0.000000
# 3 -0.004519 -0.005696 0.013284 0.000000 0.000000 0.000000
# 4 0.000000 0.000000 0.000000 0.039432 0.000000 0.000000
# 5 0.000000 0.000000 0.000000 0.000000 0.074361 0.000000
# 6 0.000000 0.000000 0.000000 0.000000 0.000000 0.034438
#
#
# Mechanical properties :
#
#
# Convention : Reuss Voigt Hill
#
# Bulk Modulus (GPa) = 37.42372 61.77543 49.59958
# Shear Modulus (GPa) = 18.26036 22.60933 20.43484
#
# Velocity S-wave (km/s) = 3.20999 3.57185 3.39575
# Velocity P-wave (km/s) = 5.90393 7.20207 6.58507
#
# Compressibility (1/GPa) = 0.02672102
#
# Stress axis : x y z
#
# Youngs Moduli (GPa) = 23.29059 64.59673 75.28016
#
# Poissons Ratio (x) = 0.79284 0.34022
# Poissons Ratio (y) = 0.28586 0.42883
# Poissons Ratio (z) = 0.10526 0.36797
#
# Static dielectric constant tensor:
#      x y z
#    x 3.000500 0.000000 0.000000 
#    y 0.000000 3.213410 0.000000 
#    z 0.000000 0.000000 3.504190 
# 
# 
# High freq. dielectric constant tensor:
#      x y z
#    x 1.656400 0.000000 0.000000 
#    y 0.000000 1.677680 0.000000 
#    z 0.000000 0.000000 1.693470 
# 
# From -- ./inp_files/15557.got.cif
#   From: 2010.03.12/outbox.cif.g09.slc.cpg/sg40_8_cif.got.tgz:15557.got - 2010.04.14 01:38:03.
