data_PCOD8183304
_publ_section_title
;
Structure prediction by ZEFSAII (Michael W. Deem and Ramdas Pophale) SiO2 
 PCOD8183304
Probable space group: A M A 2
;
_chemical_formula_sum "Si O2"
_cell_formula_units_Z 56
_cell_length_a 16.985341
_cell_length_b 5.026526
_cell_length_c 30.890732
_cell_angle_alpha 90.000000
_cell_angle_beta 90.000000
_cell_angle_gamma 90.000000
_cell_volume 2637.366001
_symmetry_space_group_name_H-M "A M A 2"
_symmetry_group_IT_number 40
_symmetry_cell_setting 'orthorhombic'
loop_
_space_group_symop_operation_xyz
x,y,z
-x,-y,z
1/2-x,y,z
1/2+x,-y,z
x,1/2+y,1/2+z
-x,1/2-y,1/2+z
1/2-x,1/2+y,1/2+z
1/2+x,1/2-y,1/2+z
loop_
_atom_site_type_symbol
_atom_site_label
_atom_site_fract_x
_atom_site_fract_y
_atom_site_fract_z
Si Si1 0.409557 0.072074 0.183480
Si Si2 0.591232 0.959582 0.999423
Si Si3 0.658076 0.429344 0.139342
Si Si4 0.406228 0.039440 0.547017
Si Si5 0.839269 0.299742 0.773308
Si Si6 0.338728 0.187018 0.829422
Si Si7 0.446656 0.741360 0.408717
O O1 0.389992 0.305379 0.150239
O O2 0.392505 0.189365 0.230877
O O3 0.500000 0.000000 0.178841
O O4 0.358622 0.810395 0.172732
O O5 0.603091 0.856029 0.950428
O O6 0.500000 0.000000 0.009152
O O7 0.629278 0.744047 0.032160
O O8 0.624902 0.251323 0.010289
O O9 0.750000 0.494557 0.140628
O O10 0.629618 0.351527 0.091539
O O11 0.500000 0.000000 0.550023
O O12 0.750000 0.218322 0.760383
O O13 0.841647 0.589478 0.793329
O O14 0.873066 0.081846 0.807337
O O15 0.250000 0.132946 0.845580
O O16 0.387122 0.297961 0.869988
O O17 0.500000 0.500000 0.392629
O O18 0.500000 0.000000 0.419776
#
# Coordination Sequence:
#
# PCOD8183304 Si02
#       7
#     8   8   8   8   8   8   8
#     4  12  25  42  65  93 122 158 208 259 306 366
#     4   9  18  33  56  83 113 150 192 241 294 345
#     4  12  25  42  63  91 127 163 201 250 314 375
#     4  10  19  35  58  83 113 152 198 243 290 350
#     4  10  21  39  61  85 118 158 197 241 301 362
#     4  10  22  39  59  85 119 158 195 238 299 361
#     4  11  21  36  59  88 119 153 199 246 292 349
#
# _framework density 21.233308000000001
#
# number of rings (size 3 to 8) (size 9 to 14) (size 15 to 20)
#    0.000    1.429    0.000    7.286    0.000    4.000 
#    0.000    1.429    0.000    0.000    0.000    1.000 
#    0.000    0.000    0.000    0.000    0.000    0.000 
#
# Total GULP energy -347138.141416 kJ/mol
# GULP energy per Si atom -12397.790765 kJ/mol
# Density = 2.118498 g / cm^3
# Si number density = 21.233308 Si / 1000 Ang^3
#
#
#
# Elastic Constant Matrix: (Units=GPa)
#
#
# Indices 1 2 3 4 5 6 
#
# 1 61.5061 25.8598 44.8309 0.0000 0.0000 0.0000
# 2 25.8598 117.2694 31.1068 0.0000 0.0000 0.0000
# 3 44.8309 31.1068 115.6276 0.0000 0.0000 0.0000
# 4 0.0000 0.0000 0.0000 36.8321 0.0000 0.0000
# 5 0.0000 0.0000 0.0000 0.0000 7.8005 0.0000
# 6 0.0000 0.0000 0.0000 0.0000 0.0000 16.5891
#
#
#
# Elastic Compliance Matrix: (Units=1/GPa)
#
#
# Indices 1 2 3 4 5 6 
#
# 1 0.023598 -0.002990 -0.008345 0.000000 0.000000 0.000000
# 2 -0.002990 0.009562 -0.001413 0.000000 0.000000 0.000000
# 3 -0.008345 -0.001413 0.012264 0.000000 0.000000 0.000000
# 4 0.000000 0.000000 0.000000 0.027150 0.000000 0.000000
# 5 0.000000 0.000000 0.000000 0.000000 0.128197 0.000000
# 6 0.000000 0.000000 0.000000 0.000000 0.000000 0.060280
#
#
# Mechanical properties :
#
#
# Convention : Reuss Voigt Hill
#
# Bulk Modulus (GPa) = 50.18174 55.33313 52.75743
# Shear Modulus (GPa) = 17.05376 25.08471 21.06923
#
# Velocity S-wave (km/s) = 2.83708 3.44086 3.15345
# Velocity P-wave (km/s) = 5.86659 6.47319 6.17734
#
# Compressibility (1/GPa) = 0.01992757
#
# Stress axis : x y z
#
# Youngs Moduli (GPa) = 42.37583 104.58537 81.53873
#
# Poissons Ratio (x) = 0.31273 0.68045
# Poissons Ratio (y) = 0.12671 0.11521
# Poissons Ratio (z) = 0.35363 0.14777
#
# Static dielectric constant tensor:
#      x y z
#    x 3.542000 0.000000 0.000000 
#    y 0.000000 4.229980 0.000000 
#    z 0.000000 0.000000 3.745380 
# 
# 
# High freq. dielectric constant tensor:
#      x y z
#    x 1.797340 0.000000 0.000000 
#    y 0.000000 1.856590 0.000000 
#    z 0.000000 0.000000 1.837610 
# 
# From -- ./inp_files/26597.got.cif
#   From: 2010.03.12/outbox.cif.g09.slc.cpg/sg40_14_cif.got.tgz:26597.got - 2010.04.14 01:38:03.
