data_PCOD8183356
_publ_section_title
;
Structure prediction by ZEFSAII (Michael W. Deem and Ramdas Pophale) SiO2 
 PCOD8183356
Probable space group: A M A 2
;
_chemical_formula_sum "Si O2"
_cell_formula_units_Z 64
_cell_length_a 17.376211
_cell_length_b 16.116318
_cell_length_c 11.971856
_cell_angle_alpha 90.000000
_cell_angle_beta 90.000000
_cell_angle_gamma 90.000000
_cell_volume 3352.605044
_symmetry_space_group_name_H-M "A M A 2"
_symmetry_group_IT_number 40
_symmetry_cell_setting 'orthorhombic'
loop_
_space_group_symop_operation_xyz
x,y,z
-x,-y,z
1/2-x,y,z
1/2+x,-y,z
x,1/2+y,1/2+z
-x,1/2-y,1/2+z
1/2-x,1/2+y,1/2+z
1/2+x,1/2-y,1/2+z
loop_
_atom_site_type_symbol
_atom_site_label
_atom_site_fract_x
_atom_site_fract_y
_atom_site_fract_z
Si Si1 0.412988 0.863299 0.242160
Si Si2 0.078212 0.296206 0.097306
Si Si3 0.911859 0.016757 0.560616
Si Si4 0.590788 0.257932 0.054652
Si Si5 0.082727 0.691747 0.806982
Si Si6 0.839586 0.477959 0.828900
Si Si7 0.838605 0.767038 0.891049
Si Si8 0.162887 0.613569 0.199885
O O1 0.407709 0.833927 0.111962
O O2 0.496427 0.843984 0.295280
O O3 0.350677 0.814614 0.316197
O O4 0.391538 0.960100 0.252808
O O5 0.110534 0.388480 0.084032
O O6 0.105194 0.258429 0.214023
O O7 0.986737 0.303429 0.093775
O O8 0.108800 0.235289 0.000547
O O9 0.858912 0.987092 0.459130
O O10 0.891210 0.964285 0.671147
O O11 0.000000 0.000000 0.527456
O O12 0.658317 0.314965 0.104809
O O13 0.594552 0.256436 0.921270
O O14 0.141285 0.615754 0.794268
O O15 0.750000 0.495430 0.807220
O O16 0.750000 0.770954 0.927183
O O17 0.862945 0.848033 0.819138
O O18 0.250000 0.582188 0.205817
#
# Coordination Sequence:
#
# PCOD8183356 Si02
#       8
#     8   8   8   8   8   8   8   8
#     4  10  20  35  60  85 114 152 200 238 288 345
#     4  11  22  36  60  89 119 155 189 241 296 352
#     4  12  21  35  58  88 118 149 195 248 296 342
#     4  10  19  36  59  86 116 151 191 241 290 349
#     4  11  22  38  60  87 121 152 191 243 299 348
#     4  12  23  37  57  86 117 155 200 246 292 344
#     4  10  20  36  57  84 117 153 195 236 286 348
#     4  10  21  36  57  84 114 152 195 240 286 343
#
# _framework density 19.089634
#
# number of rings (size 3 to 8) (size 9 to 14) (size 15 to 20)
#    0.000    1.250    5.000    1.875    0.000    1.500 
#    0.000    1.250    0.000    0.000    0.000    0.000 
#    0.000    0.000    0.000    0.000    0.000    0.000 
#
# Total GULP energy -396809.862358 kJ/mol
# GULP energy per Si atom -12400.308199 kJ/mol
# Density = 1.904619 g / cm^3
# Si number density = 19.089634 Si / 1000 Ang^3
#
#
#
# Elastic Constant Matrix: (Units=GPa)
#
#
# Indices 1 2 3 4 5 6 
#
# 1 66.3185 17.7428 22.2543 0.0000 0.0000 0.0000
# 2 17.7428 83.8387 49.1979 0.0000 0.0000 0.0000
# 3 22.2543 49.1979 121.4398 0.0000 0.0000 0.0000
# 4 0.0000 0.0000 0.0000 34.1172 0.0000 0.0000
# 5 0.0000 0.0000 0.0000 0.0000 12.8997 0.0000
# 6 0.0000 0.0000 0.0000 0.0000 0.0000 23.0413
#
#
#
# Elastic Compliance Matrix: (Units=1/GPa)
#
#
# Indices 1 2 3 4 5 6 
#
# 1 0.016380 -0.002237 -0.002096 0.000000 0.000000 0.000000
# 2 -0.002237 0.015953 -0.006053 0.000000 0.000000 0.000000
# 3 -0.002096 -0.006053 0.011071 0.000000 0.000000 0.000000
# 4 0.000000 0.000000 0.000000 0.029311 0.000000 0.000000
# 5 0.000000 0.000000 0.000000 0.000000 0.077521 0.000000
# 6 0.000000 0.000000 0.000000 0.000000 0.000000 0.043400
#
#
# Mechanical properties :
#
#
# Convention : Reuss Voigt Hill
#
# Bulk Modulus (GPa) = 44.18267 49.99856 47.09062
# Shear Modulus (GPa) = 22.52744 26.17178 24.34961
#
# Velocity S-wave (km/s) = 3.43897 3.70671 3.57535
# Velocity P-wave (km/s) = 6.24210 6.67592 6.46265
#
# Compressibility (1/GPa) = 0.02263331
#
# Stress axis : x y z
#
# Youngs Moduli (GPa) = 61.04856 62.68390 90.32807
#
# Poissons Ratio (x) = 0.14022 0.18929
# Poissons Ratio (y) = 0.13656 0.54676
# Poissons Ratio (z) = 0.12793 0.37943
#
# Static dielectric constant tensor:
#      x y z
#    x 3.442600 0.000000 0.000000 
#    y 0.000000 3.497990 0.000000 
#    z 0.000000 0.000000 3.491070 
# 
# 
# High freq. dielectric constant tensor:
#      x y z
#    x 1.741890 0.000000 0.000000 
#    y 0.000000 1.731430 0.000000 
#    z 0.000000 0.000000 1.730210 
# 
# From -- ./inp_files/13169.got.cif
#   From: 2010.03.12/outbox.cif.g09.slc.cpg/sg40_7_cif.got.tgz:13169.got - 2010.04.14 01:38:03.
