data_PCOD8183465
_publ_section_title
;
Structure prediction by ZEFSAII (Michael W. Deem and Ramdas Pophale) SiO2 
 PCOD8183465
Probable space group: A M A 2
;
_chemical_formula_sum "Si O2"
_cell_formula_units_Z 48
_cell_length_a 8.787052
_cell_length_b 13.733464
_cell_length_c 23.356026
_cell_angle_alpha 90.000000
_cell_angle_beta 90.000000
_cell_angle_gamma 90.000000
_cell_volume 2818.527262
_symmetry_space_group_name_H-M "A M A 2"
_symmetry_group_IT_number 40
_symmetry_cell_setting 'orthorhombic'
loop_
_space_group_symop_operation_xyz
x,y,z
-x,-y,z
1/2-x,y,z
1/2+x,-y,z
x,1/2+y,1/2+z
-x,1/2-y,1/2+z
1/2-x,1/2+y,1/2+z
1/2+x,1/2-y,1/2+z
loop_
_atom_site_type_symbol
_atom_site_label
_atom_site_fract_x
_atom_site_fract_y
_atom_site_fract_z
Si Si1 0.070191 0.395503 0.870340
Si Si2 0.571165 0.398633 0.325469
Si Si3 0.430834 0.285273 0.428346
Si Si4 0.926935 0.399406 0.658472
Si Si5 0.930073 0.397141 0.527818
Si Si6 0.074977 0.288307 0.755405
O O1 0.250000 0.396017 0.880450
O O2 0.029666 0.362342 0.806078
O O3 0.000000 0.500000 0.882476
O O4 0.994908 0.321333 0.914853
O O5 0.500000 0.500000 0.304903
O O6 0.750000 0.408272 0.337521
O O7 0.491897 0.365174 0.383844
O O8 0.538538 0.321487 0.275094
O O9 0.250000 0.283937 0.427009
O O10 0.491627 0.312718 0.491033
O O11 0.750000 0.414316 0.664277
O O12 0.973660 0.374617 0.593551
O O13 0.000000 0.500000 0.679696
O O14 0.978169 0.311191 0.699070
O O15 0.750000 0.398962 0.517624
O O16 0.000000 0.500000 0.508700
O O17 0.250000 0.300545 0.739116
#
# Coordination Sequence:
#
# PCOD8183465 Si02
#       6
#     8   8   8   8   8   8
#     4  10  20  34  51  74 102 132 164 201 243 290
#     4  10  20  34  51  73 100 131 163 201 245 292
#     4  11  21  33  51  74  99 131 165 202 245 290
#     4  10  20  32  50  73  99 130 163 200 243 288
#     4  10  20  34  50  72 100 130 163 202 245 293
#     4   9  19  33  50  72 100 130 161 198 241 287
#
# _framework density 17.030170999999999
#
# number of rings (size 3 to 8) (size 9 to 14) (size 15 to 20)
#    0.000    2.000    0.000    5.500    0.000    7.333 
#    0.000    0.000    0.000    1.000    0.000    2.333 
#    0.000    0.000    0.000    0.000    0.000    0.000 
#
# Total GULP energy -297692.588888 kJ/mol
# GULP energy per Si atom -12403.857870 kJ/mol
# Density = 1.699141 g / cm^3
# Si number density = 17.030171 Si / 1000 Ang^3
#
#
#
# Elastic Constant Matrix: (Units=GPa)
#
#
# Indices 1 2 3 4 5 6 
#
# 1 104.9409 56.9632 51.7192 0.0000 0.0000 0.0000
# 2 56.9632 130.6733 63.0103 0.0000 0.0000 0.0000
# 3 51.7192 63.0103 96.7844 0.0000 0.0000 0.0000
# 4 0.0000 0.0000 0.0000 24.6177 0.0000 0.0000
# 5 0.0000 0.0000 0.0000 0.0000 28.9766 0.0000
# 6 0.0000 0.0000 0.0000 0.0000 0.0000 33.8958
#
#
#
# Elastic Compliance Matrix: (Units=1/GPa)
#
#
# Indices 1 2 3 4 5 6 
#
# 1 0.014035 -0.003646 -0.005126 0.000000 0.000000 0.000000
# 2 -0.003646 0.012102 -0.005930 0.000000 0.000000 0.000000
# 3 -0.005126 -0.005930 0.016932 0.000000 0.000000 0.000000
# 4 0.000000 0.000000 0.000000 0.040621 0.000000 0.000000
# 5 0.000000 0.000000 0.000000 0.000000 0.034511 0.000000
# 6 0.000000 0.000000 0.000000 0.000000 0.000000 0.029502
#
#
# Mechanical properties :
#
#
# Convention : Reuss Voigt Hill
#
# Bulk Modulus (GPa) = 73.18620 75.08714 74.13667
# Shear Modulus (GPa) = 27.52368 28.21176 27.86772
#
# Velocity S-wave (km/s) = 4.02453 4.07452 4.04960
# Velocity P-wave (km/s) = 8.04136 8.14383 8.09276
#
# Compressibility (1/GPa) = 0.01366378
#
# Stress axis : x y z
#
# Youngs Moduli (GPa) = 71.25199 82.63320 59.05923
#
# Poissons Ratio (x) = 0.30131 0.30273
# Poissons Ratio (y) = 0.25981 0.35023
# Poissons Ratio (z) = 0.36523 0.49003
#
# Static dielectric constant tensor:
#      x y z
#    x 3.274400 0.000000 0.000000 
#    y 0.000000 3.206810 0.000000 
#    z 0.000000 0.000000 3.142720 
# 
# 
# High freq. dielectric constant tensor:
#      x y z
#    x 1.674740 0.000000 0.000000 
#    y 0.000000 1.649420 0.000000 
#    z 0.000000 0.000000 1.645160 
# 
# From -- ./inp_files/21986.got.cif
#   From: 2010.03.12/outbox.cif.g09.slc.cpg/sg40_11_cif.got.tgz:21986.got - 2010.04.14 01:38:03.
