data_PCOD8183571
_publ_section_title
;
Structure prediction by ZEFSAII (Michael W. Deem and Ramdas Pophale) SiO2 
 PCOD8183571
Probable space group: A M A 2
;
_chemical_formula_sum "Si O2"
_cell_formula_units_Z 56
_cell_length_a 8.795829
_cell_length_b 23.906513
_cell_length_c 13.590072
_cell_angle_alpha 90.000000
_cell_angle_beta 90.000000
_cell_angle_gamma 90.000000
_cell_volume 2857.687729
_symmetry_space_group_name_H-M "A M A 2"
_symmetry_group_IT_number 40
_symmetry_cell_setting 'orthorhombic'
loop_
_space_group_symop_operation_xyz
x,y,z
-x,-y,z
1/2-x,y,z
1/2+x,-y,z
x,1/2+y,1/2+z
-x,1/2-y,1/2+z
1/2-x,1/2+y,1/2+z
1/2+x,1/2-y,1/2+z
loop_
_atom_site_type_symbol
_atom_site_label
_atom_site_fract_x
_atom_site_fract_y
_atom_site_fract_z
Si Si1 0.574295 0.666966 0.539820
Si Si2 0.927476 0.622548 0.041516
Si Si3 0.426892 0.160270 0.241769
Si Si4 0.930393 0.558061 0.422659
Si Si5 0.072006 0.940516 0.345204
Si Si6 0.074804 0.721057 0.936761
Si Si7 0.569914 0.941776 0.712193
O O1 0.750000 0.666217 0.569638
O O2 0.479099 0.682822 0.636236
O O3 0.523724 0.606962 0.497782
O O4 0.542214 0.713725 0.456584
O O5 0.750000 0.619644 0.066613
O O6 0.024100 0.606857 0.137174
O O7 0.973071 0.580358 0.953895
O O8 0.970832 0.685204 0.010398
O O9 0.250000 0.147233 0.240212
O O10 0.512304 0.102549 0.264034
O O11 0.467474 0.207275 0.323545
O O12 0.750000 0.552334 0.410675
O O13 0.000000 0.500000 0.463158
O O14 0.002086 0.573405 0.317939
O O15 0.250000 0.945569 0.332463
O O16 0.000000 0.000000 0.324140
O O17 0.250000 0.705535 0.957502
O O18 0.750000 0.947356 0.719528
O O19 0.500000 0.000000 0.673346
#
# Coordination Sequence:
#
# PCOD8183571 Si02
#       7
#     8   8   8   8   8   8   8
#     4  10  22  40  61  83 111 146 184 228 279 330
#     4  10  20  34  54  82 114 149 188 231 278 331
#     4  10  21  37  58  83 112 145 185 230 276 329
#     4  10  21  38  58  81 111 146 185 232 279 329
#     4  10  20  34  54  80 112 149 188 231 279 329
#     4   9  20  39  58  80 111 146 184 230 279 328
#     4  11  21  34  54  81 114 151 189 232 279 330
#
# _framework density 19.596263
#
# number of rings (size 3 to 8) (size 9 to 14) (size 15 to 20)
#    0.000    2.000    0.000    4.286    0.000    6.857 
#    0.000    2.857    0.000    0.000    0.000    0.000 
#    0.000    0.000    0.000    0.000    0.000    0.000 
#
# Total GULP energy -347310.156509 kJ/mol
# GULP energy per Si atom -12403.934161 kJ/mol
# Density = 1.955166 g / cm^3
# Si number density = 19.596263 Si / 1000 Ang^3
#
#
#
# Elastic Constant Matrix: (Units=GPa)
#
#
# Indices 1 2 3 4 5 6 
#
# 1 86.8731 41.7205 42.1167 0.0000 0.0000 0.0000
# 2 41.7205 120.6047 60.8829 0.0000 0.0000 0.0000
# 3 42.1167 60.8829 105.7368 0.0000 0.0000 0.0000
# 4 0.0000 0.0000 0.0000 26.8639 0.0000 0.0000
# 5 0.0000 0.0000 0.0000 0.0000 33.1705 0.0000
# 6 0.0000 0.0000 0.0000 0.0000 0.0000 31.0339
#
#
#
# Elastic Compliance Matrix: (Units=1/GPa)
#
#
# Indices 1 2 3 4 5 6 
#
# 1 0.015031 -0.003069 -0.004220 0.000000 0.000000 0.000000
# 2 -0.003069 0.012316 -0.005869 0.000000 0.000000 0.000000
# 3 -0.004220 -0.005869 0.014518 0.000000 0.000000 0.000000
# 4 0.000000 0.000000 0.000000 0.037225 0.000000 0.000000
# 5 0.000000 0.000000 0.000000 0.000000 0.030147 0.000000
# 6 0.000000 0.000000 0.000000 0.000000 0.000000 0.032223
#
#
# Mechanical properties :
#
#
# Convention : Reuss Voigt Hill
#
# Bulk Modulus (GPa) = 64.31548 66.96165 65.63856
# Shear Modulus (GPa) = 28.90873 29.44663 29.17768
#
# Velocity S-wave (km/s) = 3.84502 3.88063 3.86287
# Velocity P-wave (km/s) = 7.25285 7.37047 7.31190
#
# Compressibility (1/GPa) = 0.01554836
#
# Stress axis : x y z
#
# Youngs Moduli (GPa) = 66.52980 81.19465 68.88222
#
# Poissons Ratio (x) = 0.24922 0.29066
# Poissons Ratio (y) = 0.20421 0.40427
# Poissons Ratio (z) = 0.28073 0.47653
#
# Static dielectric constant tensor:
#      x y z
#    x 3.603420 0.000000 0.000000 
#    y 0.000000 3.551040 0.000000 
#    z 0.000000 0.000000 3.507040 
# 
# 
# High freq. dielectric constant tensor:
#      x y z
#    x 1.771730 0.000000 0.000000 
#    y 0.000000 1.760290 0.000000 
#    z 0.000000 0.000000 1.759610 
# 
# From -- ./inp_files/15315.got.cif
#   From: 2010.03.12/outbox.cif.g09.slc.cpg/sg40_8_cif.got.tgz:15315.got - 2010.04.14 01:38:03.
