data_PCOD8183919
_publ_section_title
;
Structure prediction by ZEFSAII (Michael W. Deem and Ramdas Pophale) SiO2 
 PCOD8183919
Probable space group: A M A 2
;
_chemical_formula_sum "Si O2"
_cell_formula_units_Z 48
_cell_length_a 18.066568
_cell_length_b 14.949305
_cell_length_c 9.686539
_cell_angle_alpha 90.000000
_cell_angle_beta 90.000000
_cell_angle_gamma 90.000000
_cell_volume 2616.165980
_symmetry_space_group_name_H-M "A M A 2"
_symmetry_group_IT_number 40
_symmetry_cell_setting 'orthorhombic'
loop_
_space_group_symop_operation_xyz
x,y,z
-x,-y,z
1/2-x,y,z
1/2+x,-y,z
x,1/2+y,1/2+z
-x,1/2-y,1/2+z
1/2-x,1/2+y,1/2+z
1/2+x,1/2-y,1/2+z
loop_
_atom_site_type_symbol
_atom_site_label
_atom_site_fract_x
_atom_site_fract_y
_atom_site_fract_z
Si Si1 0.337298 0.048099 0.766950
Si Si2 0.916191 0.268334 0.308150
Si Si3 0.165548 0.891344 0.970545
Si Si4 0.553016 0.762197 0.494683
Si Si5 0.165604 0.911320 0.287915
Si Si6 0.080466 0.036267 0.487578
O O1 0.250000 0.060886 0.760728
O O2 0.372340 0.139592 0.820621
O O3 0.365943 0.021291 0.616622
O O4 0.361466 0.970031 0.870723
O O5 0.858253 0.188427 0.330215
O O6 0.975755 0.266968 0.429557
O O7 0.956364 0.259795 0.160054
O O8 0.250000 0.863693 0.939895
O O9 0.116870 0.803982 0.942626
O O10 0.156552 0.926882 0.125399
O O11 0.575993 0.860418 0.443760
O O12 0.250000 0.925411 0.335707
O O13 0.112676 0.983413 0.358030
O O14 0.000000 0.000000 0.528160
#
# Coordination Sequence:
#
# PCOD8183919 Si02
#       6
#     8   8   8   8   8   8
#     4  10  22  39  60  85 114 150 190 235 284 335
#     4  10  21  37  57  84 114 150 190 231 280 341
#     4   9  21  39  58  83 112 150 193 231 278 339
#     4  10  22  36  57  81 116 149 186 235 281 334
#     4  10  20  38  60  81 112 150 188 232 282 336
#     4  11  22  37  56  88 117 147 190 234 282 339
#
# _framework density 18.347460000000002
#
# number of rings (size 3 to 8) (size 9 to 14) (size 15 to 20)
#    0.000    2.000    1.667    1.000    4.667    6.000 
#    0.000    0.000    0.000    5.000    0.000    0.000 
#    0.000    0.000    0.000    0.000    0.000    0.000 
#
# Total GULP energy -297717.761324 kJ/mol
# GULP energy per Si atom -12404.906722 kJ/mol
# Density = 1.830570 g / cm^3
# Si number density = 18.347460 Si / 1000 Ang^3
#
#
#
# Elastic Constant Matrix: (Units=GPa)
#
#
# Indices 1 2 3 4 5 6 
#
# 1 88.2541 59.7811 45.9878 0.0000 0.0000 0.0000
# 2 59.7811 141.7490 58.5832 0.0000 0.0000 0.0000
# 3 45.9878 58.5832 60.8940 0.0000 0.0000 0.0000
# 4 0.0000 0.0000 0.0000 30.7286 0.0000 0.0000
# 5 0.0000 0.0000 0.0000 0.0000 35.5796 0.0000
# 6 0.0000 0.0000 0.0000 0.0000 0.0000 33.7985
#
#
#
# Elastic Compliance Matrix: (Units=1/GPa)
#
#
# Indices 1 2 3 4 5 6 
#
# 1 0.019725 -0.003589 -0.011444 0.000000 0.000000 0.000000
# 2 -0.003589 0.012364 -0.009184 0.000000 0.000000 0.000000
# 3 -0.011444 -0.009184 0.033900 0.000000 0.000000 0.000000
# 4 0.000000 0.000000 0.000000 0.032543 0.000000 0.000000
# 5 0.000000 0.000000 0.000000 0.000000 0.028106 0.000000
# 6 0.000000 0.000000 0.000000 0.000000 0.000000 0.029587
#
#
# Mechanical properties :
#
#
# Convention : Reuss Voigt Hill
#
# Bulk Modulus (GPa) = 56.96360 68.84460 62.90410
# Shear Modulus (GPa) = 23.75159 28.45767 26.10463
#
# Velocity S-wave (km/s) = 3.60188 3.94260 3.77608
# Velocity P-wave (km/s) = 6.95792 7.63738 7.30555
#
# Compressibility (1/GPa) = 0.01755507
#
# Stress axis : x y z
#
# Youngs Moduli (GPa) = 50.69602 80.87789 29.49850
#
# Poissons Ratio (x) = 0.29031 0.33757
# Poissons Ratio (y) = 0.18197 0.27092
# Poissons Ratio (z) = 0.58014 0.74281
#
# Static dielectric constant tensor:
#      x y z
#    x 3.434790 0.000000 0.000000 
#    y 0.000000 3.488190 0.000000 
#    z 0.000000 0.000000 3.326090 
# 
# 
# High freq. dielectric constant tensor:
#      x y z
#    x 1.720280 0.000000 0.000000 
#    y 0.000000 1.723120 0.000000 
#    z 0.000000 0.000000 1.707890 
# 
# From -- ./inp_files/7415.got.cif
#   From: 2010.03.12/outbox.cif.g09.slc.cpg/sg40_4_cif.got.tgz:7415.got - 2010.04.14 01:38:03.
