data_PCOD8183428
_publ_section_title
;
Structure prediction by ZEFSAII (Michael W. Deem and Ramdas Pophale) SiO2 
 PCOD8183428
Probable space group: A M A 2
;
_chemical_formula_sum "Si O2"
_cell_formula_units_Z 64
_cell_length_a 17.987179
_cell_length_b 11.734717
_cell_length_c 16.092317
_cell_angle_alpha 90.000000
_cell_angle_beta 90.000000
_cell_angle_gamma 90.000000
_cell_volume 3396.677044
_symmetry_space_group_name_H-M "A M A 2"
_symmetry_group_IT_number 40
_symmetry_cell_setting 'orthorhombic'
loop_
_space_group_symop_operation_xyz
x,y,z
-x,-y,z
1/2-x,y,z
1/2+x,-y,z
x,1/2+y,1/2+z
-x,1/2-y,1/2+z
1/2-x,1/2+y,1/2+z
1/2+x,1/2-y,1/2+z
loop_
_atom_site_type_symbol
_atom_site_label
_atom_site_fract_x
_atom_site_fract_y
_atom_site_fract_z
Si Si1 0.337058 0.462201 0.887200
Si Si2 0.663975 0.794294 0.932187
Si Si3 0.914977 0.960454 0.542518
Si Si4 0.948451 0.265094 0.154918
Si Si5 0.914505 0.025225 0.216215
Si Si6 0.611944 0.807868 0.118653
Si Si7 0.834799 0.588415 0.183352
Si Si8 0.427988 0.563564 0.303053
O O1 0.250000 0.485893 0.896920
O O2 0.358360 0.332177 0.905292
O O3 0.363390 0.492501 0.795740
O O4 0.381958 0.543987 0.950111
O O5 0.750000 0.818944 0.913045
O O6 0.614933 0.881976 0.879802
O O7 0.648239 0.808614 0.028671
O O8 0.905205 0.835560 0.583715
O O9 0.867393 0.050760 0.594619
O O10 0.000000 0.000000 0.543188
O O11 0.903446 0.151286 0.178314
O O12 0.955688 0.342677 0.236940
O O13 0.027534 0.234632 0.116357
O O14 0.883972 0.937323 0.148845
O O15 0.000000 0.000000 0.240070
O O16 0.657040 0.725813 0.182355
O O17 0.750000 0.550740 0.190262
O O18 0.876656 0.530838 0.259790
O O19 0.500000 0.500000 0.339780
#
# Coordination Sequence:
#
# PCOD8183428 Si02
#       8
#     8   8   8   8   8   8   8   8
#     4  11  22  38  58  90 122 160 204 247 306 363
#     4  11  23  39  61  89 126 165 204 248 302 370
#     4  11  19  35  62  88 120 151 203 257 299 352
#     4  10  19  39  60  91 118 154 208 257 305 350
#     4  10  23  39  63  86 120 162 204 247 307 367
#     4  11  21  39  61  88 123 162 203 246 304 369
#     4  11  20  34  59  90 119 154 198 246 302 364
#     4  11  21  38  64  89 121 155 204 262 304 352
#
# _framework density 18.841944000000002
#
# number of rings (size 3 to 8) (size 9 to 14) (size 15 to 20)
#    0.000    1.250    5.000    2.250    0.000    2.500 
#    0.000    1.875    0.000    1.500    0.000    0.000 
#    0.000    0.000    0.000    0.000    0.000    0.000 
#
# Total GULP energy -396895.347508 kJ/mol
# GULP energy per Si atom -12402.979610 kJ/mol
# Density = 1.879906 g / cm^3
# Si number density = 18.841944 Si / 1000 Ang^3
#
#
#
# Elastic Constant Matrix: (Units=GPa)
#
#
# Indices 1 2 3 4 5 6 
#
# 1 91.7531 35.8700 32.2465 0.0000 0.0000 0.0000
# 2 35.8700 117.5614 47.2136 0.0000 0.0000 0.0000
# 3 32.2465 47.2136 80.3368 0.0000 0.0000 0.0000
# 4 0.0000 0.0000 0.0000 30.1609 0.0000 0.0000
# 5 0.0000 0.0000 0.0000 0.0000 18.7340 0.0000
# 6 0.0000 0.0000 0.0000 0.0000 0.0000 23.6958
#
#
#
# Elastic Compliance Matrix: (Units=1/GPa)
#
#
# Indices 1 2 3 4 5 6 
#
# 1 0.013224 -0.002491 -0.003844 0.000000 0.000000 0.000000
# 2 -0.002491 0.011603 -0.005819 0.000000 0.000000 0.000000
# 3 -0.003844 -0.005819 0.017411 0.000000 0.000000 0.000000
# 4 0.000000 0.000000 0.000000 0.033156 0.000000 0.000000
# 5 0.000000 0.000000 0.000000 0.000000 0.053379 0.000000
# 6 0.000000 0.000000 0.000000 0.000000 0.000000 0.042202
#
#
# Mechanical properties :
#
#
# Convention : Reuss Voigt Hill
#
# Bulk Modulus (GPa) = 55.77577 57.81239 56.79408
# Shear Modulus (GPa) = 24.84369 26.13954 25.49162
#
# Velocity S-wave (km/s) = 3.63510 3.72870 3.68219
# Velocity P-wave (km/s) = 6.87639 7.02047 6.94880
#
# Compressibility (1/GPa) = 0.01792893
#
# Stress axis : x y z
#
# Youngs Moduli (GPa) = 75.62257 86.18197 57.43658
#
# Poissons Ratio (x) = 0.21468 0.22078
# Poissons Ratio (y) = 0.18838 0.33425
# Poissons Ratio (z) = 0.29068 0.50153
#
# Static dielectric constant tensor:
#      x y z
#    x 3.451470 0.000000 0.000000 
#    y 0.000000 3.659300 0.000000 
#    z 0.000000 0.000000 3.323140 
# 
# 
# High freq. dielectric constant tensor:
#      x y z
#    x 1.733250 0.000000 0.000000 
#    y 0.000000 1.734680 0.000000 
#    z 0.000000 0.000000 1.724580 
# 
# From -- ./inp_files/17818.got.cif
#   From: 2010.03.12/outbox.cif.g09.slc.cpg/sg40_9_cif.got.tgz:17818.got - 2010.04.14 01:38:03.
