data_PCOD8183566
_publ_section_title
;
Structure prediction by ZEFSAII (Michael W. Deem and Ramdas Pophale) SiO2 
 PCOD8183566
Probable space group: A M A 2
;
_chemical_formula_sum "Si O2"
_cell_formula_units_Z 64
_cell_length_a 8.986130
_cell_length_b 24.881849
_cell_length_c 15.368981
_cell_angle_alpha 90.000000
_cell_angle_beta 90.000000
_cell_angle_gamma 90.000000
_cell_volume 3436.373973
_symmetry_space_group_name_H-M "A M A 2"
_symmetry_group_IT_number 40
_symmetry_cell_setting 'orthorhombic'
loop_
_space_group_symop_operation_xyz
x,y,z
-x,-y,z
1/2-x,y,z
1/2+x,-y,z
x,1/2+y,1/2+z
-x,1/2-y,1/2+z
1/2-x,1/2+y,1/2+z
1/2+x,1/2-y,1/2+z
loop_
_atom_site_type_symbol
_atom_site_label
_atom_site_fract_x
_atom_site_fract_y
_atom_site_fract_z
Si Si1 0.082288 0.278513 0.164130
Si Si2 0.926891 0.360559 0.437078
Si Si3 0.421310 0.895338 0.621148
Si Si4 0.425061 0.238696 0.834914
Si Si5 0.073631 0.943905 0.439543
Si Si6 0.572819 0.442243 0.290011
Si Si7 0.422375 0.659232 0.625718
Si Si8 0.926680 0.144050 0.303439
O O1 0.250000 0.276649 0.202230
O O2 0.063025 0.331149 0.103633
O O3 0.050037 0.223315 0.112453
O O4 0.966590 0.285676 0.241773
O O5 0.750000 0.358320 0.432821
O O6 0.990384 0.302279 0.406652
O O7 0.983585 0.407477 0.372989
O O8 0.978574 0.369749 0.536859
O O9 0.250000 0.910622 0.640593
O O10 0.479353 0.924551 0.534467
O O11 0.520997 0.914334 0.701246
O O12 0.250000 0.241154 0.843019
O O13 0.488910 0.299370 0.842264
O O14 0.250000 0.949091 0.436313
O O15 0.015562 0.902419 0.366827
O O16 0.000000 0.000000 0.416408
O O17 0.500000 0.500000 0.300117
O O18 0.750000 0.447600 0.287841
O O19 0.250000 0.646988 0.642603
O O20 0.512352 0.634667 0.706280
O O21 0.750000 0.144800 0.297721
#
# Coordination Sequence:
#
# PCOD8183566 Si02
#       8
#     8   8   8   8   8   8   8   8
#     4   9  17  29  49  78 110 138 170 209 253 306
#     4   9  18  32  53  79 105 138 178 213 256 314
#     4  10  20  34  53  80 110 141 174 213 262 314
#     4   9  16  30  52  76 104 137 170 209 257 313
#     4  10  22  38  55  77 104 139 181 222 263 313
#     4  11  22  37  55  77 106 142 181 219 261 312
#     4   9  18  33  54  79 109 142 175 214 261 315
#     4   9  19  35  55  78 105 136 176 221 269 314
#
# _framework density 18.624282999999998
#
# number of rings (size 3 to 8) (size 9 to 14) (size 15 to 20)
#    0.000    2.500    1.250    0.750    1.750    2.000 
#    0.000    2.500    0.000    3.000    0.000    0.000 
#    0.000    0.000    0.000    0.000    0.000    0.000 
#
# Total GULP energy -396644.011969 kJ/mol
# GULP energy per Si atom -12395.125374 kJ/mol
# Density = 1.858189 g / cm^3
# Si number density = 18.624283 Si / 1000 Ang^3
#
#
#
# Elastic Constant Matrix: (Units=GPa)
#
#
# Indices 1 2 3 4 5 6 
#
# 1 26.1449 29.7955 28.0731 0.0000 0.0000 0.0000
# 2 29.7955 124.6057 76.0510 0.0000 0.0000 0.0000
# 3 28.0731 76.0510 134.8298 0.0000 0.0000 0.0000
# 4 0.0000 0.0000 0.0000 31.5484 0.0000 0.0000
# 5 0.0000 0.0000 0.0000 0.0000 26.4811 0.0000
# 6 0.0000 0.0000 0.0000 0.0000 0.0000 20.6809
#
#
#
# Elastic Compliance Matrix: (Units=1/GPa)
#
#
# Indices 1 2 3 4 5 6 
#
# 1 0.055821 -0.009538 -0.006243 0.000000 0.000000 0.000000
# 2 -0.009538 0.013868 -0.005837 0.000000 0.000000 0.000000
# 3 -0.006243 -0.005837 0.012009 0.000000 0.000000 0.000000
# 4 0.000000 0.000000 0.000000 0.031697 0.000000 0.000000
# 5 0.000000 0.000000 0.000000 0.000000 0.037763 0.000000
# 6 0.000000 0.000000 0.000000 0.000000 0.000000 0.048354
#
#
# Mechanical properties :
#
#
# Convention : Reuss Voigt Hill
#
# Bulk Modulus (GPa) = 25.99842 61.49109 43.74475
# Shear Modulus (GPa) = 19.56434 25.85281 22.70858
#
# Velocity S-wave (km/s) = 3.24462 3.72980 3.49563
# Velocity P-wave (km/s) = 5.29400 7.18587 6.31123
#
# Compressibility (1/GPa) = 0.03846388
#
# Stress axis : x y z
#
# Youngs Moduli (GPa) = 17.91440 72.10761 83.27301
#
# Poissons Ratio (x) = 0.68773 0.51986
# Poissons Ratio (y) = 0.17086 0.48603
# Poissons Ratio (z) = 0.11184 0.42086
#
# Static dielectric constant tensor:
#      x y z
#    x 3.208850 0.000000 0.000000 
#    y 0.000000 3.605540 0.000000 
#    z 0.000000 0.000000 3.472910 
# 
# 
# High freq. dielectric constant tensor:
#      x y z
#    x 1.699380 0.000000 0.000000 
#    y 0.000000 1.724250 0.000000 
#    z 0.000000 0.000000 1.718510 
# 
# From -- ./inp_files/15664.got.cif
#   From: 2010.03.12/outbox.cif.g09.slc.cpg/sg40_8_cif.got.tgz:15664.got - 2010.04.14 01:38:03.
