data_PCOD8183651
_publ_section_title
;
Structure prediction by ZEFSAII (Michael W. Deem and Ramdas Pophale) SiO2 
 PCOD8183651
Probable space group: A M A 2
;
_chemical_formula_sum "Si O2"
_cell_formula_units_Z 56
_cell_length_a 25.735254
_cell_length_b 10.927782
_cell_length_c 10.804999
_cell_angle_alpha 90.000000
_cell_angle_beta 90.000000
_cell_angle_gamma 90.000000
_cell_volume 3038.681716
_symmetry_space_group_name_H-M "A M A 2"
_symmetry_group_IT_number 40
_symmetry_cell_setting 'orthorhombic'
loop_
_space_group_symop_operation_xyz
x,y,z
-x,-y,z
1/2-x,y,z
1/2+x,-y,z
x,1/2+y,1/2+z
-x,1/2-y,1/2+z
1/2-x,1/2+y,1/2+z
1/2+x,1/2-y,1/2+z
loop_
_atom_site_type_symbol
_atom_site_label
_atom_site_fract_x
_atom_site_fract_y
_atom_site_fract_z
Si Si1 0.402924 0.588302 0.994230
Si Si2 0.309166 0.058085 0.340941
Si Si3 0.049855 0.739251 0.803662
Si Si4 0.435601 0.193628 0.752230
Si Si5 0.371556 0.636954 0.614850
Si Si6 0.866272 0.658361 0.927612
Si Si7 0.057965 0.484226 0.447011
O O1 0.347269 0.632721 0.934433
O O2 0.447851 0.621113 0.894177
O O3 0.400740 0.440155 0.007731
O O4 0.412646 0.659473 0.119854
O O5 0.250000 0.097865 0.362898
O O6 0.325052 0.086152 0.199054
O O7 0.316548 0.912586 0.369558
O O8 0.088617 0.721711 0.689857
O O9 0.993864 0.755595 0.741763
O O10 0.067768 0.849385 0.894381
O O11 0.400496 0.297676 0.812324
O O12 0.435521 0.071766 0.830859
O O13 0.347864 0.727346 0.510517
O O14 0.400973 0.520660 0.553522
O O15 0.000000 0.500000 0.503102
#
# Coordination Sequence:
#
# PCOD8183651 Si02
#       7
#     8   8   8   8   8   8   8
#     4   9  21  36  56  83 114 150 187 236 275 343
#     4   9  21  41  59  83 108 144 196 248 298 335
#     4  10  21  32  53  85 118 152 188 220 272 341
#     4  10  20  35  54  82 119 154 184 225 275 342
#     4  10  20  37  58  81 112 149 186 234 282 339
#     4   9  21  37  57  85 109 146 190 232 283 343
#     4   9  20  34  52  83 116 152 182 220 268 334
#
# _framework density 18.429044000000001
#
# number of rings (size 3 to 8) (size 9 to 14) (size 15 to 20)
#    0.857    1.714    0.000    0.857    8.000    1.143 
#    0.000    0.714    0.000    0.857    0.000    0.000 
#    0.000    0.000    0.000    0.000    0.000    0.000 
#
# Total GULP energy -346929.879862 kJ/mol
# GULP energy per Si atom -12390.352852 kJ/mol
# Density = 1.838710 g / cm^3
# Si number density = 18.429044 Si / 1000 Ang^3
#
#
#
# Elastic Constant Matrix: (Units=GPa)
#
#
# Indices 1 2 3 4 5 6 
#
# 1 92.6084 26.2029 52.3189 0.0000 0.0000 0.0000
# 2 26.2029 54.3697 31.8939 0.0000 0.0000 0.0000
# 3 52.3189 31.8939 101.8486 0.0000 0.0000 0.0000
# 4 0.0000 0.0000 0.0000 19.6653 0.0000 0.0000
# 5 0.0000 0.0000 0.0000 0.0000 20.1871 0.0000
# 6 0.0000 0.0000 0.0000 0.0000 0.0000 18.6284
#
#
#
# Elastic Compliance Matrix: (Units=1/GPa)
#
#
# Indices 1 2 3 4 5 6 
#
# 1 0.015733 -0.003481 -0.006992 0.000000 0.000000 0.000000
# 2 -0.003481 0.023302 -0.005509 0.000000 0.000000 0.000000
# 3 -0.006992 -0.005509 0.015135 0.000000 0.000000 0.000000
# 4 0.000000 0.000000 0.000000 0.050851 0.000000 0.000000
# 5 0.000000 0.000000 0.000000 0.000000 0.049537 0.000000
# 6 0.000000 0.000000 0.000000 0.000000 0.000000 0.053682
#
#
# Mechanical properties :
#
#
# Convention : Reuss Voigt Hill
#
# Bulk Modulus (GPa) = 45.03116 52.18422 48.60769
# Shear Modulus (GPa) = 20.19345 20.92354 20.55849
#
# Velocity S-wave (km/s) = 3.31379 3.37316 3.34361
# Velocity P-wave (km/s) = 6.25536 6.59915 6.42955
#
# Compressibility (1/GPa) = 0.02220684
#
# Stress axis : x y z
#
# Youngs Moduli (GPa) = 63.56009 42.91528 66.07057
#
# Poissons Ratio (x) = 0.14938 0.46196
# Poissons Ratio (y) = 0.22124 0.36397
# Poissons Ratio (z) = 0.44441 0.23641
#
# Static dielectric constant tensor:
#      x y z
#    x 3.047610 0.000000 0.000000 
#    y 0.000000 3.450420 0.000000 
#    z 0.000000 0.000000 3.393190 
# 
# 
# High freq. dielectric constant tensor:
#      x y z
#    x 1.676820 0.000000 0.000000 
#    y 0.000000 1.717350 0.000000 
#    z 0.000000 0.000000 1.721800 
# 
# From -- ./inp_files/14248.got.cif
#   From: 2010.03.12/outbox.cif.g09.slc.cpg/sg40_8_cif.got.tgz:14248.got - 2010.04.14 01:38:03.
