data_PCOD8183898
_publ_section_title
;
Structure prediction by ZEFSAII (Michael W. Deem and Ramdas Pophale) SiO2 
 PCOD8183898
Probable space group: A M A 2
;
_chemical_formula_sum "Si O2"
_cell_formula_units_Z 64
_cell_length_a 18.579416
_cell_length_b 11.957983
_cell_length_c 14.771496
_cell_angle_alpha 90.000000
_cell_angle_beta 90.000000
_cell_angle_gamma 90.000000
_cell_volume 3281.817842
_symmetry_space_group_name_H-M "A M A 2"
_symmetry_group_IT_number 40
_symmetry_cell_setting 'orthorhombic'
loop_
_space_group_symop_operation_xyz
x,y,z
-x,-y,z
1/2-x,y,z
1/2+x,-y,z
x,1/2+y,1/2+z
-x,1/2-y,1/2+z
1/2-x,1/2+y,1/2+z
1/2+x,1/2-y,1/2+z
loop_
_atom_site_type_symbol
_atom_site_label
_atom_site_fract_x
_atom_site_fract_y
_atom_site_fract_z
Si Si1 0.994746 0.832068 0.415510
Si Si2 0.897425 0.325741 0.631586
Si Si3 0.332200 0.983701 0.246164
Si Si4 0.550476 0.901859 0.957244
Si Si5 0.168809 0.417019 0.132601
Si Si6 0.426240 0.563407 0.255703
Si Si7 0.119018 0.994983 0.447780
Si Si8 0.044484 0.814490 0.217447
O O1 0.997503 0.703295 0.442043
O O2 0.001936 0.848196 0.308164
O O3 0.919040 0.883464 0.448299
O O4 0.060134 0.898135 0.460956
O O5 0.852892 0.395280 0.705746
O O6 0.886428 0.375320 0.530068
O O7 0.874871 0.197736 0.635862
O O8 0.984351 0.333870 0.641316
O O9 0.250000 0.955020 0.219316
O O10 0.336534 0.982026 0.355167
O O11 0.385975 0.892687 0.202394
O O12 0.588994 0.934361 0.863120
O O13 0.500000 0.000000 0.993413
O O14 0.250000 0.388424 0.158294
O O15 0.138788 0.499456 0.208803
O O16 0.168870 0.479812 0.035392
O O17 0.500000 0.500000 0.232948
O O18 0.428574 0.687786 0.216340
#
# Coordination Sequence:
#
# PCOD8183898 Si02
#       8
#     8   8   8   8   8   8   8   8
#     4   9  18  34  60  97 117 155 207 261 305 359
#     4  12  22  41  64  96 124 165 214 263 309 377
#     4  11  23  39  61  93 131 167 204 260 323 377
#     4  10  21  36  61  94 125 156 207 262 307 367
#     4  12  26  41  62  94 127 165 210 259 320 379
#     4  10  22  41  64  93 122 161 208 261 313 371
#     4  10  20  37  62  89 128 158 206 258 312 374
#     4  10  20  37  65  93 122 158 212 259 308 371
#
# _framework density 19.501387000000001
#
# number of rings (size 3 to 8) (size 9 to 14) (size 15 to 20)
#    0.000    1.500    3.750    1.875    3.500    0.500 
#    0.000    1.250    0.000    0.000    0.000    0.000 
#    0.000    0.000    0.000    0.000    0.000    0.000 
#
# Total GULP energy -396813.652967 kJ/mol
# GULP energy per Si atom -12400.426655 kJ/mol
# Density = 1.945700 g / cm^3
# Si number density = 19.501387 Si / 1000 Ang^3
#
#
#
# Elastic Constant Matrix: (Units=GPa)
#
#
# Indices 1 2 3 4 5 6 
#
# 1 114.3472 39.8147 39.6340 0.0000 0.0000 0.0000
# 2 39.8147 117.4596 40.3393 0.0000 0.0000 0.0000
# 3 39.6340 40.3393 87.9621 0.0000 0.0000 0.0000
# 4 0.0000 0.0000 0.0000 31.6724 0.0000 0.0000
# 5 0.0000 0.0000 0.0000 0.0000 17.2389 0.0000
# 6 0.0000 0.0000 0.0000 0.0000 0.0000 17.2206
#
#
#
# Elastic Compliance Matrix: (Units=1/GPa)
#
#
# Indices 1 2 3 4 5 6 
#
# 1 0.010898 -0.002383 -0.003818 0.000000 0.000000 0.000000
# 2 -0.002383 0.010626 -0.003799 0.000000 0.000000 0.000000
# 3 -0.003818 -0.003799 0.014831 0.000000 0.000000 0.000000
# 4 0.000000 0.000000 0.000000 0.031573 0.000000 0.000000
# 5 0.000000 0.000000 0.000000 0.000000 0.058008 0.000000
# 6 0.000000 0.000000 0.000000 0.000000 0.000000 0.058070
#
#
# Mechanical properties :
#
#
# Convention : Reuss Voigt Hill
#
# Bulk Modulus (GPa) = 61.14221 62.14944 61.64582
# Shear Modulus (GPa) = 23.87097 26.55842 25.21470
#
# Velocity S-wave (km/s) = 3.50246 3.69436 3.59969
# Velocity P-wave (km/s) = 6.91210 7.08069 6.99690
#
# Compressibility (1/GPa) = 0.01635531
#
# Stress axis : x y z
#
# Youngs Moduli (GPa) = 91.75739 94.10745 67.42579
#
# Poissons Ratio (x) = 0.22426 0.25741
# Poissons Ratio (y) = 0.21866 0.25618
# Poissons Ratio (z) = 0.35030 0.35755
#
# Static dielectric constant tensor:
#      x y z
#    x 3.255620 0.000000 0.000000 
#    y 0.000000 3.636350 0.000000 
#    z 0.000000 0.000000 3.656530 
# 
# 
# High freq. dielectric constant tensor:
#      x y z
#    x 1.726820 0.000000 0.000000 
#    y 0.000000 1.770990 0.000000 
#    z 0.000000 0.000000 1.766910 
# 
# From -- ./inp_files/17886.got.cif
#   From: 2010.03.12/outbox.cif.g09.slc.cpg/sg40_9_cif.got.tgz:17886.got - 2010.04.14 01:38:03.
