data_PCOD8183454
_publ_section_title
;
Structure prediction by ZEFSAII (Michael W. Deem and Ramdas Pophale) SiO2 
 PCOD8183454
Probable space group: A M A 2
;
_chemical_formula_sum "Si O2"
_cell_formula_units_Z 48
_cell_length_a 18.651033
_cell_length_b 9.669080
_cell_length_c 15.541104
_cell_angle_alpha 90.000000
_cell_angle_beta 90.000000
_cell_angle_gamma 90.000000
_cell_volume 2802.656744
_symmetry_space_group_name_H-M "A M A 2"
_symmetry_group_IT_number 40
_symmetry_cell_setting 'orthorhombic'
loop_
_space_group_symop_operation_xyz
x,y,z
-x,-y,z
1/2-x,y,z
1/2+x,-y,z
x,1/2+y,1/2+z
-x,1/2-y,1/2+z
1/2-x,1/2+y,1/2+z
1/2+x,1/2-y,1/2+z
loop_
_atom_site_type_symbol
_atom_site_label
_atom_site_fract_x
_atom_site_fract_y
_atom_site_fract_z
Si Si1 0.417792 0.003476 0.857790
Si Si2 0.583357 0.988170 0.049735
Si Si3 0.332310 0.226502 0.551040
Si Si4 0.668681 0.300349 0.678246
Si Si5 0.166637 0.022271 0.697240
Si Si6 0.169493 0.733334 0.863129
O O1 0.373565 0.080192 0.782509
O O2 0.500000 0.000000 0.830110
O O3 0.390940 0.847938 0.864112
O O4 0.407008 0.071221 0.952368
O O5 0.616214 0.877754 0.114522
O O6 0.500000 0.000000 0.072378
O O7 0.620867 0.136042 0.061201
O O8 0.250000 0.267237 0.570577
O O9 0.361058 0.111326 0.616578
O O10 0.338074 0.156704 0.455234
O O11 0.750000 0.322868 0.646250
O O12 0.658835 0.359386 0.776781
O O13 0.648804 0.137904 0.679380
O O14 0.250000 0.045495 0.712882
O O15 0.250000 0.800026 0.856374
#
# Coordination Sequence:
#
# PCOD8183454 Si02
#       6
#     8   8   8   8   8   8
#     4   9  17  29  46  67  93 126 160 191 227 275
#     4  10  20  32  47  70  98 127 159 192 229 277
#     4   9  17  31  50  70  93 122 156 195 237 279
#     4   9  17  31  51  71  91 120 157 193 230 275
#     4   9  18  32  51  74  95 119 156 197 236 279
#     4   8  15  29  48  66  89 124 158 186 229 289
#
# _framework density 17.126605999999999
#
# number of rings (size 3 to 8) (size 9 to 14) (size 15 to 20)
#    0.000    3.000    0.000    2.000    0.000    4.667 
#    0.000    1.667    0.000    5.000    0.000    0.000 
#    0.000    0.000    0.000    0.000    0.000    0.000 
#
# Total GULP energy -297329.408588 kJ/mol
# GULP energy per Si atom -12388.725358 kJ/mol
# Density = 1.708762 g / cm^3
# Si number density = 17.126606 Si / 1000 Ang^3
#
#
#
# Elastic Constant Matrix: (Units=GPa)
#
#
# Indices 1 2 3 4 5 6 
#
# 1 95.7392 38.4470 72.6388 0.0000 0.0000 0.0000
# 2 38.4470 50.8506 56.8846 0.0000 0.0000 0.0000
# 3 72.6388 56.8846 161.8909 0.0000 0.0000 0.0000
# 4 0.0000 0.0000 0.0000 29.1629 0.0000 0.0000
# 5 0.0000 0.0000 0.0000 0.0000 23.3613 0.0000
# 6 0.0000 0.0000 0.0000 0.0000 0.0000 13.2653
#
#
#
# Elastic Compliance Matrix: (Units=1/GPa)
#
#
# Indices 1 2 3 4 5 6 
#
# 1 0.017320 -0.007253 -0.005223 0.000000 0.000000 0.000000
# 2 -0.007253 0.035439 -0.009198 0.000000 0.000000 0.000000
# 3 -0.005223 -0.009198 0.011753 0.000000 0.000000 0.000000
# 4 0.000000 0.000000 0.000000 0.034290 0.000000 0.000000
# 5 0.000000 0.000000 0.000000 0.000000 0.042806 0.000000
# 6 0.000000 0.000000 0.000000 0.000000 0.000000 0.075384
#
#
# Mechanical properties :
#
#
# Convention : Reuss Voigt Hill
#
# Bulk Modulus (GPa) = 47.25044 71.60239 59.42641
# Shear Modulus (GPa) = 18.69899 22.52526 20.61212
#
# Velocity S-wave (km/s) = 3.30784 3.63053 3.47293
# Velocity P-wave (km/s) = 6.49907 7.71186 7.13129
#
# Compressibility (1/GPa) = 0.02116383
#
# Stress axis : x y z
#
# Youngs Moduli (GPa) = 57.73533 28.21783 85.08824
#
# Poissons Ratio (x) = 0.20466 0.44442
# Poissons Ratio (y) = 0.41874 0.78265
# Poissons Ratio (z) = 0.30155 0.25955
#
# Static dielectric constant tensor:
#      x y z
#    x 3.203890 0.000000 0.000000 
#    y 0.000000 2.757850 0.000000 
#    z 0.000000 0.000000 3.782560 
# 
# 
# High freq. dielectric constant tensor:
#      x y z
#    x 1.663540 0.000000 0.000000 
#    y 0.000000 1.606780 0.000000 
#    z 0.000000 0.000000 1.685780 
# 
# From -- ./inp_files/16986.got.cif
#   From: 2010.03.12/outbox.cif.g09.slc.cpg/sg40_9_cif.got.tgz:16986.got - 2010.04.14 01:38:03.
