data_PCOD8183402
_publ_section_title
;
Structure prediction by ZEFSAII (Michael W. Deem and Ramdas Pophale) SiO2 
 PCOD8183402
Probable space group: A M A 2
;
_chemical_formula_sum "Si O2"
_cell_formula_units_Z 40
_cell_length_a 14.165835
_cell_length_b 18.770547
_cell_length_c 7.270573
_cell_angle_alpha 90.000000
_cell_angle_beta 90.000000
_cell_angle_gamma 90.000000
_cell_volume 1933.248790
_symmetry_space_group_name_H-M "A M A 2"
_symmetry_group_IT_number 40
_symmetry_cell_setting 'orthorhombic'
loop_
_space_group_symop_operation_xyz
x,y,z
-x,-y,z
1/2-x,y,z
1/2+x,-y,z
x,1/2+y,1/2+z
-x,1/2-y,1/2+z
1/2-x,1/2+y,1/2+z
1/2+x,1/2-y,1/2+z
loop_
_atom_site_type_symbol
_atom_site_label
_atom_site_fract_x
_atom_site_fract_y
_atom_site_fract_z
Si Si1 0.951069 0.173209 0.072400
Si Si2 0.855267 0.316523 0.009704
Si Si3 0.487607 0.921404 0.421739
Si Si4 0.351373 0.224752 0.088688
Si Si5 0.643511 0.120924 0.711252
O O1 0.948415 0.128518 0.259316
O O2 0.059003 0.185209 0.998493
O O3 0.903154 0.249934 0.118874
O O4 0.897648 0.130114 0.915075
O O5 0.750000 0.331422 0.090099
O O6 0.846981 0.293146 0.801573
O O7 0.918680 0.387686 0.016194
O O8 0.414207 0.935054 0.588988
O O9 0.500000 0.000000 0.335820
O O10 0.250000 0.202360 0.996881
O O11 0.364391 0.309267 0.082670
O O12 0.750000 0.094339 0.735811
#
# Coordination Sequence:
#
# PCOD8183402 Si02
#       5
#     8   8   8   8   8
#     4  10  19  37  63  88 121 162 213 257 305 368
#     4   9  18  35  59  87 119 160 208 257 304 364
#     4  11  24  39  61  93 129 161 199 259 322 375
#     4   8  15  30  56  88 117 151 200 254 296 350
#     4  10  21  37  58  86 122 160 204 251 303 369
#
# _framework density 20.690560000000001
#
# number of rings (size 3 to 8) (size 9 to 14) (size 15 to 20)
#    0.000    2.400    2.000    1.800    0.000    3.200 
#    0.000    3.000    0.000    4.800    0.000    0.000 
#    0.000    0.000    0.000    0.000    0.000    0.000 
#
# Total GULP energy -247840.512350 kJ/mol
# GULP energy per Si atom -12392.025618 kJ/mol
# Density = 2.064347 g / cm^3
# Si number density = 20.690560 Si / 1000 Ang^3
#
#
#
# Elastic Constant Matrix: (Units=GPa)
#
#
# Indices 1 2 3 4 5 6 
#
# 1 177.4077 43.0016 44.5575 0.0000 0.0000 0.0000
# 2 43.0016 94.6247 30.4732 0.0000 0.0000 0.0000
# 3 44.5575 30.4732 61.8405 0.0000 0.0000 0.0000
# 4 0.0000 0.0000 0.0000 22.2537 0.0000 0.0000
# 5 0.0000 0.0000 0.0000 0.0000 28.7293 0.0000
# 6 0.0000 0.0000 0.0000 0.0000 0.0000 6.5820
#
#
#
# Elastic Compliance Matrix: (Units=1/GPa)
#
#
# Indices 1 2 3 4 5 6 
#
# 1 0.007156 -0.001892 -0.004224 0.000000 0.000000 0.000000
# 2 -0.001892 0.013062 -0.005073 0.000000 0.000000 0.000000
# 3 -0.004224 -0.005073 0.021714 0.000000 0.000000 0.000000
# 4 0.000000 0.000000 0.000000 0.044936 0.000000 0.000000
# 5 0.000000 0.000000 0.000000 0.000000 0.034808 0.000000
# 6 0.000000 0.000000 0.000000 0.000000 0.000000 0.151931
#
#
# Mechanical properties :
#
#
# Convention : Reuss Voigt Hill
#
# Bulk Modulus (GPa) = 51.14115 63.32639 57.23377
# Shear Modulus (GPa) = 16.52880 25.90238 21.21559
#
# Velocity S-wave (km/s) = 2.82947 3.54205 3.20562
# Velocity P-wave (km/s) = 5.95360 6.88484 6.43608
#
# Compressibility (1/GPa) = 0.01955373
#
# Stress axis : x y z
#
# Youngs Moduli (GPa) = 139.73975 76.56030 46.05313
#
# Poissons Ratio (x) = 0.14483 0.19453
# Poissons Ratio (y) = 0.26436 0.23364
# Poissons Ratio (z) = 0.59025 0.38841
#
# Static dielectric constant tensor:
#      x y z
#    x 4.588010 0.000000 0.000000 
#    y 0.000000 3.421060 0.000000 
#    z 0.000000 0.000000 3.372960 
# 
# 
# High freq. dielectric constant tensor:
#      x y z
#    x 1.828710 0.000000 0.000000 
#    y 0.000000 1.764690 0.000000 
#    z 0.000000 0.000000 1.797880 
# 
# From -- ./inp_files/6304.got.cif
#   From: 2010.03.12/outbox.cif.g09.slc.cpg/sg40_4_cif.got.tgz:6304.got - 2010.04.14 01:38:03.
