data_PCOD8183844
_publ_section_title
;
Structure prediction by ZEFSAII (Michael W. Deem and Ramdas Pophale) SiO2 
 PCOD8183844
Probable space group: A M A 2
;
_chemical_formula_sum "Si O2"
_cell_formula_units_Z 64
_cell_length_a 8.682070
_cell_length_b 32.849812
_cell_length_c 11.650956
_cell_angle_alpha 90.000000
_cell_angle_beta 90.000000
_cell_angle_gamma 90.000000
_cell_volume 3322.903534
_symmetry_space_group_name_H-M "A M A 2"
_symmetry_group_IT_number 40
_symmetry_cell_setting 'orthorhombic'
loop_
_space_group_symop_operation_xyz
x,y,z
-x,-y,z
1/2-x,y,z
1/2+x,-y,z
x,1/2+y,1/2+z
-x,1/2-y,1/2+z
1/2-x,1/2+y,1/2+z
1/2+x,1/2-y,1/2+z
loop_
_atom_site_type_symbol
_atom_site_label
_atom_site_fract_x
_atom_site_fract_y
_atom_site_fract_z
Si Si1 0.069345 0.356083 0.984470
Si Si2 0.431748 0.880162 0.226590
Si Si3 0.429136 0.811384 0.056441
Si Si4 0.581156 0.819288 0.825117
Si Si5 0.067349 0.544753 0.604365
Si Si6 0.067538 0.221602 0.599455
Si Si7 0.569373 0.043444 0.865154
Si Si8 0.579083 0.401108 0.185041
O O1 0.250000 0.358106 0.006531
O O2 0.025724 0.366032 0.854028
O O3 0.012539 0.310779 0.015321
O O4 0.989454 0.391046 0.060497
O O5 0.250000 0.886062 0.209592
O O6 0.499364 0.845171 0.141982
O O7 0.513047 0.923199 0.200372
O O8 0.250000 0.808872 0.082009
O O9 0.500004 0.766389 0.073564
O O10 0.458583 0.824375 0.925851
O O11 0.750000 0.808218 0.876103
O O12 0.526407 0.785554 0.733351
O O13 0.592696 0.860457 0.756275
O O14 0.250000 0.541680 0.603624
O O15 0.000000 0.500000 0.631300
O O16 0.009295 0.561194 0.480497
O O17 0.250000 0.217861 0.578968
O O18 0.750000 0.040794 0.887691
O O19 0.535483 0.069604 0.752751
O O20 0.500000 0.000000 0.838035
O O21 0.750000 0.420550 0.171185
#
# Coordination Sequence:
#
# PCOD8183844 Si02
#       8
#     8   8   8   8   8   8   8   8
#     4  10  21  37  59  82 109 150 196 239 289 347
#     4  10  22  39  58  83 115 153 196 243 294 350
#     4  10  21  35  54  79 109 145 185 233 284 338
#     4   9  19  34  53  75 103 138 178 224 275 330
#     4  11  22  38  61  88 120 155 193 238 294 349
#     4   9  20  37  54  75 109 148 185 231 291 342
#     4  11  21  35  58  88 120 150 186 232 283 341
#     4  10  20  37  58  80 111 147 184 230 284 339
#
# _framework density 19.260263999999999
#
# number of rings (size 3 to 8) (size 9 to 14) (size 15 to 20)
#    0.000    2.000    0.000    5.250    1.750    6.500 
#    0.000    0.625    0.000    3.000    0.000    0.000 
#    0.000    0.000    0.000    0.000    0.000    0.000 
#
# Total GULP energy -396793.367489 kJ/mol
# GULP energy per Si atom -12399.792734 kJ/mol
# Density = 1.921643 g / cm^3
# Si number density = 19.260264 Si / 1000 Ang^3
#
#
#
# Elastic Constant Matrix: (Units=GPa)
#
#
# Indices 1 2 3 4 5 6 
#
# 1 93.3925 38.6670 43.2392 0.0000 0.0000 0.0000
# 2 38.6670 83.1876 55.7538 0.0000 0.0000 0.0000
# 3 43.2392 55.7538 128.3749 0.0000 0.0000 0.0000
# 4 0.0000 0.0000 0.0000 19.9319 0.0000 0.0000
# 5 0.0000 0.0000 0.0000 0.0000 31.0488 0.0000
# 6 0.0000 0.0000 0.0000 0.0000 0.0000 27.6055
#
#
#
# Elastic Compliance Matrix: (Units=1/GPa)
#
#
# Indices 1 2 3 4 5 6 
#
# 1 0.013865 -0.004676 -0.002639 0.000000 0.000000 0.000000
# 2 -0.004676 0.018534 -0.006474 0.000000 0.000000 0.000000
# 3 -0.002639 -0.006474 0.011491 0.000000 0.000000 0.000000
# 4 0.000000 0.000000 0.000000 0.050171 0.000000 0.000000
# 5 0.000000 0.000000 0.000000 0.000000 0.032207 0.000000
# 6 0.000000 0.000000 0.000000 0.000000 0.000000 0.036225
#
#
# Mechanical properties :
#
#
# Convention : Reuss Voigt Hill
#
# Bulk Modulus (GPa) = 61.31067 64.47501 62.89284
# Shear Modulus (GPa) = 25.57435 26.87025 26.22230
#
# Velocity S-wave (km/s) = 3.64789 3.73917 3.69382
# Velocity P-wave (km/s) = 7.04590 7.22428 7.13565
#
# Compressibility (1/GPa) = 0.01631037
#
# Stress axis : x y z
#
# Youngs Moduli (GPa) = 72.12176 53.95587 87.02841
#
# Poissons Ratio (x) = 0.25229 0.22970
# Poissons Ratio (y) = 0.33724 0.56345
# Poissons Ratio (z) = 0.19036 0.34933
#
# Static dielectric constant tensor:
#      x y z
#    x 3.504790 0.000000 0.000000 
#    y 0.000000 3.790820 0.000000 
#    z 0.000000 0.000000 3.616580 
# 
# 
# High freq. dielectric constant tensor:
#      x y z
#    x 1.749110 0.000000 0.000000 
#    y 0.000000 1.750190 0.000000 
#    z 0.000000 0.000000 1.745910 
# 
# From -- ./inp_files/10579.got.cif
#   From: 2010.03.12/outbox.cif.g09.slc.cpg/sg40_6_cif.got.tgz:10579.got - 2010.04.14 01:38:03.
