data_PCOD8183557
_publ_section_title
;
Structure prediction by ZEFSAII (Michael W. Deem and Ramdas Pophale) SiO2 
 PCOD8183557
Probable space group: A M A 2
;
_chemical_formula_sum "Si O2"
_cell_formula_units_Z 56
_cell_length_a 8.846593
_cell_length_b 20.799622
_cell_length_c 14.772854
_cell_angle_alpha 90.000000
_cell_angle_beta 90.000000
_cell_angle_gamma 90.000000
_cell_volume 2718.290677
_symmetry_space_group_name_H-M "A M A 2"
_symmetry_group_IT_number 40
_symmetry_cell_setting 'orthorhombic'
loop_
_space_group_symop_operation_xyz
x,y,z
-x,-y,z
1/2-x,y,z
1/2+x,-y,z
x,1/2+y,1/2+z
-x,1/2-y,1/2+z
1/2-x,1/2+y,1/2+z
1/2+x,1/2-y,1/2+z
loop_
_atom_site_type_symbol
_atom_site_label
_atom_site_fract_x
_atom_site_fract_y
_atom_site_fract_z
Si Si1 0.569329 0.570652 0.598000
Si Si2 0.424405 0.639528 0.431066
Si Si3 0.913387 0.558224 0.312570
Si Si4 0.580840 0.264094 0.892068
Si Si5 0.585180 0.560449 0.106173
Si Si6 0.570167 0.808823 0.192909
Si Si7 0.579245 0.307777 0.084049
O O1 0.500000 0.500000 0.617407
O O2 0.750000 0.567079 0.606272
O O3 0.521960 0.596690 0.499784
O O4 0.505176 0.622668 0.670005
O O5 0.250000 0.627295 0.450311
O O6 0.479374 0.619818 0.330008
O O7 0.461773 0.714100 0.433777
O O8 0.750000 0.568281 0.358925
O O9 0.888160 0.540880 0.209139
O O10 0.000000 0.500000 0.362367
O O11 0.750000 0.234612 0.878777
O O12 0.526420 0.294424 0.797447
O O13 0.581650 0.314198 0.974640
O O14 0.500000 0.500000 0.057981
O O15 0.750000 0.570352 0.059355
O O16 0.492259 0.625452 0.112795
O O17 0.750000 0.814111 0.179408
O O18 0.511237 0.752594 0.126362
O O19 0.750000 0.302367 0.121291
#
# Coordination Sequence:
#
# PCOD8183557 Si02
#       7
#     8   8   8   8   8   8   8
#     4  12  25  43  65  91 127 170 217 271 332 392
#     4  12  23  36  58  89 122 159 206 256 312 379
#     4  10  20  34  52  78 115 154 193 240 299 362
#     4  10  23  41  62  89 125 163 205 258 317 377
#     4  10  21  37  58  85 119 160 204 255 311 374
#     4  11  23  42  66  95 128 168 215 266 322 385
#     4  11  22  39  63  91 124 164 205 256 314 375
#
# _framework density 20.601182000000001
#
# number of rings (size 3 to 8) (size 9 to 14) (size 15 to 20)
#    0.000    1.143    1.429    5.571    0.000    6.857 
#    0.000    0.714    0.000    0.000    0.000    0.000 
#    0.000    0.000    0.000    0.000    0.000    0.000 
#
# Total GULP energy -346933.403549 kJ/mol
# GULP energy per Si atom -12390.478698 kJ/mol
# Density = 2.055429 g / cm^3
# Si number density = 20.601182 Si / 1000 Ang^3
#
#
#
# Elastic Constant Matrix: (Units=GPa)
#
#
# Indices 1 2 3 4 5 6 
#
# 1 161.7888 68.4202 41.6697 0.0000 0.0000 0.0000
# 2 68.4202 144.3552 33.4289 0.0000 0.0000 0.0000
# 3 41.6697 33.4289 83.5932 0.0000 0.0000 0.0000
# 4 0.0000 0.0000 0.0000 28.3534 0.0000 0.0000
# 5 0.0000 0.0000 0.0000 0.0000 18.6595 0.0000
# 6 0.0000 0.0000 0.0000 0.0000 0.0000 34.0925
#
#
#
# Elastic Compliance Matrix: (Units=1/GPa)
#
#
# Indices 1 2 3 4 5 6 
#
# 1 0.008294 -0.003277 -0.002824 0.000000 0.000000 0.000000
# 2 -0.003277 0.008929 -0.001937 0.000000 0.000000 0.000000
# 3 -0.002824 -0.001937 0.014145 0.000000 0.000000 0.000000
# 4 0.000000 0.000000 0.000000 0.035269 0.000000 0.000000
# 5 0.000000 0.000000 0.000000 0.000000 0.053592 0.000000
# 6 0.000000 0.000000 0.000000 0.000000 0.000000 0.029332
#
#
# Mechanical properties :
#
#
# Convention : Reuss Voigt Hill
#
# Bulk Modulus (GPa) = 65.39446 75.19720 70.29583
# Shear Modulus (GPa) = 29.28505 32.63563 30.96034
#
# Velocity S-wave (km/s) = 3.77440 3.98447 3.88086
# Velocity P-wave (km/s) = 7.12789 7.59925 7.36734
#
# Compressibility (1/GPa) = 0.01529182
#
# Stress axis : x y z
#
# Youngs Moduli (GPa) = 120.56680 111.99122 70.69612
#
# Poissons Ratio (x) = 0.36702 0.19964
# Poissons Ratio (y) = 0.39513 0.13695
# Poissons Ratio (z) = 0.34047 0.21694
#
# Static dielectric constant tensor:
#      x y z
#    x 4.168610 0.000000 0.000000 
#    y 0.000000 3.704960 0.000000 
#    z 0.000000 0.000000 3.634440 
# 
# 
# High freq. dielectric constant tensor:
#      x y z
#    x 1.825700 0.000000 0.000000 
#    y 0.000000 1.804360 0.000000 
#    z 0.000000 0.000000 1.786510 
# 
# From -- ./inp_files/15324.got.cif
#   From: 2010.03.12/outbox.cif.g09.slc.cpg/sg40_8_cif.got.tgz:15324.got - 2010.04.14 01:38:03.
