data_PCOD8183937
_publ_section_title
;
Structure prediction by ZEFSAII (Michael W. Deem and Ramdas Pophale) SiO2 
 PCOD8183937
Probable space group: A M A 2
;
_chemical_formula_sum "Si O2"
_cell_formula_units_Z 64
_cell_length_a 14.059153
_cell_length_b 23.428458
_cell_length_c 8.944961
_cell_angle_alpha 90.000000
_cell_angle_beta 90.000000
_cell_angle_gamma 90.000000
_cell_volume 2946.329499
_symmetry_space_group_name_H-M "A M A 2"
_symmetry_group_IT_number 40
_symmetry_cell_setting 'orthorhombic'
loop_
_space_group_symop_operation_xyz
x,y,z
-x,-y,z
1/2-x,y,z
1/2+x,-y,z
x,1/2+y,1/2+z
-x,1/2-y,1/2+z
1/2-x,1/2+y,1/2+z
1/2+x,1/2-y,1/2+z
loop_
_atom_site_type_symbol
_atom_site_label
_atom_site_fract_x
_atom_site_fract_y
_atom_site_fract_z
Si Si1 0.359724 0.285821 0.831050
Si Si2 0.860569 0.530180 0.051774
Si Si3 0.475672 0.362530 0.028154
Si Si4 0.639397 0.916740 0.032829
Si Si5 0.140927 0.346278 0.523898
Si Si6 0.472943 0.174526 0.845882
Si Si7 0.858633 0.414470 0.883485
Si Si8 0.638238 0.032383 0.898884
O O1 0.250000 0.273547 0.868921
O O2 0.369135 0.332307 0.698773
O O3 0.411036 0.227201 0.785640
O O4 0.412667 0.308520 0.978709
O O5 0.750000 0.542871 0.026631
O O6 0.918127 0.581396 0.976543
O O7 0.888431 0.529966 0.225439
O O8 0.890042 0.471630 0.971533
O O9 0.493881 0.362155 0.204324
O O10 0.577072 0.362689 0.943885
O O11 0.750000 0.911703 0.990067
O O12 0.624207 0.919964 0.208893
O O13 0.588660 0.862396 0.961322
O O14 0.593175 0.975225 0.969835
O O15 0.250000 0.337142 0.470298
O O16 0.103146 0.410555 0.485855
O O17 0.069831 0.305076 0.430747
O O18 0.750000 0.399357 0.921513
O O19 0.750000 0.030115 0.924019
#
# Coordination Sequence:
#
# PCOD8183937 Si02
#       8
#     8   8   8   8   8   8   8   8
#     4  11  26  45  67  94 128 173 223 284 341 396
#     4  10  20  38  61  92 133 170 211 268 334 404
#     4  12  24  40  64  95 128 171 221 270 336 401
#     4  10  22  40  64  93 129 174 219 271 333 401
#     4  10  22  42  65  93 129 169 220 275 332 397
#     4  12  24  43  67  94 131 171 228 275 335 401
#     4  10  23  40  61  94 135 174 216 269 336 401
#     4   9  18  36  63  93 125 165 212 265 328 394
#
# _framework density 21.721944000000001
#
# number of rings (size 3 to 8) (size 9 to 14) (size 15 to 20)
#    0.000    1.500    1.250    3.375    1.750    3.000 
#    2.250    0.625    0.000    0.000    0.000    0.000 
#    0.000    0.000    0.000    0.000    0.000    0.000 
#
# Total GULP energy -396844.855329 kJ/mol
# GULP energy per Si atom -12401.401729 kJ/mol
# Density = 2.167250 g / cm^3
# Si number density = 21.721944 Si / 1000 Ang^3
#
#
#
# Elastic Constant Matrix: (Units=GPa)
#
#
# Indices 1 2 3 4 5 6 
#
# 1 100.9293 50.7820 44.4253 0.0000 0.0000 0.0000
# 2 50.7820 85.8297 40.1577 0.0000 0.0000 0.0000
# 3 44.4253 40.1577 93.8389 0.0000 0.0000 0.0000
# 4 0.0000 0.0000 0.0000 30.7833 0.0000 0.0000
# 5 0.0000 0.0000 0.0000 0.0000 31.7638 0.0000
# 6 0.0000 0.0000 0.0000 0.0000 0.0000 36.8863
#
#
#
# Elastic Compliance Matrix: (Units=1/GPa)
#
#
# Indices 1 2 3 4 5 6 
#
# 1 0.015339 -0.007099 -0.004224 0.000000 0.000000 0.000000
# 2 -0.007099 0.017854 -0.004279 0.000000 0.000000 0.000000
# 3 -0.004224 -0.004279 0.014487 0.000000 0.000000 0.000000
# 4 0.000000 0.000000 0.000000 0.032485 0.000000 0.000000
# 5 0.000000 0.000000 0.000000 0.000000 0.031482 0.000000
# 6 0.000000 0.000000 0.000000 0.000000 0.000000 0.027110
#
#
# Mechanical properties :
#
#
# Convention : Reuss Voigt Hill
#
# Bulk Modulus (GPa) = 60.69683 61.25863 60.97773
# Shear Modulus (GPa) = 28.49743 29.56887 29.03315
#
# Velocity S-wave (km/s) = 3.62597 3.69351 3.65989
# Velocity P-wave (km/s) = 6.74785 6.81556 6.78179
#
# Compressibility (1/GPa) = 0.01647532
#
# Stress axis : x y z
#
# Youngs Moduli (GPa) = 65.19320 56.01126 69.02518
#
# Poissons Ratio (x) = 0.39764 0.29154
# Poissons Ratio (y) = 0.46283 0.29538
# Poissons Ratio (z) = 0.27536 0.23969
#
# Static dielectric constant tensor:
#      x y z
#    x 4.131640 0.000000 0.000000 
#    y 0.000000 3.805280 0.000000 
#    z 0.000000 0.000000 3.752770 
# 
# 
# High freq. dielectric constant tensor:
#      x y z
#    x 1.874430 0.000000 0.000000 
#    y 0.000000 1.838690 0.000000 
#    z 0.000000 0.000000 1.852000 
# 
# From -- ./inp_files/6901.got.cif
#   From: 2010.03.12/outbox.cif.g09.slc.cpg/sg40_4_cif.got.tgz:6901.got - 2010.04.14 01:38:03.
