data_PCOD8183871
_publ_section_title
;
Structure prediction by ZEFSAII (Michael W. Deem and Ramdas Pophale) SiO2 
 PCOD8183871
Probable space group: A M A 2
;
_chemical_formula_sum "Si O2"
_cell_formula_units_Z 48
_cell_length_a 8.507034
_cell_length_b 20.409470
_cell_length_c 14.391757
_cell_angle_alpha 90.000000
_cell_angle_beta 90.000000
_cell_angle_gamma 90.000000
_cell_volume 2498.755212
_symmetry_space_group_name_H-M "A M A 2"
_symmetry_group_IT_number 40
_symmetry_cell_setting 'orthorhombic'
loop_
_space_group_symop_operation_xyz
x,y,z
-x,-y,z
1/2-x,y,z
1/2+x,-y,z
x,1/2+y,1/2+z
-x,1/2-y,1/2+z
1/2-x,1/2+y,1/2+z
1/2+x,1/2-y,1/2+z
loop_
_atom_site_type_symbol
_atom_site_label
_atom_site_fract_x
_atom_site_fract_y
_atom_site_fract_z
Si Si1 0.434225 0.430861 0.922070
Si Si2 0.566331 0.877305 0.606229
Si Si3 0.434511 0.179761 0.920112
Si Si4 0.935542 0.726121 0.606145
Si Si5 0.934267 0.070239 0.796683
Si Si6 0.063527 0.307092 0.811246
O O1 0.500000 0.500000 0.886894
O O2 0.250000 0.432598 0.910293
O O3 0.506438 0.372900 0.857972
O O4 0.475656 0.419016 0.029288
O O5 0.750000 0.885817 0.588641
O O6 0.514624 0.801882 0.600549
O O7 0.524581 0.904974 0.706252
O O8 0.250000 0.169196 0.902638
O O9 0.530105 0.118071 0.882174
O O10 0.499353 0.244391 0.867890
O O11 0.470072 0.185816 0.029122
O O12 0.750000 0.717610 0.591858
O O13 0.991749 0.697245 0.704830
O O14 0.750000 0.067005 0.776262
O O15 0.000000 0.000000 0.825967
O O16 0.250000 0.306946 0.817576
#
# Coordination Sequence:
#
# PCOD8183871 Si02
#       6
#     8   8   8   8   8   8
#     4  11  22  38  58  85 120 160 199 244 298 355
#     4  11  21  36  60  90 123 156 194 246 298 355
#     4  11  21  39  62  89 120 155 198 247 295 351
#     4  10  20  37  60  89 119 154 196 244 296 351
#     4  12  25  41  61  88 121 160 200 244 300 361
#     4   9  19  37  60  83 116 156 198 244 293 343
#
# _framework density 19.209564
#
# number of rings (size 3 to 8) (size 9 to 14) (size 15 to 20)
#    0.000    1.333    3.333    3.500    0.000    0.667 
#    0.000    2.500    0.000    2.000    0.000    0.000 
#    0.000    0.000    0.000    0.000    0.000    0.000 
#
# Total GULP energy -297727.863852 kJ/mol
# GULP energy per Si atom -12405.327660 kJ/mol
# Density = 1.916584 g / cm^3
# Si number density = 19.209564 Si / 1000 Ang^3
#
#
#
# Elastic Constant Matrix: (Units=GPa)
#
#
# Indices 1 2 3 4 5 6 
#
# 1 44.8484 25.7801 9.4926 0.0000 0.0000 0.0000
# 2 25.7801 135.2625 52.0325 0.0000 0.0000 0.0000
# 3 9.4926 52.0325 117.7027 0.0000 0.0000 0.0000
# 4 0.0000 0.0000 0.0000 31.6216 0.0000 0.0000
# 5 0.0000 0.0000 0.0000 0.0000 26.3096 0.0000
# 6 0.0000 0.0000 0.0000 0.0000 0.0000 26.6734
#
#
#
# Elastic Compliance Matrix: (Units=1/GPa)
#
#
# Indices 1 2 3 4 5 6 
#
# 1 0.025042 -0.004815 0.000109 0.000000 0.000000 0.000000
# 2 -0.004815 0.009834 -0.003959 0.000000 0.000000 0.000000
# 3 0.000109 -0.003959 0.010237 0.000000 0.000000 0.000000
# 4 0.000000 0.000000 0.000000 0.031624 0.000000 0.000000
# 5 0.000000 0.000000 0.000000 0.000000 0.038009 0.000000
# 6 0.000000 0.000000 0.000000 0.000000 0.000000 0.037491
#
#
# Mechanical properties :
#
#
# Convention : Reuss Voigt Hill
#
# Bulk Modulus (GPa) = 35.99275 52.49156 44.24216
# Shear Modulus (GPa) = 27.96006 30.95482 29.45744
#
# Velocity S-wave (km/s) = 3.81928 4.01861 3.92021
# Velocity P-wave (km/s) = 6.18278 6.99410 6.60091
#
# Compressibility (1/GPa) = 0.02778337
#
# Stress axis : x y z
#
# Youngs Moduli (GPa) = 39.93308 101.69286 97.68247
#
# Poissons Ratio (x) = 0.48962 -0.01063
# Poissons Ratio (y) = 0.19226 0.38670
# Poissons Ratio (z) = -0.00434 0.40258
#
# Static dielectric constant tensor:
#      x y z
#    x 3.366910 0.000000 0.000000 
#    y 0.000000 3.587750 0.000000 
#    z 0.000000 0.000000 3.519410 
# 
# 
# High freq. dielectric constant tensor:
#      x y z
#    x 1.739180 0.000000 0.000000 
#    y 0.000000 1.750600 0.000000 
#    z 0.000000 0.000000 1.747830 
# 
# From -- ./inp_files/15024.got.cif
#   From: 2010.03.12/outbox.cif.g09.slc.cpg/sg40_8_cif.got.tgz:15024.got - 2010.04.14 01:38:03.
