data_PCOD8183175
_publ_section_title
;
Structure prediction by ZEFSAII (Michael W. Deem and Ramdas Pophale) SiO2 
 PCOD8183175
Probable space group: A M A 2
;
_chemical_formula_sum "Si O2"
_cell_formula_units_Z 64
_cell_length_a 8.753525
_cell_length_b 24.772150
_cell_length_c 15.124174
_cell_angle_alpha 90.000000
_cell_angle_beta 90.000000
_cell_angle_gamma 90.000000
_cell_volume 3279.580856
_symmetry_space_group_name_H-M "A M A 2"
_symmetry_group_IT_number 40
_symmetry_cell_setting 'orthorhombic'
loop_
_space_group_symop_operation_xyz
x,y,z
-x,-y,z
1/2-x,y,z
1/2+x,-y,z
x,1/2+y,1/2+z
-x,1/2-y,1/2+z
1/2-x,1/2+y,1/2+z
1/2+x,1/2-y,1/2+z
loop_
_atom_site_type_symbol
_atom_site_label
_atom_site_fract_x
_atom_site_fract_y
_atom_site_fract_z
Si Si1 0.071935 0.640238 0.610740
Si Si2 0.071342 0.146653 0.472457
Si Si3 0.569026 0.943425 0.608356
Si Si4 0.573342 0.163939 0.287111
Si Si5 0.926099 0.900045 0.794388
Si Si6 0.574517 0.234001 0.016560
Si Si7 0.569840 0.058061 0.972840
Si Si8 0.423124 0.218296 0.837651
O O1 0.250000 0.629224 0.600073
O O2 0.022373 0.632539 0.712443
O O3 0.031009 0.701665 0.584693
O O4 0.983273 0.599197 0.547978
O O5 0.250000 0.142184 0.449673
O O6 0.012465 0.099871 0.536815
O O7 0.036818 0.202662 0.522941
O O8 0.977687 0.141990 0.382151
O O9 0.750000 0.945951 0.609067
O O10 0.509184 0.927704 0.705853
O O11 0.500000 0.000000 0.578921
O O12 0.750000 0.150337 0.272847
O O13 0.542325 0.228503 0.279643
O O14 0.750000 0.915531 0.811560
O O15 0.942919 0.835549 0.779512
O O16 0.022200 0.921182 0.876546
O O17 0.750000 0.221678 0.039894
O O18 0.541502 0.213602 0.917677
O O19 0.750000 0.053294 0.975977
O O20 0.500000 0.000000 0.993574
O O21 0.250000 0.222023 0.875782
#
# Coordination Sequence:
#
# PCOD8183175 Si02
#       8
#     8   8   8   8   8   8   8   8
#     4  12  24  39  59  87 123 161 201 247 298 357
#     4   9  20  39  61  85 117 156 198 246 305 360
#     4  10  22  39  60  85 116 157 202 248 295 348
#     4  10  21  37  60  89 121 157 198 248 301 356
#     4  10  20  36  59  88 123 162 198 240 297 357
#     4  10  19  33  57  86 117 152 195 242 293 355
#     4  12  25  42  63  88 120 160 203 251 301 359
#     4   9  18  33  56  84 121 159 193 233 292 358
#
# _framework density 19.514688
#
# number of rings (size 3 to 8) (size 9 to 14) (size 15 to 20)
#    0.000    1.750    1.250    3.375    1.750    3.000 
#    0.000    0.625    0.000    1.500    0.000    0.000 
#    0.000    0.000    0.000    0.000    0.000    0.000 
#
# Total GULP energy -396888.617416 kJ/mol
# GULP energy per Si atom -12402.769294 kJ/mol
# Density = 1.947027 g / cm^3
# Si number density = 19.514688 Si / 1000 Ang^3
#
#
#
# Elastic Constant Matrix: (Units=GPa)
#
#
# Indices 1 2 3 4 5 6 
#
# 1 92.3704 39.7281 46.6585 0.0000 0.0000 0.0000
# 2 39.7281 121.4600 64.4259 0.0000 0.0000 0.0000
# 3 46.6585 64.4259 108.4983 0.0000 0.0000 0.0000
# 4 0.0000 0.0000 0.0000 28.3404 0.0000 0.0000
# 5 0.0000 0.0000 0.0000 0.0000 28.6689 0.0000
# 6 0.0000 0.0000 0.0000 0.0000 0.0000 29.6025
#
#
#
# Elastic Compliance Matrix: (Units=1/GPa)
#
#
# Indices 1 2 3 4 5 6 
#
# 1 0.014171 -0.002048 -0.004878 0.000000 0.000000 0.000000
# 2 -0.002048 0.012314 -0.006432 0.000000 0.000000 0.000000
# 3 -0.004878 -0.006432 0.015134 0.000000 0.000000 0.000000
# 4 0.000000 0.000000 0.000000 0.035285 0.000000 0.000000
# 5 0.000000 0.000000 0.000000 0.000000 0.034881 0.000000
# 6 0.000000 0.000000 0.000000 0.000000 0.000000 0.033781
#
#
# Mechanical properties :
#
#
# Convention : Reuss Voigt Hill
#
# Bulk Modulus (GPa) = 67.09628 69.32821 68.21224
# Shear Modulus (GPa) = 28.20891 28.75678 28.48284
#
# Velocity S-wave (km/s) = 3.80613 3.84291 3.82456
# Velocity P-wave (km/s) = 7.33298 7.43599 7.38466
#
# Compressibility (1/GPa) = 0.01490396
#
# Stress axis : x y z
#
# Youngs Moduli (GPa) = 70.56819 81.20513 66.07781
#
# Poissons Ratio (x) = 0.16627 0.32234
# Poissons Ratio (y) = 0.14449 0.42500
# Poissons Ratio (z) = 0.34424 0.52229
#
# Static dielectric constant tensor:
#      x y z
#    x 3.533930 0.000000 0.000000 
#    y 0.000000 3.740290 0.000000 
#    z 0.000000 0.000000 3.478120 
# 
# 
# High freq. dielectric constant tensor:
#      x y z
#    x 1.759270 0.000000 0.000000 
#    y 0.000000 1.757810 0.000000 
#    z 0.000000 0.000000 1.755650 
# 
# From -- ./inp_files/15617.got.cif
#   From: 2010.03.12/outbox.cif.g09.slc.cpg/sg40_8_cif.got.tgz:15617.got - 2010.04.14 01:38:03.
