data_PCOD8183165
_publ_section_title
;
Structure prediction by ZEFSAII (Michael W. Deem and Ramdas Pophale) SiO2 
 PCOD8183165
Probable space group: A M A 2
;
_chemical_formula_sum "Si O2"
_cell_formula_units_Z 64
_cell_length_a 9.058236
_cell_length_b 18.210604
_cell_length_c 20.552373
_cell_angle_alpha 90.000000
_cell_angle_beta 90.000000
_cell_angle_gamma 90.000000
_cell_volume 3390.236187
_symmetry_space_group_name_H-M "A M A 2"
_symmetry_group_IT_number 40
_symmetry_cell_setting 'orthorhombic'
loop_
_space_group_symop_operation_xyz
x,y,z
-x,-y,z
1/2-x,y,z
1/2+x,-y,z
x,1/2+y,1/2+z
-x,1/2-y,1/2+z
1/2-x,1/2+y,1/2+z
1/2+x,1/2-y,1/2+z
loop_
_atom_site_type_symbol
_atom_site_label
_atom_site_fract_x
_atom_site_fract_y
_atom_site_fract_z
Si Si1 0.577711 0.316936 0.181210
Si Si2 0.086020 0.647384 0.562461
Si Si3 0.076522 0.658931 0.420841
Si Si4 0.915536 0.178182 0.553750
Si Si5 0.077251 0.852505 0.188914
Si Si6 0.076803 0.187116 0.425263
Si Si7 0.422548 0.575091 0.294350
Si Si8 0.923688 0.424458 0.810176
O O1 0.750000 0.323029 0.166292
O O2 0.494031 0.350714 0.118994
O O3 0.534434 0.232848 0.195967
O O4 0.527520 0.362929 0.243535
O O5 0.250000 0.619490 0.581220
O O6 0.039165 0.620090 0.490233
O O7 0.085194 0.734582 0.556130
O O8 0.971767 0.619630 0.617033
O O9 0.250000 0.679043 0.416819
O O10 0.028986 0.601223 0.365896
O O11 0.987012 0.733215 0.408832
O O12 0.750000 0.146181 0.550692
O O13 0.003430 0.152087 0.489782
O O14 0.250000 0.867000 0.197815
O O15 0.988391 0.898212 0.241679
O O16 0.250000 0.194090 0.437817
O O17 0.038789 0.134957 0.365014
O O18 0.500000 0.500000 0.275665
O O19 0.250000 0.561400 0.290419
O O20 0.750000 0.436775 0.802289
O O21 0.000000 0.500000 0.831291
#
# Coordination Sequence:
#
# PCOD8183165 Si02
#       8
#     8   8   8   8   8   8   8   8
#     4   9  18  33  54  79 107 138 173 215 260 308
#     4   8  15  29  50  77 107 134 164 209 258 304
#     4   9  18  34  56  80 106 138 175 215 260 309
#     4   9  17  30  52  80 107 135 169 212 259 307
#     4  10  19  33  56  81 104 134 171 212 259 310
#     4  10  20  34  55  82 107 132 168 215 262 309
#     4  10  21  36  52  74 106 142 179 218 260 306
#     4  11  24  39  54  75 105 139 174 214 259 309
#
# _framework density 18.877741
#
# number of rings (size 3 to 8) (size 9 to 14) (size 15 to 20)
#    0.000    2.500    0.000    3.000    0.000    7.500 
#    0.000    1.250    0.000    1.500    0.000    0.000 
#    0.000    0.000    0.000    0.000    0.000    0.000 
#
# Total GULP energy -396804.472368 kJ/mol
# GULP energy per Si atom -12400.139762 kJ/mol
# Density = 1.883477 g / cm^3
# Si number density = 18.877741 Si / 1000 Ang^3
#
#
#
# Elastic Constant Matrix: (Units=GPa)
#
#
# Indices 1 2 3 4 5 6 
#
# 1 74.5057 19.9955 34.3366 0.0000 0.0000 0.0000
# 2 19.9955 37.1836 9.5272 0.0000 0.0000 0.0000
# 3 34.3366 9.5272 102.4461 0.0000 0.0000 0.0000
# 4 0.0000 0.0000 0.0000 1.2364 0.0000 0.0000
# 5 0.0000 0.0000 0.0000 0.0000 32.1361 0.0000
# 6 0.0000 0.0000 0.0000 0.0000 0.0000 26.2351
#
#
#
# Elastic Compliance Matrix: (Units=1/GPa)
#
#
# Indices 1 2 3 4 5 6 
#
# 1 0.018110 -0.008383 -0.005290 0.000000 0.000000 0.000000
# 2 -0.008383 0.031431 -0.000113 0.000000 0.000000 0.000000
# 3 -0.005290 -0.000113 0.011545 0.000000 0.000000 0.000000
# 4 0.000000 0.000000 0.000000 0.808804 0.000000 0.000000
# 5 0.000000 0.000000 0.000000 0.000000 0.031118 0.000000
# 6 0.000000 0.000000 0.000000 0.000000 0.000000 0.038117
#
#
# Mechanical properties :
#
#
# Convention : Reuss Voigt Hill
#
# Bulk Modulus (GPa) = 29.83985 37.98376 33.91181
# Shear Modulus (GPa) = 5.11317 21.93991 13.52654
#
# Velocity S-wave (km/s) = 1.64756 3.41282 2.67972
# Velocity P-wave (km/s) = 4.41140 5.97448 5.25142
#
# Compressibility (1/GPa) = 0.03351223
#
# Stress axis : x y z
#
# Youngs Moduli (GPa) = 55.21932 31.81618 86.61874
#
# Poissons Ratio (x) = 0.26671 0.45823
# Poissons Ratio (y) = 0.46290 0.00981
# Poissons Ratio (z) = 0.29212 0.00360
#
# Static dielectric constant tensor:
#      x y z
#    x 3.508950 0.000000 0.000000 
#    y 0.000000 3.122470 0.000000 
#    z 0.000000 0.000000 3.832160 
# 
# 
# High freq. dielectric constant tensor:
#      x y z
#    x 1.736700 0.000000 0.000000 
#    y 0.000000 1.695810 0.000000 
#    z 0.000000 0.000000 1.752140 
# 
# From -- ./inp_files/22401.got.cif
#   From: 2010.03.12/outbox.cif.g09.slc.cpg/sg40_12_cif.got.tgz:22401.got - 2010.04.14 01:38:03.
