data_PCOD8183915
_publ_section_title
;
Structure prediction by ZEFSAII (Michael W. Deem and Ramdas Pophale) SiO2 
 PCOD8183915
Probable space group: A M A 2
;
_chemical_formula_sum "Si O2"
_cell_formula_units_Z 64
_cell_length_a 17.319699
_cell_length_b 9.243168
_cell_length_c 20.114057
_cell_angle_alpha 90.000000
_cell_angle_beta 90.000000
_cell_angle_gamma 90.000000
_cell_volume 3220.037010
_symmetry_space_group_name_H-M "A M A 2"
_symmetry_group_IT_number 40
_symmetry_cell_setting 'orthorhombic'
loop_
_space_group_symop_operation_xyz
x,y,z
-x,-y,z
1/2-x,y,z
1/2+x,-y,z
x,1/2+y,1/2+z
-x,1/2-y,1/2+z
1/2-x,1/2+y,1/2+z
1/2+x,1/2-y,1/2+z
loop_
_atom_site_type_symbol
_atom_site_label
_atom_site_fract_x
_atom_site_fract_y
_atom_site_fract_z
Si Si1 0.597052 0.674056 0.770030
Si Si2 0.838619 0.182448 0.033692
Si Si3 0.904950 0.861379 0.648173
Si Si4 0.662551 0.179980 0.881586
Si Si5 0.339937 0.649431 0.391893
Si Si6 0.580898 0.679507 0.143567
Si Si7 0.420876 0.094963 0.025908
Si Si8 0.086356 0.149297 0.267724
O O1 0.632448 0.771818 0.709857
O O2 0.627698 0.738209 0.838731
O O3 0.505497 0.657211 0.766343
O O4 0.625524 0.508808 0.764832
O O5 0.750000 0.217472 0.047191
O O6 0.890215 0.285394 0.078255
O O7 0.854782 0.014922 0.051196
O O8 0.862921 0.208484 0.957415
O O9 0.994802 0.861674 0.663598
O O10 0.873292 0.026110 0.639862
O O11 0.750000 0.230205 0.871084
O O12 0.608404 0.273797 0.835715
O O13 0.652832 0.011857 0.862692
O O14 0.250000 0.682628 0.409809
O O15 0.395581 0.663447 0.455730
O O16 0.577488 0.770626 0.075879
O O17 0.620073 0.770166 0.202830
O O18 0.500000 0.000000 0.021864
#
# Coordination Sequence:
#
# PCOD8183915 Si02
#       8
#     8   8   8   8   8   8   8   8
#     4  10  22  36  60  85 119 156 195 248 291 349
#     4  10  21  38  60  86 121 158 193 239 295 353
#     4  10  20  38  58  88 117 154 197 245 300 346
#     4   9  20  38  58  82 115 153 193 240 290 348
#     4  10  23  40  58  87 121 157 198 241 292 354
#     4  10  21  36  60  88 116 149 199 255 287 346
#     4  11  21  37  63  89 118 155 200 241 292 347
#     4  10  21  37  58  89 117 150 203 242 296 349
#
# _framework density 19.875547999999998
#
# number of rings (size 3 to 8) (size 9 to 14) (size 15 to 20)
#    0.000    2.000    1.250    2.625    5.250    3.000 
#    0.000    8.125    0.000    0.000    0.000    0.000 
#    0.000    0.000    0.000    0.000    0.000    0.000 
#
# Total GULP energy -396633.367691 kJ/mol
# GULP energy per Si atom -12394.792740 kJ/mol
# Density = 1.983031 g / cm^3
# Si number density = 19.875548 Si / 1000 Ang^3
#
#
#
# Elastic Constant Matrix: (Units=GPa)
#
#
# Indices 1 2 3 4 5 6 
#
# 1 24.6364 22.8715 28.9223 0.0000 0.0000 0.0000
# 2 22.8715 157.0906 92.7453 0.0000 0.0000 0.0000
# 3 28.9223 92.7453 124.8533 0.0000 0.0000 0.0000
# 4 0.0000 0.0000 0.0000 38.4141 0.0000 0.0000
# 5 0.0000 0.0000 0.0000 0.0000 12.0240 0.0000
# 6 0.0000 0.0000 0.0000 0.0000 0.0000 18.4500
#
#
#
# Elastic Compliance Matrix: (Units=1/GPa)
#
#
# Indices 1 2 3 4 5 6 
#
# 1 0.055820 -0.000878 -0.012279 0.000000 0.000000 0.000000
# 2 -0.000878 0.011352 -0.008229 0.000000 0.000000 0.000000
# 3 -0.012279 -0.008229 0.016967 0.000000 0.000000 0.000000
# 4 0.000000 0.000000 0.000000 0.026032 0.000000 0.000000
# 5 0.000000 0.000000 0.000000 0.000000 0.083167 0.000000
# 6 0.000000 0.000000 0.000000 0.000000 0.000000 0.054201
#
#
# Mechanical properties :
#
#
# Convention : Reuss Voigt Hill
#
# Bulk Modulus (GPa) = 24.17370 66.18429 45.17900
# Shear Modulus (GPa) = 16.44198 24.58036 20.51117
#
# Velocity S-wave (km/s) = 2.87931 3.52051 3.21593
# Velocity P-wave (km/s) = 4.82108 7.06378 6.04730
#
# Compressibility (1/GPa) = 0.04136727
#
# Stress axis : x y z
#
# Youngs Moduli (GPa) = 17.91469 88.08894 58.93840
#
# Poissons Ratio (x) = 0.07733 0.72369
# Poissons Ratio (y) = 0.01573 0.48503
# Poissons Ratio (z) = 0.21997 0.72492
#
# Static dielectric constant tensor:
#      x y z
#    x 3.439220 0.000000 0.000000 
#    y 0.000000 3.892000 0.000000 
#    z 0.000000 0.000000 3.572740 
# 
# 
# High freq. dielectric constant tensor:
#      x y z
#    x 1.753680 0.000000 0.000000 
#    y 0.000000 1.782170 0.000000 
#    z 0.000000 0.000000 1.780660 
# 
# From -- ./inp_files/23337.got.cif
#   From: 2010.03.12/outbox.cif.g09.slc.cpg/sg40_12_cif.got.tgz:23337.got - 2010.04.14 01:38:03.
