data_PCOD8183525
_publ_section_title
;
Structure prediction by ZEFSAII (Michael W. Deem and Ramdas Pophale) SiO2 
 PCOD8183525
Probable space group: A M A 2
;
_chemical_formula_sum "Si O2"
_cell_formula_units_Z 48
_cell_length_a 26.286584
_cell_length_b 6.300378
_cell_length_c 14.249192
_cell_angle_alpha 90.000000
_cell_angle_beta 90.000000
_cell_angle_gamma 90.000000
_cell_volume 2359.885854
_symmetry_space_group_name_H-M "A M A 2"
_symmetry_group_IT_number 40
_symmetry_cell_setting 'orthorhombic'
loop_
_space_group_symop_operation_xyz
x,y,z
-x,-y,z
1/2-x,y,z
1/2+x,-y,z
x,1/2+y,1/2+z
-x,1/2-y,1/2+z
1/2-x,1/2+y,1/2+z
1/2+x,1/2-y,1/2+z
loop_
_atom_site_type_symbol
_atom_site_label
_atom_site_fract_x
_atom_site_fract_y
_atom_site_fract_z
Si Si1 0.598189 0.316408 0.434180
Si Si2 0.693590 0.604499 0.382758
Si Si3 0.593966 0.557566 0.611383
Si Si4 0.851603 0.174069 0.687644
Si Si5 0.552807 0.886621 0.739073
Si Si6 0.651127 0.433423 0.011230
O O1 0.651662 0.436201 0.415641
O O2 0.570805 0.410547 0.527973
O O3 0.558952 0.335279 0.349113
O O4 0.610742 0.069301 0.450185
O O5 0.750000 0.507602 0.397066
O O6 0.687213 0.658288 0.273061
O O7 0.691260 0.826443 0.440471
O O8 0.633190 0.419492 0.673628
O O9 0.552601 0.664706 0.680755
O O10 0.623299 0.745242 0.562644
O O11 0.824647 0.085049 0.592223
O O12 0.902682 0.041595 0.706516
O O13 0.500000 0.000000 0.720020
#
# Coordination Sequence:
#
# PCOD8183525 Si02
#       6
#     8   8   8   8   8   8
#     4   9  19  37  55  77 112 144 180 231 280 329
#     4  10  20  33  54  80 105 140 184 227 280 336
#     4   9  18  36  56  76 107 146 177 226 279 325
#     4   9  19  36  55  75 111 143 178 234 280 328
#     4  10  20  35  54  83 109 145 189 224 280 341
#     4   9  18  35  56  74 103 144 179 220 274 331
#
# _framework density 20.339967999999999
#
# number of rings (size 3 to 8) (size 9 to 14) (size 15 to 20)
#    0.000    2.667    0.000    1.000    0.000    2.000 
#    9.000    6.667    0.000    0.000    0.000    0.000 
#    0.000    0.000    0.000    0.000    0.000    0.000 
#
# Total GULP energy -297425.910389 kJ/mol
# GULP energy per Si atom -12392.746266 kJ/mol
# Density = 2.029367 g / cm^3
# Si number density = 20.339968 Si / 1000 Ang^3
#
#
#
# Elastic Constant Matrix: (Units=GPa)
#
#
# Indices 1 2 3 4 5 6 
#
# 1 49.0820 0.1992 15.6179 0.0000 0.0000 0.0000
# 2 0.1992 79.8553 16.4185 0.0000 0.0000 0.0000
# 3 15.6179 16.4185 107.6636 0.0000 0.0000 0.0000
# 4 0.0000 0.0000 0.0000 27.1893 0.0000 0.0000
# 5 0.0000 0.0000 0.0000 0.0000 10.0674 0.0000
# 6 0.0000 0.0000 0.0000 0.0000 0.0000 17.3456
#
#
#
# Elastic Compliance Matrix: (Units=1/GPa)
#
#
# Indices 1 2 3 4 5 6 
#
# 1 0.021388 0.000603 -0.003195 0.000000 0.000000 0.000000
# 2 0.000603 0.012945 -0.002062 0.000000 0.000000 0.000000
# 3 -0.003195 -0.002062 0.010066 0.000000 0.000000 0.000000
# 4 0.000000 0.000000 0.000000 0.036779 0.000000 0.000000
# 5 0.000000 0.000000 0.000000 0.000000 0.099330 0.000000
# 6 0.000000 0.000000 0.000000 0.000000 0.000000 0.057651
#
#
# Mechanical properties :
#
#
# Convention : Reuss Voigt Hill
#
# Bulk Modulus (GPa) = 28.49525 33.45247 30.97386
# Shear Modulus (GPa) = 19.29283 24.54482 21.91883
#
# Velocity S-wave (km/s) = 3.08314 3.47757 3.28628
# Velocity P-wave (km/s) = 5.16858 5.71026 5.44616
#
# Compressibility (1/GPa) = 0.03509357
#
# Stress axis : x y z
#
# Youngs Moduli (GPa) = 46.75489 77.24974 99.34424
#
# Poissons Ratio (x) = -0.04662 0.31737
# Poissons Ratio (y) = -0.02822 0.20481
# Poissons Ratio (z) = 0.14937 0.15926
#
# Static dielectric constant tensor:
#      x y z
#    x 3.120060 0.000000 0.000000 
#    y 0.000000 4.012070 0.000000 
#    z 0.000000 0.000000 4.348700 
# 
# 
# High freq. dielectric constant tensor:
#      x y z
#    x 1.738830 0.000000 0.000000 
#    y 0.000000 1.805360 0.000000 
#    z 0.000000 0.000000 1.821400 
# 
# From -- ./inp_files/18640.got.cif
#   From: 2010.03.12/outbox.cif.g09.slc.cpg/sg40_10_cif.got.tgz:18640.got - 2010.04.14 01:38:03.
