data_PCOD8183111
_publ_section_title
;
Structure prediction by ZEFSAII (Michael W. Deem and Ramdas Pophale) SiO2 
 PCOD8183111
Probable space group: A M A 2
;
_chemical_formula_sum "Si O2"
_cell_formula_units_Z 56
_cell_length_a 8.689915
_cell_length_b 23.757343
_cell_length_c 13.680480
_cell_angle_alpha 90.000000
_cell_angle_beta 90.000000
_cell_angle_gamma 90.000000
_cell_volume 2824.325401
_symmetry_space_group_name_H-M "A M A 2"
_symmetry_group_IT_number 40
_symmetry_cell_setting 'orthorhombic'
loop_
_space_group_symop_operation_xyz
x,y,z
-x,-y,z
1/2-x,y,z
1/2+x,-y,z
x,1/2+y,1/2+z
-x,1/2-y,1/2+z
1/2-x,1/2+y,1/2+z
1/2+x,1/2-y,1/2+z
loop_
_atom_site_type_symbol
_atom_site_label
_atom_site_fract_x
_atom_site_fract_y
_atom_site_fract_z
Si Si1 0.429088 0.274517 0.617140
Si Si2 0.433143 0.060493 0.407761
Si Si3 0.932330 0.164563 0.923342
Si Si4 0.432661 0.561038 0.527104
Si Si5 0.568265 0.060440 0.613369
Si Si6 0.430787 0.124799 0.219166
Si Si7 0.069679 0.662151 0.219622
O O1 0.250000 0.285849 0.626423
O O2 0.484931 0.291849 0.508494
O O3 0.505846 0.313181 0.699741
O O4 0.470212 0.209737 0.638917
O O5 0.250000 0.056812 0.414459
O O6 0.499301 0.081823 0.510614
O O7 0.490193 0.103204 0.323978
O O8 0.500000 0.000000 0.380589
O O9 0.750000 0.164151 0.909276
O O10 0.013860 0.184885 0.824386
O O11 0.991877 0.102196 0.947781
O O12 0.500000 0.500000 0.507254
O O13 0.250000 0.560900 0.513880
O O14 0.483996 0.581384 0.634935
O O15 0.750000 0.054730 0.605002
O O16 0.522695 0.105505 0.695155
O O17 0.500000 0.000000 0.642924
O O18 0.250000 0.129089 0.219944
O O19 0.250000 0.648886 0.221608
#
# Coordination Sequence:
#
# PCOD8183111 Si02
#       7
#     8   8   8   8   8   8   8
#     4   9  21  39  59  82 113 147 184 229 277 326
#     4  10  19  33  53  81 115 152 189 232 279 328
#     4  10  21  39  59  83 112 146 186 230 275 327
#     4  10  19  33  53  81 114 151 190 233 280 330
#     4  11  23  40  60  84 112 146 185 230 277 329
#     4   9  19  33  53  81 115 151 190 232 278 327
#     4  11  23  41  62  86 113 145 182 226 276 329
#
# _framework density 19.827743999999999
#
# number of rings (size 3 to 8) (size 9 to 14) (size 15 to 20)
#    0.000    2.000    0.000    4.286    0.000    5.143 
#    0.000    7.143    0.000    0.000    0.000    0.000 
#    0.000    0.000    0.000    0.000    0.000    0.000 
#
# Total GULP energy -347272.736520 kJ/mol
# GULP energy per Si atom -12402.597733 kJ/mol
# Density = 1.978262 g / cm^3
# Si number density = 19.827744 Si / 1000 Ang^3
#
#
#
# Elastic Constant Matrix: (Units=GPa)
#
#
# Indices 1 2 3 4 5 6 
#
# 1 76.0473 28.0284 30.0198 0.0000 0.0000 0.0000
# 2 28.0284 91.7182 46.6465 0.0000 0.0000 0.0000
# 3 30.0198 46.6465 104.7839 0.0000 0.0000 0.0000
# 4 0.0000 0.0000 0.0000 29.3525 0.0000 0.0000
# 5 0.0000 0.0000 0.0000 0.0000 31.2866 0.0000
# 6 0.0000 0.0000 0.0000 0.0000 0.0000 28.8897
#
#
#
# Elastic Compliance Matrix: (Units=1/GPa)
#
#
# Indices 1 2 3 4 5 6 
#
# 1 0.015524 -0.003209 -0.003019 0.000000 0.000000 0.000000
# 2 -0.003209 0.014757 -0.005650 0.000000 0.000000 0.000000
# 3 -0.003019 -0.005650 0.012924 0.000000 0.000000 0.000000
# 4 0.000000 0.000000 0.000000 0.034069 0.000000 0.000000
# 5 0.000000 0.000000 0.000000 0.000000 0.031963 0.000000
# 6 0.000000 0.000000 0.000000 0.000000 0.000000 0.034614
#
#
# Mechanical properties :
#
#
# Convention : Reuss Voigt Hill
#
# Bulk Modulus (GPa) = 51.41632 53.54875 52.48253
# Shear Modulus (GPa) = 28.72088 29.09606 28.90847
#
# Velocity S-wave (km/s) = 3.81007 3.83488 3.82249
# Velocity P-wave (km/s) = 6.73375 6.83184 6.78297
#
# Compressibility (1/GPa) = 0.01944908
#
# Stress axis : x y z
#
# Youngs Moduli (GPa) = 64.41594 67.76424 77.37717
#
# Poissons Ratio (x) = 0.21742 0.23362
# Poissons Ratio (y) = 0.20668 0.43719
# Poissons Ratio (z) = 0.19449 0.38288
#
# Static dielectric constant tensor:
#      x y z
#    x 3.601540 0.000000 0.000000 
#    y 0.000000 3.531700 0.000000 
#    z 0.000000 0.000000 3.812710 
# 
# 
# High freq. dielectric constant tensor:
#      x y z
#    x 1.779420 0.000000 0.000000 
#    y 0.000000 1.768820 0.000000 
#    z 0.000000 0.000000 1.775530 
# 
# From -- ./inp_files/15357.got.cif
#   From: 2010.03.12/outbox.cif.g09.slc.cpg/sg40_8_cif.got.tgz:15357.got - 2010.04.14 01:38:03.
