data_PCOD8183153
_publ_section_title
;
Structure prediction by ZEFSAII (Michael W. Deem and Ramdas Pophale) SiO2 
 PCOD8183153
Probable space group: A M A 2
;
_chemical_formula_sum "Si O2"
_cell_formula_units_Z 48
_cell_length_a 9.051388
_cell_length_b 20.341551
_cell_length_c 14.477510
_cell_angle_alpha 90.000000
_cell_angle_beta 90.000000
_cell_angle_gamma 90.000000
_cell_volume 2665.588582
_symmetry_space_group_name_H-M "A M A 2"
_symmetry_group_IT_number 40
_symmetry_cell_setting 'orthorhombic'
loop_
_space_group_symop_operation_xyz
x,y,z
-x,-y,z
1/2-x,y,z
1/2+x,-y,z
x,1/2+y,1/2+z
-x,1/2-y,1/2+z
1/2-x,1/2+y,1/2+z
1/2+x,1/2-y,1/2+z
loop_
_atom_site_type_symbol
_atom_site_label
_atom_site_fract_x
_atom_site_fract_y
_atom_site_fract_z
Si Si1 0.576577 0.067909 0.672840
Si Si2 0.076925 0.878163 0.474037
Si Si3 0.575156 0.307134 0.684480
Si Si4 0.074825 0.566652 0.797297
Si Si5 0.576259 0.774447 0.982205
Si Si6 0.575033 0.685628 0.303335
O O1 0.750000 0.057222 0.675977
O O2 0.527978 0.093589 0.572627
O O3 0.526002 0.120695 0.748814
O O4 0.500000 0.000000 0.697868
O O5 0.250000 0.889355 0.455164
O O6 0.035279 0.801759 0.470490
O O7 0.982137 0.917051 0.399268
O O8 0.750000 0.299649 0.682349
O O9 0.525153 0.376722 0.726139
O O10 0.514350 0.299871 0.580567
O O11 0.511530 0.248815 0.748361
O O12 0.250000 0.558319 0.800694
O O13 0.000000 0.500000 0.761194
O O14 0.750000 0.785846 0.974476
O O15 0.496536 0.817216 0.904237
O O16 0.750000 0.690101 0.313692
#
# Coordination Sequence:
#
# PCOD8183153 Si02
#       6
#     8   8   8   8   8   8
#     4  10  21  36  55  78 111 147 178 217 268 323
#     4  10  19  33  55  83 112 140 173 220 271 321
#     4   9  18  35  57  77 105 144 179 214 267 321
#     4  11  22  36  55  79 110 146 180 219 268 322
#     4  10  19  34  57  84 109 138 179 223 266 317
#     4  10  19  36  57  79 107 142 181 222 267 314
#
# _framework density 18.007280000000002
#
# number of rings (size 3 to 8) (size 9 to 14) (size 15 to 20)
#    0.000    2.000    3.333    1.000    0.000    2.667 
#    0.000    3.333    0.000    4.000    0.000    0.000 
#    0.000    0.000    0.000    0.000    0.000    0.000 
#
# Total GULP energy -297667.977621 kJ/mol
# GULP energy per Si atom -12402.832401 kJ/mol
# Density = 1.796629 g / cm^3
# Si number density = 18.007280 Si / 1000 Ang^3
#
#
#
# Elastic Constant Matrix: (Units=GPa)
#
#
# Indices 1 2 3 4 5 6 
#
# 1 34.3191 41.8590 30.4043 0.0000 0.0000 0.0000
# 2 41.8590 134.8691 65.7468 0.0000 0.0000 0.0000
# 3 30.4043 65.7468 134.7814 0.0000 0.0000 0.0000
# 4 0.0000 0.0000 0.0000 31.3736 0.0000 0.0000
# 5 0.0000 0.0000 0.0000 0.0000 28.7513 0.0000
# 6 0.0000 0.0000 0.0000 0.0000 0.0000 25.6920
#
#
#
# Elastic Compliance Matrix: (Units=1/GPa)
#
#
# Indices 1 2 3 4 5 6 
#
# 1 0.049130 -0.012917 -0.004782 0.000000 0.000000 0.000000
# 2 -0.012917 0.013124 -0.003488 0.000000 0.000000 0.000000
# 3 -0.004782 -0.003488 0.010200 0.000000 0.000000 0.000000
# 4 0.000000 0.000000 0.000000 0.031874 0.000000 0.000000
# 5 0.000000 0.000000 0.000000 0.000000 0.034781 0.000000
# 6 0.000000 0.000000 0.000000 0.000000 0.000000 0.038923
#
#
# Mechanical properties :
#
#
# Convention : Reuss Voigt Hill
#
# Bulk Modulus (GPa) = 33.24540 64.44333 48.84436
# Shear Modulus (GPa) = 21.69841 28.22735 24.96288
#
# Velocity S-wave (km/s) = 3.47505 3.96353 3.72730
# Velocity P-wave (km/s) = 5.88248 7.53732 6.76072
#
# Compressibility (1/GPa) = 0.03007935
#
# Stress axis : x y z
#
# Youngs Moduli (GPa) = 20.35423 76.19570 98.04328
#
# Poissons Ratio (x) = 0.98424 0.46881
# Poissons Ratio (y) = 0.26292 0.34198
# Poissons Ratio (z) = 0.09733 0.26578
#
# Static dielectric constant tensor:
#      x y z
#    x 3.061570 0.000000 0.000000 
#    y 0.000000 3.414190 0.000000 
#    z 0.000000 0.000000 3.431630 
# 
# 
# High freq. dielectric constant tensor:
#      x y z
#    x 1.676230 0.000000 0.000000 
#    y 0.000000 1.700440 0.000000 
#    z 0.000000 0.000000 1.701810 
# 
# From -- ./inp_files/10246.got.cif
#   From: 2010.03.12/outbox.cif.g09.slc.cpg/sg40_6_cif.got.tgz:10246.got - 2010.04.14 01:38:03.
