data_PCOD8183903
_publ_section_title
;
Structure prediction by ZEFSAII (Michael W. Deem and Ramdas Pophale) SiO2 
 PCOD8183903
Probable space group: A M A 2
;
_chemical_formula_sum "Si O2"
_cell_formula_units_Z 64
_cell_length_a 14.769057
_cell_length_b 8.968240
_cell_length_c 22.499125
_cell_angle_alpha 90.000000
_cell_angle_beta 90.000000
_cell_angle_gamma 90.000000
_cell_volume 2980.064178
_symmetry_space_group_name_H-M "A M A 2"
_symmetry_group_IT_number 40
_symmetry_cell_setting 'orthorhombic'
loop_
_space_group_symop_operation_xyz
x,y,z
-x,-y,z
1/2-x,y,z
1/2+x,-y,z
x,1/2+y,1/2+z
-x,1/2-y,1/2+z
1/2-x,1/2+y,1/2+z
1/2+x,1/2-y,1/2+z
loop_
_atom_site_type_symbol
_atom_site_label
_atom_site_fract_x
_atom_site_fract_y
_atom_site_fract_z
Si Si1 0.518279 0.829007 0.197560
Si Si2 0.427986 0.630677 0.373668
Si Si3 0.354935 0.310168 0.523460
Si Si4 0.349908 0.242472 0.759924
Si Si5 0.943217 0.863800 0.415127
Si Si6 0.148437 0.649592 0.500443
Si Si7 0.485145 0.324364 0.081679
Si Si8 0.349759 0.082306 0.297461
O O1 0.427227 0.732359 0.210039
O O2 0.561732 0.741090 0.141472
O O3 0.582842 0.822627 0.255402
O O4 0.500000 0.000000 0.179310
O O5 0.500000 0.500000 0.375614
O O6 0.368535 0.626904 0.313749
O O7 0.483713 0.782293 0.374294
O O8 0.361883 0.627491 0.430110
O O9 0.250000 0.263325 0.529424
O O10 0.396428 0.242033 0.463182
O O11 0.367395 0.487208 0.528350
O O12 0.413892 0.244943 0.577305
O O13 0.250000 0.206565 0.733679
O O14 0.355114 0.410181 0.782574
O O15 0.867925 0.911937 0.367817
O O16 0.000000 0.000000 0.445470
O O17 0.250000 0.707176 0.513825
O O18 0.077297 0.770254 0.526145
O O19 0.500000 0.500000 0.082515
O O20 0.250000 0.147499 0.285468
#
# Coordination Sequence:
#
# PCOD8183903 Si02
#       8
#     8   8   8   8   8   8   8   8
#     4  10  21  41  65  87 118 166 217 265 320 379
#     4  12  21  37  64  90 132 169 205 253 311 377
#     4  11  24  42  65  95 127 166 215 264 317 381
#     4  10  21  38  63  94 125 165 211 258 311 375
#     4  12  20  38  63  94 131 171 208 252 313 370
#     4  11  24  43  66  93 127 170 214 258 315 386
#     4  12  26  44  65  91 125 165 212 270 329 382
#     4  10  20  37  62  94 128 164 211 257 307 375
#
# _framework density 21.476047000000001
#
# number of rings (size 3 to 8) (size 9 to 14) (size 15 to 20)
#    0.000    1.000    5.000    2.625    0.000    2.000 
#    0.000    2.500    0.000    0.000    0.000    0.000 
#    0.000    0.000    0.000    0.000    0.000    0.000 
#
# Total GULP energy -396674.324920 kJ/mol
# GULP energy per Si atom -12396.072654 kJ/mol
# Density = 2.142717 g / cm^3
# Si number density = 21.476047 Si / 1000 Ang^3
#
#
#
# Elastic Constant Matrix: (Units=GPa)
#
#
# Indices 1 2 3 4 5 6 
#
# 1 132.9459 38.4483 26.1880 0.0000 0.0000 0.0000
# 2 38.4483 88.9360 21.9977 0.0000 0.0000 0.0000
# 3 26.1880 21.9977 81.6464 0.0000 0.0000 0.0000
# 4 0.0000 0.0000 0.0000 32.0637 0.0000 0.0000
# 5 0.0000 0.0000 0.0000 0.0000 22.0322 0.0000
# 6 0.0000 0.0000 0.0000 0.0000 0.0000 18.2844
#
#
#
# Elastic Compliance Matrix: (Units=1/GPa)
#
#
# Indices 1 2 3 4 5 6 
#
# 1 0.008875 -0.003356 -0.001942 0.000000 0.000000 0.000000
# 2 -0.003356 0.013316 -0.002511 0.000000 0.000000 0.000000
# 3 -0.001942 -0.002511 0.013548 0.000000 0.000000 0.000000
# 4 0.000000 0.000000 0.000000 0.031188 0.000000 0.000000
# 5 0.000000 0.000000 0.000000 0.000000 0.045388 0.000000
# 6 0.000000 0.000000 0.000000 0.000000 0.000000 0.054691
#
#
# Mechanical properties :
#
#
# Convention : Reuss Voigt Hill
#
# Bulk Modulus (GPa) = 49.70444 52.97736 51.34090
# Shear Modulus (GPa) = 26.40855 28.93568 27.67212
#
# Velocity S-wave (km/s) = 3.51048 3.67460 3.59348
# Velocity P-wave (km/s) = 6.29489 6.53646 6.41681
#
# Compressibility (1/GPa) = 0.02011893
#
# Stress axis : x y z
#
# Youngs Moduli (GPa) = 112.67411 75.09660 73.81422
#
# Poissons Ratio (x) = 0.25206 0.14338
# Poissons Ratio (y) = 0.37818 0.18536
# Poissons Ratio (z) = 0.21886 0.18858
#
# Static dielectric constant tensor:
#      x y z
#    x 4.165700 0.000000 0.000000 
#    y 0.000000 3.670420 0.000000 
#    z 0.000000 0.000000 3.790860 
# 
# 
# High freq. dielectric constant tensor:
#      x y z
#    x 1.846580 0.000000 0.000000 
#    y 0.000000 1.830500 0.000000 
#    z 0.000000 0.000000 1.837650 
# 
# From -- ./inp_files/24823.got.cif
#   From: 2010.03.12/outbox.cif.g09.slc.cpg/sg40_13_cif.got.tgz:24823.got - 2010.04.14 01:38:03.
