data_PCOD8183966
_publ_section_title
;
Structure prediction by ZEFSAII (Michael W. Deem and Ramdas Pophale) SiO2 
 PCOD8183966
Probable space group: A M A 2
;
_chemical_formula_sum "Si O2"
_cell_formula_units_Z 64
_cell_length_a 17.928278
_cell_length_b 15.054275
_cell_length_c 11.637812
_cell_angle_alpha 90.000000
_cell_angle_beta 90.000000
_cell_angle_gamma 90.000000
_cell_volume 3141.013191
_symmetry_space_group_name_H-M "A M A 2"
_symmetry_group_IT_number 40
_symmetry_cell_setting 'orthorhombic'
loop_
_space_group_symop_operation_xyz
x,y,z
-x,-y,z
1/2-x,y,z
1/2+x,-y,z
x,1/2+y,1/2+z
-x,1/2-y,1/2+z
1/2-x,1/2+y,1/2+z
1/2+x,1/2-y,1/2+z
loop_
_atom_site_type_symbol
_atom_site_label
_atom_site_fract_x
_atom_site_fract_y
_atom_site_fract_z
Si Si1 0.440447 0.834934 0.598040
Si Si2 0.587467 0.500782 0.688749
Si Si3 0.419883 0.481042 0.283678
Si Si4 0.580174 0.810670 0.277001
Si Si5 0.409896 0.330403 0.840143
Si Si6 0.105718 0.223908 0.527620
Si Si7 0.338553 0.909605 0.993809
Si Si8 0.667137 0.841288 0.741372
O O1 0.433654 0.929433 0.663241
O O2 0.401592 0.759402 0.676399
O O3 0.398445 0.843886 0.476717
O O4 0.525392 0.807886 0.572296
O O5 0.500000 0.500000 0.658670
O O6 0.608993 0.406811 0.741968
O O7 0.611059 0.576927 0.779305
O O8 0.636548 0.507697 0.572751
O O9 0.500000 0.500000 0.342137
O O10 0.367652 0.421488 0.364371
O O11 0.384583 0.576985 0.271309
O O12 0.493411 0.804117 0.307216
O O13 0.624226 0.789686 0.394070
O O14 0.358075 0.249416 0.802377
O O15 0.117043 0.328206 0.552822
O O16 0.166021 0.171311 0.603586
O O17 0.250000 0.895483 0.993363
O O18 0.750000 0.864204 0.782862
#
# Coordination Sequence:
#
# PCOD8183966 Si02
#       8
#     8   8   8   8   8   8   8   8
#     4  11  22  40  67  99 130 161 223 276 327 375
#     4  10  21  39  64  97 126 165 217 271 320 381
#     4  12  25  43  68 101 130 177 222 276 324 390
#     4  10  20  38  64  97 125 162 213 269 321 383
#     4  10  22  38  64  97 129 162 213 274 323 386
#     4  11  21  40  68  95 127 172 216 268 324 393
#     4  12  25  43  66  95 134 174 216 269 329 395
#     4  12  25  44  66  96 135 176 219 267 337 401
#
# _framework density 20.375591
#
# number of rings (size 3 to 8) (size 9 to 14) (size 15 to 20)
#    0.000    1.000    5.000    1.875    5.250    0.500 
#    0.000    2.500    0.000    0.000    0.000    0.000 
#    0.000    0.000    0.000    0.000    0.000    0.000 
#
# Total GULP energy -396769.299542 kJ/mol
# GULP energy per Si atom -12399.040611 kJ/mol
# Density = 2.032921 g / cm^3
# Si number density = 20.375591 Si / 1000 Ang^3
#
#
#
# Elastic Constant Matrix: (Units=GPa)
#
#
# Indices 1 2 3 4 5 6 
#
# 1 84.3427 46.5386 39.8132 0.0000 0.0000 0.0000
# 2 46.5386 119.1394 33.0486 0.0000 0.0000 0.0000
# 3 39.8132 33.0486 120.3221 0.0000 0.0000 0.0000
# 4 0.0000 0.0000 0.0000 28.0020 0.0000 0.0000
# 5 0.0000 0.0000 0.0000 0.0000 14.0263 0.0000
# 6 0.0000 0.0000 0.0000 0.0000 0.0000 5.8890
#
#
#
# Elastic Compliance Matrix: (Units=1/GPa)
#
#
# Indices 1 2 3 4 5 6 
#
# 1 0.016764 -0.005423 -0.004057 0.000000 0.000000 0.000000
# 2 -0.005423 0.010840 -0.001183 0.000000 0.000000 0.000000
# 3 -0.004057 -0.001183 0.009979 0.000000 0.000000 0.000000
# 4 0.000000 0.000000 0.000000 0.035712 0.000000 0.000000
# 5 0.000000 0.000000 0.000000 0.000000 0.071295 0.000000
# 6 0.000000 0.000000 0.000000 0.000000 0.000000 0.169807
#
#
# Mechanical properties :
#
#
# Convention : Reuss Voigt Hill
#
# Bulk Modulus (GPa) = 61.51698 62.51167 62.01432
# Shear Modulus (GPa) = 14.65670 23.21039 18.93355
#
# Velocity S-wave (km/s) = 2.68494 3.37876 3.05163
# Velocity P-wave (km/s) = 6.31418 6.77994 6.55120
#
# Compressibility (1/GPa) = 0.01625567
#
# Stress axis : x y z
#
# Youngs Moduli (GPa) = 59.65200 92.25111 100.21496
#
# Poissons Ratio (x) = 0.50026 0.40662
# Poissons Ratio (y) = 0.32348 0.11856
# Poissons Ratio (z) = 0.24204 0.10914
#
# Static dielectric constant tensor:
#      x y z
#    x 3.382270 0.000000 0.000000 
#    y 0.000000 3.831030 0.000000 
#    z 0.000000 0.000000 3.988920 
# 
# 
# High freq. dielectric constant tensor:
#      x y z
#    x 1.762430 0.000000 0.000000 
#    y 0.000000 1.808430 0.000000 
#    z 0.000000 0.000000 1.808930 
# 
# From -- ./inp_files/13127.got.cif
#   From: 2010.03.12/outbox.cif.g09.slc.cpg/sg40_7_cif.got.tgz:13127.got - 2010.04.14 01:38:03.
