data_PCOD8183886
_publ_section_title
;
Structure prediction by ZEFSAII (Michael W. Deem and Ramdas Pophale) SiO2 
 PCOD8183886
Probable space group: A M A 2
;
_chemical_formula_sum "Si O2"
_cell_formula_units_Z 64
_cell_length_a 8.547306
_cell_length_b 33.287569
_cell_length_c 11.472018
_cell_angle_alpha 90.000000
_cell_angle_beta 90.000000
_cell_angle_gamma 90.000000
_cell_volume 3264.007528
_symmetry_space_group_name_H-M "A M A 2"
_symmetry_group_IT_number 40
_symmetry_cell_setting 'orthorhombic'
loop_
_space_group_symop_operation_xyz
x,y,z
-x,-y,z
1/2-x,y,z
1/2+x,-y,z
x,1/2+y,1/2+z
-x,1/2-y,1/2+z
1/2-x,1/2+y,1/2+z
1/2+x,1/2-y,1/2+z
loop_
_atom_site_type_symbol
_atom_site_label
_atom_site_fract_x
_atom_site_fract_y
_atom_site_fract_z
Si Si1 0.936082 0.956277 0.656570
Si Si2 0.068446 0.725102 0.650354
Si Si3 0.928045 0.350909 0.497887
Si Si4 0.070020 0.691222 0.094342
Si Si5 0.567273 0.458432 0.893949
Si Si6 0.067434 0.876266 0.759420
Si Si7 0.072205 0.815506 0.355191
Si Si8 0.571174 0.386913 0.734301
O O1 0.750000 0.956128 0.668486
O O2 0.993638 0.947029 0.523795
O O3 0.005178 0.921409 0.738672
O O4 0.000000 0.000000 0.696165
O O5 0.250000 0.718353 0.677014
O O6 0.016840 0.691743 0.554391
O O7 0.037355 0.769605 0.606056
O O8 0.976261 0.721716 0.772900
O O9 0.750000 0.346960 0.451929
O O10 0.939266 0.386770 0.593754
O O11 0.040075 0.362996 0.392382
O O12 0.250000 0.702025 0.117529
O O13 0.021317 0.655052 0.177429
O O14 0.044824 0.677690 0.962173
O O15 0.500000 0.500000 0.849942
O O16 0.750000 0.462551 0.902671
O O17 0.515088 0.427926 0.793356
O O18 0.250000 0.874606 0.731086
O O19 0.250000 0.810046 0.398071
O O20 0.052987 0.854528 0.276585
O O21 0.750000 0.376425 0.771959
#
# Coordination Sequence:
#
# PCOD8183886 Si02
#       8
#     8   8   8   8   8   8   8   8
#     4  10  20  37  61  89 123 159 198 245 305 364
#     4  10  22  41  62  85 115 152 196 243 296 354
#     4   9  20  39  61  82 114 157 199 244 297 355
#     4  12  25  40  60  85 117 154 196 246 298 353
#     4   9  18  32  55  86 117 148 183 233 291 349
#     4  12  25  40  60  88 120 156 205 254 304 365
#     4  11  22  37  58  85 114 146 187 234 290 348
#     4   9  18  36  59  82 112 152 194 235 284 344
#
# _framework density 19.607797999999999
#
# number of rings (size 3 to 8) (size 9 to 14) (size 15 to 20)
#    0.000    1.750    0.000    5.625    1.750    4.500 
#    0.000    0.625    0.000    1.500    0.000    0.000 
#    0.000    0.000    0.000    0.000    0.000    0.000 
#
# Total GULP energy -396757.996982 kJ/mol
# GULP energy per Si atom -12398.687406 kJ/mol
# Density = 1.956317 g / cm^3
# Si number density = 19.607798 Si / 1000 Ang^3
#
#
#
# Elastic Constant Matrix: (Units=GPa)
#
#
# Indices 1 2 3 4 5 6 
#
# 1 68.4084 24.7988 23.3744 0.0000 0.0000 0.0000
# 2 24.7988 107.1947 44.2664 0.0000 0.0000 0.0000
# 3 23.3744 44.2664 98.4549 0.0000 0.0000 0.0000
# 4 0.0000 0.0000 0.0000 18.5645 0.0000 0.0000
# 5 0.0000 0.0000 0.0000 0.0000 29.0722 0.0000
# 6 0.0000 0.0000 0.0000 0.0000 0.0000 32.4693
#
#
#
# Elastic Compliance Matrix: (Units=1/GPa)
#
#
# Indices 1 2 3 4 5 6 
#
# 1 0.016523 -0.002705 -0.002707 0.000000 0.000000 0.000000
# 2 -0.002705 0.011899 -0.004708 0.000000 0.000000 0.000000
# 3 -0.002707 -0.004708 0.012916 0.000000 0.000000 0.000000
# 4 0.000000 0.000000 0.000000 0.053866 0.000000 0.000000
# 5 0.000000 0.000000 0.000000 0.000000 0.034397 0.000000
# 6 0.000000 0.000000 0.000000 0.000000 0.000000 0.030798
#
#
# Mechanical properties :
#
#
# Convention : Reuss Voigt Hill
#
# Bulk Modulus (GPa) = 47.39370 50.99306 49.19338
# Shear Modulus (GPa) = 26.64230 28.12909 27.38570
#
# Velocity S-wave (km/s) = 3.69014 3.79170 3.74126
# Velocity P-wave (km/s) = 6.50995 6.72550 6.61860
#
# Compressibility (1/GPa) = 0.02109985
#
# Stress axis : x y z
#
# Youngs Moduli (GPa) = 60.51993 84.04370 77.42259
#
# Poissons Ratio (x) = 0.22733 0.20956
# Poissons Ratio (y) = 0.16370 0.36447
# Poissons Ratio (z) = 0.16381 0.39564
#
# Static dielectric constant tensor:
#      x y z
#    x 3.475210 0.000000 0.000000 
#    y 0.000000 3.585390 0.000000 
#    z 0.000000 0.000000 3.668500 
# 
# 
# High freq. dielectric constant tensor:
#      x y z
#    x 1.765290 0.000000 0.000000 
#    y 0.000000 1.760600 0.000000 
#    z 0.000000 0.000000 1.761070 
# 
# From -- ./inp_files/10567.got.cif
#   From: 2010.03.12/outbox.cif.g09.slc.cpg/sg40_6_cif.got.tgz:10567.got - 2010.04.14 01:38:03.
