data_PCOD8183046
_publ_section_title
;
Structure prediction by ZEFSAII (Michael W. Deem and Ramdas Pophale) SiO2 
 PCOD8183046
Probable space group: A M A 2
;
_chemical_formula_sum "Si O2"
_cell_formula_units_Z 64
_cell_length_a 8.945871
_cell_length_b 18.531437
_cell_length_c 20.797176
_cell_angle_alpha 90.000000
_cell_angle_beta 90.000000
_cell_angle_gamma 90.000000
_cell_volume 3447.752611
_symmetry_space_group_name_H-M "A M A 2"
_symmetry_group_IT_number 40
_symmetry_cell_setting 'orthorhombic'
loop_
_space_group_symop_operation_xyz
x,y,z
-x,-y,z
1/2-x,y,z
1/2+x,-y,z
x,1/2+y,1/2+z
-x,1/2-y,1/2+z
1/2-x,1/2+y,1/2+z
1/2+x,1/2-y,1/2+z
loop_
_atom_site_type_symbol
_atom_site_label
_atom_site_fract_x
_atom_site_fract_y
_atom_site_fract_z
Si Si1 0.421908 0.182012 0.868060
Si Si2 0.079083 0.156074 0.220165
Si Si3 0.574273 0.423648 0.984392
Si Si4 0.926889 0.076193 0.965739
Si Si5 0.924050 0.334868 0.860804
Si Si6 0.078301 0.684470 0.089074
Si Si7 0.581164 0.801841 0.727864
Si Si8 0.573487 0.652686 0.594169
O O1 0.250000 0.177002 0.890789
O O2 0.525061 0.133053 0.912090
O O3 0.474419 0.264700 0.871950
O O4 0.438494 0.153280 0.793939
O O5 0.250000 0.144519 0.201652
O O6 0.043007 0.125959 0.291908
O O7 0.042969 0.240408 0.225956
O O8 0.985223 0.119862 0.162083
O O9 0.500000 0.500000 0.994409
O O10 0.750000 0.433027 0.994005
O O11 0.533933 0.393189 0.914388
O O12 0.503318 0.369512 0.037953
O O13 0.750000 0.068173 0.963706
O O14 0.983382 0.103658 0.035365
O O15 0.000000 0.000000 0.949992
O O16 0.750000 0.311442 0.865085
O O17 0.250000 0.691184 0.068791
O O18 0.059563 0.652300 0.161911
O O19 0.010205 0.765639 0.084951
O O20 0.750000 0.767930 0.726521
O O21 0.750000 0.653169 0.597201
#
# Coordination Sequence:
#
# PCOD8183046 Si02
#       8
#     8   8   8   8   8   8   8   8
#     4  10  19  32  54  81 105 131 167 211 254 301
#     4   9  16  27  48  77 104 127 159 208 254 294
#     4  10  20  34  50  69  98 135 172 209 248 292
#     4  11  23  38  54  73 102 138 174 213 258 309
#     4   9  18  33  52  75 104 137 170 206 253 304
#     4   8  14  29  53  74  94 126 165 201 242 295
#     4   8  15  29  49  74 103 132 164 202 248 303
#     4   9  18  34  55  75  96 128 166 204 253 310
#
# _framework density 18.562816000000002
#
# number of rings (size 3 to 8) (size 9 to 14) (size 15 to 20)
#    0.000    2.750    0.000    2.625    0.000    4.500 
#    0.000    3.750    0.000    4.500    0.000    0.000 
#    0.000    0.000    0.000    0.000    0.000    0.000 
#
# Total GULP energy -396527.907000 kJ/mol
# GULP energy per Si atom -12391.497094 kJ/mol
# Density = 1.852057 g / cm^3
# Si number density = 18.562816 Si / 1000 Ang^3
#
#
#
# Elastic Constant Matrix: (Units=GPa)
#
#
# Indices 1 2 3 4 5 6 
#
# 1 36.7613 11.9068 21.9832 0.0000 0.0000 0.0000
# 2 11.9068 33.1573 5.6678 0.0000 0.0000 0.0000
# 3 21.9832 5.6678 99.9361 0.0000 0.0000 0.0000
# 4 0.0000 0.0000 0.0000 5.7080 0.0000 0.0000
# 5 0.0000 0.0000 0.0000 0.0000 26.5844 0.0000
# 6 0.0000 0.0000 0.0000 0.0000 0.0000 22.3819
#
#
#
# Elastic Compliance Matrix: (Units=1/GPa)
#
#
# Indices 1 2 3 4 5 6 
#
# 1 0.035131 -0.011405 -0.007081 0.000000 0.000000 0.000000
# 2 -0.011405 0.034157 0.000572 0.000000 0.000000 0.000000
# 3 -0.007081 0.000572 0.011532 0.000000 0.000000 0.000000
# 4 0.000000 0.000000 0.000000 0.175193 0.000000 0.000000
# 5 0.000000 0.000000 0.000000 0.000000 0.037616 0.000000
# 6 0.000000 0.000000 0.000000 0.000000 0.000000 0.044679
#
#
# Mechanical properties :
#
#
# Convention : Reuss Voigt Hill
#
# Bulk Modulus (GPa) = 22.22682 27.66335 24.94508
# Shear Modulus (GPa) = 12.84903 19.62132 16.23518
#
# Velocity S-wave (km/s) = 2.63381 3.25472 2.96058
# Velocity P-wave (km/s) = 4.60967 5.39065 5.01539
#
# Compressibility (1/GPa) = 0.04499070
#
# Stress axis : x y z
#
# Youngs Moduli (GPa) = 28.46486 29.27638 86.71825
#
# Poissons Ratio (x) = 0.33390 0.61405
# Poissons Ratio (y) = 0.32465 -0.04957
# Poissons Ratio (z) = 0.20156 -0.01674
#
# Static dielectric constant tensor:
#      x y z
#    x 3.283510 0.000000 0.000000 
#    y 0.000000 3.057650 0.000000 
#    z 0.000000 0.000000 3.983260 
# 
# 
# High freq. dielectric constant tensor:
#      x y z
#    x 1.707520 0.000000 0.000000 
#    y 0.000000 1.671570 0.000000 
#    z 0.000000 0.000000 1.748240 
# 
# From -- ./inp_files/22375.got.cif
#   From: 2010.03.12/outbox.cif.g09.slc.cpg/sg40_12_cif.got.tgz:22375.got - 2010.04.14 01:38:03.
