data_PCOD8183301
_publ_section_title
;
Structure prediction by ZEFSAII (Michael W. Deem and Ramdas Pophale) SiO2 
 PCOD8183301
Probable space group: A M A 2
;
_chemical_formula_sum "Si O2"
_cell_formula_units_Z 64
_cell_length_a 8.639287
_cell_length_b 33.120794
_cell_length_c 11.739882
_cell_angle_alpha 90.000000
_cell_angle_beta 90.000000
_cell_angle_gamma 90.000000
_cell_volume 3359.250364
_symmetry_space_group_name_H-M "A M A 2"
_symmetry_group_IT_number 40
_symmetry_cell_setting 'orthorhombic'
loop_
_space_group_symop_operation_xyz
x,y,z
-x,-y,z
1/2-x,y,z
1/2+x,-y,z
x,1/2+y,1/2+z
-x,1/2-y,1/2+z
1/2-x,1/2+y,1/2+z
1/2+x,1/2-y,1/2+z
loop_
_atom_site_type_symbol
_atom_site_label
_atom_site_fract_x
_atom_site_fract_y
_atom_site_fract_z
Si Si1 0.928495 0.181760 0.139490
Si Si2 0.932654 0.310600 0.397826
Si Si3 0.430254 0.956447 0.102414
Si Si4 0.572415 0.891456 0.251036
Si Si5 0.072125 0.646743 0.979133
Si Si6 0.429964 0.455566 0.344521
Si Si7 0.566959 0.275703 0.842125
Si Si8 0.565840 0.378903 0.223138
O O1 0.750000 0.194197 0.130610
O O2 0.947864 0.138806 0.198537
O O3 0.018597 0.215460 0.212080
O O4 0.001245 0.175789 0.017141
O O5 0.750000 0.310105 0.400972
O O6 0.992237 0.343118 0.305771
O O7 0.991640 0.266107 0.373892
O O8 0.250000 0.955846 0.134726
O O9 0.530218 0.934270 0.198809
O O10 0.500000 0.000000 0.105893
O O11 0.457787 0.939909 0.974159
O O12 0.750000 0.879342 0.220393
O O13 0.551980 0.889746 0.387994
O O14 0.250000 0.655677 0.004746
O O15 0.003622 0.688644 0.926241
O O16 0.996214 0.632728 0.098314
O O17 0.500000 0.500000 0.323093
O O18 0.250000 0.459219 0.317799
O O19 0.502640 0.422472 0.260566
O O20 0.750000 0.272449 0.849915
O O21 0.750000 0.382241 0.221749
#
# Coordination Sequence:
#
# PCOD8183301 Si02
#       8
#     8   8   8   8   8   8   8   8
#     4  11  22  37  56  78 109 147 188 232 282 337
#     4  11  23  36  56  86 116 148 190 238 290 348
#     4  10  20  34  55  84 116 146 182 229 285 344
#     4  10  19  35  58  81 109 143 185 232 282 340
#     4   8  18  37  58  79 108 150 189 230 285 342
#     4  10  21  37  58  85 116 149 187 233 287 342
#     4  10  21  38  59  82 112 148 190 240 294 346
#     4  10  21  38  59  83 114 151 192 236 286 347
#
# _framework density 19.051867999999999
#
# number of rings (size 3 to 8) (size 9 to 14) (size 15 to 20)
#    0.000    2.000    0.000    4.500    1.750    4.500 
#    0.000    4.375    0.000    0.000    0.000    0.000 
#    0.000    0.000    0.000    0.000    0.000    0.000 
#
# Total GULP energy -396687.883474 kJ/mol
# GULP energy per Si atom -12396.496359 kJ/mol
# Density = 1.900851 g / cm^3
# Si number density = 19.051868 Si / 1000 Ang^3
#
#
#
# Elastic Constant Matrix: (Units=GPa)
#
#
# Indices 1 2 3 4 5 6 
#
# 1 64.9128 33.4165 42.5617 0.0000 0.0000 0.0000
# 2 33.4165 88.3916 63.5627 0.0000 0.0000 0.0000
# 3 42.5617 63.5627 149.3392 0.0000 0.0000 0.0000
# 4 0.0000 0.0000 0.0000 41.9640 0.0000 0.0000
# 5 0.0000 0.0000 0.0000 0.0000 15.0627 0.0000
# 6 0.0000 0.0000 0.0000 0.0000 0.0000 34.8436
#
#
#
# Elastic Compliance Matrix: (Units=1/GPa)
#
#
# Indices 1 2 3 4 5 6 
#
# 1 0.020422 -0.005095 -0.003652 0.000000 0.000000 0.000000
# 2 -0.005095 0.017574 -0.006028 0.000000 0.000000 0.000000
# 3 -0.003652 -0.006028 0.010303 0.000000 0.000000 0.000000
# 4 0.000000 0.000000 0.000000 0.023830 0.000000 0.000000
# 5 0.000000 0.000000 0.000000 0.000000 0.066389 0.000000
# 6 0.000000 0.000000 0.000000 0.000000 0.000000 0.028700
#
#
# Mechanical properties :
#
#
# Convention : Reuss Voigt Hill
#
# Bulk Modulus (GPa) = 53.33339 64.63617 58.98478
# Shear Modulus (GPa) = 24.62844 29.24757 26.93800
#
# Velocity S-wave (km/s) = 3.59932 3.92236 3.76431
# Velocity P-wave (km/s) = 6.73261 7.38331 7.06545
#
# Compressibility (1/GPa) = 0.01874998
#
# Stress axis : x y z
#
# Youngs Moduli (GPa) = 48.96578 56.90198 97.06199
#
# Poissons Ratio (x) = 0.28989 0.35447
# Poissons Ratio (y) = 0.24946 0.58510
# Poissons Ratio (z) = 0.17882 0.34301
#
# Static dielectric constant tensor:
#      x y z
#    x 3.903860 0.000000 0.000000 
#    y 0.000000 3.520870 0.000000 
#    z 0.000000 0.000000 3.948400 
# 
# 
# High freq. dielectric constant tensor:
#      x y z
#    x 1.737210 0.000000 0.000000 
#    y 0.000000 1.739130 0.000000 
#    z 0.000000 0.000000 1.743530 
# 
# From -- ./inp_files/10662.got.cif
#   From: 2010.03.12/outbox.cif.g09.slc.cpg/sg40_6_cif.got.tgz:10662.got - 2010.04.14 01:38:03.
