data_PCOD8183981
_publ_section_title
;
Structure prediction by ZEFSAII (Michael W. Deem and Ramdas Pophale) SiO2 
 PCOD8183981
Probable space group: A M A 2
;
_chemical_formula_sum "Si O2"
_cell_formula_units_Z 48
_cell_length_a 13.677307
_cell_length_b 27.194964
_cell_length_c 6.547212
_cell_angle_alpha 90.000000
_cell_angle_beta 90.000000
_cell_angle_gamma 90.000000
_cell_volume 2435.260851
_symmetry_space_group_name_H-M "A M A 2"
_symmetry_group_IT_number 40
_symmetry_cell_setting 'orthorhombic'
loop_
_space_group_symop_operation_xyz
x,y,z
-x,-y,z
1/2-x,y,z
1/2+x,-y,z
x,1/2+y,1/2+z
-x,1/2-y,1/2+z
1/2-x,1/2+y,1/2+z
1/2+x,1/2-y,1/2+z
loop_
_atom_site_type_symbol
_atom_site_label
_atom_site_fract_x
_atom_site_fract_y
_atom_site_fract_z
Si Si1 0.489247 0.115421 0.916410
Si Si2 0.010714 0.557315 0.804055
Si Si3 0.864282 0.872679 0.534260
Si Si4 0.463884 0.700459 0.726921
Si Si5 0.859955 0.612617 0.073811
Si Si6 0.141777 0.774160 0.462148
O O1 0.395827 0.124223 0.770585
O O2 0.585897 0.102997 0.787404
O O3 0.473668 0.068687 0.064510
O O4 0.501082 0.163931 0.051876
O O5 0.000000 0.500000 0.841667
O O6 0.914614 0.585452 0.887924
O O7 0.106425 0.576067 0.925925
O O8 0.750000 0.863575 0.518622
O O9 0.921555 0.828525 0.422078
O O10 0.380888 0.737441 0.648614
O O11 0.559047 0.732591 0.789220
O O12 0.750000 0.591877 0.088016
O O13 0.860512 0.670450 0.039388
O O14 0.250000 0.761296 0.375766
#
# Coordination Sequence:
#
# PCOD8183981 Si02
#       6
#     8   8   8   8   8   8
#     4  10  20  39  61  89 120 161 202 260 304 370
#     4  10  22  41  63  88 123 162 202 260 316 367
#     4  10  22  41  63  88 122 166 208 258 315 373
#     4  11  22  41  60  91 132 161 210 261 305 374
#     4  10  21  40  61  88 121 159 203 250 306 370
#     4  11  22  38  63  90 123 167 206 249 312 372
#
# _framework density 19.710412999999999
#
# number of rings (size 3 to 8) (size 9 to 14) (size 15 to 20)
#    0.000    1.667    5.000    1.500    0.000    8.000 
#    0.000    0.833    0.000    0.000    0.000    0.000 
#    0.000    0.000    0.000    0.000    0.000    0.000 
#
# Total GULP energy -297586.025131 kJ/mol
# GULP energy per Si atom -12399.417714 kJ/mol
# Density = 1.966555 g / cm^3
# Si number density = 19.710413 Si / 1000 Ang^3
#
#
#
# Elastic Constant Matrix: (Units=GPa)
#
#
# Indices 1 2 3 4 5 6 
#
# 1 164.2805 25.1556 48.5782 0.0000 0.0000 0.0000
# 2 25.1556 98.8322 30.9173 0.0000 0.0000 0.0000
# 3 48.5782 30.9173 115.2410 0.0000 0.0000 0.0000
# 4 0.0000 0.0000 0.0000 19.5340 0.0000 0.0000
# 5 0.0000 0.0000 0.0000 0.0000 21.7596 0.0000
# 6 0.0000 0.0000 0.0000 0.0000 0.0000 15.2835
#
#
#
# Elastic Compliance Matrix: (Units=1/GPa)
#
#
# Indices 1 2 3 4 5 6 
#
# 1 0.007033 -0.000942 -0.002712 0.000000 0.000000 0.000000
# 2 -0.000942 0.011171 -0.002600 0.000000 0.000000 0.000000
# 3 -0.002712 -0.002600 0.010518 0.000000 0.000000 0.000000
# 4 0.000000 0.000000 0.000000 0.051193 0.000000 0.000000
# 5 0.000000 0.000000 0.000000 0.000000 0.045957 0.000000
# 6 0.000000 0.000000 0.000000 0.000000 0.000000 0.065430
#
#
# Mechanical properties :
#
#
# Convention : Reuss Voigt Hill
#
# Bulk Modulus (GPa) = 61.67162 65.29509 63.48335
# Shear Modulus (GPa) = 23.89880 29.56225 26.73053
#
# Velocity S-wave (km/s) = 3.48587 3.87696 3.68661
# Velocity P-wave (km/s) = 6.89627 7.29659 7.09925
#
# Compressibility (1/GPa) = 0.01621491
#
# Stress axis : x y z
#
# Youngs Moduli (GPa) = 142.17981 89.51567 95.07243
#
# Poissons Ratio (x) = 0.08430 0.25785
# Poissons Ratio (y) = 0.13390 0.24720
# Poissons Ratio (z) = 0.38561 0.23275
#
# Static dielectric constant tensor:
#      x y z
#    x 3.856060 0.000000 0.000000 
#    y 0.000000 3.522090 0.000000 
#    z 0.000000 0.000000 3.673420 
# 
# 
# High freq. dielectric constant tensor:
#      x y z
#    x 1.768120 0.000000 0.000000 
#    y 0.000000 1.758280 0.000000 
#    z 0.000000 0.000000 1.771740 
# 
# From -- ./inp_files/1336.got.cif
#   From: 2010.03.12/outbox.cif.g09.slc.cpg/sg40_1_cif.got.tgz:1336.got - 2010.04.14 01:38:03.
