data_PCOD8183171
_publ_section_title
;
Structure prediction by ZEFSAII (Michael W. Deem and Ramdas Pophale) SiO2 
 PCOD8183171
Probable space group: A M A 2
;
_chemical_formula_sum "Si O2"
_cell_formula_units_Z 64
_cell_length_a 8.536107
_cell_length_b 33.408150
_cell_length_c 11.488268
_cell_angle_alpha 90.000000
_cell_angle_beta 90.000000
_cell_angle_gamma 90.000000
_cell_volume 3276.173066
_symmetry_space_group_name_H-M "A M A 2"
_symmetry_group_IT_number 40
_symmetry_cell_setting 'orthorhombic'
loop_
_space_group_symop_operation_xyz
x,y,z
-x,-y,z
1/2-x,y,z
1/2+x,-y,z
x,1/2+y,1/2+z
-x,1/2-y,1/2+z
1/2-x,1/2+y,1/2+z
1/2+x,1/2-y,1/2+z
loop_
_atom_site_type_symbol
_atom_site_label
_atom_site_fract_x
_atom_site_fract_y
_atom_site_fract_z
Si Si1 0.434538 0.542867 0.550150
Si Si2 0.432980 0.625137 0.929375
Si Si3 0.566722 0.456722 0.815541
Si Si4 0.571600 0.147721 0.669753
Si Si5 0.568114 0.223110 0.820852
Si Si6 0.070165 0.806775 0.268184
Si Si7 0.572271 0.111061 0.907380
Si Si8 0.428278 0.682383 0.529049
O O1 0.500000 0.500000 0.521988
O O2 0.250000 0.545997 0.529404
O O3 0.479423 0.554460 0.682825
O O4 0.528346 0.568156 0.455573
O O5 0.250000 0.628647 0.900218
O O6 0.493571 0.580257 0.895834
O O7 0.523763 0.658246 0.855769
O O8 0.461030 0.634209 0.064652
O O9 0.500000 0.500000 0.854618
O O10 0.750000 0.461537 0.828037
O O11 0.750000 0.151373 0.624378
O O12 0.515392 0.190596 0.723209
O O13 0.556922 0.113190 0.767563
O O14 0.750000 0.215962 0.846807
O O15 0.537699 0.267766 0.779546
O O16 0.475487 0.218131 0.942116
O O17 0.250000 0.795226 0.289370
O O18 0.044139 0.821323 0.137539
O O19 0.750000 0.122739 0.942702
O O20 0.446327 0.141142 0.960975
O O21 0.250000 0.688188 0.570867
#
# Coordination Sequence:
#
# PCOD8183171 Si02
#       8
#     8   8   8   8   8   8   8   8
#     4  10  19  33  56  86 119 151 189 240 299 358
#     4  11  23  39  60  88 120 155 200 249 299 357
#     4   9  20  37  58  86 118 153 191 240 297 354
#     4   9  21  40  60  82 114 154 197 243 294 353
#     4  10  22  41  61  83 114 151 195 245 297 351
#     4  12  25  39  59  86 117 154 196 241 295 351
#     4  10  20  37  59  83 113 150 193 238 288 349
#     4  11  22  38  59  84 113 146 188 236 290 347
#
# _framework density 19.534987999999998
#
# number of rings (size 3 to 8) (size 9 to 14) (size 15 to 20)
#    0.000    1.750    0.000    5.250    1.750    5.500 
#    0.000    0.625    0.000    1.500    0.000    0.000 
#    0.000    0.000    0.000    0.000    0.000    0.000 
#
# Total GULP energy -396788.033373 kJ/mol
# GULP energy per Si atom -12399.626043 kJ/mol
# Density = 1.949053 g / cm^3
# Si number density = 19.534988 Si / 1000 Ang^3
#
#
#
# Elastic Constant Matrix: (Units=GPa)
#
#
# Indices 1 2 3 4 5 6 
#
# 1 68.4765 33.0671 27.4737 0.0000 0.0000 0.0000
# 2 33.0671 121.4855 56.8177 0.0000 0.0000 0.0000
# 3 27.4737 56.8177 104.8437 0.0000 0.0000 0.0000
# 4 0.0000 0.0000 0.0000 17.9127 0.0000 0.0000
# 5 0.0000 0.0000 0.0000 0.0000 30.7813 0.0000
# 6 0.0000 0.0000 0.0000 0.0000 0.0000 32.1525
#
#
#
# Elastic Compliance Matrix: (Units=1/GPa)
#
#
# Indices 1 2 3 4 5 6 
#
# 1 0.017351 -0.003478 -0.002662 0.000000 0.000000 0.000000
# 2 -0.003478 0.011723 -0.005442 0.000000 0.000000 0.000000
# 3 -0.002662 -0.005442 0.013185 0.000000 0.000000 0.000000
# 4 0.000000 0.000000 0.000000 0.055826 0.000000 0.000000
# 5 0.000000 0.000000 0.000000 0.000000 0.032487 0.000000
# 6 0.000000 0.000000 0.000000 0.000000 0.000000 0.031102
#
#
# Mechanical properties :
#
#
# Convention : Reuss Voigt Hill
#
# Bulk Modulus (GPa) = 52.36799 58.83585 55.60192
# Shear Modulus (GPa) = 26.15032 27.99913 27.07473
#
# Velocity S-wave (km/s) = 3.66271 3.78998 3.72689
# Velocity P-wave (km/s) = 6.68975 7.02392 6.85887
#
# Compressibility (1/GPa) = 0.01909563
#
# Stress axis : x y z
#
# Youngs Moduli (GPa) = 57.63358 85.30169 75.84599
#
# Poissons Ratio (x) = 0.29666 0.20191
# Poissons Ratio (y) = 0.20044 0.41273
# Poissons Ratio (z) = 0.15342 0.46419
#
# Static dielectric constant tensor:
#      x y z
#    x 3.525150 0.000000 0.000000 
#    y 0.000000 3.609910 0.000000 
#    z 0.000000 0.000000 3.612610 
# 
# 
# High freq. dielectric constant tensor:
#      x y z
#    x 1.765600 0.000000 0.000000 
#    y 0.000000 1.761350 0.000000 
#    z 0.000000 0.000000 1.755960 
# 
# From -- ./inp_files/10598.got.cif
#   From: 2010.03.12/outbox.cif.g09.slc.cpg/sg40_6_cif.got.tgz:10598.got - 2010.04.14 01:38:03.
