data_PCOD8183708
_publ_section_title
;
Structure prediction by ZEFSAII (Michael W. Deem and Ramdas Pophale) SiO2 
 PCOD8183708
Probable space group: A M A 2
;
_chemical_formula_sum "Si O2"
_cell_formula_units_Z 64
_cell_length_a 14.630281
_cell_length_b 9.150456
_cell_length_c 23.397064
_cell_angle_alpha 90.000000
_cell_angle_beta 90.000000
_cell_angle_gamma 90.000000
_cell_volume 3132.252523
_symmetry_space_group_name_H-M "A M A 2"
_symmetry_group_IT_number 40
_symmetry_cell_setting 'orthorhombic'
loop_
_space_group_symop_operation_xyz
x,y,z
-x,-y,z
1/2-x,y,z
1/2+x,-y,z
x,1/2+y,1/2+z
-x,1/2-y,1/2+z
1/2-x,1/2+y,1/2+z
1/2+x,1/2-y,1/2+z
loop_
_atom_site_type_symbol
_atom_site_label
_atom_site_fract_x
_atom_site_fract_y
_atom_site_fract_z
Si Si1 0.855144 0.541589 0.331050
Si Si2 0.903457 0.421594 0.666212
Si Si3 0.650299 0.155718 0.250640
Si Si4 0.022317 0.837881 0.478241
Si Si5 0.646569 0.716383 0.871235
Si Si6 0.025293 0.847596 0.725862
Si Si7 0.403745 0.579375 0.540330
Si Si8 0.149910 0.846510 0.955024
O O1 0.750000 0.560575 0.311519
O O2 0.878613 0.372722 0.343225
O O3 0.922565 0.611284 0.284453
O O4 0.875337 0.623305 0.389895
O O5 0.844979 0.509857 0.712405
O O6 0.911030 0.253017 0.686148
O O7 0.857145 0.425584 0.603159
O O8 0.000000 0.500000 0.662605
O O9 0.750000 0.234297 0.243712
O O10 0.639199 0.105785 0.317107
O O11 0.570390 0.265593 0.234331
O O12 0.073247 0.836327 0.417375
O O13 0.085111 0.749714 0.523048
O O14 0.923361 0.764858 0.478329
O O15 0.000000 0.000000 0.499564
O O16 0.750000 0.717864 0.897009
O O17 0.000000 0.000000 0.694150
O O18 0.500000 0.500000 0.542628
O O19 0.345639 0.497300 0.491641
O O20 0.250000 0.773688 0.959499
#
# Coordination Sequence:
#
# PCOD8183708 Si02
#       8
#     8   8   8   8   8   8   8   8
#     4  10  20  35  58  88 120 156 205 252 296 359
#     4   9  21  39  57  83 113 156 203 246 294 358
#     4  10  21  37  56  82 120 162 201 248 303 362
#     4  11  23  36  59  92 123 159 191 252 317 370
#     4  10  20  36  58  86 124 164 201 246 304 367
#     4  11  21  34  59  86 119 157 198 251 306 363
#     4   9  19  39  62  80 111 154 206 247 290 354
#     4  10  21  37  61  88 116 158 207 250 294 359
#
# _framework density 20.432579
#
# number of rings (size 3 to 8) (size 9 to 14) (size 15 to 20)
#    0.000    2.000    2.500    0.750    0.000    4.500 
#    0.000    2.500    0.000    0.000    0.000    1.750 
#    0.000    0.000    0.000    0.000    0.000    0.000 
#
# Total GULP energy -396535.273171 kJ/mol
# GULP energy per Si atom -12391.727287 kJ/mol
# Density = 2.038607 g / cm^3
# Si number density = 20.432579 Si / 1000 Ang^3
#
#
#
# Elastic Constant Matrix: (Units=GPa)
#
#
# Indices 1 2 3 4 5 6 
#
# 1 75.9697 23.6239 24.6478 0.0000 0.0000 0.0000
# 2 23.6239 119.1088 41.4549 0.0000 0.0000 0.0000
# 3 24.6478 41.4549 91.8199 0.0000 0.0000 0.0000
# 4 0.0000 0.0000 0.0000 28.8687 0.0000 0.0000
# 5 0.0000 0.0000 0.0000 0.0000 4.6865 0.0000
# 6 0.0000 0.0000 0.0000 0.0000 0.0000 20.4201
#
#
#
# Elastic Compliance Matrix: (Units=1/GPa)
#
#
# Indices 1 2 3 4 5 6 
#
# 1 0.014750 -0.001836 -0.003130 0.000000 0.000000 0.000000
# 2 -0.001836 0.010189 -0.004107 0.000000 0.000000 0.000000
# 3 -0.003130 -0.004107 0.013586 0.000000 0.000000 0.000000
# 4 0.000000 0.000000 0.000000 0.034640 0.000000 0.000000
# 5 0.000000 0.000000 0.000000 0.000000 0.213379 0.000000
# 6 0.000000 0.000000 0.000000 0.000000 0.000000 0.048971
#
#
# Mechanical properties :
#
#
# Convention : Reuss Voigt Hill
#
# Bulk Modulus (GPa) = 49.07486 51.81682 50.44584
# Shear Modulus (GPa) = 13.87135 23.93985 18.90560
#
# Velocity S-wave (km/s) = 2.60837 3.42665 3.04512
# Velocity P-wave (km/s) = 5.75687 6.40866 6.09149
#
# Compressibility (1/GPa) = 0.02037703
#
# Stress axis : x y z
#
# Youngs Moduli (GPa) = 67.79795 98.14127 73.60694
#
# Poissons Ratio (x) = 0.18018 0.23043
# Poissons Ratio (y) = 0.12447 0.30234
# Poissons Ratio (z) = 0.21224 0.40311
#
# Static dielectric constant tensor:
#      x y z
#    x 3.692420 0.000000 0.000000 
#    y 0.000000 3.700210 0.000000 
#    z 0.000000 0.000000 4.094350 
# 
# 
# High freq. dielectric constant tensor:
#      x y z
#    x 1.802520 0.000000 0.000000 
#    y 0.000000 1.779250 0.000000 
#    z 0.000000 0.000000 1.790360 
# 
# From -- ./inp_files/24811.got.cif
#   From: 2010.03.12/outbox.cif.g09.slc.cpg/sg40_13_cif.got.tgz:24811.got - 2010.04.14 01:38:03.
