data_PCOD8183189
_publ_section_title
;
Structure prediction by ZEFSAII (Michael W. Deem and Ramdas Pophale) SiO2 
 PCOD8183189
Probable space group: A M A 2
;
_chemical_formula_sum "Si O2"
_cell_formula_units_Z 52
_cell_length_a 15.909251
_cell_length_b 9.691126
_cell_length_c 16.761108
_cell_angle_alpha 90.000000
_cell_angle_beta 90.000000
_cell_angle_gamma 90.000000
_cell_volume 2584.203429
_symmetry_space_group_name_H-M "A M A 2"
_symmetry_group_IT_number 40
_symmetry_cell_setting 'orthorhombic'
loop_
_space_group_symop_operation_xyz
x,y,z
-x,-y,z
1/2-x,y,z
1/2+x,-y,z
x,1/2+y,1/2+z
-x,1/2-y,1/2+z
1/2-x,1/2+y,1/2+z
1/2+x,1/2-y,1/2+z
loop_
_atom_site_type_symbol
_atom_site_label
_atom_site_fract_x
_atom_site_fract_y
_atom_site_fract_z
Si Si1 0.845855 0.670246 0.401180
Si Si2 0.571178 0.824886 0.742963
Si Si3 0.654035 0.970944 0.454809
Si Si4 0.000000 0.000000 0.880419
Si Si5 0.655187 0.038340 0.625180
Si Si6 0.653109 0.053687 0.286869
Si Si7 0.892988 0.773349 0.226241
O O1 0.750000 0.608321 0.409820
O O2 0.853504 0.805585 0.455307
O O3 0.921845 0.567882 0.430319
O O4 0.860554 0.707594 0.308810
O O5 0.547265 0.884960 0.828624
O O6 0.601943 0.947308 0.686738
O O7 0.641106 0.706644 0.753146
O O8 0.489963 0.752955 0.706275
O O9 0.750000 0.020259 0.454354
O O10 0.613167 0.027752 0.536939
O O11 0.610164 0.034998 0.375064
O O12 0.750000 0.980013 0.622242
O O13 0.656687 0.197161 0.654733
O O14 0.750000 0.019337 0.296460
O O15 0.618189 0.938366 0.225758
#
# Coordination Sequence:
#
# PCOD8183189 Si02
#       7
#     8   8   8   4   8   8   8
#     4   9  16  32  55  79 111 150 191 241 285 336
#     4  11  20  34  52  84 115 141 187 239 277 333
#     4   8  18  34  56  84 110 143 192 232 282 345
#     4  10  20  32  54  84 118 144 202 238 282 348
#     4  11  19  33  59  84 110 147 190 235 282 342
#     4  10  20  36  59  83 109 145 186 232 286 341
#     4  10  19  34  53  81 113 149 186 230 282 344
#
# _framework density 20.122254999999999
#
# number of rings (size 3 to 8) (size 9 to 14) (size 15 to 20)
#    0.000    2.154    3.077    3.231    0.000    0.615 
#    0.000    9.231    6.769    0.000    0.000    0.000 
#    0.000    0.000    0.000    0.000    0.000    0.000 
#
# Total GULP energy -322180.612342 kJ/mol
# GULP energy per Si atom -12391.562013 kJ/mol
# Density = 2.007646 g / cm^3
# Si number density = 20.122255 Si / 1000 Ang^3
#
#
#
# Elastic Constant Matrix: (Units=GPa)
#
#
# Indices 1 2 3 4 5 6 
#
# 1 60.6871 12.1629 14.9226 0.0000 0.0000 0.0000
# 2 12.1629 101.2997 40.6150 0.0000 0.0000 0.0000
# 3 14.9226 40.6150 85.1694 0.0000 0.0000 0.0000
# 4 0.0000 0.0000 0.0000 27.2346 0.0000 0.0000
# 5 0.0000 0.0000 0.0000 0.0000 5.1913 0.0000
# 6 0.0000 0.0000 0.0000 0.0000 0.0000 32.6618
#
#
#
# Elastic Compliance Matrix: (Units=1/GPa)
#
#
# Indices 1 2 3 4 5 6 
#
# 1 0.017313 -0.001066 -0.002525 0.000000 0.000000 0.000000
# 2 -0.001066 0.012271 -0.005665 0.000000 0.000000 0.000000
# 3 -0.002525 -0.005665 0.014885 0.000000 0.000000 0.000000
# 4 0.000000 0.000000 0.000000 0.036718 0.000000 0.000000
# 5 0.000000 0.000000 0.000000 0.000000 0.192632 0.000000
# 6 0.000000 0.000000 0.000000 0.000000 0.000000 0.030617
#
#
# Mechanical properties :
#
#
# Convention : Reuss Voigt Hill
#
# Bulk Modulus (GPa) = 38.52598 42.50634 40.51616
# Shear Modulus (GPa) = 15.07844 24.98124 20.02984
#
# Velocity S-wave (km/s) = 2.74038 3.52728 3.15843
# Velocity P-wave (km/s) = 5.40374 6.14482 5.78616
#
# Compressibility (1/GPa) = 0.02595651
#
# Stress axis : x y z
#
# Youngs Moduli (GPa) = 57.76160 81.49288 67.18121
#
# Poissons Ratio (x) = 0.08690 0.16962
# Poissons Ratio (y) = 0.06160 0.38057
# Poissons Ratio (z) = 0.14584 0.46165
#
# Static dielectric constant tensor:
#      x y z
#    x 3.826780 0.000000 0.000000 
#    y 0.000000 3.629010 0.000000 
#    z 0.000000 0.000000 3.516920 
# 
# 
# High freq. dielectric constant tensor:
#      x y z
#    x 1.789180 0.000000 0.000000 
#    y 0.000000 1.775700 0.000000 
#    z 0.000000 0.000000 1.746450 
# 
# From -- ./inp_files/21055.got.cif
#   From: 2010.03.12/outbox.cif.g09.slc.cpg/sg40_11_cif.got.tgz:21055.got - 2010.04.14 01:38:03.
