data_PCOD8183662
_publ_section_title
;
Structure prediction by ZEFSAII (Michael W. Deem and Ramdas Pophale) SiO2 
 PCOD8183662
Probable space group: A M A 2
;
_chemical_formula_sum "Si O2"
_cell_formula_units_Z 48
_cell_length_a 8.731957
_cell_length_b 30.925065
_cell_length_c 9.115853
_cell_angle_alpha 90.000000
_cell_angle_beta 90.000000
_cell_angle_gamma 90.000000
_cell_volume 2461.611560
_symmetry_space_group_name_H-M "A M A 2"
_symmetry_group_IT_number 40
_symmetry_cell_setting 'orthorhombic'
loop_
_space_group_symop_operation_xyz
x,y,z
-x,-y,z
1/2-x,y,z
1/2+x,-y,z
x,1/2+y,1/2+z
-x,1/2-y,1/2+z
1/2-x,1/2+y,1/2+z
1/2+x,1/2-y,1/2+z
loop_
_atom_site_type_symbol
_atom_site_label
_atom_site_fract_x
_atom_site_fract_y
_atom_site_fract_z
Si Si1 0.928315 0.710773 0.822440
Si Si2 0.420765 0.042600 0.794299
Si Si3 0.070461 0.868433 0.815329
Si Si4 0.066879 0.136407 0.128983
Si Si5 0.572385 0.294982 0.133264
Si Si6 0.917173 0.958470 0.141425
O O1 0.750000 0.706651 0.861613
O O2 0.963748 0.752628 0.726604
O O3 0.981078 0.668874 0.734476
O O4 0.027881 0.715447 0.967577
O O5 0.250000 0.047833 0.728239
O O6 0.520559 0.084644 0.755484
O O7 0.500000 0.000000 0.724910
O O8 0.409419 0.036571 0.967586
O O9 0.250000 0.868607 0.849540
O O10 0.031267 0.834203 0.689660
O O11 0.979014 0.854678 0.961081
O O12 0.250000 0.140894 0.141074
O O13 0.008762 0.088318 0.177021
O O14 0.750000 0.308063 0.142434
O O15 0.750000 0.959199 0.211733
O O16 0.000000 0.000000 0.212257
#
# Coordination Sequence:
#
# PCOD8183662 Si02
#       6
#     8   8   8   8   8   8
#     4  11  24  40  60  85 110 141 183 227 275 333
#     4   9  16  28  47  75 110 146 185 228 275 324
#     4  11  21  34  55  83 114 148 188 232 277 327
#     4  10  20  35  55  81 114 149 185 227 278 330
#     4  11  24  41  60  82 111 145 180 224 278 334
#     4   8  15  26  44  72 105 141 179 220 264 312
#
# _framework density 19.499420000000001
#
# number of rings (size 3 to 8) (size 9 to 14) (size 15 to 20)
#    0.000    2.000    0.000    5.500    0.000   10.000 
#    0.000    0.000    0.000    1.000    0.000    4.667 
#    0.000    0.000    0.000    0.000    0.000    0.000 
#
# Total GULP energy -297583.219323 kJ/mol
# GULP energy per Si atom -12399.300805 kJ/mol
# Density = 1.945504 g / cm^3
# Si number density = 19.499420 Si / 1000 Ang^3
#
#
#
# Elastic Constant Matrix: (Units=GPa)
#
#
# Indices 1 2 3 4 5 6 
#
# 1 66.4748 46.5325 5.0971 0.0000 0.0000 0.0000
# 2 46.5325 143.1865 40.1628 0.0000 0.0000 0.0000
# 3 5.0971 40.1628 56.9348 0.0000 0.0000 0.0000
# 4 0.0000 0.0000 0.0000 24.5717 0.0000 0.0000
# 5 0.0000 0.0000 0.0000 0.0000 25.1693 0.0000
# 6 0.0000 0.0000 0.0000 0.0000 0.0000 35.4925
#
#
#
# Elastic Compliance Matrix: (Units=1/GPa)
#
#
# Indices 1 2 3 4 5 6 
#
# 1 0.020013 -0.007482 0.003486 0.000000 0.000000 0.000000
# 2 -0.007482 0.011504 -0.007445 0.000000 0.000000 0.000000
# 3 0.003486 -0.007445 0.022504 0.000000 0.000000 0.000000
# 4 0.000000 0.000000 0.000000 0.040697 0.000000 0.000000
# 5 0.000000 0.000000 0.000000 0.000000 0.039731 0.000000
# 6 0.000000 0.000000 0.000000 0.000000 0.000000 0.028175
#
#
# Mechanical properties :
#
#
# Convention : Reuss Voigt Hill
#
# Bulk Modulus (GPa) = 32.11399 50.02013 41.06706
# Shear Modulus (GPa) = 25.52525 28.70028 27.11277
#
# Velocity S-wave (km/s) = 3.62197 3.84064 3.73291
# Velocity P-wave (km/s) = 5.83065 6.73611 6.29967
#
# Compressibility (1/GPa) = 0.03113907
#
# Stress axis : x y z
#
# Youngs Moduli (GPa) = 49.96715 86.92977 44.43715
#
# Poissons Ratio (x) = 0.65038 -0.15491
# Poissons Ratio (y) = 0.37384 0.33083
# Poissons Ratio (z) = -0.17418 0.64719
#
# Static dielectric constant tensor:
#      x y z
#    x 3.725100 0.000000 0.000000 
#    y 0.000000 3.867050 0.000000 
#    z 0.000000 0.000000 3.116330 
# 
# 
# High freq. dielectric constant tensor:
#      x y z
#    x 1.769850 0.000000 0.000000 
#    y 0.000000 1.780800 0.000000 
#    z 0.000000 0.000000 1.713890 
# 
# From -- ./inp_files/4629.got.cif
#   From: 2010.03.12/outbox.cif.g09.slc.cpg/sg40_3_cif.got.tgz:4629.got - 2010.04.14 01:38:03.
