data_PCOD8183182
_publ_section_title
;
Structure prediction by ZEFSAII (Michael W. Deem and Ramdas Pophale) SiO2 
 PCOD8183182
Probable space group: A M A 2
;
_chemical_formula_sum "Si O2"
_cell_formula_units_Z 64
_cell_length_a 8.655340
_cell_length_b 23.054071
_cell_length_c 18.978815
_cell_angle_alpha 90.000000
_cell_angle_beta 90.000000
_cell_angle_gamma 90.000000
_cell_volume 3787.048363
_symmetry_space_group_name_H-M "A M A 2"
_symmetry_group_IT_number 40
_symmetry_cell_setting 'orthorhombic'
loop_
_space_group_symop_operation_xyz
x,y,z
-x,-y,z
1/2-x,y,z
1/2+x,-y,z
x,1/2+y,1/2+z
-x,1/2-y,1/2+z
1/2-x,1/2+y,1/2+z
1/2+x,1/2-y,1/2+z
loop_
_atom_site_type_symbol
_atom_site_label
_atom_site_fract_x
_atom_site_fract_y
_atom_site_fract_z
Si Si1 0.928769 0.244100 0.697090
Si Si2 0.570054 0.119347 0.346876
Si Si3 0.069146 0.438517 0.992308
Si Si4 0.931243 0.937109 0.212954
Si Si5 0.069204 0.828088 0.569856
Si Si6 0.932643 0.285324 0.488646
Si Si7 0.570296 0.757768 0.355815
Si Si8 0.068854 0.347788 0.614443
O O1 0.750000 0.261350 0.683700
O O2 0.969404 0.186163 0.651806
O O3 0.962674 0.231134 0.778564
O O4 0.029924 0.298080 0.671312
O O5 0.750000 0.114904 0.326409
O O6 0.529435 0.077301 0.411813
O O7 0.465310 0.101874 0.281177
O O8 0.530276 0.184755 0.368714
O O9 0.250000 0.442698 0.003818
O O10 0.000000 0.500000 0.013422
O O11 0.996113 0.389066 0.044169
O O12 0.750000 0.941071 0.201219
O O13 0.008361 0.908960 0.144046
O O14 0.000000 0.000000 0.226185
O O15 0.250000 0.832479 0.556156
O O16 0.007196 0.774721 0.523147
O O17 0.750000 0.288490 0.479914
O O18 0.013779 0.290085 0.412262
O O19 0.987979 0.337301 0.539082
O O20 0.750000 0.772334 0.365442
O O21 0.250000 0.350949 0.602784
#
# Coordination Sequence:
#
# PCOD8183182 Si02
#       8
#     8   8   8   8   8   8   8   8
#     4   9  18  32  51  72  99 133 167 207 258 309
#     4  11  21  34  49  70 102 140 177 212 251 299
#     4  10  20  33  48  68  95 133 173 209 248 295
#     4  12  24  38  53  73 101 139 179 216 256 303
#     4   8  15  31  49  66  91 128 167 202 248 302
#     4  10  19  34  53  71  99 135 169 208 257 310
#     4  11  20  30  49  78 105 132 169 211 255 308
#     4  11  21  34  52  76 102 131 170 214 258 308
#
# _framework density 16.899705000000001
#
# number of rings (size 3 to 8) (size 9 to 14) (size 15 to 20)
#    0.000    1.750    2.500    4.500    0.000    2.500 
#    0.000    0.625    0.000    0.000    0.000    0.875 
#    0.000    4.000    0.000    0.000    0.000    0.000 
#
# Total GULP energy -396807.643726 kJ/mol
# GULP energy per Si atom -12400.238866 kJ/mol
# Density = 1.686124 g / cm^3
# Si number density = 16.899705 Si / 1000 Ang^3
#
#
#
# Elastic Constant Matrix: (Units=GPa)
#
#
# Indices 1 2 3 4 5 6 
#
# 1 63.6981 17.2305 33.1009 0.0000 0.0000 0.0000
# 2 17.2305 44.2558 21.2371 0.0000 0.0000 0.0000
# 3 33.1009 21.2371 94.7910 0.0000 0.0000 0.0000
# 4 0.0000 0.0000 0.0000 30.8525 0.0000 0.0000
# 5 0.0000 0.0000 0.0000 0.0000 22.8931 0.0000
# 6 0.0000 0.0000 0.0000 0.0000 0.0000 23.1333
#
#
#
# Elastic Compliance Matrix: (Units=1/GPa)
#
#
# Indices 1 2 3 4 5 6 
#
# 1 0.020120 -0.005000 -0.005906 0.000000 0.000000 0.000000
# 2 -0.005000 0.026560 -0.004205 0.000000 0.000000 0.000000
# 3 -0.005906 -0.004205 0.013554 0.000000 0.000000 0.000000
# 4 0.000000 0.000000 0.000000 0.032412 0.000000 0.000000
# 5 0.000000 0.000000 0.000000 0.000000 0.043681 0.000000
# 6 0.000000 0.000000 0.000000 0.000000 0.000000 0.043228
#
#
# Mechanical properties :
#
#
# Convention : Reuss Voigt Hill
#
# Bulk Modulus (GPa) = 33.31770 38.43131 35.87451
# Shear Modulus (GPa) = 22.74993 24.12090 23.43542
#
# Velocity S-wave (km/s) = 3.67300 3.78206 3.72793
# Velocity P-wave (km/s) = 6.14375 6.47009 6.30903
#
# Compressibility (1/GPa) = 0.03001408
#
# Stress axis : x y z
#
# Youngs Moduli (GPa) = 49.70064 37.65034 73.77951
#
# Poissons Ratio (x) = 0.18824 0.43574
# Poissons Ratio (y) = 0.24848 0.31022
# Poissons Ratio (z) = 0.29353 0.15831
#
# Static dielectric constant tensor:
#      x y z
#    x 3.091580 0.000000 0.000000 
#    y 0.000000 3.182170 0.000000 
#    z 0.000000 0.000000 3.321180 
# 
# 
# High freq. dielectric constant tensor:
#      x y z
#    x 1.652530 0.000000 0.000000 
#    y 0.000000 1.620470 0.000000 
#    z 0.000000 0.000000 1.650610 
# 
# From -- ./inp_files/19738.got.cif
#   From: 2010.03.12/outbox.cif.g09.slc.cpg/sg40_10_cif.got.tgz:19738.got - 2010.04.14 01:38:03.
