data_PCOD8183041
_publ_section_title
;
Structure prediction by ZEFSAII (Michael W. Deem and Ramdas Pophale) SiO2 
 PCOD8183041
Probable space group: A M A 2
;
_chemical_formula_sum "Si O2"
_cell_formula_units_Z 56
_cell_length_a 9.028091
_cell_length_b 18.224355
_cell_length_c 17.269164
_cell_angle_alpha 90.000000
_cell_angle_beta 90.000000
_cell_angle_gamma 90.000000
_cell_volume 2841.315160
_symmetry_space_group_name_H-M "A M A 2"
_symmetry_group_IT_number 40
_symmetry_cell_setting 'orthorhombic'
loop_
_space_group_symop_operation_xyz
x,y,z
-x,-y,z
1/2-x,y,z
1/2+x,-y,z
x,1/2+y,1/2+z
-x,1/2-y,1/2+z
1/2-x,1/2+y,1/2+z
1/2+x,1/2-y,1/2+z
loop_
_atom_site_type_symbol
_atom_site_label
_atom_site_fract_x
_atom_site_fract_y
_atom_site_fract_z
Si Si1 0.075250 0.170903 0.844200
Si Si2 0.925565 0.663048 0.614848
Si Si3 0.425345 0.923777 0.965178
Si Si4 0.418841 0.828645 0.406161
Si Si5 0.580861 0.073344 0.257867
Si Si6 0.924571 0.421770 0.034071
Si Si7 0.574742 0.317989 0.169033
O O1 0.250000 0.155435 0.845276
O O2 0.036176 0.244532 0.891381
O O3 0.014224 0.174175 0.756239
O O4 0.989387 0.103810 0.883696
O O5 0.750000 0.665678 0.624134
O O6 0.972459 0.634977 0.530540
O O7 0.989086 0.607357 0.679638
O O8 0.991815 0.744401 0.629259
O O9 0.250000 0.934034 0.959613
O O10 0.500000 0.000000 0.987966
O O11 0.250000 0.835543 0.435785
O O12 0.438579 0.867373 0.324355
O O13 0.527027 0.864274 0.468645
O O14 0.750000 0.052144 0.244218
O O15 0.500000 0.000000 0.283569
O O16 0.750000 0.432940 0.027151
O O17 0.970923 0.388423 0.117508
O O18 0.000000 0.500000 0.021701
O O19 0.750000 0.310190 0.171956
#
# Coordination Sequence:
#
# PCOD8183041 Si02
#       7
#     8   8   8   8   8   8   8
#     4  10  20  38  63  87 114 149 191 235 285 342
#     4   9  17  34  58  82 110 146 189 230 277 338
#     4  11  23  38  58  85 118 153 192 237 285 337
#     4  10  20  36  59  85 115 150 188 231 283 344
#     4  10  19  32  53  81 112 148 185 223 273 333
#     4  11  23  38  58  83 115 152 194 239 286 338
#     4   9  18  36  61  85 109 148 192 233 284 342
#
# _framework density 19.709182999999999
#
# number of rings (size 3 to 8) (size 9 to 14) (size 15 to 20)
#    0.000    2.000    1.429    2.571    0.000    4.000 
#    0.000    3.571    0.000    3.429    0.000    0.000 
#    0.000    0.000    0.000    0.000    0.000    0.000 
#
# Total GULP energy -347234.577542 kJ/mol
# GULP energy per Si atom -12401.234912 kJ/mol
# Density = 1.966432 g / cm^3
# Si number density = 19.709183 Si / 1000 Ang^3
#
#
#
# Elastic Constant Matrix: (Units=GPa)
#
#
# Indices 1 2 3 4 5 6 
#
# 1 58.0757 31.6192 38.3741 0.0000 0.0000 0.0000
# 2 31.6192 68.1850 39.8198 0.0000 0.0000 0.0000
# 3 38.3741 39.8198 118.0829 0.0000 0.0000 0.0000
# 4 0.0000 0.0000 0.0000 20.0642 0.0000 0.0000
# 5 0.0000 0.0000 0.0000 0.0000 24.4807 0.0000
# 6 0.0000 0.0000 0.0000 0.0000 0.0000 22.2175
#
#
#
# Elastic Compliance Matrix: (Units=1/GPa)
#
#
# Indices 1 2 3 4 5 6 
#
# 1 0.025488 -0.008695 -0.005351 0.000000 0.000000 0.000000
# 2 -0.008695 0.021228 -0.004333 0.000000 0.000000 0.000000
# 3 -0.005351 -0.004333 0.011669 0.000000 0.000000 0.000000
# 4 0.000000 0.000000 0.000000 0.049840 0.000000 0.000000
# 5 0.000000 0.000000 0.000000 0.000000 0.040849 0.000000
# 6 0.000000 0.000000 0.000000 0.000000 0.000000 0.045010
#
#
# Mechanical properties :
#
#
# Convention : Reuss Voigt Hill
#
# Bulk Modulus (GPa) = 46.23637 51.55220 48.89428
# Shear Modulus (GPa) = 21.00391 22.32117 21.66254
#
# Velocity S-wave (km/s) = 3.26803 3.36895 3.31888
# Velocity P-wave (km/s) = 6.14413 6.43011 6.28875
#
# Compressibility (1/GPa) = 0.02162800
#
# Stress axis : x y z
#
# Youngs Moduli (GPa) = 39.23340 47.10658 85.69844
#
# Poissons Ratio (x) = 0.40958 0.45858
# Poissons Ratio (y) = 0.34112 0.37134
# Poissons Ratio (z) = 0.20994 0.20412
#
# Static dielectric constant tensor:
#      x y z
#    x 3.274620 0.000000 0.000000 
#    y 0.000000 3.637630 0.000000 
#    z 0.000000 0.000000 3.749550 
# 
# 
# High freq. dielectric constant tensor:
#      x y z
#    x 1.734510 0.000000 0.000000 
#    y 0.000000 1.777860 0.000000 
#    z 0.000000 0.000000 1.779780 
# 
# From -- ./inp_files/15312.got.cif
#   From: 2010.03.12/outbox.cif.g09.slc.cpg/sg40_8_cif.got.tgz:15312.got - 2010.04.14 01:38:03.
