data_PCOD8183929
_publ_section_title
;
Structure prediction by ZEFSAII (Michael W. Deem and Ramdas Pophale) SiO2 
 PCOD8183929
Probable space group: A M A 2
;
_chemical_formula_sum "Si O2"
_cell_formula_units_Z 56
_cell_length_a 16.572043
_cell_length_b 5.034681
_cell_length_c 31.677900
_cell_angle_alpha 90.000000
_cell_angle_beta 90.000000
_cell_angle_gamma 90.000000
_cell_volume 2643.044003
_symmetry_space_group_name_H-M "A M A 2"
_symmetry_group_IT_number 40
_symmetry_cell_setting 'orthorhombic'
loop_
_space_group_symop_operation_xyz
x,y,z
-x,-y,z
1/2-x,y,z
1/2+x,-y,z
x,1/2+y,1/2+z
-x,1/2-y,1/2+z
1/2-x,1/2+y,1/2+z
1/2+x,1/2-y,1/2+z
loop_
_atom_site_type_symbol
_atom_site_label
_atom_site_fract_x
_atom_site_fract_y
_atom_site_fract_z
Si Si1 0.656701 0.390753 0.927560
Si Si2 0.557292 0.254087 0.295641
Si Si3 0.409207 0.103946 0.884768
Si Si4 0.843299 0.890757 0.163721
Si Si5 0.653934 0.259364 0.570556
Si Si6 0.409206 0.603941 0.206513
Si Si7 0.846066 0.259365 0.020726
O O1 0.750000 0.476416 0.929187
O O2 0.605425 0.651207 0.916141
O O3 0.647590 0.147443 0.894690
O O4 0.623495 0.295132 0.972920
O O5 0.500000 0.500000 0.295644
O O6 0.611024 0.277319 0.338060
O O7 0.611024 0.277336 0.253222
O O8 0.500000 0.000000 0.295639
O O9 0.500000 0.000000 0.889113
O O10 0.750000 0.976420 0.162094
O O11 0.876506 0.795138 0.118361
O O12 0.894575 0.151210 0.175142
O O13 0.852410 0.647447 0.196591
O O14 0.750000 0.261740 0.570499
O O15 0.619866 0.987264 0.551503
O O16 0.619867 0.487263 0.539778
O O17 0.500000 0.500000 0.202169
O O18 0.750000 0.261747 0.020784
#
# Coordination Sequence:
#
# PCOD8183929 Si02
#       7
#     8   8   8   8   8   8   8
#     4  11  22  37  59  89 119 147 190 246 297 340
#     4  10  20  38  61  84 109 150 201 232 263 340
#     4  11  22  39  61  84 114 154 196 237 286 349
#     4  11  22  37  59  89 119 147 190 246 297 340
#     4   9  17  31  53  79 108 147 192 232 274 338
#     4  11  22  39  61  84 114 154 196 237 286 349
#     4   9  17  31  53  79 108 147 192 232 274 338
#
# _framework density 21.187691000000001
#
# number of rings (size 3 to 8) (size 9 to 14) (size 15 to 20)
#    0.000    1.714    0.000    6.857    0.000    4.571 
#    0.000    4.286    0.000   17.143    0.000    0.000 
#    0.000    0.000    0.000    0.000    0.000    0.000 
#
# Total GULP energy -347143.650806 kJ/mol
# GULP energy per Si atom -12397.987529 kJ/mol
# Density = 2.113947 g / cm^3
# Si number density = 21.187691 Si / 1000 Ang^3
#
#
#
# Elastic Constant Matrix: (Units=GPa)
#
#
# Indices 1 2 3 4 5 6 
#
# 1 31.3918 7.9536 30.5396 0.0000 0.0000 0.0000
# 2 7.9536 121.7496 23.1152 0.0000 0.0000 0.0000
# 3 30.5396 23.1152 113.2285 0.0000 0.0000 0.0000
# 4 0.0000 0.0000 0.0000 44.0005 0.0000 0.0000
# 5 0.0000 0.0000 0.0000 0.0000 17.2692 0.0000
# 6 0.0000 0.0000 0.0000 0.0000 0.0000 34.7330
#
#
#
# Elastic Compliance Matrix: (Units=1/GPa)
#
#
# Indices 1 2 3 4 5 6 
#
# 1 0.043235 -0.000635 -0.011531 0.000000 0.000000 0.000000
# 2 -0.000635 0.008554 -0.001575 0.000000 0.000000 0.000000
# 3 -0.011531 -0.001575 0.012263 0.000000 0.000000 0.000000
# 4 0.000000 0.000000 0.000000 0.022727 0.000000 0.000000
# 5 0.000000 0.000000 0.000000 0.000000 0.057907 0.000000
# 6 0.000000 0.000000 0.000000 0.000000 0.000000 0.028791
#
#
# Mechanical properties :
#
#
# Convention : Reuss Voigt Hill
#
# Bulk Modulus (GPa) = 27.34543 43.28742 35.31643
# Shear Modulus (GPa) = 23.45769 32.85132 28.15450
#
# Velocity S-wave (km/s) = 3.33098 3.94190 3.64925
# Velocity P-wave (km/s) = 5.26576 6.41817 5.87031
#
# Compressibility (1/GPa) = 0.03656918
#
# Stress axis : x y z
#
# Youngs Moduli (GPa) = 23.12958 116.90304 81.54318
#
# Poissons Ratio (x) = 0.07424 0.94031
# Poissons Ratio (y) = 0.01469 0.12843
# Poissons Ratio (z) = 0.26672 0.18412
#
# Static dielectric constant tensor:
#      x y z
#    x 3.363570 0.000000 0.000000 
#    y 0.000000 4.011670 0.000000 
#    z 0.000000 0.000000 6.107860 
# 
# 
# High freq. dielectric constant tensor:
#      x y z
#    x 1.781210 0.000000 0.000000 
#    y 0.000000 1.853730 0.000000 
#    z 0.000000 0.000000 1.846000 
# 
# From -- ./inp_files/26609.got.cif
#   From: 2010.03.12/outbox.cif.g09.slc.cpg/sg40_14_cif.got.tgz:26609.got - 2010.04.14 01:38:03.
