data_PCOD8183450
_publ_section_title
;
Structure prediction by ZEFSAII (Michael W. Deem and Ramdas Pophale) SiO2 
 PCOD8183450
Probable space group: A M A 2
;
_chemical_formula_sum "Si O2"
_cell_formula_units_Z 64
_cell_length_a 13.931007
_cell_length_b 22.438353
_cell_length_c 10.712452
_cell_angle_alpha 90.000000
_cell_angle_beta 90.000000
_cell_angle_gamma 90.000000
_cell_volume 3348.593080
_symmetry_space_group_name_H-M "A M A 2"
_symmetry_group_IT_number 40
_symmetry_cell_setting 'orthorhombic'
loop_
_space_group_symop_operation_xyz
x,y,z
-x,-y,z
1/2-x,y,z
1/2+x,-y,z
x,1/2+y,1/2+z
-x,1/2-y,1/2+z
1/2-x,1/2+y,1/2+z
1/2+x,1/2-y,1/2+z
loop_
_atom_site_type_symbol
_atom_site_label
_atom_site_fract_x
_atom_site_fract_y
_atom_site_fract_z
Si Si1 0.476556 0.827743 0.130020
Si Si2 0.637768 0.344308 0.454277
Si Si3 0.356705 0.993202 0.256066
Si Si4 0.142050 0.091638 0.580773
Si Si5 0.856249 0.781102 0.706301
Si Si6 0.013436 0.087426 0.340913
Si Si7 0.141647 0.927387 0.997397
Si Si8 0.136307 0.033856 0.833769
O O1 0.583709 0.821344 0.077472
O O2 0.428821 0.763320 0.138597
O O3 0.481505 0.852023 0.272104
O O4 0.419279 0.868780 0.029726
O O5 0.750000 0.346426 0.484616
O O6 0.614429 0.295336 0.348200
O O7 0.598782 0.409798 0.414248
O O8 0.250000 0.998665 0.311013
O O9 0.417361 0.952631 0.352974
O O10 0.356189 0.968740 0.117932
O O11 0.408241 0.057230 0.248815
O O12 0.250000 0.075707 0.531285
O O13 0.145218 0.157107 0.635006
O O14 0.061047 0.093572 0.475351
O O15 0.110593 0.043975 0.687687
O O16 0.750000 0.752028 0.702753
O O17 0.250000 0.907169 0.962392
O O18 0.096607 0.969737 0.886335
O O19 0.250000 0.032694 0.850258
#
# Coordination Sequence:
#
# PCOD8183450 Si02
#       8
#     8   8   8   8   8   8   8   8
#     4  11  21  31  55  82 111 138 184 235 282 326
#     4   9  19  35  53  75 102 140 182 226 275 324
#     4   9  18  33  50  75 113 141 169 218 273 329
#     4   9  18  34  55  78 107 147 189 224 270 332
#     4   9  20  38  56  73 104 146 187 230 282 337
#     4  10  20  31  51  83 107 142 185 223 269 328
#     4   9  17  31  53  82 110 136 170 221 283 335
#     4   8  15  31  54  78 108 141 176 219 271 333
#
# _framework density 19.112504999999999
#
# number of rings (size 3 to 8) (size 9 to 14) (size 15 to 20)
#    0.000    2.750    0.000    3.000    1.750    4.000 
#    0.000    5.000    0.000    0.000    0.000    2.625 
#    0.000    0.000    0.000    0.000    0.000    0.000 
#
# Total GULP energy -396551.192651 kJ/mol
# GULP energy per Si atom -12392.224770 kJ/mol
# Density = 1.906900 g / cm^3
# Si number density = 19.112505 Si / 1000 Ang^3
#
#
#
# Elastic Constant Matrix: (Units=GPa)
#
#
# Indices 1 2 3 4 5 6 
#
# 1 74.5549 26.0587 23.1653 0.0000 0.0000 0.0000
# 2 26.0587 69.3325 26.5210 0.0000 0.0000 0.0000
# 3 23.1653 26.5210 70.6623 0.0000 0.0000 0.0000
# 4 0.0000 0.0000 0.0000 21.9509 0.0000 0.0000
# 5 0.0000 0.0000 0.0000 0.0000 30.7854 0.0000
# 6 0.0000 0.0000 0.0000 0.0000 0.0000 22.7474
#
#
#
# Elastic Compliance Matrix: (Units=1/GPa)
#
#
# Indices 1 2 3 4 5 6 
#
# 1 0.016160 -0.004726 -0.003524 0.000000 0.000000 0.000000
# 2 -0.004726 0.018223 -0.005290 0.000000 0.000000 0.000000
# 3 -0.003524 -0.005290 0.017293 0.000000 0.000000 0.000000
# 4 0.000000 0.000000 0.000000 0.045556 0.000000 0.000000
# 5 0.000000 0.000000 0.000000 0.000000 0.032483 0.000000
# 6 0.000000 0.000000 0.000000 0.000000 0.000000 0.043961
#
#
# Mechanical properties :
#
#
# Convention : Reuss Voigt Hill
#
# Bulk Modulus (GPa) = 40.65784 40.67107 40.66445
# Shear Modulus (GPa) = 23.92873 24.35037 24.13955
#
# Velocity S-wave (km/s) = 3.54219 3.57326 3.55776
# Velocity P-wave (km/s) = 6.16835 6.19276 6.18057
#
# Compressibility (1/GPa) = 0.02459550
#
# Stress axis : x y z
#
# Youngs Moduli (GPa) = 61.88268 54.87573 57.82804
#
# Poissons Ratio (x) = 0.25932 0.20379
# Poissons Ratio (y) = 0.29243 0.30593
# Poissons Ratio (z) = 0.21807 0.29031
#
# Static dielectric constant tensor:
#      x y z
#    x 3.749760 0.000000 0.000000 
#    y 0.000000 3.356160 0.000000 
#    z 0.000000 0.000000 3.456040 
# 
# 
# High freq. dielectric constant tensor:
#      x y z
#    x 1.748260 0.000000 0.000000 
#    y 0.000000 1.724080 0.000000 
#    z 0.000000 0.000000 1.726090 
# 
# From -- ./inp_files/6864.got.cif
#   From: 2010.03.12/outbox.cif.g09.slc.cpg/sg40_4_cif.got.tgz:6864.got - 2010.04.14 01:38:03.
