data_PCOD8183650
_publ_section_title
;
Structure prediction by ZEFSAII (Michael W. Deem and Ramdas Pophale) SiO2 
 PCOD8183650
Probable space group: A M A 2
;
_chemical_formula_sum "Si O2"
_cell_formula_units_Z 64
_cell_length_a 8.603880
_cell_length_b 33.204959
_cell_length_c 11.691698
_cell_angle_alpha 90.000000
_cell_angle_beta 90.000000
_cell_angle_gamma 90.000000
_cell_volume 3340.218536
_symmetry_space_group_name_H-M "A M A 2"
_symmetry_group_IT_number 40
_symmetry_cell_setting 'orthorhombic'
loop_
_space_group_symop_operation_xyz
x,y,z
-x,-y,z
1/2-x,y,z
1/2+x,-y,z
x,1/2+y,1/2+z
-x,1/2-y,1/2+z
1/2-x,1/2+y,1/2+z
1/2+x,1/2-y,1/2+z
loop_
_atom_site_type_symbol
_atom_site_label
_atom_site_fract_x
_atom_site_fract_y
_atom_site_fract_z
Si Si1 0.066679 0.455902 0.926220
Si Si2 0.433480 0.810236 0.475345
Si Si3 0.928634 0.601408 0.340058
Si Si4 0.573233 0.828061 0.714669
Si Si5 0.573175 0.777684 0.924627
Si Si6 0.066696 0.642746 0.546306
Si Si7 0.931181 0.957268 0.666452
Si Si8 0.568367 0.622725 0.788699
O O1 0.250000 0.460018 0.932624
O O2 0.018562 0.421590 0.834511
O O3 0.000000 0.500000 0.892554
O O4 0.007684 0.440439 0.049690
O O5 0.250000 0.810274 0.501242
O O6 0.532037 0.821100 0.585144
O O7 0.501250 0.766372 0.440356
O O8 0.474178 0.843016 0.379875
O O9 0.750000 0.587857 0.341299
O O10 0.948746 0.641656 0.267015
O O11 0.987700 0.608031 0.469325
O O12 0.033222 0.568423 0.278121
O O13 0.750000 0.845037 0.723835
O O14 0.558073 0.787530 0.789800
O O15 0.750000 0.773744 0.963046
O O16 0.500989 0.813321 0.004859
O O17 0.250000 0.641050 0.524691
O O18 0.028517 0.633528 0.676708
O O19 0.750000 0.960094 0.643584
O O20 0.000000 0.000000 0.695631
O O21 0.750000 0.623521 0.758917
#
# Coordination Sequence:
#
# PCOD8183650 Si02
#       8
#     8   8   8   8   8   8   8   8
#     4  10  20  36  57  85 118 154 196 240 291 347
#     4  10  20  35  55  79 111 148 186 232 285 341
#     4  11  21  37  59  81 109 147 188 229 281 341
#     4  10  20  35  54  80 109 140 184 233 280 332
#     4   8  18  35  53  76 109 145 181 229 285 341
#     4  10  21  38  58  80 112 149 190 238 286 340
#     4  11  21  35  58  89 121 150 185 232 286 341
#     4  10  22  37  56  82 112 149 195 239 287 350
#
# _framework density 19.160425
#
# number of rings (size 3 to 8) (size 9 to 14) (size 15 to 20)
#    0.000    2.000    0.000    5.625    1.750    2.500 
#    0.000    3.750    0.000    1.500    0.000    0.000 
#    0.000    0.000    0.000    0.000    0.000    0.000 
#
# Total GULP energy -396692.062442 kJ/mol
# GULP energy per Si atom -12396.626951 kJ/mol
# Density = 1.911681 g / cm^3
# Si number density = 19.160425 Si / 1000 Ang^3
#
#
#
# Elastic Constant Matrix: (Units=GPa)
#
#
# Indices 1 2 3 4 5 6 
#
# 1 64.5929 31.6910 31.3797 0.0000 0.0000 0.0000
# 2 31.6910 102.4810 56.5498 0.0000 0.0000 0.0000
# 3 31.3797 56.5498 124.9559 0.0000 0.0000 0.0000
# 4 0.0000 0.0000 0.0000 20.0070 0.0000 0.0000
# 5 0.0000 0.0000 0.0000 0.0000 28.2718 0.0000
# 6 0.0000 0.0000 0.0000 0.0000 0.0000 24.0598
#
#
#
# Elastic Compliance Matrix: (Units=1/GPa)
#
#
# Indices 1 2 3 4 5 6 
#
# 1 0.018963 -0.004314 -0.002810 0.000000 0.000000 0.000000
# 2 -0.004314 0.013987 -0.005247 0.000000 0.000000 0.000000
# 3 -0.002810 -0.005247 0.011083 0.000000 0.000000 0.000000
# 4 0.000000 0.000000 0.000000 0.049983 0.000000 0.000000
# 5 0.000000 0.000000 0.000000 0.000000 0.035371 0.000000
# 6 0.000000 0.000000 0.000000 0.000000 0.000000 0.041563
#
#
# Mechanical properties :
#
#
# Convention : Reuss Voigt Hill
#
# Bulk Modulus (GPa) = 51.83351 59.03007 55.43179
# Shear Modulus (GPa) = 24.73771 25.96169 25.34970
#
# Velocity S-wave (km/s) = 3.59706 3.68498 3.64129
# Velocity P-wave (km/s) = 6.66055 6.99862 6.83167
#
# Compressibility (1/GPa) = 0.01929254
#
# Stress axis : x y z
#
# Youngs Moduli (GPa) = 52.73421 71.49514 90.22900
#
# Poissons Ratio (x) = 0.30839 0.25354
# Poissons Ratio (y) = 0.22747 0.47340
# Poissons Ratio (z) = 0.14818 0.37511
#
# Static dielectric constant tensor:
#      x y z
#    x 3.418990 0.000000 0.000000 
#    y 0.000000 3.733670 0.000000 
#    z 0.000000 0.000000 3.488770 
# 
# 
# High freq. dielectric constant tensor:
#      x y z
#    x 1.740420 0.000000 0.000000 
#    y 0.000000 1.747260 0.000000 
#    z 0.000000 0.000000 1.743330 
# 
# From -- ./inp_files/10706.got.cif
#   From: 2010.03.12/outbox.cif.g09.slc.cpg/sg40_6_cif.got.tgz:10706.got - 2010.04.14 01:38:03.
