data_PCOD8183608
_publ_section_title
;
Structure prediction by ZEFSAII (Michael W. Deem and Ramdas Pophale) SiO2 
 PCOD8183608
Probable space group: A M A 2
;
_chemical_formula_sum "Si O2"
_cell_formula_units_Z 64
_cell_length_a 9.088307
_cell_length_b 24.541341
_cell_length_c 15.047814
_cell_angle_alpha 90.000000
_cell_angle_beta 90.000000
_cell_angle_gamma 90.000000
_cell_volume 3356.253016
_symmetry_space_group_name_H-M "A M A 2"
_symmetry_group_IT_number 40
_symmetry_cell_setting 'orthorhombic'
loop_
_space_group_symop_operation_xyz
x,y,z
-x,-y,z
1/2-x,y,z
1/2+x,-y,z
x,1/2+y,1/2+z
-x,1/2-y,1/2+z
1/2-x,1/2+y,1/2+z
1/2+x,1/2-y,1/2+z
loop_
_atom_site_type_symbol
_atom_site_label
_atom_site_fract_x
_atom_site_fract_y
_atom_site_fract_z
Si Si1 0.421001 0.849153 0.732410
Si Si2 0.418896 0.760014 0.191627
Si Si3 0.081380 0.163024 0.907885
Si Si4 0.077144 0.108336 0.432433
Si Si5 0.077605 0.557187 0.743707
Si Si6 0.417026 0.285901 0.892594
Si Si7 0.580100 0.854647 0.103255
Si Si8 0.422254 0.445168 0.096479
O O1 0.250000 0.835392 0.739253
O O2 0.501195 0.797950 0.688334
O O3 0.480936 0.862523 0.831037
O O4 0.453180 0.900885 0.671745
O O5 0.250000 0.749904 0.167265
O O6 0.437324 0.788416 0.286885
O O7 0.489747 0.799807 0.119889
O O8 0.250000 0.160939 0.874286
O O9 0.038868 0.225962 0.926414
O O10 0.059324 0.129710 0.999356
O O11 0.250000 0.105714 0.451076
O O12 0.033941 0.084736 0.336491
O O13 0.024689 0.170886 0.438838
O O14 0.992498 0.072160 0.503460
O O15 0.250000 0.547078 0.737451
O O16 0.022067 0.595797 0.663506
O O17 0.000000 0.500000 0.732266
O O18 0.250000 0.300461 0.920014
O O19 0.750000 0.842253 0.125478
O O20 0.500000 0.500000 0.129913
O O21 0.250000 0.455261 0.081637
#
# Coordination Sequence:
#
# PCOD8183608 Si02
#       8
#     8   8   8   8   8   8   8   8
#     4  10  22  40  61  84 115 152 192 243 298 349
#     4  10  20  34  56  87 118 153 193 234 284 343
#     4   9  20  37  59  85 118 156 193 239 292 346
#     4  11  22  36  57  86 118 155 193 237 289 347
#     4  10  22  38  57  82 114 154 195 234 284 339
#     4   9  18  33  52  81 118 153 190 231 281 339
#     4  10  20  37  58  84 119 156 194 238 291 345
#     4  11  25  43  62  85 113 151 197 246 299 350
#
# _framework density 19.068884000000001
#
# number of rings (size 3 to 8) (size 9 to 14) (size 15 to 20)
#    0.000    2.000    1.250    2.625    1.750    7.000 
#    0.000    0.625    0.000    3.000    0.000    0.000 
#    0.000    0.000    0.000    0.000    0.000    0.000 
#
# Total GULP energy -396915.933172 kJ/mol
# GULP energy per Si atom -12403.622912 kJ/mol
# Density = 1.902548 g / cm^3
# Si number density = 19.068884 Si / 1000 Ang^3
#
#
#
# Elastic Constant Matrix: (Units=GPa)
#
#
# Indices 1 2 3 4 5 6 
#
# 1 103.9941 67.7914 56.3846 0.0000 0.0000 0.0000
# 2 67.7914 111.0496 58.4228 0.0000 0.0000 0.0000
# 3 56.3846 58.4228 102.6518 0.0000 0.0000 0.0000
# 4 0.0000 0.0000 0.0000 25.7562 0.0000 0.0000
# 5 0.0000 0.0000 0.0000 0.0000 19.6752 0.0000
# 6 0.0000 0.0000 0.0000 0.0000 0.0000 34.2844
#
#
#
# Elastic Compliance Matrix: (Units=1/GPa)
#
#
# Indices 1 2 3 4 5 6 
#
# 1 0.017655 -0.008102 -0.005087 0.000000 0.000000 0.000000
# 2 -0.008102 0.016571 -0.004981 0.000000 0.000000 0.000000
# 3 -0.005087 -0.004981 0.015371 0.000000 0.000000 0.000000
# 4 0.000000 0.000000 0.000000 0.038826 0.000000 0.000000
# 5 0.000000 0.000000 0.000000 0.000000 0.050825 0.000000
# 6 0.000000 0.000000 0.000000 0.000000 0.000000 0.029168
#
#
# Mechanical properties :
#
#
# Convention : Reuss Voigt Hill
#
# Bulk Modulus (GPa) = 75.42627 75.87701 75.65164
# Shear Modulus (GPa) = 23.90348 24.94962 24.42655
#
# Velocity S-wave (km/s) = 3.54437 3.62110 3.58294
# Velocity P-wave (km/s) = 7.50936 7.57367 7.54159
#
# Compressibility (1/GPa) = 0.01325798
#
# Stress axis : x y z
#
# Youngs Moduli (GPa) = 56.64058 60.34500 65.05892
#
# Poissons Ratio (x) = 0.48890 0.33093
# Poissons Ratio (y) = 0.45889 0.32408
# Poissons Ratio (z) = 0.28811 0.30059
#
# Static dielectric constant tensor:
#      x y z
#    x 3.522190 0.000000 0.000000 
#    y 0.000000 3.389100 0.000000 
#    z 0.000000 0.000000 3.512340 
# 
# 
# High freq. dielectric constant tensor:
#      x y z
#    x 1.745300 0.000000 0.000000 
#    y 0.000000 1.731070 0.000000 
#    z 0.000000 0.000000 1.743090 
# 
# From -- ./inp_files/15550.got.cif
#   From: 2010.03.12/outbox.cif.g09.slc.cpg/sg40_8_cif.got.tgz:15550.got - 2010.04.14 01:38:03.
