data_PCOD8183964
_publ_section_title
;
Structure prediction by ZEFSAII (Michael W. Deem and Ramdas Pophale) SiO2 
 PCOD8183964
Probable space group: A M A 2
;
_chemical_formula_sum "Si O2"
_cell_formula_units_Z 64
_cell_length_a 17.309204
_cell_length_b 13.166214
_cell_length_c 14.316186
_cell_angle_alpha 90.000000
_cell_angle_beta 90.000000
_cell_angle_gamma 90.000000
_cell_volume 3262.611317
_symmetry_space_group_name_H-M "A M A 2"
_symmetry_group_IT_number 40
_symmetry_cell_setting 'orthorhombic'
loop_
_space_group_symop_operation_xyz
x,y,z
-x,-y,z
1/2-x,y,z
1/2+x,-y,z
x,1/2+y,1/2+z
-x,1/2-y,1/2+z
1/2-x,1/2+y,1/2+z
1/2+x,1/2-y,1/2+z
loop_
_atom_site_type_symbol
_atom_site_label
_atom_site_fract_x
_atom_site_fract_y
_atom_site_fract_z
Si Si1 0.488676 0.880851 0.655670
Si Si2 0.160875 0.592620 0.816824
Si Si3 0.595029 0.894788 0.009845
Si Si4 0.441637 0.686740 0.958892
Si Si5 0.160436 0.880204 0.236438
Si Si6 0.067749 0.223106 0.832230
Si Si7 0.838683 0.747303 0.156508
Si Si8 0.417775 0.383067 0.546619
O O1 0.526994 0.852948 0.557308
O O2 0.530400 0.822953 0.739604
O O3 0.398006 0.847634 0.653392
O O4 0.500000 0.000000 0.673258
O O5 0.250000 0.579503 0.841033
O O6 0.129766 0.489682 0.770005
O O7 0.144768 0.687650 0.749430
O O8 0.117798 0.606630 0.915400
O O9 0.651389 0.821176 0.067182
O O10 0.510383 0.887461 0.055066
O O11 0.622221 0.011810 0.014838
O O12 0.594695 0.866908 0.900651
O O13 0.397331 0.794605 0.972637
O O14 0.510098 0.701217 0.885264
O O15 0.250000 0.883895 0.212869
O O16 0.142602 0.791813 0.310493
O O17 0.113246 0.849070 0.145759
O O18 0.750000 0.706986 0.155602
#
# Coordination Sequence:
#
# PCOD8183964 Si02
#       8
#     8   8   8   8   8   8   8   8
#     4  12  26  44  63  97 128 166 215 264 317 381
#     4  10  23  39  64  96 126 166 212 264 320 377
#     4  10  21  36  66  97 121 163 209 260 318 373
#     4  11  23  40  64  92 125 167 213 262 316 376
#     4  11  23  40  62  92 128 167 210 267 321 367
#     4  11  23  41  62  90 128 165 210 260 314 380
#     4  11  21  41  66  96 131 163 210 267 322 382
#     4  10  20  38  64  95 121 156 216 264 312 369
#
# _framework density 19.616188000000001
#
# number of rings (size 3 to 8) (size 9 to 14) (size 15 to 20)
#    0.000    1.250    6.250    0.000    5.250    1.000 
#    0.000    1.250    0.000    0.000    0.000    0.000 
#    0.000    0.000    0.000    0.000    0.000    0.000 
#
# Total GULP energy -396795.700257 kJ/mol
# GULP energy per Si atom -12399.865633 kJ/mol
# Density = 1.957154 g / cm^3
# Si number density = 19.616188 Si / 1000 Ang^3
#
#
#
# Elastic Constant Matrix: (Units=GPa)
#
#
# Indices 1 2 3 4 5 6 
#
# 1 68.3567 42.5856 49.0191 0.0000 0.0000 0.0000
# 2 42.5856 86.6726 21.1121 0.0000 0.0000 0.0000
# 3 49.0191 21.1121 116.7508 0.0000 0.0000 0.0000
# 4 0.0000 0.0000 0.0000 31.7094 0.0000 0.0000
# 5 0.0000 0.0000 0.0000 0.0000 20.2013 0.0000
# 6 0.0000 0.0000 0.0000 0.0000 0.0000 26.4799
#
#
#
# Elastic Compliance Matrix: (Units=1/GPa)
#
#
# Indices 1 2 3 4 5 6 
#
# 1 0.029368 -0.011952 -0.010169 0.000000 0.000000 0.000000
# 2 -0.011952 0.016934 0.001956 0.000000 0.000000 0.000000
# 3 -0.010169 0.001956 0.012481 0.000000 0.000000 0.000000
# 4 0.000000 0.000000 0.000000 0.031536 0.000000 0.000000
# 5 0.000000 0.000000 0.000000 0.000000 0.049502 0.000000
# 6 0.000000 0.000000 0.000000 0.000000 0.000000 0.037764
#
#
# Mechanical properties :
#
#
# Convention : Reuss Voigt Hill
#
# Bulk Modulus (GPa) = 54.19418 55.24596 54.72007
# Shear Modulus (GPa) = 22.31482 26.28236 24.29859
#
# Velocity S-wave (km/s) = 3.37645 3.66434 3.52334
# Velocity P-wave (km/s) = 6.54888 6.79174 6.67142
#
# Compressibility (1/GPa) = 0.01845217
#
# Stress axis : x y z
#
# Youngs Moduli (GPa) = 34.05105 59.05325 80.12141
#
# Poissons Ratio (x) = 0.70583 0.81475
# Poissons Ratio (y) = 0.40699 -0.15674
# Poissons Ratio (z) = 0.34626 -0.11552
#
# Static dielectric constant tensor:
#      x y z
#    x 3.406730 0.000000 0.000000 
#    y 0.000000 3.880460 0.000000 
#    z 0.000000 0.000000 3.663750 
# 
# 
# High freq. dielectric constant tensor:
#      x y z
#    x 1.747020 0.000000 0.000000 
#    y 0.000000 1.766830 0.000000 
#    z 0.000000 0.000000 1.771660 
# 
# From -- ./inp_files/13088.got.cif
#   From: 2010.03.12/outbox.cif.g09.slc.cpg/sg40_7_cif.got.tgz:13088.got - 2010.04.14 01:38:03.
