data_PCOD8183664
_publ_section_title
;
Structure prediction by ZEFSAII (Michael W. Deem and Ramdas Pophale) SiO2 
 PCOD8183664
Probable space group: A M A 2
;
_chemical_formula_sum "Si O2"
_cell_formula_units_Z 64
_cell_length_a 8.835297
_cell_length_b 20.688921
_cell_length_c 19.379010
_cell_angle_alpha 90.000000
_cell_angle_beta 90.000000
_cell_angle_gamma 90.000000
_cell_volume 3542.342756
_symmetry_space_group_name_H-M "A M A 2"
_symmetry_group_IT_number 40
_symmetry_cell_setting 'orthorhombic'
loop_
_space_group_symop_operation_xyz
x,y,z
-x,-y,z
1/2-x,y,z
1/2+x,-y,z
x,1/2+y,1/2+z
-x,1/2-y,1/2+z
1/2-x,1/2+y,1/2+z
1/2+x,1/2-y,1/2+z
loop_
_atom_site_type_symbol
_atom_site_label
_atom_site_fract_x
_atom_site_fract_y
_atom_site_fract_z
Si Si1 0.427832 0.263804 0.109820
Si Si2 0.927879 0.934126 0.824575
Si Si3 0.570557 0.310694 0.240799
Si Si4 0.925959 0.306631 0.821509
Si Si5 0.924746 0.881100 0.969194
Si Si6 0.428628 0.375526 0.609728
Si Si7 0.923062 0.731314 0.954971
Si Si8 0.072113 0.065141 0.239817
O O1 0.250000 0.254720 0.121326
O O2 0.496673 0.313513 0.164855
O O3 0.502767 0.194771 0.122839
O O4 0.462660 0.290358 0.033124
O O5 0.750000 0.938561 0.816177
O O6 0.989734 0.874088 0.780174
O O7 0.973032 0.924875 0.904599
O O8 0.000000 0.000000 0.796344
O O9 0.750000 0.310353 0.234370
O O10 0.521706 0.246968 0.281624
O O11 0.750000 0.290704 0.812127
O O12 0.967256 0.376582 0.791474
O O13 0.969290 0.306891 0.902365
O O14 0.750000 0.890491 0.990221
O O15 0.952876 0.807348 0.947091
O O16 0.027874 0.901319 0.033729
O O17 0.250000 0.372290 0.617534
O O18 0.496877 0.424122 0.665376
O O19 0.750000 0.714754 0.936816
O O20 0.250000 0.056612 0.230193
O O21 0.000000 0.000000 0.271667
#
# Coordination Sequence:
#
# PCOD8183664 Si02
#       8
#     8   8   8   8   8   8   8   8
#     4  10  20  35  55  83 114 145 182 230 280 326
#     4  10  22  38  55  79 111 149 188 229 278 329
#     4  11  21  36  58  83 111 146 187 229 279 332
#     4  11  22  35  57  85 112 142 183 231 276 327
#     4   9  18  35  53  74 111 151 186 229 272 322
#     4  11  21  33  53  81 111 149 188 225 271 329
#     4   9  18  34  56  80 112 145 178 225 278 326
#     4  11  24  40  56  79 111 148 187 231 279 331
#
# _framework density 18.067139999999998
#
# number of rings (size 3 to 8) (size 9 to 14) (size 15 to 20)
#    0.000    1.750    2.500    3.375    0.000    6.000 
#    0.000    1.250    0.000    0.750    0.000    0.000 
#    0.000    0.000    0.000    0.000    0.000    0.000 
#
# Total GULP energy -396894.516845 kJ/mol
# GULP energy per Si atom -12402.953651 kJ/mol
# Density = 1.802602 g / cm^3
# Si number density = 18.067140 Si / 1000 Ang^3
#
#
#
# Elastic Constant Matrix: (Units=GPa)
#
#
# Indices 1 2 3 4 5 6 
#
# 1 85.4501 45.9432 47.7068 0.0000 0.0000 0.0000
# 2 45.9432 101.5289 56.7778 0.0000 0.0000 0.0000
# 3 47.7068 56.7778 106.8949 0.0000 0.0000 0.0000
# 4 0.0000 0.0000 0.0000 33.7676 0.0000 0.0000
# 5 0.0000 0.0000 0.0000 0.0000 34.4671 0.0000
# 6 0.0000 0.0000 0.0000 0.0000 0.0000 28.4694
#
#
#
# Elastic Compliance Matrix: (Units=1/GPa)
#
#
# Indices 1 2 3 4 5 6 
#
# 1 0.017179 -0.004959 -0.005033 0.000000 0.000000 0.000000
# 2 -0.004959 0.015443 -0.005989 0.000000 0.000000 0.000000
# 3 -0.005033 -0.005989 0.014782 0.000000 0.000000 0.000000
# 4 0.000000 0.000000 0.000000 0.029614 0.000000 0.000000
# 5 0.000000 0.000000 0.000000 0.000000 0.029013 0.000000
# 6 0.000000 0.000000 0.000000 0.000000 0.000000 0.035125
#
#
# Mechanical properties :
#
#
# Convention : Reuss Voigt Hill
#
# Bulk Modulus (GPa) = 64.76024 66.08107 65.42066
# Shear Modulus (GPa) = 28.04785 28.90389 28.47587
#
# Velocity S-wave (km/s) = 3.94436 4.00409 3.97434
# Velocity P-wave (km/s) = 7.52768 7.61786 7.57290
#
# Compressibility (1/GPa) = 0.01544157
#
# Stress axis : x y z
#
# Youngs Moduli (GPa) = 58.21082 64.75459 67.64827
#
# Poissons Ratio (x) = 0.32113 0.34046
# Poissons Ratio (y) = 0.28868 0.40517
# Poissons Ratio (z) = 0.29296 0.38783
#
# Static dielectric constant tensor:
#      x y z
#    x 3.327900 0.000000 0.000000 
#    y 0.000000 3.206700 0.000000 
#    z 0.000000 0.000000 3.565140 
# 
# 
# High freq. dielectric constant tensor:
#      x y z
#    x 1.705980 0.000000 0.000000 
#    y 0.000000 1.674720 0.000000 
#    z 0.000000 0.000000 1.704250 
# 
# From -- ./inp_files/22364.got.cif
#   From: 2010.03.12/outbox.cif.g09.slc.cpg/sg40_12_cif.got.tgz:22364.got - 2010.04.14 01:38:03.
