data_PCOD8183680
_publ_section_title
;
Structure prediction by ZEFSAII (Michael W. Deem and Ramdas Pophale) SiO2 
 PCOD8183680
Probable space group: A M A 2
;
_chemical_formula_sum "Si O2"
_cell_formula_units_Z 48
_cell_length_a 15.237862
_cell_length_b 18.294677
_cell_length_c 9.015079
_cell_angle_alpha 90.000000
_cell_angle_beta 90.000000
_cell_angle_gamma 90.000000
_cell_volume 2513.149471
_symmetry_space_group_name_H-M "A M A 2"
_symmetry_group_IT_number 40
_symmetry_cell_setting 'orthorhombic'
loop_
_space_group_symop_operation_xyz
x,y,z
-x,-y,z
1/2-x,y,z
1/2+x,-y,z
x,1/2+y,1/2+z
-x,1/2-y,1/2+z
1/2-x,1/2+y,1/2+z
1/2+x,1/2-y,1/2+z
loop_
_atom_site_type_symbol
_atom_site_label
_atom_site_fract_x
_atom_site_fract_y
_atom_site_fract_z
Si Si1 0.649607 0.410286 0.267580
Si Si2 0.152417 0.920225 0.255522
Si Si3 0.006531 0.177658 0.608428
Si Si4 0.090456 0.963005 0.564135
Si Si5 0.648499 0.930872 0.104949
Si Si6 0.516180 0.326413 0.763736
O O1 0.750000 0.386168 0.258597
O O2 0.594849 0.345837 0.192297
O O3 0.637803 0.488356 0.187491
O O4 0.618321 0.417816 0.436668
O O5 0.250000 0.887522 0.229845
O O6 0.150808 0.954741 0.420284
O O7 0.081417 0.856788 0.232419
O O8 0.132943 0.983943 0.137985
O O9 0.931381 0.116444 0.632994
O O10 0.969311 0.252348 0.673785
O O11 0.029142 0.188714 0.436670
O O12 0.000000 0.000000 0.509972
O O13 0.750000 0.909361 0.130233
O O14 0.589982 0.883304 0.215103
#
# Coordination Sequence:
#
# PCOD8183680 Si02
#       6
#     8   8   8   8   8   8
#     4  10  20  35  57  83 110 140 180 228 273 324
#     4  10  20  35  57  82 108 140 180 225 274 328
#     4  10  22  36  54  79 109 147 186 221 274 330
#     4   9  18  34  55  80 106 140 181 221 272 328
#     4  10  21  36  56  83 110 142 184 227 273 324
#     4  11  22  38  56  79 112 149 184 226 275 328
#
# _framework density 19.099540000000001
#
# number of rings (size 3 to 8) (size 9 to 14) (size 15 to 20)
#    0.000    2.000    0.000    5.000    0.000    8.000 
#    0.000    5.833    0.000    0.000    0.000    0.000 
#    0.000    0.000    0.000    0.000    0.000    0.000 
#
# Total GULP energy -297679.522559 kJ/mol
# GULP energy per Si atom -12403.313440 kJ/mol
# Density = 1.905607 g / cm^3
# Si number density = 19.099540 Si / 1000 Ang^3
#
#
#
# Elastic Constant Matrix: (Units=GPa)
#
#
# Indices 1 2 3 4 5 6 
#
# 1 73.9560 24.7465 25.4836 0.0000 0.0000 0.0000
# 2 24.7465 72.1264 18.9608 0.0000 0.0000 0.0000
# 3 25.4836 18.9608 92.2062 0.0000 0.0000 0.0000
# 4 0.0000 0.0000 0.0000 33.0260 0.0000 0.0000
# 5 0.0000 0.0000 0.0000 0.0000 30.0744 0.0000
# 6 0.0000 0.0000 0.0000 0.0000 0.0000 17.0868
#
#
#
# Elastic Compliance Matrix: (Units=1/GPa)
#
#
# Indices 1 2 3 4 5 6 
#
# 1 0.016304 -0.004661 -0.003547 0.000000 0.000000 0.000000
# 2 -0.004661 0.015990 -0.002000 0.000000 0.000000 0.000000
# 3 -0.003547 -0.002000 0.012237 0.000000 0.000000 0.000000
# 4 0.000000 0.000000 0.000000 0.030279 0.000000 0.000000
# 5 0.000000 0.000000 0.000000 0.000000 0.033251 0.000000
# 6 0.000000 0.000000 0.000000 0.000000 0.000000 0.058525
#
#
# Mechanical properties :
#
#
# Convention : Reuss Voigt Hill
#
# Bulk Modulus (GPa) = 41.47096 41.85226 41.66161
# Shear Modulus (GPa) = 25.63587 27.31062 26.47325
#
# Velocity S-wave (km/s) = 3.66761 3.78552 3.72703
# Velocity P-wave (km/s) = 6.30043 6.40836 6.35462
#
# Compressibility (1/GPa) = 0.02411326
#
# Stress axis : x y z
#
# Youngs Moduli (GPa) = 61.33615 62.54100 81.72005
#
# Poissons Ratio (x) = 0.29152 0.28990
# Poissons Ratio (y) = 0.28590 0.16342
# Poissons Ratio (z) = 0.21759 0.12507
#
# Static dielectric constant tensor:
#      x y z
#    x 3.438120 0.000000 0.000000 
#    y 0.000000 3.430410 0.000000 
#    z 0.000000 0.000000 3.553510 
# 
# 
# High freq. dielectric constant tensor:
#      x y z
#    x 1.741800 0.000000 0.000000 
#    y 0.000000 1.735520 0.000000 
#    z 0.000000 0.000000 1.751200 
# 
# From -- ./inp_files/6415.got.cif
#   From: 2010.03.12/outbox.cif.g09.slc.cpg/sg40_4_cif.got.tgz:6415.got - 2010.04.14 01:38:03.
