data_PCOD8183017
_publ_section_title
;
Structure prediction by ZEFSAII (Michael W. Deem and Ramdas Pophale) SiO2 
 PCOD8183017
Probable space group: A M A 2
;
_chemical_formula_sum "Si O2"
_cell_formula_units_Z 64
_cell_length_a 8.869565
_cell_length_b 20.808277
_cell_length_c 19.459198
_cell_angle_alpha 90.000000
_cell_angle_beta 90.000000
_cell_angle_gamma 90.000000
_cell_volume 3591.396693
_symmetry_space_group_name_H-M "A M A 2"
_symmetry_group_IT_number 40
_symmetry_cell_setting 'orthorhombic'
loop_
_space_group_symop_operation_xyz
x,y,z
-x,-y,z
1/2-x,y,z
1/2+x,-y,z
x,1/2+y,1/2+z
-x,1/2-y,1/2+z
1/2-x,1/2+y,1/2+z
1/2+x,1/2-y,1/2+z
loop_
_atom_site_type_symbol
_atom_site_label
_atom_site_fract_x
_atom_site_fract_y
_atom_site_fract_z
Si Si1 0.572793 0.935112 0.162840
Si Si2 0.074271 0.683638 0.164652
Si Si3 0.072822 0.623012 0.523837
Si Si4 0.928402 0.065393 0.740132
Si Si5 0.575556 0.305380 0.732730
Si Si6 0.578091 0.750838 0.374114
Si Si7 0.572462 0.882017 0.871506
Si Si8 0.577329 0.256420 0.026328
O O1 0.750000 0.942183 0.169342
O O2 0.521004 0.925903 0.083336
O O3 0.516180 0.874446 0.207348
O O4 0.500000 0.000000 0.192125
O O5 0.250000 0.671834 0.180576
O O6 0.041815 0.688599 0.082589
O O7 0.979455 0.624431 0.193101
O O8 0.024135 0.749670 0.199775
O O9 0.250000 0.629034 0.521688
O O10 0.016120 0.599811 0.448731
O O11 0.016768 0.693412 0.543784
O O12 0.750000 0.060396 0.738550
O O13 0.983723 0.073390 0.818505
O O14 0.000000 0.000000 0.710168
O O15 0.750000 0.294864 0.711285
O O16 0.555941 0.304439 0.815489
O O17 0.750000 0.724421 0.372715
O O18 0.466736 0.692207 0.357307
O O19 0.540752 0.781528 0.448962
O O20 0.750000 0.892434 0.861157
O O21 0.750000 0.235400 0.032536
#
# Coordination Sequence:
#
# PCOD8183017 Si02
#       8
#     8   8   8   8   8   8   8   8
#     4  10  21  35  50  73 105 143 182 220 264 311
#     4  11  21  34  55  82 109 138 176 221 269 319
#     4   9  18  32  50  74 108 143 178 217 258 312
#     4  12  25  40  56  76 106 143 181 224 270 324
#     4  10  19  33  55  78 104 139 180 222 267 316
#     4   9  17  31  52  79 107 139 176 214 264 316
#     4  10  19  32  51  78 109 141 177 217 261 312
#     4   9  18  31  51  80 109 136 172 217 262 314
#
# _framework density 17.820364000000001
#
# number of rings (size 3 to 8) (size 9 to 14) (size 15 to 20)
#    0.000    2.000    2.500    1.875    0.000    2.500 
#    0.000    1.250    0.000    0.750    0.000    1.750 
#    0.000    0.000    0.000    0.000    0.000    0.000 
#
# Total GULP energy -396724.304408 kJ/mol
# GULP energy per Si atom -12397.634513 kJ/mol
# Density = 1.777980 g / cm^3
# Si number density = 17.820364 Si / 1000 Ang^3
#
#
#
# Elastic Constant Matrix: (Units=GPa)
#
#
# Indices 1 2 3 4 5 6 
#
# 1 62.7956 35.5074 30.5823 0.0000 0.0000 0.0000
# 2 35.5074 111.9266 54.1069 0.0000 0.0000 0.0000
# 3 30.5823 54.1069 93.2266 0.0000 0.0000 0.0000
# 4 0.0000 0.0000 0.0000 21.0047 0.0000 0.0000
# 5 0.0000 0.0000 0.0000 0.0000 17.9349 0.0000
# 6 0.0000 0.0000 0.0000 0.0000 0.0000 29.0825
#
#
#
# Elastic Compliance Matrix: (Units=1/GPa)
#
#
# Indices 1 2 3 4 5 6 
#
# 1 0.020472 -0.004515 -0.004095 0.000000 0.000000 0.000000
# 2 -0.004515 0.013414 -0.006304 0.000000 0.000000 0.000000
# 3 -0.004095 -0.006304 0.015729 0.000000 0.000000 0.000000
# 4 0.000000 0.000000 0.000000 0.047608 0.000000 0.000000
# 5 0.000000 0.000000 0.000000 0.000000 0.055757 0.000000
# 6 0.000000 0.000000 0.000000 0.000000 0.000000 0.034385
#
#
# Mechanical properties :
#
#
# Convention : Reuss Voigt Hill
#
# Bulk Modulus (GPa) = 50.54022 56.48244 53.51133
# Shear Modulus (GPa) = 22.34234 23.45457 22.89845
#
# Velocity S-wave (km/s) = 3.54468 3.63184 3.58852
# Velocity P-wave (km/s) = 6.72127 7.02504 6.87484
#
# Compressibility (1/GPa) = 0.01978622
#
# Stress axis : x y z
#
# Youngs Moduli (GPa) = 48.84714 74.54741 63.57697
#
# Poissons Ratio (x) = 0.33656 0.26038
# Poissons Ratio (y) = 0.22053 0.40081
# Poissons Ratio (z) = 0.20005 0.46997
#
# Static dielectric constant tensor:
#      x y z
#    x 3.290070 0.000000 0.000000 
#    y 0.000000 3.102610 0.000000 
#    z 0.000000 0.000000 3.777060 
# 
# 
# High freq. dielectric constant tensor:
#      x y z
#    x 1.691550 0.000000 0.000000 
#    y 0.000000 1.658730 0.000000 
#    z 0.000000 0.000000 1.697780 
# 
# From -- ./inp_files/22369.got.cif
#   From: 2010.03.12/outbox.cif.g09.slc.cpg/sg40_12_cif.got.tgz:22369.got - 2010.04.14 01:38:03.
