data_PCOD8183682
_publ_section_title
;
Structure prediction by ZEFSAII (Michael W. Deem and Ramdas Pophale) SiO2 
 PCOD8183682
Probable space group: A M A 2
;
_chemical_formula_sum "Si O2"
_cell_formula_units_Z 48
_cell_length_a 8.749097
_cell_length_b 37.646683
_cell_length_c 7.562362
_cell_angle_alpha 90.000000
_cell_angle_beta 90.000000
_cell_angle_gamma 90.000000
_cell_volume 2490.849061
_symmetry_space_group_name_H-M "A M A 2"
_symmetry_group_IT_number 40
_symmetry_cell_setting 'orthorhombic'
loop_
_space_group_symop_operation_xyz
x,y,z
-x,-y,z
1/2-x,y,z
1/2+x,-y,z
x,1/2+y,1/2+z
-x,1/2-y,1/2+z
1/2-x,1/2+y,1/2+z
1/2+x,1/2-y,1/2+z
loop_
_atom_site_type_symbol
_atom_site_label
_atom_site_fract_x
_atom_site_fract_y
_atom_site_fract_z
Si Si1 0.429296 0.037180 0.406890
Si Si2 0.427663 0.584701 0.239032
Si Si3 0.071002 0.839453 0.734612
Si Si4 0.570645 0.214669 0.441073
Si Si5 0.573216 0.212100 0.046282
Si Si6 0.569571 0.537708 0.534636
O O1 0.250000 0.032015 0.376493
O O2 0.467154 0.066427 0.553149
O O3 0.505011 0.049817 0.224141
O O4 0.500000 0.000000 0.471159
O O5 0.250000 0.580423 0.286225
O O6 0.471113 0.625515 0.221839
O O7 0.527245 0.567407 0.393164
O O8 0.250000 0.848189 0.707916
O O9 0.005408 0.813122 0.583572
O O10 0.040061 0.821930 0.925206
O O11 0.750000 0.215217 0.464525
O O12 0.520376 0.202406 0.244932
O O13 0.515253 0.254278 0.472912
O O14 0.750000 0.222635 0.041960
O O15 0.500000 0.500000 0.475587
O O16 0.750000 0.533792 0.547078
#
# Coordination Sequence:
#
# PCOD8183682 Si02
#       6
#     8   8   8   8   8   8
#     4  10  21  38  61  89 120 155 199 245 291 346
#     4  11  24  40  59  86 122 159 199 247 297 351
#     4  10  22  38  54  81 117 152 193 240 293 351
#     4  10  20  35  57  82 109 142 184 235 285 341
#     4  10  20  35  57  83 110 142 185 233 285 342
#     4  11  22  38  63  91 121 158 199 244 292 347
#
# _framework density 19.270537999999998
#
# number of rings (size 3 to 8) (size 9 to 14) (size 15 to 20)
#    0.000    1.667    1.667    4.000    0.000    6.667 
#    0.000    1.667    0.000    0.000    0.000    0.000 
#    0.000    0.000    0.000    0.000    0.000    0.000 
#
# Total GULP energy -297691.328305 kJ/mol
# GULP energy per Si atom -12403.805346 kJ/mol
# Density = 1.922668 g / cm^3
# Si number density = 19.270538 Si / 1000 Ang^3
#
#
#
# Elastic Constant Matrix: (Units=GPa)
#
#
# Indices 1 2 3 4 5 6 
#
# 1 77.3086 32.5539 41.6484 0.0000 0.0000 0.0000
# 2 32.5539 99.0525 48.9085 0.0000 0.0000 0.0000
# 3 41.6484 48.9085 122.6889 0.0000 0.0000 0.0000
# 4 0.0000 0.0000 0.0000 13.7475 0.0000 0.0000
# 5 0.0000 0.0000 0.0000 0.0000 18.5689 0.0000
# 6 0.0000 0.0000 0.0000 0.0000 0.0000 33.8659
#
#
#
# Elastic Compliance Matrix: (Units=1/GPa)
#
#
# Indices 1 2 3 4 5 6 
#
# 1 0.016674 -0.003343 -0.004328 0.000000 0.000000 0.000000
# 2 -0.003343 0.013240 -0.004143 0.000000 0.000000 0.000000
# 3 -0.004328 -0.004143 0.011271 0.000000 0.000000 0.000000
# 4 0.000000 0.000000 0.000000 0.072741 0.000000 0.000000
# 5 0.000000 0.000000 0.000000 0.000000 0.053854 0.000000
# 6 0.000000 0.000000 0.000000 0.000000 0.000000 0.029528
#
#
# Mechanical properties :
#
#
# Convention : Reuss Voigt Hill
#
# Bulk Modulus (GPa) = 56.95427 60.58572 58.76999
# Shear Modulus (GPa) = 22.04694 24.96573 23.50633
#
# Velocity S-wave (km/s) = 3.38609 3.60326 3.49636
# Velocity P-wave (km/s) = 6.70125 6.98707 6.84565
#
# Compressibility (1/GPa) = 0.01755795
#
# Stress axis : x y z
#
# Youngs Moduli (GPa) = 59.97221 75.52788 88.72046
#
# Poissons Ratio (x) = 0.25251 0.38395
# Poissons Ratio (y) = 0.20050 0.36758
# Poissons Ratio (z) = 0.25953 0.31292
#
# Static dielectric constant tensor:
#      x y z
#    x 3.473750 0.000000 0.000000 
#    y 0.000000 3.385890 0.000000 
#    z 0.000000 0.000000 3.972550 
# 
# 
# High freq. dielectric constant tensor:
#      x y z
#    x 1.751030 0.000000 0.000000 
#    y 0.000000 1.743490 0.000000 
#    z 0.000000 0.000000 1.767710 
# 
# From -- ./inp_files/4641.got.cif
#   From: 2010.03.12/outbox.cif.g09.slc.cpg/sg40_3_cif.got.tgz:4641.got - 2010.04.14 01:38:03.
