data_PCOD8183142
_publ_section_title
;
Structure prediction by ZEFSAII (Michael W. Deem and Ramdas Pophale) SiO2 
 PCOD8183142
Probable space group: A M A 2
;
_chemical_formula_sum "Si O2"
_cell_formula_units_Z 64
_cell_length_a 9.038389
_cell_length_b 24.681500
_cell_length_c 14.746558
_cell_angle_alpha 90.000000
_cell_angle_beta 90.000000
_cell_angle_gamma 90.000000
_cell_volume 3289.676877
_symmetry_space_group_name_H-M "A M A 2"
_symmetry_group_IT_number 40
_symmetry_cell_setting 'orthorhombic'
loop_
_space_group_symop_operation_xyz
x,y,z
-x,-y,z
1/2-x,y,z
1/2+x,-y,z
x,1/2+y,1/2+z
-x,1/2-y,1/2+z
1/2-x,1/2+y,1/2+z
1/2+x,1/2-y,1/2+z
loop_
_atom_site_type_symbol
_atom_site_label
_atom_site_fract_x
_atom_site_fract_y
_atom_site_fract_z
Si Si1 0.579563 0.171920 0.934830
Si Si2 0.422615 0.611731 0.922426
Si Si3 0.923344 0.153950 0.137060
Si Si4 0.080514 0.761985 0.656431
Si Si5 0.426327 0.944632 0.261781
Si Si6 0.920904 0.220466 0.446432
Si Si7 0.420517 0.871120 0.748080
Si Si8 0.921263 0.944010 0.610377
O O1 0.750000 0.190807 0.940045
O O2 0.482887 0.223724 0.906049
O O3 0.558776 0.126177 0.857220
O O4 0.527702 0.147774 0.031614
O O5 0.250000 0.610567 0.897336
O O6 0.509879 0.568857 0.860849
O O7 0.488286 0.671024 0.903403
O O8 0.449957 0.596324 0.026941
O O9 0.750000 0.159988 0.146516
O O10 0.978332 0.101341 0.190915
O O11 0.991118 0.207916 0.181551
O O12 0.250000 0.748612 0.676612
O O13 0.053852 0.779292 0.553490
O O14 0.023927 0.811840 0.716927
O O15 0.250000 0.950695 0.266975
O O16 0.500000 0.000000 0.227109
O O17 0.750000 0.213651 0.419573
O O18 0.250000 0.879437 0.719262
O O19 0.516032 0.918038 0.702492
O O20 0.750000 0.955865 0.625571
O O21 0.000000 0.000000 0.588631
#
# Coordination Sequence:
#
# PCOD8183142 Si02
#       8
#     8   8   8   8   8   8   8   8
#     4   9  19  36  58  84 117 155 192 235 285 339
#     4  11  23  38  58  85 115 152 191 233 285 345
#     4   9  20  38  58  82 114 150 192 239 287 337
#     4   9  18  32  53  83 116 151 187 228 280 335
#     4  11  24  41  60  84 112 149 194 244 293 341
#     4  10  19  33  54  83 119 154 189 232 279 336
#     4  10  20  36  58  85 118 154 191 236 283 336
#     4  11  24  40  60  84 114 153 193 237 286 342
#
# _framework density 19.454798
#
# number of rings (size 3 to 8) (size 9 to 14) (size 15 to 20)
#    0.000    2.000    1.250    1.875    1.750    5.000 
#    0.000    0.625    0.000    1.500    0.000    0.000 
#    0.000    0.000    0.000    0.000    0.000    0.000 
#
# Total GULP energy -396901.913984 kJ/mol
# GULP energy per Si atom -12403.184812 kJ/mol
# Density = 1.941052 g / cm^3
# Si number density = 19.454798 Si / 1000 Ang^3
#
#
#
# Elastic Constant Matrix: (Units=GPa)
#
#
# Indices 1 2 3 4 5 6 
#
# 1 82.7901 47.4078 27.5828 0.0000 0.0000 0.0000
# 2 47.4078 93.7018 21.7027 0.0000 0.0000 0.0000
# 3 27.5828 21.7027 57.2754 0.0000 0.0000 0.0000
# 4 0.0000 0.0000 0.0000 29.4378 0.0000 0.0000
# 5 0.0000 0.0000 0.0000 0.0000 22.8206 0.0000
# 6 0.0000 0.0000 0.0000 0.0000 0.0000 38.2583
#
#
#
# Elastic Compliance Matrix: (Units=1/GPa)
#
#
# Indices 1 2 3 4 5 6 
#
# 1 0.018681 -0.008077 -0.005936 0.000000 0.000000 0.000000
# 2 -0.008077 0.015191 -0.001866 0.000000 0.000000 0.000000
# 3 -0.005936 -0.001866 0.021025 0.000000 0.000000 0.000000
# 4 0.000000 0.000000 0.000000 0.033970 0.000000 0.000000
# 5 0.000000 0.000000 0.000000 0.000000 0.043820 0.000000
# 6 0.000000 0.000000 0.000000 0.000000 0.000000 0.026138
#
#
# Mechanical properties :
#
#
# Convention : Reuss Voigt Hill
#
# Bulk Modulus (GPa) = 43.21732 47.46155 45.33943
# Shear Modulus (GPa) = 25.21460 27.24162 26.22811
#
# Velocity S-wave (km/s) = 3.60399 3.74605 3.67571
# Velocity P-wave (km/s) = 6.29132 6.56958 6.43196
#
# Compressibility (1/GPa) = 0.02313887
#
# Stress axis : x y z
#
# Youngs Moduli (GPa) = 53.52893 65.82892 47.56136
#
# Poissons Ratio (x) = 0.53169 0.28233
# Poissons Ratio (y) = 0.43235 0.08877
# Poissons Ratio (z) = 0.31776 0.12287
#
# Static dielectric constant tensor:
#      x y z
#    x 3.543090 0.000000 0.000000 
#    y 0.000000 3.456310 0.000000 
#    z 0.000000 0.000000 3.641870 
# 
# 
# High freq. dielectric constant tensor:
#      x y z
#    x 1.758000 0.000000 0.000000 
#    y 0.000000 1.746460 0.000000 
#    z 0.000000 0.000000 1.758260 
# 
# From -- ./inp_files/15607.got.cif
#   From: 2010.03.12/outbox.cif.g09.slc.cpg/sg40_8_cif.got.tgz:15607.got - 2010.04.14 01:38:03.
