data_PCOD8183895
_publ_section_title
;
Structure prediction by ZEFSAII (Michael W. Deem and Ramdas Pophale) SiO2 
 PCOD8183895
Probable space group: A M A 2
;
_chemical_formula_sum "Si O2"
_cell_formula_units_Z 64
_cell_length_a 8.580159
_cell_length_b 15.442974
_cell_length_c 23.821522
_cell_angle_alpha 90.000000
_cell_angle_beta 90.000000
_cell_angle_gamma 90.000000
_cell_volume 3156.427235
_symmetry_space_group_name_H-M "A M A 2"
_symmetry_group_IT_number 40
_symmetry_cell_setting 'orthorhombic'
loop_
_space_group_symop_operation_xyz
x,y,z
-x,-y,z
1/2-x,y,z
1/2+x,-y,z
x,1/2+y,1/2+z
-x,1/2-y,1/2+z
1/2-x,1/2+y,1/2+z
1/2+x,1/2-y,1/2+z
loop_
_atom_site_type_symbol
_atom_site_label
_atom_site_fract_x
_atom_site_fract_y
_atom_site_fract_z
Si Si1 0.933401 0.246253 0.483970
Si Si2 0.068428 0.349969 0.801363
Si Si3 0.066685 0.091319 0.185372
Si Si4 0.430398 0.908161 0.921601
Si Si5 0.435041 0.248998 0.111888
Si Si6 0.566262 0.591554 0.183847
Si Si7 0.433810 0.088799 0.415959
Si Si8 0.929480 0.164865 0.801777
O O1 0.750000 0.227836 0.479372
O O2 0.991412 0.253154 0.547936
O O3 0.972569 0.335334 0.453420
O O4 0.026417 0.167918 0.456420
O O5 0.250000 0.364745 0.791295
O O6 0.976581 0.388708 0.749132
O O7 0.015666 0.401167 0.856103
O O8 0.034375 0.249000 0.810123
O O9 0.250000 0.087582 0.180111
O O10 0.997410 0.165575 0.144628
O O11 0.000000 0.000000 0.164992
O O12 0.250000 0.902233 0.939130
O O13 0.451220 0.897273 0.854910
O O14 0.500000 0.000000 0.939896
O O15 0.250000 0.248208 0.115790
O O16 0.500408 0.335241 0.142033
O O17 0.500000 0.500000 0.164297
O O18 0.750000 0.586940 0.180208
O O19 0.512184 0.613171 0.247174
O O20 0.250000 0.084313 0.407807
O O21 0.500000 0.000000 0.443013
O O22 0.750000 0.194919 0.794868
#
# Coordination Sequence:
#
# PCOD8183895 Si02
#       8
#     8   8   8   8   8   8   8   8
#     4  11  23  42  65  92 123 161 210 260 311 365
#     4  12  23  37  62  95 126 160 201 250 308 371
#     4  11  22  41  64  90 125 163 203 251 305 366
#     4  11  23  39  62  92 125 165 205 251 309 366
#     4   9  21  41  64  86 121 165 203 250 307 360
#     4  10  20  38  61  89 121 160 198 241 298 358
#     4  12  25  43  65  92 125 164 206 253 311 372
#     4  10  20  37  62  88 124 162 197 244 307 368
#
# _framework density 20.276088999999999
#
# number of rings (size 3 to 8) (size 9 to 14) (size 15 to 20)
#    0.000    1.250    2.500    4.125    0.000    2.000 
#    0.000    6.250    0.000    0.000    0.000    0.000 
#    0.000    0.000    0.000    0.000    0.000    0.000 
#
# Total GULP energy -396971.341373 kJ/mol
# GULP energy per Si atom -12405.354418 kJ/mol
# Density = 2.022994 g / cm^3
# Si number density = 20.276089 Si / 1000 Ang^3
#
#
#
# Elastic Constant Matrix: (Units=GPa)
#
#
# Indices 1 2 3 4 5 6 
#
# 1 54.6397 22.0842 8.7627 0.0000 0.0000 0.0000
# 2 22.0842 161.7674 47.0192 0.0000 0.0000 0.0000
# 3 8.7627 47.0192 119.4667 0.0000 0.0000 0.0000
# 4 0.0000 0.0000 0.0000 2.2121 0.0000 0.0000
# 5 0.0000 0.0000 0.0000 0.0000 22.2026 0.0000
# 6 0.0000 0.0000 0.0000 0.0000 0.0000 37.0096
#
#
#
# Elastic Compliance Matrix: (Units=1/GPa)
#
#
# Indices 1 2 3 4 5 6 
#
# 1 0.019390 -0.002522 -0.000430 0.000000 0.000000 0.000000
# 2 -0.002522 0.007308 -0.002691 0.000000 0.000000 0.000000
# 3 -0.000430 -0.002691 0.009461 0.000000 0.000000 0.000000
# 4 0.000000 0.000000 0.000000 0.452064 0.000000 0.000000
# 5 0.000000 0.000000 0.000000 0.000000 0.045040 0.000000
# 6 0.000000 0.000000 0.000000 0.000000 0.000000 0.027020
#
#
# Mechanical properties :
#
#
# Convention : Reuss Voigt Hill
#
# Bulk Modulus (GPa) = 40.20367 54.62289 47.41328
# Shear Modulus (GPa) = 8.62276 29.48539 19.05407
#
# Velocity S-wave (km/s) = 2.06444 3.81753 3.06883
# Velocity P-wave (km/s) = 5.05507 6.81391 5.99930
#
# Compressibility (1/GPa) = 0.02487335
#
# Stress axis : x y z
#
# Youngs Moduli (GPa) = 51.57289 136.83030 105.69376
#
# Poissons Ratio (x) = 0.34512 0.04540
# Poissons Ratio (y) = 0.13008 0.28446
# Poissons Ratio (z) = 0.02215 0.36826
#
# Static dielectric constant tensor:
#      x y z
#    x 3.564670 0.000000 0.000000 
#    y 0.000000 4.261100 0.000000 
#    z 0.000000 0.000000 3.788220 
# 
# 
# High freq. dielectric constant tensor:
#      x y z
#    x 1.784130 0.000000 0.000000 
#    y 0.000000 1.807940 0.000000 
#    z 0.000000 0.000000 1.790420 
# 
# From -- ./inp_files/24229.got.cif
#   From: 2010.03.12/outbox.cif.g09.slc.cpg/sg40_13_cif.got.tgz:24229.got - 2010.04.14 01:38:03.
