data_PCOD8183945
_publ_section_title
;
Structure prediction by ZEFSAII (Michael W. Deem and Ramdas Pophale) SiO2 
 PCOD8183945
Probable space group: A M A 2
;
_chemical_formula_sum "Si O2"
_cell_formula_units_Z 56
_cell_length_a 9.076080
_cell_length_b 18.252982
_cell_length_c 17.154447
_cell_angle_alpha 90.000000
_cell_angle_beta 90.000000
_cell_angle_gamma 90.000000
_cell_volume 2841.900466
_symmetry_space_group_name_H-M "A M A 2"
_symmetry_group_IT_number 40
_symmetry_cell_setting 'orthorhombic'
loop_
_space_group_symop_operation_xyz
x,y,z
-x,-y,z
1/2-x,y,z
1/2+x,-y,z
x,1/2+y,1/2+z
-x,1/2-y,1/2+z
1/2-x,1/2+y,1/2+z
1/2+x,1/2-y,1/2+z
loop_
_atom_site_type_symbol
_atom_site_label
_atom_site_fract_x
_atom_site_fract_y
_atom_site_fract_z
Si Si1 0.080716 0.188426 0.466360
Si Si2 0.076149 0.671061 0.508185
Si Si3 0.918752 0.157831 0.727319
Si Si4 0.917661 0.923947 0.595082
Si Si5 0.923661 0.921897 0.159808
Si Si6 0.918999 0.575350 0.384006
Si Si7 0.575129 0.312322 0.790784
O O1 0.250000 0.216340 0.464063
O O2 0.069288 0.110352 0.509044
O O3 0.017534 0.177130 0.378972
O O4 0.982497 0.246083 0.514833
O O5 0.250000 0.671078 0.495203
O O6 0.031839 0.626264 0.585065
O O7 0.996322 0.638225 0.433215
O O8 0.750000 0.166888 0.699883
O O9 0.930940 0.096243 0.793763
O O10 0.983139 0.235058 0.757609
O O11 0.016321 0.133700 0.655303
O O12 0.750000 0.939022 0.618812
O O13 0.000000 0.000000 0.597116
O O14 0.750000 0.934666 0.162998
O O15 0.981215 0.878950 0.236568
O O16 0.000000 0.000000 0.154474
O O17 0.750000 0.567632 0.410499
O O18 0.000000 0.500000 0.400937
O O19 0.750000 0.310771 0.790086
#
# Coordination Sequence:
#
# PCOD8183945 Si02
#       7
#     8   8   8   8   8   8   8
#     4  10  21  40  63  87 116 155 197 242 294 349
#     4  11  22  37  59  87 118 153 195 243 292 352
#     4  10  20  38  63  85 113 153 196 241 294 354
#     4  11  24  39  59  87 121 156 196 245 295 351
#     4  10  22  38  58  84 116 153 193 237 287 343
#     4  11  22  36  57  85 118 157 195 238 293 352
#     4   9  18  38  63  85 112 151 194 236 290 347
#
# _framework density 19.705123
#
# number of rings (size 3 to 8) (size 9 to 14) (size 15 to 20)
#    0.000    1.714    1.429    3.000    0.000    7.429 
#    0.000    1.429    0.000    0.000    0.000    0.000 
#    0.000    0.000    0.000    0.000    0.000    0.000 
#
# Total GULP energy -347303.903382 kJ/mol
# GULP energy per Si atom -12403.710835 kJ/mol
# Density = 1.966027 g / cm^3
# Si number density = 19.705123 Si / 1000 Ang^3
#
#
#
# Elastic Constant Matrix: (Units=GPa)
#
#
# Indices 1 2 3 4 5 6 
#
# 1 82.6081 35.9009 49.2396 0.0000 0.0000 0.0000
# 2 35.9009 72.2918 55.0452 0.0000 0.0000 0.0000
# 3 49.2396 55.0452 122.9722 0.0000 0.0000 0.0000
# 4 0.0000 0.0000 0.0000 29.2462 0.0000 0.0000
# 5 0.0000 0.0000 0.0000 0.0000 22.6063 0.0000
# 6 0.0000 0.0000 0.0000 0.0000 0.0000 18.0709
#
#
#
# Elastic Compliance Matrix: (Units=1/GPa)
#
#
# Indices 1 2 3 4 5 6 
#
# 1 0.016989 -0.004941 -0.004591 0.000000 0.000000 0.000000
# 2 -0.004941 0.022423 -0.008058 0.000000 0.000000 0.000000
# 3 -0.004591 -0.008058 0.013577 0.000000 0.000000 0.000000
# 4 0.000000 0.000000 0.000000 0.034192 0.000000 0.000000
# 5 0.000000 0.000000 0.000000 0.000000 0.044236 0.000000
# 6 0.000000 0.000000 0.000000 0.000000 0.000000 0.055338
#
#
# Mechanical properties :
#
#
# Convention : Reuss Voigt Hill
#
# Bulk Modulus (GPa) = 56.15443 62.02705 59.09074
# Shear Modulus (GPa) = 21.94215 23.16376 22.55295
#
# Velocity S-wave (km/s) = 3.34057 3.43230 3.38675
# Velocity P-wave (km/s) = 6.59079 6.87412 6.73395
#
# Compressibility (1/GPa) = 0.01780803
#
# Stress axis : x y z
#
# Youngs Moduli (GPa) = 58.86058 44.59783 73.65294
#
# Poissons Ratio (x) = 0.22038 0.33813
# Poissons Ratio (y) = 0.29086 0.59351
# Poissons Ratio (z) = 0.27022 0.35938
#
# Static dielectric constant tensor:
#      x y z
#    x 3.491140 0.000000 0.000000 
#    y 0.000000 3.688200 0.000000 
#    z 0.000000 0.000000 3.751910 
# 
# 
# High freq. dielectric constant tensor:
#      x y z
#    x 1.753740 0.000000 0.000000 
#    y 0.000000 1.775120 0.000000 
#    z 0.000000 0.000000 1.777340 
# 
# From -- ./inp_files/15310.got.cif
#   From: 2010.03.12/outbox.cif.g09.slc.cpg/sg40_8_cif.got.tgz:15310.got - 2010.04.14 01:38:03.
