data_PCOD8183334
_publ_section_title
;
Structure prediction by ZEFSAII (Michael W. Deem and Ramdas Pophale) SiO2 
 PCOD8183334
Probable space group: A M A 2
;
_chemical_formula_sum "Si O2"
_cell_formula_units_Z 64
_cell_length_a 31.501226
_cell_length_b 11.082790
_cell_length_c 8.681267
_cell_angle_alpha 90.000000
_cell_angle_beta 90.000000
_cell_angle_gamma 90.000000
_cell_volume 3030.816718
_symmetry_space_group_name_H-M "A M A 2"
_symmetry_group_IT_number 40
_symmetry_cell_setting 'orthorhombic'
loop_
_space_group_symop_operation_xyz
x,y,z
-x,-y,z
1/2-x,y,z
1/2+x,-y,z
x,1/2+y,1/2+z
-x,1/2-y,1/2+z
1/2-x,1/2+y,1/2+z
1/2+x,1/2-y,1/2+z
loop_
_atom_site_type_symbol
_atom_site_label
_atom_site_fract_x
_atom_site_fract_y
_atom_site_fract_z
Si Si1 0.869675 0.082993 0.205100
Si Si2 0.402872 0.793634 0.637562
Si Si3 0.551316 0.231294 0.087480
Si Si4 0.297759 0.837767 0.437525
Si Si5 0.342196 0.511556 0.137135
Si Si6 0.152096 0.118405 0.972908
Si Si7 0.607858 0.374996 0.904267
Si Si8 0.988291 0.138601 0.786804
O O1 0.903140 0.172415 0.126718
O O2 0.831517 0.146880 0.298072
O O3 0.898364 0.001777 0.317542
O O4 0.847122 0.997746 0.080481
O O5 0.382500 0.923682 0.617059
O O6 0.391403 0.700801 0.495000
O O7 0.381481 0.733091 0.787489
O O8 0.452489 0.815212 0.666640
O O9 0.527009 0.271243 0.242550
O O10 0.563518 0.351840 0.992633
O O11 0.524093 0.149228 0.967778
O O12 0.250000 0.839872 0.372601
O O13 0.301267 0.938692 0.573478
O O14 0.308494 0.707217 0.512361
O O15 0.339571 0.566866 0.304117
O O16 0.351848 0.621105 0.019744
O O17 0.000000 0.000000 0.755336
#
# Coordination Sequence:
#
# PCOD8183334 Si02
#       8
#     8   8   8   8   8   8   8   8
#     4  10  22  41  64  86 119 163 203 247 306 369
#     4   9  20  37  54  82 117 154 202 246 295 360
#     4  11  24  39  58  87 120 161 211 255 301 360
#     4  10  23  40  60  92 125 154 198 252 308 377
#     4  10  19  35  62  86 113 152 195 244 302 363
#     4  10  20  37  65  90 117 158 200 246 303 365
#     4   9  19  36  56  80 110 149 193 239 295 353
#     4  11  25  39  57  87 125 163 208 263 309 351
#
# _framework density 21.116420999999999
#
# number of rings (size 3 to 8) (size 9 to 14) (size 15 to 20)
#    0.000    2.000    0.000    3.000    0.000   11.000 
#    0.000    0.000    0.000    0.000    0.000    0.000 
#    0.000    0.000    0.000    0.000    0.000    0.000 
#
# Total GULP energy -396422.441184 kJ/mol
# GULP energy per Si atom -12388.201287 kJ/mol
# Density = 2.106836 g / cm^3
# Si number density = 21.116421 Si / 1000 Ang^3
#
#
#
# Elastic Constant Matrix: (Units=GPa)
#
#
# Indices 1 2 3 4 5 6 
#
# 1 118.3480 57.0086 53.4003 0.0000 0.0000 0.0000
# 2 57.0086 93.1947 42.7276 0.0000 0.0000 0.0000
# 3 53.4003 42.7276 109.6870 0.0000 0.0000 0.0000
# 4 0.0000 0.0000 0.0000 24.9336 0.0000 0.0000
# 5 0.0000 0.0000 0.0000 0.0000 29.9133 0.0000
# 6 0.0000 0.0000 0.0000 0.0000 0.0000 20.7773
#
#
#
# Elastic Compliance Matrix: (Units=1/GPa)
#
#
# Indices 1 2 3 4 5 6 
#
# 1 0.013293 -0.006288 -0.004023 0.000000 0.000000 0.000000
# 2 -0.006288 0.016037 -0.003186 0.000000 0.000000 0.000000
# 3 -0.004023 -0.003186 0.012316 0.000000 0.000000 0.000000
# 4 0.000000 0.000000 0.000000 0.040107 0.000000 0.000000
# 5 0.000000 0.000000 0.000000 0.000000 0.033430 0.000000
# 6 0.000000 0.000000 0.000000 0.000000 0.000000 0.048130
#
#
# Mechanical properties :
#
#
# Convention : Reuss Voigt Hill
#
# Bulk Modulus (GPa) = 68.23829 69.72253 68.98041
# Shear Modulus (GPa) = 25.61605 26.33104 25.97355
#
# Velocity S-wave (km/s) = 3.48672 3.53504 3.51096
# Velocity P-wave (km/s) = 6.97101 7.05350 7.01238
#
# Compressibility (1/GPa) = 0.01465453
#
# Stress axis : x y z
#
# Youngs Moduli (GPa) = 75.22520 62.35522 81.19313
#
# Poissons Ratio (x) = 0.39206 0.32660
# Poissons Ratio (y) = 0.47298 0.25869
# Poissons Ratio (z) = 0.30260 0.19867
#
# Static dielectric constant tensor:
#      x y z
#    x 3.509570 0.000000 0.000000 
#    y 0.000000 4.026860 0.000000 
#    z 0.000000 0.000000 4.048930 
# 
# 
# High freq. dielectric constant tensor:
#      x y z
#    x 1.788490 0.000000 0.000000 
#    y 0.000000 1.841660 0.000000 
#    z 0.000000 0.000000 1.837390 
# 
# From -- ./inp_files/9447.got.cif
#   From: 2010.03.12/outbox.cif.g09.slc.cpg/sg40_5_cif.got.tgz:9447.got - 2010.04.14 01:38:03.
