data_PCOD8183092
_publ_section_title
;
Structure prediction by ZEFSAII (Michael W. Deem and Ramdas Pophale) SiO2 
 PCOD8183092
Probable space group: A M A 2
;
_chemical_formula_sum "Si O2"
_cell_formula_units_Z 64
_cell_length_a 9.560310
_cell_length_b 27.158137
_cell_length_c 13.087536
_cell_angle_alpha 90.000000
_cell_angle_beta 90.000000
_cell_angle_gamma 90.000000
_cell_volume 3398.050579
_symmetry_space_group_name_H-M "A M A 2"
_symmetry_group_IT_number 40
_symmetry_cell_setting 'orthorhombic'
loop_
_space_group_symop_operation_xyz
x,y,z
-x,-y,z
1/2-x,y,z
1/2+x,-y,z
x,1/2+y,1/2+z
-x,1/2-y,1/2+z
1/2-x,1/2+y,1/2+z
1/2+x,1/2-y,1/2+z
loop_
_atom_site_type_symbol
_atom_site_label
_atom_site_fract_x
_atom_site_fract_y
_atom_site_fract_z
Si Si1 0.914597 0.625670 0.197220
Si Si2 0.586630 0.127515 0.928022
Si Si3 0.595178 0.778807 0.935018
Si Si4 0.406279 0.268049 0.139728
Si Si5 0.586559 0.204178 0.263145
Si Si6 0.082481 0.950122 0.524816
Si Si7 0.915171 0.096386 0.311873
Si Si8 0.084866 0.451392 0.599851
O O1 0.750000 0.629216 0.182492
O O2 0.956152 0.610130 0.313030
O O3 0.976526 0.679964 0.172596
O O4 0.969759 0.586155 0.115113
O O5 0.750000 0.138804 0.932970
O O6 0.511188 0.177685 0.958658
O O7 0.544436 0.086712 0.010680
O O8 0.750000 0.802076 0.922922
O O9 0.549117 0.749947 0.834855
O O10 0.599279 0.735009 0.017787
O O11 0.250000 0.263322 0.187110
O O12 0.498097 0.219564 0.164717
O O13 0.750000 0.199943 0.235963
O O14 0.530342 0.152548 0.307487
O O15 0.250000 0.958604 0.526923
O O16 0.030111 0.929082 0.415375
O O17 0.000000 0.000000 0.545117
O O18 0.750000 0.096550 0.314186
O O19 0.967069 0.068136 0.210292
O O20 0.250000 0.462353 0.600215
O O21 0.000000 0.500000 0.573291
#
# Coordination Sequence:
#
# PCOD8183092 Si02
#       8
#     8   8   8   8   8   8   8   8
#     4   9  18  34  55  76 103 141 178 212 259 320
#     4  10  20  36  56  77 106 143 182 217 261 324
#     4  10  20  32  51  80 110 138 174 220 266 307
#     4  10  19  33  52  76 107 143 178 213 259 319
#     4  10  19  33  53  79 107 138 176 215 258 312
#     4  10  20  36  57  78 102 137 180 224 270 319
#     4   9  18  34  55  78 106 139 175 216 267 326
#     4  10  21  36  55  78 103 137 179 223 271 319
#
# _framework density 18.834327999999999
#
# number of rings (size 3 to 8) (size 9 to 14) (size 15 to 20)
#    0.000    2.250    1.250    1.875    0.000    5.500 
#    0.000    2.500    0.000    1.500    0.000    0.000 
#    0.000    0.000    0.000    0.000    0.000    0.000 
#
# Total GULP energy -396658.199129 kJ/mol
# GULP energy per Si atom -12395.568723 kJ/mol
# Density = 1.879146 g / cm^3
# Si number density = 18.834328 Si / 1000 Ang^3
#
#
#
# Elastic Constant Matrix: (Units=GPa)
#
#
# Indices 1 2 3 4 5 6 
#
# 1 36.1425 40.7608 19.6859 0.0000 0.0000 0.0000
# 2 40.7608 129.4712 53.4432 0.0000 0.0000 0.0000
# 3 19.6859 53.4432 119.1886 0.0000 0.0000 0.0000
# 4 0.0000 0.0000 0.0000 32.6459 0.0000 0.0000
# 5 0.0000 0.0000 0.0000 0.0000 16.9181 0.0000
# 6 0.0000 0.0000 0.0000 0.0000 0.0000 28.0536
#
#
#
# Elastic Compliance Matrix: (Units=1/GPa)
#
#
# Indices 1 2 3 4 5 6 
#
# 1 0.043056 -0.013032 -0.001268 0.000000 0.000000 0.000000
# 2 -0.013032 0.013422 -0.003866 0.000000 0.000000 0.000000
# 3 -0.001268 -0.003866 0.010333 0.000000 0.000000 0.000000
# 4 0.000000 0.000000 0.000000 0.030632 0.000000 0.000000
# 5 0.000000 0.000000 0.000000 0.000000 0.059108 0.000000
# 6 0.000000 0.000000 0.000000 0.000000 0.000000 0.035646
#
#
# Mechanical properties :
#
#
# Convention : Reuss Voigt Hill
#
# Bulk Modulus (GPa) = 32.80887 56.95357 44.88122
# Shear Modulus (GPa) = 20.94783 26.91769 23.93276
#
# Velocity S-wave (km/s) = 3.33861 3.78455 3.56855
# Velocity P-wave (km/s) = 5.68500 7.02866 6.39223
#
# Compressibility (1/GPa) = 0.03047956
#
# Stress axis : x y z
#
# Youngs Moduli (GPa) = 23.22568 74.50325 96.77719
#
# Poissons Ratio (x) = 0.97090 0.12272
# Poissons Ratio (y) = 0.30267 0.37414
# Poissons Ratio (z) = 0.02945 0.28803
#
# Static dielectric constant tensor:
#      x y z
#    x 3.140750 0.000000 0.000000 
#    y 0.000000 3.403390 0.000000 
#    z 0.000000 0.000000 3.709120 
# 
# 
# High freq. dielectric constant tensor:
#      x y z
#    x 1.697690 0.000000 0.000000 
#    y 0.000000 1.732100 0.000000 
#    z 0.000000 0.000000 1.748020 
# 
# From -- ./inp_files/11482.got.cif
#   From: 2010.03.12/outbox.cif.g09.slc.cpg/sg40_6_cif.got.tgz:11482.got - 2010.04.14 01:38:03.
