data_PCOD8183902
_publ_section_title
;
Structure prediction by ZEFSAII (Michael W. Deem and Ramdas Pophale) SiO2 
 PCOD8183902
Probable space group: A M A 2
;
_chemical_formula_sum "Si O2"
_cell_formula_units_Z 48
_cell_length_a 20.636551
_cell_length_b 8.864466
_cell_length_c 12.829047
_cell_angle_alpha 90.000000
_cell_angle_beta 90.000000
_cell_angle_gamma 90.000000
_cell_volume 2346.843286
_symmetry_space_group_name_H-M "A M A 2"
_symmetry_group_IT_number 40
_symmetry_cell_setting 'orthorhombic'
loop_
_space_group_symop_operation_xyz
x,y,z
-x,-y,z
1/2-x,y,z
1/2+x,-y,z
x,1/2+y,1/2+z
-x,1/2-y,1/2+z
1/2-x,1/2+y,1/2+z
1/2+x,1/2-y,1/2+z
loop_
_atom_site_type_symbol
_atom_site_label
_atom_site_fract_x
_atom_site_fract_y
_atom_site_fract_z
Si Si1 0.567130 0.186422 0.904750
Si Si2 0.676936 0.611851 0.075700
Si Si3 0.823720 0.826289 0.262068
Si Si4 0.942735 0.902164 0.586094
Si Si5 0.440248 0.642809 0.315237
Si Si6 0.322197 0.342891 0.832327
O O1 0.627093 0.251829 0.841696
O O2 0.495779 0.245092 0.869114
O O3 0.569143 0.006277 0.886972
O O4 0.572478 0.246924 0.023460
O O5 0.750000 0.550993 0.095579
O O6 0.664936 0.763102 0.144977
O O7 0.625044 0.487103 0.105629
O O8 0.666503 0.644426 0.955031
O O9 0.750000 0.791543 0.299076
O O10 0.835934 0.005002 0.267543
O O11 0.970750 0.875779 0.700916
O O12 0.000000 0.000000 0.529197
O O13 0.371756 0.718790 0.294221
O O14 0.250000 0.284729 0.808622
#
# Coordination Sequence:
#
# PCOD8183902 Si02
#       6
#     8   8   8   8   8   8
#     4  11  23  39  63  90 125 168 211 268 324 383
#     4  10  20  37  63  91 122 163 213 263 316 388
#     4  10  20  37  62  93 124 162 214 262 317 392
#     4  12  22  40  66  90 124 169 217 269 326 390
#     4  11  24  42  58  94 132 162 216 270 325 390
#     4  10  22  39  61  92 129 166 208 264 326 386
#
# _framework density 20.453005999999998
#
# number of rings (size 3 to 8) (size 9 to 14) (size 15 to 20)
#    0.000    1.333    5.000    1.000    0.000    2.667 
#    0.000    1.667    0.000    0.000    0.000    0.000 
#    0.000    0.000    0.000    0.000    0.000    0.000 
#
# Total GULP energy -297336.623394 kJ/mol
# GULP energy per Si atom -12389.025975 kJ/mol
# Density = 2.040645 g / cm^3
# Si number density = 20.453006 Si / 1000 Ang^3
#
#
#
# Elastic Constant Matrix: (Units=GPa)
#
#
# Indices 1 2 3 4 5 6 
#
# 1 126.3191 57.8675 20.7922 0.0000 0.0000 0.0000
# 2 57.8675 100.4345 55.5634 0.0000 0.0000 0.0000
# 3 20.7922 55.5634 96.8853 0.0000 0.0000 0.0000
# 4 0.0000 0.0000 0.0000 -40.0557 0.0000 0.0000
# 5 0.0000 0.0000 0.0000 0.0000 33.9429 0.0000
# 6 0.0000 0.0000 0.0000 0.0000 0.0000 45.7940
#
#
#
# Elastic Compliance Matrix: (Units=1/GPa)
#
#
# Indices 1 2 3 4 5 6 
#
# 1 0.010980 -0.007357 0.001863 0.000000 0.000000 0.000000
# 2 -0.007357 0.019513 -0.009612 0.000000 0.000000 0.000000
# 3 0.001863 -0.009612 0.015434 0.000000 0.000000 0.000000
# 4 0.000000 0.000000 0.000000 -0.024965 0.000000 0.000000
# 5 0.000000 0.000000 0.000000 0.000000 0.029461 0.000000
# 6 0.000000 0.000000 0.000000 0.000000 0.000000 0.021837
#
#
# Mechanical properties :
#
#
# Convention : Reuss Voigt Hill
#
# Bulk Modulus (GPa) = 63.63238 65.78721 64.70980
# Shear Modulus (GPa) = 46.42052 20.56396 33.49224
#
# Velocity S-wave (km/s) = 4.76922 3.17428 4.05102
# Velocity P-wave (km/s) = 7.84260 6.75793 7.32038
#
# Compressibility (1/GPa) = 0.01571527
#
# Stress axis : x y z
#
# Youngs Moduli (GPa) = 91.07369 51.24730 64.79156
#
# Poissons Ratio (x) = 0.37703 -0.12069
# Poissons Ratio (y) = 0.67003 0.62277
# Poissons Ratio (z) = -0.16965 0.49258
#
# Static dielectric constant tensor:
#      x y z
#    x 4.073720 0.000000 0.000000 
#    y 0.000000 5.390600 0.000000 
#    z 0.000000 0.000000 3.800240 
# 
# 
# High freq. dielectric constant tensor:
#      x y z
#    x 1.828720 0.000000 0.000000 
#    y 0.000000 1.777630 0.000000 
#    z 0.000000 0.000000 1.795860 
# 
# From -- ./inp_files/18078.got.cif
#   From: 2010.03.12/outbox.cif.g09.slc.cpg/sg40_10_cif.got.tgz:18078.got - 2010.04.14 01:38:03.
