data_PCOD8183846
_publ_section_title
;
Structure prediction by ZEFSAII (Michael W. Deem and Ramdas Pophale) SiO2 
 PCOD8183846
Probable space group: A M A 2
;
_chemical_formula_sum "Si O2"
_cell_formula_units_Z 56
_cell_length_a 9.304201
_cell_length_b 18.207458
_cell_length_c 17.264426
_cell_angle_alpha 90.000000
_cell_angle_beta 90.000000
_cell_angle_gamma 90.000000
_cell_volume 2924.694743
_symmetry_space_group_name_H-M "A M A 2"
_symmetry_group_IT_number 40
_symmetry_cell_setting 'orthorhombic'
loop_
_space_group_symop_operation_xyz
x,y,z
-x,-y,z
1/2-x,y,z
1/2+x,-y,z
x,1/2+y,1/2+z
-x,1/2-y,1/2+z
1/2-x,1/2+y,1/2+z
1/2+x,1/2-y,1/2+z
loop_
_atom_site_type_symbol
_atom_site_label
_atom_site_fract_x
_atom_site_fract_y
_atom_site_fract_z
Si Si1 0.918825 0.076618 0.070310
Si Si2 0.079480 0.676256 0.869379
Si Si3 0.914488 0.926972 0.504478
Si Si4 0.586396 0.172294 0.930389
Si Si5 0.584751 0.343083 0.157446
Si Si6 0.916022 0.681960 0.710681
Si Si7 0.585497 0.071265 0.783032
O O1 0.750000 0.061841 0.056782
O O2 0.948363 0.116695 0.151186
O O3 0.984916 0.127330 0.001194
O O4 0.000000 0.000000 0.070323
O O5 0.250000 0.684979 0.857779
O O6 0.039633 0.605747 0.921289
O O7 0.016079 0.748205 0.913609
O O8 0.009406 0.666233 0.786055
O O9 0.750000 0.950953 0.503065
O O10 0.940358 0.863423 0.567954
O O11 0.000000 0.000000 0.524788
O O12 0.750000 0.185324 0.955624
O O13 0.571984 0.128997 0.851061
O O14 0.750000 0.356142 0.182081
O O15 0.540204 0.258635 0.170325
O O16 0.483412 0.396094 0.206080
O O17 0.750000 0.683210 0.735176
O O18 0.750000 0.050574 0.765286
O O19 0.500000 0.000000 0.810173
#
# Coordination Sequence:
#
# PCOD8183846 Si02
#       7
#     8   8   8   8   8   8   8
#     4  10  21  38  58  82 113 149 187 230 279 332
#     4  10  20  38  61  83 109 146 190 231 277 333
#     4  10  22  38  58  82 111 148 188 231 278 331
#     4   9  18  35  58  81 108 144 186 227 273 329
#     4  10  20  37  58  82 111 146 187 231 279 332
#     4  10  21  37  59  85 113 145 186 234 282 330
#     4  11  21  33  53  83 115 149 183 224 276 332
#
# _framework density 19.147296999999998
#
# number of rings (size 3 to 8) (size 9 to 14) (size 15 to 20)
#    0.000    2.000    1.429    2.143    0.000    6.857 
#    0.000    4.286    0.000    3.429    0.000    0.000 
#    0.000    0.000    0.000    0.000    0.000    0.000 
#
# Total GULP energy -347222.552964 kJ/mol
# GULP energy per Si atom -12400.805463 kJ/mol
# Density = 1.910372 g / cm^3
# Si number density = 19.147297 Si / 1000 Ang^3
#
#
#
# Elastic Constant Matrix: (Units=GPa)
#
#
# Indices 1 2 3 4 5 6 
#
# 1 57.6881 25.8161 39.9251 0.0000 0.0000 0.0000
# 2 25.8161 67.9746 36.4274 0.0000 0.0000 0.0000
# 3 39.9251 36.4274 116.3831 0.0000 0.0000 0.0000
# 4 0.0000 0.0000 0.0000 25.4867 0.0000 0.0000
# 5 0.0000 0.0000 0.0000 0.0000 30.6826 0.0000
# 6 0.0000 0.0000 0.0000 0.0000 0.0000 29.4168
#
#
#
# Elastic Compliance Matrix: (Units=1/GPa)
#
#
# Indices 1 2 3 4 5 6 
#
# 1 0.024476 -0.005763 -0.006593 0.000000 0.000000 0.000000
# 2 -0.005763 0.019033 -0.003980 0.000000 0.000000 0.000000
# 3 -0.006593 -0.003980 0.012100 0.000000 0.000000 0.000000
# 4 0.000000 0.000000 0.000000 0.039236 0.000000 0.000000
# 5 0.000000 0.000000 0.000000 0.000000 0.032592 0.000000
# 6 0.000000 0.000000 0.000000 0.000000 0.000000 0.033994
#
#
# Mechanical properties :
#
#
# Convention : Reuss Voigt Hill
#
# Bulk Modulus (GPa) = 43.59718 49.59810 46.59764
# Shear Modulus (GPa) = 24.78326 26.44238 25.61282
#
# Velocity S-wave (km/s) = 3.60161 3.72021 3.66139
# Velocity P-wave (km/s) = 6.33358 6.66430 6.50105
#
# Compressibility (1/GPa) = 0.02293726
#
# Stress axis : x y z
#
# Youngs Moduli (GPa) = 40.85576 52.54007 82.64583
#
# Poissons Ratio (x) = 0.30278 0.54487
# Poissons Ratio (y) = 0.23544 0.32896
# Poissons Ratio (z) = 0.26936 0.20913
#
# Static dielectric constant tensor:
#      x y z
#    x 3.354730 0.000000 0.000000 
#    y 0.000000 3.578350 0.000000 
#    z 0.000000 0.000000 3.531930 
# 
# 
# High freq. dielectric constant tensor:
#      x y z
#    x 1.721180 0.000000 0.000000 
#    y 0.000000 1.754630 0.000000 
#    z 0.000000 0.000000 1.754810 
# 
# From -- ./inp_files/15335.got.cif
#   From: 2010.03.12/outbox.cif.g09.slc.cpg/sg40_8_cif.got.tgz:15335.got - 2010.04.14 01:38:03.
