data_PCOD8183512
_publ_section_title
;
Structure prediction by ZEFSAII (Michael W. Deem and Ramdas Pophale) SiO2 
 PCOD8183512
Probable space group: A M A 2
;
_chemical_formula_sum "Si O2"
_cell_formula_units_Z 48
_cell_length_a 9.058837
_cell_length_b 30.366145
_cell_length_c 9.949901
_cell_angle_alpha 90.000000
_cell_angle_beta 90.000000
_cell_angle_gamma 90.000000
_cell_volume 2737.038248
_symmetry_space_group_name_H-M "A M A 2"
_symmetry_group_IT_number 40
_symmetry_cell_setting 'orthorhombic'
loop_
_space_group_symop_operation_xyz
x,y,z
-x,-y,z
1/2-x,y,z
1/2+x,-y,z
x,1/2+y,1/2+z
-x,1/2-y,1/2+z
1/2-x,1/2+y,1/2+z
1/2+x,1/2-y,1/2+z
loop_
_atom_site_type_symbol
_atom_site_label
_atom_site_fract_x
_atom_site_fract_y
_atom_site_fract_z
Si Si1 0.575944 0.212855 0.796680
Si Si2 0.577779 0.880768 0.088198
Si Si3 0.577211 0.455351 0.090240
Si Si4 0.076038 0.217142 0.071205
Si Si5 0.075871 0.544965 0.782786
Si Si6 0.923291 0.378100 0.283811
O O1 0.750000 0.208198 0.814352
O O2 0.532957 0.248279 0.684384
O O3 0.509648 0.166428 0.749829
O O4 0.506298 0.230402 0.934675
O O5 0.750000 0.881779 0.115643
O O6 0.519956 0.831326 0.117492
O O7 0.507054 0.916004 0.190919
O O8 0.540541 0.894034 0.934977
O O9 0.500000 0.500000 0.138617
O O10 0.750000 0.462360 0.109382
O O11 0.519833 0.415465 0.182335
O O12 0.535647 0.444024 0.936815
O O13 0.250000 0.216019 0.040534
O O14 0.250000 0.539370 0.762980
O O15 0.000000 0.500000 0.735863
O O16 0.750000 0.368556 0.266221
#
# Coordination Sequence:
#
# PCOD8183512 Si02
#       6
#     8   8   8   8   8   8
#     4  10  20  33  52  77 101 129 166 207 250 295
#     4   8  15  30  49  65  87 121 156 188 226 280
#     4   9  18  31  48  69  93 124 159 196 240 288
#     4   9  19  35  52  72 100 131 164 204 248 296
#     4   9  17  30  47  67  91 119 154 193 234 283
#     4   9  18  33  50  68  95 130 162 196 243 294
#
# _framework density 17.537205
#
# number of rings (size 3 to 8) (size 9 to 14) (size 15 to 20)
#    0.000    3.000    0.000    1.500    0.000    4.000 
#    0.000    6.667    0.000    0.000    0.000    0.000 
#    0.000    0.000    0.000    0.000    0.000    0.000 
#
# Total GULP energy -297570.013286 kJ/mol
# GULP energy per Si atom -12398.750554 kJ/mol
# Density = 1.749729 g / cm^3
# Si number density = 17.537205 Si / 1000 Ang^3
#
#
#
# Elastic Constant Matrix: (Units=GPa)
#
#
# Indices 1 2 3 4 5 6 
#
# 1 38.9449 48.5916 42.9981 0.0000 0.0000 0.0000
# 2 48.5916 153.4224 112.8068 0.0000 0.0000 0.0000
# 3 42.9981 112.8068 127.6740 0.0000 0.0000 0.0000
# 4 0.0000 0.0000 0.0000 43.3269 0.0000 0.0000
# 5 0.0000 0.0000 0.0000 0.0000 21.2626 0.0000
# 6 0.0000 0.0000 0.0000 0.0000 0.0000 28.9091
#
#
#
# Elastic Compliance Matrix: (Units=1/GPa)
#
#
# Indices 1 2 3 4 5 6 
#
# 1 0.044696 -0.008815 -0.007264 0.000000 0.000000 0.000000
# 2 -0.008815 0.020342 -0.015005 0.000000 0.000000 0.000000
# 3 -0.007264 -0.015005 0.023537 0.000000 0.000000 0.000000
# 4 0.000000 0.000000 0.000000 0.023080 0.000000 0.000000
# 5 0.000000 0.000000 0.000000 0.000000 0.047031 0.000000
# 6 0.000000 0.000000 0.000000 0.000000 0.000000 0.034591
#
#
# Mechanical properties :
#
#
# Convention : Reuss Voigt Hill
#
# Bulk Modulus (GPa) = 37.86914 80.98160 59.42537
# Shear Modulus (GPa) = 18.92161 26.40937 22.66549
#
# Velocity S-wave (km/s) = 3.28829 3.88481 3.59893
# Velocity P-wave (km/s) = 6.00480 8.14859 7.15742
#
# Compressibility (1/GPa) = 0.02640673
#
# Stress axis : x y z
#
# Youngs Moduli (GPa) = 22.37344 49.15836 42.48682
#
# Poissons Ratio (x) = 0.43331 0.30865
# Poissons Ratio (y) = 0.19721 0.63752
# Poissons Ratio (z) = 0.16253 0.73762
#
# Static dielectric constant tensor:
#      x y z
#    x 3.047480 0.000000 0.000000 
#    y 0.000000 3.457260 0.000000 
#    z 0.000000 0.000000 3.365370 
# 
# 
# High freq. dielectric constant tensor:
#      x y z
#    x 1.657140 0.000000 0.000000 
#    y 0.000000 1.683750 0.000000 
#    z 0.000000 0.000000 1.679720 
# 
# From -- ./inp_files/5441.got.cif
#   From: 2010.03.12/outbox.cif.g09.slc.cpg/sg40_3_cif.got.tgz:5441.got - 2010.04.14 01:38:03.
