data_PCOD8183970
_publ_section_title
;
Structure prediction by ZEFSAII (Michael W. Deem and Ramdas Pophale) SiO2 
 PCOD8183970
Probable space group: A M A 2
;
_chemical_formula_sum "Si O2"
_cell_formula_units_Z 56
_cell_length_a 21.320579
_cell_length_b 11.107796
_cell_length_c 11.432988
_cell_angle_alpha 90.000000
_cell_angle_beta 90.000000
_cell_angle_gamma 90.000000
_cell_volume 2707.613292
_symmetry_space_group_name_H-M "A M A 2"
_symmetry_group_IT_number 40
_symmetry_cell_setting 'orthorhombic'
loop_
_space_group_symop_operation_xyz
x,y,z
-x,-y,z
1/2-x,y,z
1/2+x,-y,z
x,1/2+y,1/2+z
-x,1/2-y,1/2+z
1/2-x,1/2+y,1/2+z
1/2+x,1/2-y,1/2+z
loop_
_atom_site_type_symbol
_atom_site_label
_atom_site_fract_x
_atom_site_fract_y
_atom_site_fract_z
Si Si1 0.986862 0.358772 0.831490
Si Si2 0.618445 0.824744 0.503185
Si Si3 0.322326 0.628945 0.449942
Si Si4 0.382282 0.275442 0.759429
Si Si5 0.177244 0.375956 0.357789
Si Si6 0.373177 0.207627 0.186525
Si Si7 0.179318 0.009426 0.335051
O O1 0.943035 0.336506 0.718275
O O2 0.000000 0.500000 0.842873
O O3 0.048821 0.278467 0.816666
O O4 0.951052 0.310873 0.947510
O O5 0.614520 0.801846 0.640623
O O6 0.666619 0.725982 0.454590
O O7 0.645184 0.956307 0.459655
O O8 0.250000 0.623339 0.488640
O O9 0.330370 0.710741 0.337141
O O10 0.349266 0.498004 0.416278
O O11 0.363621 0.694329 0.549062
O O12 0.357768 0.412476 0.755066
O O13 0.250000 0.393198 0.328040
O O14 0.139975 0.342983 0.236867
O O15 0.321242 0.127316 0.253946
O O16 0.250000 0.967273 0.361111
#
# Coordination Sequence:
#
# PCOD8183970 Si02
#       7
#     8   8   8   8   8   8   8
#     4  10  21  44  63  88 121 164 214 275 327 389
#     4  10  22  39  63  92 121 163 216 267 322 383
#     4  11  24  38  58  94 134 165 203 264 331 394
#     4  12  24  39  61  95 124 168 216 262 328 393
#     4   9  19  38  60  86 121 159 206 257 313 383
#     4  10  20  39  64  88 117 168 212 257 320 382
#     4  10  20  38  65  92 120 159 210 265 324 384
#
# _framework density 20.682421000000001
#
# number of rings (size 3 to 8) (size 9 to 14) (size 15 to 20)
#    0.000    2.000    2.857    3.857    2.000    4.571 
#    0.000    4.286    0.000    0.000    0.000    0.000 
#    0.000    0.000    0.000    0.000    0.000    0.000 
#
# Total GULP energy -346974.479776 kJ/mol
# GULP energy per Si atom -12391.945706 kJ/mol
# Density = 2.063535 g / cm^3
# Si number density = 20.682421 Si / 1000 Ang^3
#
#
#
# Elastic Constant Matrix: (Units=GPa)
#
#
# Indices 1 2 3 4 5 6 
#
# 1 93.7623 12.5649 26.5800 0.0000 0.0000 0.0000
# 2 12.5649 40.7375 28.4670 0.0000 0.0000 0.0000
# 3 26.5800 28.4670 126.5612 0.0000 0.0000 0.0000
# 4 0.0000 0.0000 0.0000 30.7595 0.0000 0.0000
# 5 0.0000 0.0000 0.0000 0.0000 23.4433 0.0000
# 6 0.0000 0.0000 0.0000 0.0000 0.0000 28.6678
#
#
#
# Elastic Compliance Matrix: (Units=1/GPa)
#
#
# Indices 1 2 3 4 5 6 
#
# 1 0.011505 -0.002207 -0.001920 0.000000 0.000000 0.000000
# 2 -0.002207 0.029549 -0.006183 0.000000 0.000000 0.000000
# 3 -0.001920 -0.006183 0.009695 0.000000 0.000000 0.000000
# 4 0.000000 0.000000 0.000000 0.032510 0.000000 0.000000
# 5 0.000000 0.000000 0.000000 0.000000 0.042656 0.000000
# 6 0.000000 0.000000 0.000000 0.000000 0.000000 0.034882
#
#
# Mechanical properties :
#
#
# Convention : Reuss Voigt Hill
#
# Bulk Modulus (GPa) = 33.18980 44.03163 38.61072
# Shear Modulus (GPa) = 26.11507 29.47073 27.79290
#
# Velocity S-wave (km/s) = 3.55726 3.77890 3.66976
# Velocity P-wave (km/s) = 5.74059 6.35419 6.05517
#
# Compressibility (1/GPa) = 0.03012973
#
# Stress axis : x y z
#
# Youngs Moduli (GPa) = 86.91662 33.84253 103.14391
#
# Poissons Ratio (x) = 0.07469 0.19802
# Poissons Ratio (y) = 0.19183 0.63771
# Poissons Ratio (z) = 0.16687 0.20924
#
# Static dielectric constant tensor:
#      x y z
#    x 3.705610 0.000000 0.000000 
#    y 0.000000 3.909820 0.000000 
#    z 0.000000 0.000000 3.678430 
# 
# 
# High freq. dielectric constant tensor:
#      x y z
#    x 1.808640 0.000000 0.000000 
#    y 0.000000 1.805490 0.000000 
#    z 0.000000 0.000000 1.792230 
# 
# From -- ./inp_files/13586.got.cif
#   From: 2010.03.12/outbox.cif.g09.slc.cpg/sg40_7_cif.got.tgz:13586.got - 2010.04.14 01:38:03.
