data_PCOD8183722
_publ_section_title
;
Structure prediction by ZEFSAII (Michael W. Deem and Ramdas Pophale) SiO2 
 PCOD8183722
Probable space group: A M A 2
;
_chemical_formula_sum "Si O2"
_cell_formula_units_Z 48
_cell_length_a 13.150885
_cell_length_b 11.573953
_cell_length_c 16.732317
_cell_angle_alpha 90.000000
_cell_angle_beta 90.000000
_cell_angle_gamma 90.000000
_cell_volume 2546.787903
_symmetry_space_group_name_H-M "A M A 2"
_symmetry_group_IT_number 40
_symmetry_cell_setting 'orthorhombic'
loop_
_space_group_symop_operation_xyz
x,y,z
-x,-y,z
1/2-x,y,z
1/2+x,-y,z
x,1/2+y,1/2+z
-x,1/2-y,1/2+z
1/2-x,1/2+y,1/2+z
1/2+x,1/2-y,1/2+z
loop_
_atom_site_type_symbol
_atom_site_label
_atom_site_fract_x
_atom_site_fract_y
_atom_site_fract_z
Si Si1 0.869749 0.937267 0.580970
Si Si2 0.034859 0.372393 0.319664
Si Si3 0.369546 0.265650 0.473000
Si Si4 0.525013 0.131119 0.118936
Si Si5 0.133730 0.221057 0.726084
Si Si6 0.629446 0.169806 0.651650
O O1 0.750000 0.942453 0.593522
O O2 0.895516 0.868340 0.498524
O O3 0.910593 0.864651 0.657026
O O4 0.910412 0.069769 0.587821
O O5 0.095201 0.297997 0.384821
O O6 0.105814 0.375776 0.241132
O O7 0.000000 0.500000 0.347893
O O8 0.930456 0.302182 0.305463
O O9 0.250000 0.287106 0.481096
O O10 0.426898 0.352019 0.532129
O O11 0.608870 0.154205 0.188594
O O12 0.424517 0.209875 0.131085
O O13 0.500000 0.000000 0.129871
O O14 0.250000 0.205617 0.748774
O O15 0.750000 0.188782 0.643202
#
# Coordination Sequence:
#
# PCOD8183722 Si02
#       6
#     8   8   8   8   8   8
#     4   8  15  32  56  83 110 148 192 238 294 351
#     4  11  20  32  56  91 122 153 197 251 297 354
#     4  10  21  35  54  82 120 154 187 242 307 357
#     4  10  21  36  56  83 111 154 201 244 293 357
#     4   9  18  33  56  80 109 149 194 244 294 346
#     4  10  20  35  61  90 116 153 207 257 296 351
#
# _framework density 18.847270999999999
#
# number of rings (size 3 to 8) (size 9 to 14) (size 15 to 20)
#    0.000    2.333    1.667    2.500    0.000    2.000 
#    0.000    0.833   14.667    0.000    0.000    0.000 
#    0.000    0.000    0.000    0.000    0.000    0.000 
#
# Total GULP energy -297414.148925 kJ/mol
# GULP energy per Si atom -12392.256205 kJ/mol
# Density = 1.880437 g / cm^3
# Si number density = 18.847271 Si / 1000 Ang^3
#
#
#
# Elastic Constant Matrix: (Units=GPa)
#
#
# Indices 1 2 3 4 5 6 
#
# 1 78.1231 40.7992 27.5776 0.0000 0.0000 0.0000
# 2 40.7992 140.6852 44.9923 0.0000 0.0000 0.0000
# 3 27.5776 44.9923 80.7465 0.0000 0.0000 0.0000
# 4 0.0000 0.0000 0.0000 24.5356 0.0000 0.0000
# 5 0.0000 0.0000 0.0000 0.0000 31.5808 0.0000
# 6 0.0000 0.0000 0.0000 0.0000 0.0000 22.2110
#
#
#
# Elastic Compliance Matrix: (Units=1/GPa)
#
#
# Indices 1 2 3 4 5 6 
#
# 1 0.015845 -0.003486 -0.003470 0.000000 0.000000 0.000000
# 2 -0.003486 0.009416 -0.004056 0.000000 0.000000 0.000000
# 3 -0.003470 -0.004056 0.015830 0.000000 0.000000 0.000000
# 4 0.000000 0.000000 0.000000 0.040757 0.000000 0.000000
# 5 0.000000 0.000000 0.000000 0.000000 0.031665 0.000000
# 6 0.000000 0.000000 0.000000 0.000000 0.000000 0.045023
#
#
# Mechanical properties :
#
#
# Convention : Reuss Voigt Hill
#
# Bulk Modulus (GPa) = 52.44312 58.47700 55.46006
# Shear Modulus (GPa) = 26.75017 28.07785 27.41401
#
# Velocity S-wave (km/s) = 3.77146 3.86392 3.81797
# Velocity P-wave (km/s) = 6.84478 7.14148 6.99470
#
# Compressibility (1/GPa) = 0.01906828
#
# Stress axis : x y z
#
# Youngs Moduli (GPa) = 63.10984 106.20061 63.17298
#
# Poissons Ratio (x) = 0.37018 0.21918
# Poissons Ratio (y) = 0.21998 0.25625
# Poissons Ratio (z) = 0.21896 0.43078
#
# Static dielectric constant tensor:
#      x y z
#    x 3.578990 0.000000 0.000000 
#    y 0.000000 3.506810 0.000000 
#    z 0.000000 0.000000 3.241860 
# 
# 
# High freq. dielectric constant tensor:
#      x y z
#    x 1.755110 0.000000 0.000000 
#    y 0.000000 1.722360 0.000000 
#    z 0.000000 0.000000 1.700970 
# 
# From -- ./inp_files/16967.got.cif
#   From: 2010.03.12/outbox.cif.g09.slc.cpg/sg40_9_cif.got.tgz:16967.got - 2010.04.14 01:38:03.
