data_PCOD8183850
_publ_section_title
;
Structure prediction by ZEFSAII (Michael W. Deem and Ramdas Pophale) SiO2 
 PCOD8183850
Probable space group: A M A 2
;
_chemical_formula_sum "Si O2"
_cell_formula_units_Z 48
_cell_length_a 8.604738
_cell_length_b 9.603538
_cell_length_c 30.820695
_cell_angle_alpha 90.000000
_cell_angle_beta 90.000000
_cell_angle_gamma 90.000000
_cell_volume 2546.896744
_symmetry_space_group_name_H-M "A M A 2"
_symmetry_group_IT_number 40
_symmetry_cell_setting 'orthorhombic'
loop_
_space_group_symop_operation_xyz
x,y,z
-x,-y,z
1/2-x,y,z
1/2+x,-y,z
x,1/2+y,1/2+z
-x,1/2-y,1/2+z
1/2-x,1/2+y,1/2+z
1/2+x,1/2-y,1/2+z
loop_
_atom_site_type_symbol
_atom_site_label
_atom_site_fract_x
_atom_site_fract_y
_atom_site_fract_z
Si Si1 0.431731 0.348506 0.743340
Si Si2 0.933204 0.354192 0.315730
Si Si3 0.067897 0.347605 0.648731
Si Si4 0.933499 0.844035 0.061317
Si Si5 0.565898 0.850332 0.914372
Si Si6 0.934124 0.345192 0.985689
O O1 0.500000 0.500000 0.747345
O O2 0.250000 0.363605 0.749972
O O3 0.504424 0.256873 0.782011
O O4 0.465184 0.277482 0.695860
O O5 0.750000 0.360777 0.312060
O O6 0.983643 0.318912 0.364827
O O7 0.000000 0.500000 0.300617
O O8 0.250000 0.352865 0.637867
O O9 0.000000 0.500000 0.653076
O O10 0.979503 0.276267 0.608151
O O11 0.750000 0.848657 0.055424
O O12 0.000000 0.000000 0.056752
O O13 0.006054 0.745153 0.025573
O O14 0.750000 0.851830 0.921099
O O15 0.490729 0.726406 0.941530
O O16 0.500000 0.000000 0.929537
O O17 0.750000 0.351967 0.986446
O O18 0.000000 0.500000 0.988681
#
# Coordination Sequence:
#
# PCOD8183850 Si02
#       6
#     8   8   8   8   8   8
#     4   9  18  32  51  77 108 141 178 221 266 313
#     4   9  19  35  54  78 108 141 178 219 262 311
#     4   9  16  29  50  76 106 139 178 223 266 309
#     4  11  21  36  58  83 109 141 182 223 266 316
#     4  10  20  37  59  82 108 141 182 224 266 315
#     4  12  25  41  58  80 110 141 175 218 271 324
#
# _framework density 18.846464000000001
#
# number of rings (size 3 to 8) (size 9 to 14) (size 15 to 20)
#    0.000    2.000    0.000    5.500    0.000    2.667 
#    0.000    2.500    0.000    2.000    0.000    0.000 
#    0.000    0.000    0.000    0.000    0.000    0.000 
#
# Total GULP energy -297488.548166 kJ/mol
# GULP energy per Si atom -12395.356174 kJ/mol
# Density = 1.880357 g / cm^3
# Si number density = 18.846464 Si / 1000 Ang^3
#
#
#
# Elastic Constant Matrix: (Units=GPa)
#
#
# Indices 1 2 3 4 5 6 
#
# 1 99.4418 43.5864 46.6077 0.0000 0.0000 0.0000
# 2 43.5864 111.8073 82.9427 0.0000 0.0000 0.0000
# 3 46.6077 82.9427 150.9567 0.0000 0.0000 0.0000
# 4 0.0000 0.0000 0.0000 36.5311 0.0000 0.0000
# 5 0.0000 0.0000 0.0000 0.0000 30.9089 0.0000
# 6 0.0000 0.0000 0.0000 0.0000 0.0000 28.5249
#
#
#
# Elastic Compliance Matrix: (Units=1/GPa)
#
#
# Indices 1 2 3 4 5 6 
#
# 1 0.012473 -0.003386 -0.001991 0.000000 0.000000 0.000000
# 2 -0.003386 0.016017 -0.007755 0.000000 0.000000 0.000000
# 3 -0.001991 -0.007755 0.011500 0.000000 0.000000 0.000000
# 4 0.000000 0.000000 0.000000 0.027374 0.000000 0.000000
# 5 0.000000 0.000000 0.000000 0.000000 0.032353 0.000000
# 6 0.000000 0.000000 0.000000 0.000000 0.000000 0.035057
#
#
# Mechanical properties :
#
#
# Convention : Reuss Voigt Hill
#
# Bulk Modulus (GPa) = 72.84919 78.71993 75.78456
# Shear Modulus (GPa) = 30.19088 31.79759 30.99424
#
# Velocity S-wave (km/s) = 4.00676 4.11200 4.05972
# Velocity P-wave (km/s) = 7.75522 8.02524 7.89139
#
# Compressibility (1/GPa) = 0.01372699
#
# Stress axis : x y z
#
# Youngs Moduli (GPa) = 80.17204 62.43455 86.95572
#
# Poissons Ratio (x) = 0.21138 0.17312
# Poissons Ratio (y) = 0.27143 0.67435
# Poissons Ratio (z) = 0.15961 0.48419
#
# Static dielectric constant tensor:
#      x y z
#    x 3.520850 0.000000 0.000000 
#    y 0.000000 3.325100 0.000000 
#    z 0.000000 0.000000 4.272300 
# 
# 
# High freq. dielectric constant tensor:
#      x y z
#    x 1.742380 0.000000 0.000000 
#    y 0.000000 1.703080 0.000000 
#    z 0.000000 0.000000 1.756720 
# 
# From -- ./inp_files/26121.got.cif
#   From: 2010.03.12/outbox.cif.g09.slc.cpg/sg40_14_cif.got.tgz:26121.got - 2010.04.14 01:38:03.
