data_PCOD8183339
_publ_section_title
;
Structure prediction by ZEFSAII (Michael W. Deem and Ramdas Pophale) SiO2 
 PCOD8183339
Probable space group: A M A 2
;
_chemical_formula_sum "Si O2"
_cell_formula_units_Z 56
_cell_length_a 20.234770
_cell_length_b 15.063110
_cell_length_c 9.716874
_cell_angle_alpha 90.000000
_cell_angle_beta 90.000000
_cell_angle_gamma 90.000000
_cell_volume 2961.689264
_symmetry_space_group_name_H-M "A M A 2"
_symmetry_group_IT_number 40
_symmetry_cell_setting 'orthorhombic'
loop_
_space_group_symop_operation_xyz
x,y,z
-x,-y,z
1/2-x,y,z
1/2+x,-y,z
x,1/2+y,1/2+z
-x,1/2-y,1/2+z
1/2-x,1/2+y,1/2+z
1/2+x,1/2-y,1/2+z
loop_
_atom_site_type_symbol
_atom_site_label
_atom_site_fract_x
_atom_site_fract_y
_atom_site_fract_z
Si Si1 0.481310 0.099526 0.113470
Si Si2 0.825199 0.269375 0.255119
Si Si3 0.035709 0.647176 0.911565
Si Si4 0.422410 0.889759 0.751818
Si Si5 0.433177 0.083954 0.692633
Si Si6 0.409999 0.257742 0.000633
Si Si7 0.392681 0.807677 0.017713
O O1 0.456719 0.091901 0.271298
O O2 0.500000 0.000000 0.058281
O O3 0.422904 0.152033 0.031555
O O4 0.543802 0.164809 0.107988
O O5 0.750000 0.302090 0.259544
O O6 0.875022 0.347917 0.218065
O O7 0.844228 0.232470 0.406569
O O8 0.833166 0.198277 0.129179
O O9 0.095994 0.715191 0.936738
O O10 0.968482 0.703412 0.907720
O O11 0.037069 0.579903 0.038712
O O12 0.502108 0.890355 0.785276
O O13 0.402448 0.814408 0.641206
O O14 0.381553 0.876835 0.893943
O O15 0.401168 0.987841 0.709801
#
# Coordination Sequence:
#
# PCOD8183339 Si02
#       7
#     8   8   8   8   8   8   8
#     4  11  21  29  56  89 122 142 177 242 298 343
#     4  11  23  41  58  75 115 162 198 230 281 357
#     4   9  17  33  52  84 117 143 180 234 288 348
#     4  10  19  35  63  91 117 137 186 255 297 348
#     4   9  20  33  60  91 117 146 182 237 306 342
#     4  10  20  36  53  84 112 153 187 227 288 342
#     4  10  20  35  54  84 112 149 187 234 292 341
#
# _framework density 18.908128999999999
#
# number of rings (size 3 to 8) (size 9 to 14) (size 15 to 20)
#    0.000    2.000    2.857    2.571    8.000    0.000 
#    0.000    2.143    0.000    0.000    0.000    0.000 
#    0.000    0.000    0.000    0.000    0.000    0.000 
#
# Total GULP energy -346875.070474 kJ/mol
# GULP energy per Si atom -12388.395374 kJ/mol
# Density = 1.886509 g / cm^3
# Si number density = 18.908129 Si / 1000 Ang^3
#
#
#
# Elastic Constant Matrix: (Units=GPa)
#
#
# Indices 1 2 3 4 5 6 
#
# 1 78.2364 17.1076 31.7776 0.0000 0.0000 0.0000
# 2 17.1076 99.6274 39.4795 0.0000 0.0000 0.0000
# 3 31.7776 39.4795 105.6504 0.0000 0.0000 0.0000
# 4 0.0000 0.0000 0.0000 21.9018 0.0000 0.0000
# 5 0.0000 0.0000 0.0000 0.0000 17.5940 0.0000
# 6 0.0000 0.0000 0.0000 0.0000 0.0000 11.3399
#
#
#
# Elastic Compliance Matrix: (Units=1/GPa)
#
#
# Indices 1 2 3 4 5 6 
#
# 1 0.014629 -0.000902 -0.004063 0.000000 0.000000 0.000000
# 2 -0.000902 0.011838 -0.004152 0.000000 0.000000 0.000000
# 3 -0.004063 -0.004152 0.012239 0.000000 0.000000 0.000000
# 4 0.000000 0.000000 0.000000 0.045658 0.000000 0.000000
# 5 0.000000 0.000000 0.000000 0.000000 0.056837 0.000000
# 6 0.000000 0.000000 0.000000 0.000000 0.000000 0.088184
#
#
# Mechanical properties :
#
#
# Convention : Reuss Voigt Hill
#
# Bulk Modulus (GPa) = 48.84907 51.13819 49.99363
# Shear Modulus (GPa) = 19.65066 23.17712 21.41389
#
# Velocity S-wave (km/s) = 3.22727 3.50491 3.36895
# Velocity P-wave (km/s) = 6.30699 6.59420 6.45219
#
# Compressibility (1/GPa) = 0.02047122
#
# Stress axis : x y z
#
# Youngs Moduli (GPa) = 68.35561 84.47602 81.70667
#
# Poissons Ratio (x) = 0.07620 0.33199
# Poissons Ratio (y) = 0.06166 0.33926
# Poissons Ratio (z) = 0.27774 0.35076
#
# Static dielectric constant tensor:
#      x y z
#    x 2.895090 0.000000 0.000000 
#    y 0.000000 3.441070 0.000000 
#    z 0.000000 0.000000 3.775220 
# 
# 
# High freq. dielectric constant tensor:
#      x y z
#    x 1.657520 0.000000 0.000000 
#    y 0.000000 1.733560 0.000000 
#    z 0.000000 0.000000 1.761180 
# 
# From -- ./inp_files/8421.got.cif
#   From: 2010.03.12/outbox.cif.g09.slc.cpg/sg40_5_cif.got.tgz:8421.got - 2010.04.14 01:38:03.
