data_PCOD8183596
_publ_section_title
;
Structure prediction by ZEFSAII (Michael W. Deem and Ramdas Pophale) SiO2 
 PCOD8183596
Probable space group: A M A 2
;
_chemical_formula_sum "Si O2"
_cell_formula_units_Z 52
_cell_length_a 14.293691
_cell_length_b 20.229130
_cell_length_c 8.529357
_cell_angle_alpha 90.000000
_cell_angle_beta 90.000000
_cell_angle_gamma 90.000000
_cell_volume 2466.254479
_symmetry_space_group_name_H-M "A M A 2"
_symmetry_group_IT_number 40
_symmetry_cell_setting 'orthorhombic'
loop_
_space_group_symop_operation_xyz
x,y,z
-x,-y,z
1/2-x,y,z
1/2+x,-y,z
x,1/2+y,1/2+z
-x,1/2-y,1/2+z
1/2-x,1/2+y,1/2+z
1/2+x,1/2-y,1/2+z
loop_
_atom_site_type_symbol
_atom_site_label
_atom_site_fract_x
_atom_site_fract_y
_atom_site_fract_z
Si Si1 0.646611 0.818765 0.391680
Si Si2 0.026663 0.376461 0.735378
Si Si3 0.143223 0.765122 0.396926
Si Si4 0.000000 0.000000 0.434459
Si Si5 0.475781 0.132928 0.888513
Si Si6 0.142370 0.077379 0.642707
Si Si7 0.647720 0.683505 0.247715
O O1 0.750000 0.837265 0.329988
O O2 0.577254 0.852723 0.272163
O O3 0.632519 0.848334 0.566982
O O4 0.633315 0.739692 0.383482
O O5 0.104609 0.322631 0.783082
O O6 0.047363 0.444097 0.826464
O O7 0.022207 0.389873 0.550466
O O8 0.250000 0.747815 0.345597
O O9 0.074643 0.703366 0.389981
O O10 0.141000 0.787030 0.575766
O O11 0.086208 0.025391 0.538146
O O12 0.402006 0.080266 0.817263
O O13 0.563958 0.131971 0.768358
O O14 0.250000 0.054643 0.653213
O O15 0.750000 0.650223 0.270943
#
# Coordination Sequence:
#
# PCOD8183596 Si02
#       7
#     8   8   8   4   8   8   8
#     4   9  17  33  56  85 121 164 205 246 307 375
#     4  11  23  38  62  90 129 168 215 267 322 383
#     4  11  22  37  60  93 132 169 204 258 326 393
#     4  10  24  46  66  86 120 172 224 272 322 378
#     4  12  22  37  62  97 131 160 211 264 330 395
#     4  10  23  41  66  92 123 169 217 265 318 385
#     4  10  20  34  55  88 130 167 199 245 312 384
#
# _framework density 21.084603999999999
#
# number of rings (size 3 to 8) (size 9 to 14) (size 15 to 20)
#    0.000    1.538    3.077    2.308    2.154    2.462 
#    0.000    0.769    0.000    1.846    0.000    0.000 
#    0.000    0.000    0.000    0.000    0.000    0.000 
#
# Total GULP energy -322294.438112 kJ/mol
# GULP energy per Si atom -12395.939927 kJ/mol
# Density = 2.103661 g / cm^3
# Si number density = 21.084604 Si / 1000 Ang^3
#
#
#
# Elastic Constant Matrix: (Units=GPa)
#
#
# Indices 1 2 3 4 5 6 
#
# 1 158.1818 29.8411 53.3780 0.0000 0.0000 0.0000
# 2 29.8411 57.7538 30.1367 0.0000 0.0000 0.0000
# 3 53.3780 30.1367 101.0157 0.0000 0.0000 0.0000
# 4 0.0000 0.0000 0.0000 21.8074 0.0000 0.0000
# 5 0.0000 0.0000 0.0000 0.0000 27.8665 0.0000
# 6 0.0000 0.0000 0.0000 0.0000 0.0000 24.2101
#
#
#
# Elastic Compliance Matrix: (Units=1/GPa)
#
#
# Indices 1 2 3 4 5 6 
#
# 1 0.007936 -0.002265 -0.003518 0.000000 0.000000 0.000000
# 2 -0.002265 0.021154 -0.005114 0.000000 0.000000 0.000000
# 3 -0.003518 -0.005114 0.013284 0.000000 0.000000 0.000000
# 4 0.000000 0.000000 0.000000 0.045856 0.000000 0.000000
# 5 0.000000 0.000000 0.000000 0.000000 0.035885 0.000000
# 6 0.000000 0.000000 0.000000 0.000000 0.000000 0.041305
#
#
# Mechanical properties :
#
#
# Convention : Reuss Voigt Hill
#
# Bulk Modulus (GPa) = 48.59041 60.40698 54.49869
# Shear Modulus (GPa) = 25.76330 28.34983 27.05657
#
# Velocity S-wave (km/s) = 3.49936 3.67082 3.58612
# Velocity P-wave (km/s) = 6.27876 6.83217 6.56131
#
# Compressibility (1/GPa) = 0.02058019
#
# Stress axis : x y z
#
# Youngs Moduli (GPa) = 126.00448 47.27285 75.27803
#
# Poissons Ratio (x) = 0.10707 0.26482
# Poissons Ratio (y) = 0.28539 0.38498
# Poissons Ratio (z) = 0.44327 0.24176
#
# Static dielectric constant tensor:
#      x y z
#    x 4.143130 0.000000 0.000000 
#    y 0.000000 3.572860 0.000000 
#    z 0.000000 0.000000 3.824110 
# 
# 
# High freq. dielectric constant tensor:
#      x y z
#    x 1.845810 0.000000 0.000000 
#    y 0.000000 1.788370 0.000000 
#    z 0.000000 0.000000 1.826020 
# 
# From -- ./inp_files/6672.got.cif
#   From: 2010.03.12/outbox.cif.g09.slc.cpg/sg40_4_cif.got.tgz:6672.got - 2010.04.14 01:38:03.
