data_PCOD8183449
_publ_section_title
;
Structure prediction by ZEFSAII (Michael W. Deem and Ramdas Pophale) SiO2 
 PCOD8183449
Probable space group: A M A 2
;
_chemical_formula_sum "Si O2"
_cell_formula_units_Z 64
_cell_length_a 13.542204
_cell_length_b 11.549242
_cell_length_c 18.436206
_cell_angle_alpha 90.000000
_cell_angle_beta 90.000000
_cell_angle_gamma 90.000000
_cell_volume 2883.463016
_symmetry_space_group_name_H-M "A M A 2"
_symmetry_group_IT_number 40
_symmetry_cell_setting 'orthorhombic'
loop_
_space_group_symop_operation_xyz
x,y,z
-x,-y,z
1/2-x,y,z
1/2+x,-y,z
x,1/2+y,1/2+z
-x,1/2-y,1/2+z
1/2-x,1/2+y,1/2+z
1/2+x,1/2-y,1/2+z
loop_
_atom_site_type_symbol
_atom_site_label
_atom_site_fract_x
_atom_site_fract_y
_atom_site_fract_z
Si Si1 0.046550 0.672948 0.774530
Si Si2 0.633849 0.681838 0.495587
Si Si3 0.636268 0.051045 0.333296
Si Si4 0.359730 0.411840 0.100548
Si Si5 0.860917 0.923291 0.727209
Si Si6 0.867026 0.096316 0.843533
Si Si7 0.864127 0.933959 0.471741
Si Si8 0.017726 0.758205 0.131309
O O1 0.124208 0.573996 0.795418
O O2 0.078116 0.797491 0.804441
O O3 0.934064 0.649230 0.801150
O O4 0.043970 0.662652 0.686698
O O5 0.750000 0.682852 0.513055
O O6 0.608026 0.591168 0.430787
O O7 0.581169 0.664396 0.574353
O O8 0.594174 0.804606 0.464196
O O9 0.750000 0.092721 0.327476
O O10 0.595609 0.028880 0.415182
O O11 0.250000 0.365785 0.080673
O O12 0.364904 0.456297 0.182484
O O13 0.438752 0.313100 0.084005
O O14 0.386806 0.524347 0.052753
O O15 0.750000 0.874876 0.732168
O O16 0.897700 0.971882 0.806500
O O17 0.922942 0.824121 0.688110
O O18 0.750000 0.116185 0.833657
O O19 0.750000 0.924710 0.453346
#
# Coordination Sequence:
#
# PCOD8183449 Si02
#       8
#     8   8   8   8   8   8   8   8
#     4  11  23  34  57  86 112 150 197 242 300 350
#     4  10  20  34  56  86 118 153 195 243 297 359
#     4  10  22  40  58  81 115 150 192 249 300 354
#     4  10  20  31  48  82 122 154 185 231 302 362
#     4  10  20  35  55  82 122 158 187 237 300 359
#     4  10  20  36  57  85 121 161 198 233 292 374
#     4   9  17  31  53  81 110 142 179 227 295 353
#     4  12  23  34  57  89 121 155 200 251 300 356
#
# _framework density 22.195535
#
# number of rings (size 3 to 8) (size 9 to 14) (size 15 to 20)
#    0.000    1.750    3.750    1.125    1.750    1.500 
#    0.000    0.000    0.000    3.000    0.000    0.000 
#    0.000    0.000    0.000    0.000    0.000    0.000 
#
# Total GULP energy -396439.976111 kJ/mol
# GULP energy per Si atom -12388.749253 kJ/mol
# Density = 2.214502 g / cm^3
# Si number density = 22.195535 Si / 1000 Ang^3
#
#
#
# Elastic Constant Matrix: (Units=GPa)
#
#
# Indices 1 2 3 4 5 6 
#
# 1 62.3809 8.1084 18.7853 0.0000 0.0000 0.0000
# 2 8.1084 34.9964 24.2391 0.0000 0.0000 0.0000
# 3 18.7853 24.2391 139.2175 0.0000 0.0000 0.0000
# 4 0.0000 0.0000 0.0000 32.5377 0.0000 0.0000
# 5 0.0000 0.0000 0.0000 0.0000 30.5116 0.0000
# 6 0.0000 0.0000 0.0000 0.0000 0.0000 16.1237
#
#
#
# Elastic Compliance Matrix: (Units=1/GPa)
#
#
# Indices 1 2 3 4 5 6 
#
# 1 0.016925 -0.002660 -0.001821 0.000000 0.000000 0.000000
# 2 -0.002660 0.032911 -0.005371 0.000000 0.000000 0.000000
# 3 -0.001821 -0.005371 0.008364 0.000000 0.000000 0.000000
# 4 0.000000 0.000000 0.000000 0.030734 0.000000 0.000000
# 5 0.000000 0.000000 0.000000 0.000000 0.032774 0.000000
# 6 0.000000 0.000000 0.000000 0.000000 0.000000 0.062020
#
#
# Mechanical properties :
#
#
# Convention : Reuss Voigt Hill
#
# Bulk Modulus (GPa) = 25.97725 37.65118 31.81421
# Shear Modulus (GPa) = 23.11995 28.19873 25.65934
#
# Velocity S-wave (km/s) = 3.23096 3.56823 3.40378
# Velocity P-wave (km/s) = 5.06439 5.82894 5.46006
#
# Compressibility (1/GPa) = 0.03849522
#
# Stress axis : x y z
#
# Youngs Moduli (GPa) = 59.08563 30.38510 119.56259
#
# Poissons Ratio (x) = 0.08084 0.21767
# Poissons Ratio (y) = 0.15719 0.64219
# Poissons Ratio (z) = 0.10757 0.16320
#
# Static dielectric constant tensor:
#      x y z
#    x 4.077960 0.000000 0.000000 
#    y 0.000000 3.556720 0.000000 
#    z 0.000000 0.000000 4.373980 
# 
# 
# High freq. dielectric constant tensor:
#      x y z
#    x 1.881120 0.000000 0.000000 
#    y 0.000000 1.824850 0.000000 
#    z 0.000000 0.000000 1.881590 
# 
# From -- ./inp_files/20781.got.cif
#   From: 2010.03.12/outbox.cif.g09.slc.cpg/sg40_11_cif.got.tgz:20781.got - 2010.04.14 01:38:03.
