data_PCOD8183022
_publ_section_title
;
Structure prediction by ZEFSAII (Michael W. Deem and Ramdas Pophale) SiO2 
 PCOD8183022
Probable space group: A M A 2
;
_chemical_formula_sum "Si O2"
_cell_formula_units_Z 64
_cell_length_a 19.417867
_cell_length_b 17.798778
_cell_length_c 10.056236
_cell_angle_alpha 90.000000
_cell_angle_beta 90.000000
_cell_angle_gamma 90.000000
_cell_volume 3475.579006
_symmetry_space_group_name_H-M "A M A 2"
_symmetry_group_IT_number 40
_symmetry_cell_setting 'orthorhombic'
loop_
_space_group_symop_operation_xyz
x,y,z
-x,-y,z
1/2-x,y,z
1/2+x,-y,z
x,1/2+y,1/2+z
-x,1/2-y,1/2+z
1/2-x,1/2+y,1/2+z
1/2+x,1/2-y,1/2+z
loop_
_atom_site_type_symbol
_atom_site_label
_atom_site_fract_x
_atom_site_fract_y
_atom_site_fract_z
Si Si1 0.327012 0.899383 0.553040
Si Si2 0.174700 0.773785 0.362308
Si Si3 0.957933 0.685995 0.721845
Si Si4 0.034939 0.424338 0.949825
Si Si5 0.028446 0.143626 0.706425
Si Si6 0.674093 0.883534 0.772057
Si Si7 0.827085 0.552318 0.349749
Si Si8 0.531560 0.580129 0.474916
O O1 0.250000 0.930325 0.521937
O O2 0.335362 0.811808 0.507932
O O3 0.382995 0.942644 0.461366
O O4 0.342559 0.908509 0.708323
O O5 0.250000 0.794339 0.306363
O O6 0.123559 0.804808 0.248776
O O7 0.166992 0.683687 0.381017
O O8 0.987533 0.641245 0.849013
O O9 0.991604 0.768427 0.709108
O O10 0.977377 0.640017 0.591490
O O11 0.000000 0.500000 0.900274
O O12 0.014481 0.399666 0.096999
O O13 0.109636 0.128513 0.672146
O O14 0.011228 0.107382 0.848110
O O15 0.750000 0.878538 0.700651
O O16 0.667757 0.962700 0.843612
O O17 0.750000 0.575422 0.398714
O O18 0.886222 0.578266 0.449906
O O19 0.500000 0.500000 0.519137
#
# Coordination Sequence:
#
# PCOD8183022 Si02
#       8
#     8   8   8   8   8   8   8   8
#     4   9  17  31  52  79 103 133 178 223 259 304
#     4   8  16  32  53  75 104 142 181 216 257 315
#     4  10  23  35  52  79 113 142 174 222 273 318
#     4  11  20  35  56  80 107 140 178 217 266 317
#     4  11  20  36  58  80 105 141 186 220 259 315
#     4   9  17  31  52  81 107 137 178 220 259 308
#     4  10  19  32  51  80 108 137 175 223 267 309
#     4  12  22  37  54  80 111 143 179 223 274 318
#
# _framework density 18.414197999999999
#
# number of rings (size 3 to 8) (size 9 to 14) (size 15 to 20)
#    0.000    2.000    2.500    2.250    0.000    0.500 
#    0.000    0.000    0.000    0.000    0.000    3.500 
#    0.000    0.000    0.000    0.000    0.000    0.000 
#
# Total GULP energy -396451.026207 kJ/mol
# GULP energy per Si atom -12389.094569 kJ/mol
# Density = 1.837229 g / cm^3
# Si number density = 18.414198 Si / 1000 Ang^3
#
#
#
# Elastic Constant Matrix: (Units=GPa)
#
#
# Indices 1 2 3 4 5 6 
#
# 1 87.1264 20.7916 13.8324 0.0000 0.0000 0.0000
# 2 20.7916 91.8245 20.8257 0.0000 0.0000 0.0000
# 3 13.8324 20.8257 58.7400 0.0000 0.0000 0.0000
# 4 0.0000 0.0000 0.0000 27.8951 0.0000 0.0000
# 5 0.0000 0.0000 0.0000 0.0000 8.4631 0.0000
# 6 0.0000 0.0000 0.0000 0.0000 0.0000 24.7444
#
#
#
# Elastic Compliance Matrix: (Units=1/GPa)
#
#
# Indices 1 2 3 4 5 6 
#
# 1 0.012364 -0.002326 -0.002087 0.000000 0.000000 0.000000
# 2 -0.002326 0.012280 -0.003806 0.000000 0.000000 0.000000
# 3 -0.002087 -0.003806 0.018865 0.000000 0.000000 0.000000
# 4 0.000000 0.000000 0.000000 0.035849 0.000000 0.000000
# 5 0.000000 0.000000 0.000000 0.000000 0.118160 0.000000
# 6 0.000000 0.000000 0.000000 0.000000 0.000000 0.040413
#
#
# Mechanical properties :
#
#
# Convention : Reuss Voigt Hill
#
# Bulk Modulus (GPa) = 36.93981 38.73225 37.83603
# Shear Modulus (GPa) = 18.98301 24.36992 21.67647
#
# Velocity S-wave (km/s) = 3.21423 3.64185 3.43470
# Velocity P-wave (km/s) = 5.82057 6.22604 6.02672
#
# Compressibility (1/GPa) = 0.02707106
#
# Stress axis : x y z
#
# Youngs Moduli (GPa) = 80.87985 81.43139 53.00825
#
# Poissons Ratio (x) = 0.18943 0.11062
# Poissons Ratio (y) = 0.18815 0.20175
# Poissons Ratio (z) = 0.16878 0.30993
#
# Static dielectric constant tensor:
#      x y z
#    x 3.835730 0.000000 0.000000 
#    y 0.000000 3.588810 0.000000 
#    z 0.000000 0.000000 3.041980 
# 
# 
# High freq. dielectric constant tensor:
#      x y z
#    x 1.733640 0.000000 0.000000 
#    y 0.000000 1.720240 0.000000 
#    z 0.000000 0.000000 1.670840 
# 
# From -- ./inp_files/8438.got.cif
#   From: 2010.03.12/outbox.cif.g09.slc.cpg/sg40_5_cif.got.tgz:8438.got - 2010.04.14 01:38:03.
