data_PCOD8183715
_publ_section_title
;
Structure prediction by ZEFSAII (Michael W. Deem and Ramdas Pophale) SiO2 
 PCOD8183715
Probable space group: A M A 2
;
_chemical_formula_sum "Si O2"
_cell_formula_units_Z 64
_cell_length_a 17.699965
_cell_length_b 11.753600
_cell_length_c 16.209016
_cell_angle_alpha 90.000000
_cell_angle_beta 90.000000
_cell_angle_gamma 90.000000
_cell_volume 3372.096273
_symmetry_space_group_name_H-M "A M A 2"
_symmetry_group_IT_number 40
_symmetry_cell_setting 'orthorhombic'
loop_
_space_group_symop_operation_xyz
x,y,z
-x,-y,z
1/2-x,y,z
1/2+x,-y,z
x,1/2+y,1/2+z
-x,1/2-y,1/2+z
1/2-x,1/2+y,1/2+z
1/2+x,1/2-y,1/2+z
loop_
_atom_site_type_symbol
_atom_site_label
_atom_site_fract_x
_atom_site_fract_y
_atom_site_fract_z
Si Si1 0.839092 0.183463 0.309550
Si Si2 0.427683 0.301390 0.973469
Si Si3 0.077612 0.067049 0.066221
Si Si4 0.592466 0.823563 0.408967
Si Si5 0.661113 0.133313 0.000948
Si Si6 0.838815 0.293959 0.146074
Si Si7 0.162290 0.008701 0.533016
Si Si8 0.914764 0.457977 0.752098
O O1 0.750000 0.193163 0.321918
O O2 0.877702 0.223998 0.393269
O O3 0.870098 0.267815 0.237373
O O4 0.859019 0.055065 0.285162
O O5 0.509317 0.344591 0.945595
O O6 0.434322 0.190335 0.028777
O O7 0.389259 0.397539 0.029902
O O8 0.108320 0.078545 0.159748
O O9 0.137553 0.998067 0.010023
O O10 0.000000 0.000000 0.064588
O O11 0.620798 0.693914 0.422621
O O12 0.649191 0.910943 0.453957
O O13 0.593599 0.848418 0.311379
O O14 0.750000 0.142131 0.988472
O O15 0.629943 0.199916 0.081970
O O16 0.750000 0.277949 0.146638
O O17 0.860302 0.420822 0.115847
O O18 0.250000 0.972709 0.534082
O O19 0.000000 0.500000 0.756117
#
# Coordination Sequence:
#
# PCOD8183715 Si02
#       8
#     8   8   8   8   8   8   8   8
#     4  11  21  36  59  88 119 157 202 247 296 357
#     4  12  23  37  59  88 125 157 195 251 305 359
#     4  11  24  41  61  88 126 161 198 249 308 365
#     4  11  20  37  59  88 123 153 201 249 301 352
#     4  10  20  37  62  87 118 163 204 238 294 365
#     4   8  17  34  57  85 116 150 194 241 284 351
#     4  10  20  35  59  89 119 153 193 241 298 358
#     4  11  21  36  61  92 119 153 199 256 302 352
#
# _framework density 18.979292999999998
#
# number of rings (size 3 to 8) (size 9 to 14) (size 15 to 20)
#    0.000    1.500    5.000    1.875    0.000    1.500 
#    0.000    1.250    0.000    1.500    0.000    0.000 
#    0.000    0.000    0.000    0.000    0.000    0.000 
#
# Total GULP energy -396804.509344 kJ/mol
# GULP energy per Si atom -12400.140917 kJ/mol
# Density = 1.893610 g / cm^3
# Si number density = 18.979293 Si / 1000 Ang^3
#
#
#
# Elastic Constant Matrix: (Units=GPa)
#
#
# Indices 1 2 3 4 5 6 
#
# 1 77.0499 21.2375 20.4217 0.0000 0.0000 0.0000
# 2 21.2375 99.5967 50.5598 0.0000 0.0000 0.0000
# 3 20.4217 50.5598 109.2266 0.0000 0.0000 0.0000
# 4 0.0000 0.0000 0.0000 36.9507 0.0000 0.0000
# 5 0.0000 0.0000 0.0000 0.0000 18.8757 0.0000
# 6 0.0000 0.0000 0.0000 0.0000 0.0000 29.8778
#
#
#
# Elastic Compliance Matrix: (Units=1/GPa)
#
#
# Indices 1 2 3 4 5 6 
#
# 1 0.014004 -0.002166 -0.001616 0.000000 0.000000 0.000000
# 2 -0.002166 0.013460 -0.005825 0.000000 0.000000 0.000000
# 3 -0.001616 -0.005825 0.012154 0.000000 0.000000 0.000000
# 4 0.000000 0.000000 0.000000 0.027063 0.000000 0.000000
# 5 0.000000 0.000000 0.000000 0.000000 0.052978 0.000000
# 6 0.000000 0.000000 0.000000 0.000000 0.000000 0.033470
#
#
# Mechanical properties :
#
#
# Convention : Reuss Voigt Hill
#
# Bulk Modulus (GPa) = 49.01147 52.25679 50.63413
# Shear Modulus (GPa) = 27.91066 30.05112 28.98089
#
# Velocity S-wave (km/s) = 3.83898 3.98347 3.91189
# Velocity P-wave (km/s) = 6.74760 6.98217 6.86589
#
# Compressibility (1/GPa) = 0.02040339
#
# Stress axis : x y z
#
# Youngs Moduli (GPa) = 71.40912 74.29670 82.27857
#
# Poissons Ratio (x) = 0.16092 0.13293
# Poissons Ratio (y) = 0.15467 0.47930
# Poissons Ratio (z) = 0.11537 0.43280
#
# Static dielectric constant tensor:
#      x y z
#    x 3.490970 0.000000 0.000000 
#    y 0.000000 3.515460 0.000000 
#    z 0.000000 0.000000 3.724550 
# 
# 
# High freq. dielectric constant tensor:
#      x y z
#    x 1.740810 0.000000 0.000000 
#    y 0.000000 1.721930 0.000000 
#    z 0.000000 0.000000 1.729170 
# 
# From -- ./inp_files/17902.got.cif
#   From: 2010.03.12/outbox.cif.g09.slc.cpg/sg40_9_cif.got.tgz:17902.got - 2010.04.14 01:38:03.
