data_PCOD8183762
_publ_section_title
;
Structure prediction by ZEFSAII (Michael W. Deem and Ramdas Pophale) SiO2 
 PCOD8183762
Probable space group: A M A 2
;
_chemical_formula_sum "Si O2"
_cell_formula_units_Z 56
_cell_length_a 8.898561
_cell_length_b 14.431319
_cell_length_c 22.175795
_cell_angle_alpha 90.000000
_cell_angle_beta 90.000000
_cell_angle_gamma 90.000000
_cell_volume 2847.770631
_symmetry_space_group_name_H-M "A M A 2"
_symmetry_group_IT_number 40
_symmetry_cell_setting 'orthorhombic'
loop_
_space_group_symop_operation_xyz
x,y,z
-x,-y,z
1/2-x,y,z
1/2+x,-y,z
x,1/2+y,1/2+z
-x,1/2-y,1/2+z
1/2-x,1/2+y,1/2+z
1/2+x,1/2-y,1/2+z
loop_
_atom_site_type_symbol
_atom_site_label
_atom_site_fract_x
_atom_site_fract_y
_atom_site_fract_z
Si Si1 0.928578 0.095155 0.257920
Si Si2 0.926594 0.899785 0.478889
Si Si3 0.075467 0.907883 0.828721
Si Si4 0.925085 0.591953 0.193139
Si Si5 0.925806 0.407491 0.629699
Si Si6 0.577416 0.712959 0.082492
Si Si7 0.574018 0.292386 0.859686
O O1 0.750000 0.086700 0.255444
O O2 0.992676 0.117021 0.192062
O O3 0.977229 0.176097 0.302746
O O4 0.000000 0.000000 0.282949
O O5 0.750000 0.913846 0.479623
O O6 0.979861 0.848325 0.418245
O O7 0.971237 0.834877 0.534229
O O8 0.000000 0.000000 0.483767
O O9 0.250000 0.928928 0.827153
O O10 0.014498 0.888285 0.760707
O O11 0.040167 0.817230 0.869109
O O12 0.000000 0.000000 0.856737
O O13 0.750000 0.573570 0.194852
O O14 0.964732 0.677078 0.149368
O O15 0.000000 0.500000 0.165723
O O16 0.750000 0.424029 0.642753
O O17 0.949961 0.323524 0.582803
O O18 0.000000 0.500000 0.601241
O O19 0.750000 0.689221 0.066670
O O20 0.750000 0.308031 0.845931
#
# Coordination Sequence:
#
# PCOD8183762 Si02
#       7
#     8   8   8   8   8   8   8
#     4  11  21  33  54  84 115 147 182 225 275 330
#     4  11  24  40  59  81 108 142 183 229 276 327
#     4   9  18  34  55  79 109 140 175 219 267 320
#     4   9  17  30  50  77 106 137 170 210 262 318
#     4  10  20  36  57  82 113 147 182 225 274 326
#     4  10  21  37  57  79 107 145 185 225 273 323
#     4  10  21  38  57  78 108 148 188 229 276 326
#
# _framework density 19.664505999999999
#
# number of rings (size 3 to 8) (size 9 to 14) (size 15 to 20)
#    0.000    2.000    0.000    4.714    0.000    8.000 
#    0.000    3.571    0.000    3.429    0.000    0.000 
#    0.000    0.000    0.000    0.000    0.000    0.000 
#
# Total GULP energy -347204.963161 kJ/mol
# GULP energy per Si atom -12400.177256 kJ/mol
# Density = 1.961975 g / cm^3
# Si number density = 19.664506 Si / 1000 Ang^3
#
#
#
# Elastic Constant Matrix: (Units=GPa)
#
#
# Indices 1 2 3 4 5 6 
#
# 1 79.2689 50.1413 30.0243 0.0000 0.0000 0.0000
# 2 50.1413 144.1927 48.5432 0.0000 0.0000 0.0000
# 3 30.0243 48.5432 58.5895 0.0000 0.0000 0.0000
# 4 0.0000 0.0000 0.0000 31.0946 0.0000 0.0000
# 5 0.0000 0.0000 0.0000 0.0000 6.0741 0.0000
# 6 0.0000 0.0000 0.0000 0.0000 0.0000 34.8130
#
#
#
# Elastic Compliance Matrix: (Units=1/GPa)
#
#
# Indices 1 2 3 4 5 6 
#
# 1 0.017318 -0.004208 -0.005388 0.000000 0.000000 0.000000
# 2 -0.004208 0.010640 -0.006659 0.000000 0.000000 0.000000
# 3 -0.005388 -0.006659 0.025347 0.000000 0.000000 0.000000
# 4 0.000000 0.000000 0.000000 0.032160 0.000000 0.000000
# 5 0.000000 0.000000 0.000000 0.000000 0.164634 0.000000
# 6 0.000000 0.000000 0.000000 0.000000 0.000000 0.028725
#
#
# Mechanical properties :
#
#
# Convention : Reuss Voigt Hill
#
# Bulk Modulus (GPa) = 48.09156 59.94097 54.01627
# Shear Modulus (GPa) = 15.71011 24.61917 20.16464
#
# Velocity S-wave (km/s) = 2.82956 3.54214 3.20571
# Velocity P-wave (km/s) = 5.93164 6.87583 6.42111
#
# Compressibility (1/GPa) = 0.02079367
#
# Stress axis : x y z
#
# Youngs Moduli (GPa) = 57.74355 93.98092 39.45312
#
# Poissons Ratio (x) = 0.39549 0.21257
# Poissons Ratio (y) = 0.24300 0.26274
# Poissons Ratio (z) = 0.31112 0.62586
#
# Static dielectric constant tensor:
#      x y z
#    x 3.548840 0.000000 0.000000 
#    y 0.000000 3.863500 0.000000 
#    z 0.000000 0.000000 3.403380 
# 
# 
# High freq. dielectric constant tensor:
#      x y z
#    x 1.764190 0.000000 0.000000 
#    y 0.000000 1.781000 0.000000 
#    z 0.000000 0.000000 1.739900 
# 
# From -- ./inp_files/22140.got.cif
#   From: 2010.03.12/outbox.cif.g09.slc.cpg/sg40_12_cif.got.tgz:22140.got - 2010.04.14 01:38:03.
