data_PCOD8183455
_publ_section_title
;
Structure prediction by ZEFSAII (Michael W. Deem and Ramdas Pophale) SiO2 
 PCOD8183455
Probable space group: A M A 2
;
_chemical_formula_sum "Si O2"
_cell_formula_units_Z 48
_cell_length_a 9.170716
_cell_length_b 31.329729
_cell_length_c 9.326627
_cell_angle_alpha 90.000000
_cell_angle_beta 90.000000
_cell_angle_gamma 90.000000
_cell_volume 2679.689602
_symmetry_space_group_name_H-M "A M A 2"
_symmetry_group_IT_number 40
_symmetry_cell_setting 'orthorhombic'
loop_
_space_group_symop_operation_xyz
x,y,z
-x,-y,z
1/2-x,y,z
1/2+x,-y,z
x,1/2+y,1/2+z
-x,1/2-y,1/2+z
1/2-x,1/2+y,1/2+z
1/2+x,1/2-y,1/2+z
loop_
_atom_site_type_symbol
_atom_site_label
_atom_site_fract_x
_atom_site_fract_y
_atom_site_fract_z
Si Si1 0.416637 0.041353 0.301110
Si Si2 0.076964 0.631538 0.479190
Si Si3 0.581699 0.622076 0.778114
Si Si4 0.911725 0.460529 0.458447
Si Si5 0.585395 0.216277 0.299616
Si Si6 0.080627 0.286939 0.463613
O O1 0.250000 0.041018 0.354749
O O2 0.497217 0.083977 0.360965
O O3 0.426446 0.041427 0.129692
O O4 0.500000 0.000000 0.363142
O O5 0.250000 0.636421 0.503951
O O6 0.043318 0.586440 0.397439
O O7 0.993611 0.629828 0.627645
O O8 0.010745 0.672771 0.398080
O O9 0.750000 0.608584 0.755259
O O10 0.570923 0.667594 0.859255
O O11 0.750000 0.471099 0.410461
O O12 0.000000 0.500000 0.391777
O O13 0.750000 0.232750 0.327397
O O14 0.469586 0.244437 0.383803
O O15 0.548949 0.218894 0.131404
O O16 0.250000 0.295171 0.433007
#
# Coordination Sequence:
#
# PCOD8183455 Si02
#       6
#     8   8   8   8   8   8
#     4   9  15  22  33  51  76 108 143 177 217 263
#     4   9  16  26  39  56  81 113 145 178 221 266
#     4   9  16  26  39  57  82 111 145 182 220 266
#     4   8  14  21  31  49  73 104 138 170 208 254
#     4   9  19  33  47  66  92 120 151 189 230 271
#     4  10  20  32  48  69  90 118 155 190 228 272
#
# _framework density 17.912521000000002
#
# number of rings (size 3 to 8) (size 9 to 14) (size 15 to 20)
#    0.000    3.000    0.000    4.000    0.000    8.667 
#    0.000    0.000    0.000    0.000    0.000    0.000 
#    0.000    1.333    0.000    7.333    0.000    9.333 
#
# Total GULP energy -297338.383378 kJ/mol
# GULP energy per Si atom -12389.099307 kJ/mol
# Density = 1.787175 g / cm^3
# Si number density = 17.912521 Si / 1000 Ang^3
#
#
#
# Elastic Constant Matrix: (Units=GPa)
#
#
# Indices 1 2 3 4 5 6 
#
# 1 134.7292 88.5814 18.6515 0.0000 0.0000 0.0000
# 2 88.5814 166.2132 22.0632 0.0000 0.0000 0.0000
# 3 18.6515 22.0632 14.3456 0.0000 0.0000 0.0000
# 4 0.0000 0.0000 0.0000 9.7625 0.0000 0.0000
# 5 0.0000 0.0000 0.0000 0.0000 13.2235 0.0000
# 6 0.0000 0.0000 0.0000 0.0000 0.0000 43.0573
#
#
#
# Elastic Compliance Matrix: (Units=1/GPa)
#
#
# Indices 1 2 3 4 5 6 
#
# 1 0.011996 -0.005432 -0.007243 0.000000 0.000000 0.000000
# 2 -0.005432 0.010019 -0.008347 0.000000 0.000000 0.000000
# 3 -0.007243 -0.008347 0.091962 0.000000 0.000000 0.000000
# 4 0.000000 0.000000 0.000000 0.102433 0.000000 0.000000
# 5 0.000000 0.000000 0.000000 0.000000 0.075623 0.000000
# 6 0.000000 0.000000 0.000000 0.000000 0.000000 0.023225
#
#
# Mechanical properties :
#
#
# Convention : Reuss Voigt Hill
#
# Bulk Modulus (GPa) = 13.90163 63.76446 38.83305
# Shear Modulus (GPa) = 13.11372 25.60812 19.36092
#
# Velocity S-wave (km/s) = 2.70867 3.78514 3.29121
# Velocity P-wave (km/s) = 4.19049 7.40121 6.01407
#
# Compressibility (1/GPa) = 0.07193399
#
# Stress axis : x y z
#
# Youngs Moduli (GPa) = 83.35898 99.80826 10.87403
#
# Poissons Ratio (x) = 0.54214 0.07876
# Poissons Ratio (y) = 0.45279 0.09077
# Poissons Ratio (z) = 0.60376 0.83311
#
# Static dielectric constant tensor:
#      x y z
#    x 3.485710 0.000000 0.000000 
#    y 0.000000 4.178930 0.000000 
#    z 0.000000 0.000000 2.498610 
# 
# 
# High freq. dielectric constant tensor:
#      x y z
#    x 1.709000 0.000000 0.000000 
#    y 0.000000 1.723480 0.000000 
#    z 0.000000 0.000000 1.593280 
# 
# From -- ./inp_files/10314.got.cif
#   From: 2010.03.12/outbox.cif.g09.slc.cpg/sg40_6_cif.got.tgz:10314.got - 2010.04.14 01:38:03.
