data_PCOD8183212
_publ_section_title
;
Structure prediction by ZEFSAII (Michael W. Deem and Ramdas Pophale) SiO2 
 PCOD8183212
Probable space group: A M A 2
;
_chemical_formula_sum "Si O2"
_cell_formula_units_Z 64
_cell_length_a 8.746896
_cell_length_b 20.570945
_cell_length_c 19.336072
_cell_angle_alpha 90.000000
_cell_angle_beta 90.000000
_cell_angle_gamma 90.000000
_cell_volume 3479.176493
_symmetry_space_group_name_H-M "A M A 2"
_symmetry_group_IT_number 40
_symmetry_cell_setting 'orthorhombic'
loop_
_space_group_symop_operation_xyz
x,y,z
-x,-y,z
1/2-x,y,z
1/2+x,-y,z
x,1/2+y,1/2+z
-x,1/2-y,1/2+z
1/2-x,1/2+y,1/2+z
1/2+x,1/2-y,1/2+z
loop_
_atom_site_type_symbol
_atom_site_label
_atom_site_fract_x
_atom_site_fract_y
_atom_site_fract_z
Si Si1 0.070409 0.383267 0.347080
Si Si2 0.574042 0.264928 0.840154
Si Si3 0.930523 0.566561 0.065587
Si Si4 0.071474 0.617198 0.203574
Si Si5 0.929600 0.434101 0.482943
Si Si6 0.570662 0.805941 0.063591
Si Si7 0.926529 0.230826 0.199981
Si Si8 0.072661 0.684220 0.988435
O O1 0.250000 0.394218 0.352209
O O2 0.023191 0.308229 0.358796
O O3 0.010754 0.407321 0.272907
O O4 0.989500 0.425526 0.405311
O O5 0.750000 0.265168 0.817031
O O6 0.474627 0.292331 0.776637
O O7 0.545049 0.309855 0.906482
O O8 0.750000 0.561451 0.071723
O O9 0.000000 0.500000 0.035108
O O10 0.001402 0.577376 0.140832
O O11 0.972948 0.624094 0.013538
O O12 0.250000 0.602625 0.209698
O O13 0.038583 0.693026 0.190728
O O14 0.750000 0.441128 0.481013
O O15 0.980681 0.374223 0.530929
O O16 0.000000 0.500000 0.514662
O O17 0.750000 0.792797 0.053935
O O18 0.527278 0.808034 0.144361
O O19 0.476140 0.749701 0.026448
O O20 0.750000 0.214365 0.188278
O O21 0.250000 0.671869 0.006188
#
# Coordination Sequence:
#
# PCOD8183212 Si02
#       8
#     8   8   8   8   8   8   8   8
#     4  10  19  34  55  81 113 152 191 231 278 334
#     4   9  19  34  56  84 116 148 183 229 282 334
#     4  12  25  40  58  82 114 153 192 236 283 337
#     4  10  20  35  54  81 115 151 191 233 276 333
#     4  11  24  39  56  81 113 152 193 237 285 338
#     4  11  22  36  58  85 114 148 190 236 283 336
#     4  10  20  33  56  85 116 148 185 232 281 334
#     4  11  21  37  60  87 115 148 188 233 283 335
#
# _framework density 18.395157999999999
#
# number of rings (size 3 to 8) (size 9 to 14) (size 15 to 20)
#    0.000    1.500    2.500    3.375    0.000    4.500 
#    0.000    2.500    0.000    0.750    0.000    3.500 
#    0.000    0.000    0.000    0.000    0.000    0.000 
#
# Total GULP energy -396980.346309 kJ/mol
# GULP energy per Si atom -12405.635822 kJ/mol
# Density = 1.835329 g / cm^3
# Si number density = 18.395158 Si / 1000 Ang^3
#
#
#
# Elastic Constant Matrix: (Units=GPa)
#
#
# Indices 1 2 3 4 5 6 
#
# 1 42.8324 29.5100 16.8613 0.0000 0.0000 0.0000
# 2 29.5100 95.2747 40.0503 0.0000 0.0000 0.0000
# 3 16.8613 40.0503 80.9661 0.0000 0.0000 0.0000
# 4 0.0000 0.0000 0.0000 19.1959 0.0000 0.0000
# 5 0.0000 0.0000 0.0000 0.0000 31.9780 0.0000
# 6 0.0000 0.0000 0.0000 0.0000 0.0000 28.7866
#
#
#
# Elastic Compliance Matrix: (Units=1/GPa)
#
#
# Indices 1 2 3 4 5 6 
#
# 1 0.029956 -0.008403 -0.002082 0.000000 0.000000 0.000000
# 2 -0.008403 0.015609 -0.005971 0.000000 0.000000 0.000000
# 3 -0.002082 -0.005971 0.015738 0.000000 0.000000 0.000000
# 4 0.000000 0.000000 0.000000 0.052095 0.000000 0.000000
# 5 0.000000 0.000000 0.000000 0.000000 0.031271 0.000000
# 6 0.000000 0.000000 0.000000 0.000000 0.000000 0.034738
#
#
# Mechanical properties :
#
#
# Convention : Reuss Voigt Hill
#
# Bulk Modulus (GPa) = 35.22277 43.54627 39.38452
# Shear Modulus (GPa) = 22.54462 24.83553 23.69008
#
# Velocity S-wave (km/s) = 3.50462 3.67837 3.59255
# Velocity P-wave (km/s) = 5.96371 6.46256 6.21814
#
# Compressibility (1/GPa) = 0.02839073
#
# Stress axis : x y z
#
# Youngs Moduli (GPa) = 33.38249 64.06648 63.54080
#
# Poissons Ratio (x) = 0.53837 0.13227
# Poissons Ratio (y) = 0.28052 0.37940
# Poissons Ratio (z) = 0.06949 0.38254
#
# Static dielectric constant tensor:
#      x y z
#    x 3.451870 0.000000 0.000000 
#    y 0.000000 3.292590 0.000000 
#    z 0.000000 0.000000 3.480560 
# 
# 
# High freq. dielectric constant tensor:
#      x y z
#    x 1.728340 0.000000 0.000000 
#    y 0.000000 1.691000 0.000000 
#    z 0.000000 0.000000 1.714610 
# 
# From -- ./inp_files/22530.got.cif
#   From: 2010.03.12/outbox.cif.g09.slc.cpg/sg40_12_cif.got.tgz:22530.got - 2010.04.14 01:38:03.
