data_PCOD8183751
_publ_section_title
;
Structure prediction by ZEFSAII (Michael W. Deem and Ramdas Pophale) SiO2 
 PCOD8183751
Probable space group: A M A 2
;
_chemical_formula_sum "Si O2"
_cell_formula_units_Z 28
_cell_length_a 9.400615
_cell_length_b 16.763663
_cell_length_c 8.749979
_cell_angle_alpha 90.000000
_cell_angle_beta 90.000000
_cell_angle_gamma 90.000000
_cell_volume 1378.898182
_symmetry_space_group_name_H-M "A M A 2"
_symmetry_group_IT_number 40
_symmetry_cell_setting 'orthorhombic'
loop_
_space_group_symop_operation_xyz
x,y,z
-x,-y,z
1/2-x,y,z
1/2+x,-y,z
x,1/2+y,1/2+z
-x,1/2-y,1/2+z
1/2-x,1/2+y,1/2+z
1/2+x,1/2-y,1/2+z
loop_
_atom_site_type_symbol
_atom_site_label
_atom_site_fract_x
_atom_site_fract_y
_atom_site_fract_z
Si Si1 0.413830 0.717229 0.192550
Si Si2 0.091741 0.429987 0.266046
Si Si3 0.908124 0.839321 0.351426
Si Si4 0.500000 0.500000 0.972194
O O1 0.250000 0.710921 0.244578
O O2 0.506045 0.652194 0.285621
O O3 0.476611 0.804177 0.233377
O O4 0.429756 0.703470 0.013500
O O5 0.250000 0.421569 0.337411
O O6 0.000000 0.500000 0.350169
O O7 0.109879 0.454155 0.086073
O O8 0.750000 0.821747 0.288836
O O9 0.924600 0.934808 0.365162
#
# Coordination Sequence:
#
# PCOD8183751 Si02
#       4
#     8   8   8   4
#     4  10  21  34  53  82 112 142 182 225 269 323
#     4   9  16  29  51  77 104 136 176 222 262 309
#     4  10  20  36  56  81 111 142 180 226 272 323
#     4   8  18  30  56  78 104 138 182 226 262 322
#
# _framework density 20.306066999999999
#
# number of rings (size 3 to 8) (size 9 to 14) (size 15 to 20)
#    0.857    1.714    0.000    2.571    0.000    6.857 
#    0.000    0.000    3.143    0.000    0.000    0.000 
#    0.000    0.000    0.000    0.000    0.000    0.000 
#
# Total GULP energy -173480.423544 kJ/mol
# GULP energy per Si atom -12391.458825 kJ/mol
# Density = 2.025985 g / cm^3
# Si number density = 20.306067 Si / 1000 Ang^3
#
#
#
# Elastic Constant Matrix: (Units=GPa)
#
#
# Indices 1 2 3 4 5 6 
#
# 1 167.0678 46.5219 24.6754 0.0000 0.0000 0.0000
# 2 46.5219 110.2839 23.9439 0.0000 0.0000 0.0000
# 3 24.6754 23.9439 20.7926 0.0000 0.0000 0.0000
# 4 0.0000 0.0000 0.0000 28.7798 0.0000 0.0000
# 5 0.0000 0.0000 0.0000 0.0000 20.1400 0.0000
# 6 0.0000 0.0000 0.0000 0.0000 0.0000 32.0391
#
#
#
# Elastic Compliance Matrix: (Units=1/GPa)
#
#
# Indices 1 2 3 4 5 6 
#
# 1 0.007473 -0.001636 -0.006984 0.000000 0.000000 0.000000
# 2 -0.001636 0.012448 -0.012394 0.000000 0.000000 0.000000
# 3 -0.006984 -0.012394 0.070655 0.000000 0.000000 0.000000
# 4 0.000000 0.000000 0.000000 0.034747 0.000000 0.000000
# 5 0.000000 0.000000 0.000000 0.000000 0.049652 0.000000
# 6 0.000000 0.000000 0.000000 0.000000 0.000000 0.031212
#
#
# Mechanical properties :
#
#
# Convention : Reuss Voigt Hill
#
# Bulk Modulus (GPa) = 20.59818 54.26962 37.43390
# Shear Modulus (GPa) = 18.91095 29.72533 24.31814
#
# Velocity S-wave (km/s) = 3.05502 3.83020 3.46436
# Velocity P-wave (km/s) = 4.75501 6.80767 5.87173
#
# Compressibility (1/GPa) = 0.04854799
#
# Stress axis : x y z
#
# Youngs Moduli (GPa) = 133.82069 80.33173 14.15335
#
# Poissons Ratio (x) = 0.13141 0.09885
# Poissons Ratio (y) = 0.21891 0.17541
# Poissons Ratio (z) = 0.93465 0.99560
#
# Static dielectric constant tensor:
#      x y z
#    x 3.648230 0.000000 0.000000 
#    y 0.000000 3.706360 0.000000 
#    z 0.000000 0.000000 3.005320 
# 
# 
# High freq. dielectric constant tensor:
#      x y z
#    x 1.799490 0.000000 0.000000 
#    y 0.000000 1.800330 0.000000 
#    z 0.000000 0.000000 1.724010 
# 
# From -- ./inp_files/3939.got.cif
#   From: 2010.03.12/outbox.cif.g09.slc.cpg/sg40_2_cif.got.tgz:3939.got - 2010.04.14 01:38:03.
