data_PCOD8183080
_publ_section_title
;
Structure prediction by ZEFSAII (Michael W. Deem and Ramdas Pophale) SiO2 
 PCOD8183080
Probable space group: A M A 2
;
_chemical_formula_sum "Si O2"
_cell_formula_units_Z 64
_cell_length_a 8.878480
_cell_length_b 30.053439
_cell_length_c 14.147708
_cell_angle_alpha 90.000000
_cell_angle_beta 90.000000
_cell_angle_gamma 90.000000
_cell_volume 3775.016756
_symmetry_space_group_name_H-M "A M A 2"
_symmetry_group_IT_number 40
_symmetry_cell_setting 'orthorhombic'
loop_
_space_group_symop_operation_xyz
x,y,z
-x,-y,z
1/2-x,y,z
1/2+x,-y,z
x,1/2+y,1/2+z
-x,1/2-y,1/2+z
1/2-x,1/2+y,1/2+z
1/2+x,1/2-y,1/2+z
loop_
_atom_site_type_symbol
_atom_site_label
_atom_site_fract_x
_atom_site_fract_y
_atom_site_fract_z
Si Si1 0.074678 0.544495 0.519210
Si Si2 0.071915 0.045870 0.235280
Si Si3 0.072840 0.212777 0.399392
Si Si4 0.577812 0.132151 0.292174
Si Si5 0.926512 0.363009 0.436527
Si Si6 0.576245 0.696244 0.297923
Si Si7 0.922634 0.727884 0.095687
Si Si8 0.078845 0.815727 0.106204
O O1 0.250000 0.535817 0.518810
O O2 0.021152 0.554097 0.626521
O O3 0.030132 0.585355 0.450902
O O4 0.000000 0.500000 0.477836
O O5 0.250000 0.043579 0.246047
O O6 0.009861 0.085530 0.301244
O O7 0.000000 0.000000 0.272323
O O8 0.250000 0.206516 0.388342
O O9 0.018645 0.257394 0.345042
O O10 0.993108 0.169500 0.358039
O O11 0.029616 0.214724 0.509474
O O12 0.750000 0.125264 0.323283
O O13 0.564819 0.145936 0.183142
O O14 0.750000 0.355669 0.455525
O O15 0.974936 0.345279 0.333539
O O16 0.024624 0.333387 0.506244
O O17 0.750000 0.688844 0.325668
O O18 0.556196 0.695181 0.184712
O O19 0.750000 0.728845 0.061183
O O20 0.969885 0.775811 0.136525
O O21 0.250000 0.798458 0.096116
#
# Coordination Sequence:
#
# PCOD8183080 Si02
#       8
#     8   8   8   8   8   8   8   8
#     4   9  19  32  48  73 102 135 170 209 256 306
#     4  10  19  33  51  74 106 138 173 214 260 309
#     4  11  22  36  53  76 104 135 175 216 258 307
#     4  11  22  34  51  76 104 141 181 213 257 310
#     4  11  21  33  51  75 103 137 176 212 255 305
#     4  10  22  36  51  74 103 136 174 213 257 307
#     4  11  22  37  53  71 101 137 175 217 257 300
#     4  11  21  31  48  73 103 137 175 212 252 301
#
# _framework density 16.953567
#
# number of rings (size 3 to 8) (size 9 to 14) (size 15 to 20)
#    0.000    1.500    3.750    2.250    0.000    4.000 
#    0.000    0.000    0.000    0.000    0.000    0.875 
#    0.000    4.000    0.000    0.000    0.000    0.000 
#
# Total GULP energy -396840.060964 kJ/mol
# GULP energy per Si atom -12401.251905 kJ/mol
# Density = 1.691498 g / cm^3
# Si number density = 16.953567 Si / 1000 Ang^3
#
#
#
# Elastic Constant Matrix: (Units=GPa)
#
#
# Indices 1 2 3 4 5 6 
#
# 1 63.7635 39.8616 21.9282 0.0000 0.0000 0.0000
# 2 39.8616 112.2644 26.0510 0.0000 0.0000 0.0000
# 3 21.9282 26.0510 55.8304 0.0000 0.0000 0.0000
# 4 0.0000 0.0000 0.0000 24.6374 0.0000 0.0000
# 5 0.0000 0.0000 0.0000 0.0000 26.5528 0.0000
# 6 0.0000 0.0000 0.0000 0.0000 0.0000 33.0187
#
#
#
# Elastic Compliance Matrix: (Units=1/GPa)
#
#
# Indices 1 2 3 4 5 6 
#
# 1 0.021560 -0.006381 -0.005491 0.000000 0.000000 0.000000
# 2 -0.006381 0.011878 -0.003036 0.000000 0.000000 0.000000
# 3 -0.005491 -0.003036 0.021484 0.000000 0.000000 0.000000
# 4 0.000000 0.000000 0.000000 0.040589 0.000000 0.000000
# 5 0.000000 0.000000 0.000000 0.000000 0.037661 0.000000
# 6 0.000000 0.000000 0.000000 0.000000 0.000000 0.030286
#
#
# Mechanical properties :
#
#
# Convention : Reuss Voigt Hill
#
# Bulk Modulus (GPa) = 39.82946 45.28220 42.55583
# Shear Modulus (GPa) = 24.79631 26.44295 25.61963
#
# Velocity S-wave (km/s) = 3.82855 3.95362 3.89159
# Velocity P-wave (km/s) = 6.56414 6.89993 6.73413
#
# Compressibility (1/GPa) = 0.02510704
#
# Stress axis : x y z
#
# Youngs Moduli (GPa) = 46.38129 84.19021 46.54519
#
# Poissons Ratio (x) = 0.53725 0.25556
# Poissons Ratio (y) = 0.29598 0.14131
# Poissons Ratio (z) = 0.25466 0.25560
#
# Static dielectric constant tensor:
#      x y z
#    x 3.254770 0.000000 0.000000 
#    y 0.000000 3.216920 0.000000 
#    z 0.000000 0.000000 2.954980 
# 
# 
# High freq. dielectric constant tensor:
#      x y z
#    x 1.667560 0.000000 0.000000 
#    y 0.000000 1.643770 0.000000 
#    z 0.000000 0.000000 1.624280 
# 
# From -- ./inp_files/10660.got.cif
#   From: 2010.03.12/outbox.cif.g09.slc.cpg/sg40_6_cif.got.tgz:10660.got - 2010.04.14 01:38:03.
