data_PCOD8183710
_publ_section_title
;
Structure prediction by ZEFSAII (Michael W. Deem and Ramdas Pophale) SiO2 
 PCOD8183710
Probable space group: A M A 2
;
_chemical_formula_sum "Si O2"
_cell_formula_units_Z 64
_cell_length_a 22.192227
_cell_length_b 17.218975
_cell_length_c 8.837000
_cell_angle_alpha 90.000000
_cell_angle_beta 90.000000
_cell_angle_gamma 90.000000
_cell_volume 3376.859851
_symmetry_space_group_name_H-M "A M A 2"
_symmetry_group_IT_number 40
_symmetry_cell_setting 'orthorhombic'
loop_
_space_group_symop_operation_xyz
x,y,z
-x,-y,z
1/2-x,y,z
1/2+x,-y,z
x,1/2+y,1/2+z
-x,1/2-y,1/2+z
1/2-x,1/2+y,1/2+z
1/2+x,1/2-y,1/2+z
loop_
_atom_site_type_symbol
_atom_site_label
_atom_site_fract_x
_atom_site_fract_y
_atom_site_fract_z
Si Si1 0.617459 0.561833 0.416360
Si Si2 0.681970 0.989868 0.649309
Si Si3 0.965820 0.810836 0.265049
Si Si4 0.566453 0.968839 0.172733
Si Si5 0.105750 0.814597 0.166075
Si Si6 0.115300 0.420337 0.919568
Si Si7 0.910516 0.851524 0.590745
Si Si8 0.463397 0.863209 0.683462
O O1 0.672503 0.530166 0.313456
O O2 0.606712 0.492326 0.531460
O O3 0.625679 0.641439 0.511757
O O4 0.562194 0.576281 0.303836
O O5 0.750000 0.958801 0.640938
O O6 0.671287 0.056992 0.525532
O O7 0.637209 0.920600 0.598270
O O8 0.929310 0.875734 0.172115
O O9 0.947369 0.828458 0.438385
O O10 0.943569 0.725381 0.219841
O O11 0.035441 0.823449 0.215632
O O12 0.500000 0.000000 0.146042
O O13 0.591188 0.004322 0.329485
O O14 0.140986 0.855026 0.304764
O O15 0.124363 0.725231 0.148528
O O16 0.060016 0.385939 0.017283
O O17 0.964916 0.873784 0.702661
#
# Coordination Sequence:
#
# PCOD8183710 Si02
#       8
#     8   8   8   8   8   8   8   8
#     4  10  22  36  56  85 121 149 194 238 297 342
#     4  11  26  43  59  78 111 158 216 256 284 331
#     4  11  19  32  55  91 135 146 177 219 299 373
#     4  11  19  32  56  90 124 148 180 228 291 364
#     4  10  20  35  58  94 122 151 183 228 297 371
#     4  10  20  37  60  84 118 152 195 233 289 351
#     4  11  21  35  59  89 126 156 183 239 301 352
#     4  10  21  32  55  89 123 153 177 228 301 373
#
# _framework density 18.952518999999999
#
# number of rings (size 3 to 8) (size 9 to 14) (size 15 to 20)
#    0.000    1.500    6.250    0.000    1.750    2.000 
#    0.000    3.750    0.000    0.000    0.000    0.000 
#    0.000    0.000    0.000    0.000    0.000    0.000 
#
# Total GULP energy -396442.118797 kJ/mol
# GULP energy per Si atom -12388.816212 kJ/mol
# Density = 1.890938 g / cm^3
# Si number density = 18.952519 Si / 1000 Ang^3
#
#
#
# Elastic Constant Matrix: (Units=GPa)
#
#
# Indices 1 2 3 4 5 6 
#
# 1 71.3245 37.5350 31.5482 0.0000 0.0000 0.0000
# 2 37.5350 106.0564 36.3856 0.0000 0.0000 0.0000
# 3 31.5482 36.3856 100.9579 0.0000 0.0000 0.0000
# 4 0.0000 0.0000 0.0000 24.3414 0.0000 0.0000
# 5 0.0000 0.0000 0.0000 0.0000 11.3657 0.0000
# 6 0.0000 0.0000 0.0000 0.0000 0.0000 12.0042
#
#
#
# Elastic Compliance Matrix: (Units=1/GPa)
#
#
# Indices 1 2 3 4 5 6 
#
# 1 0.018484 -0.005204 -0.003901 0.000000 0.000000 0.000000
# 2 -0.005204 0.012224 -0.002780 0.000000 0.000000 0.000000
# 3 -0.003901 -0.002780 0.012126 0.000000 0.000000 0.000000
# 4 0.000000 0.000000 0.000000 0.041082 0.000000 0.000000
# 5 0.000000 0.000000 0.000000 0.000000 0.087984 0.000000
# 6 0.000000 0.000000 0.000000 0.000000 0.000000 0.083304
#
#
# Mechanical properties :
#
#
# Convention : Reuss Voigt Hill
#
# Bulk Modulus (GPa) = 52.44815 54.36403 53.40609
# Shear Modulus (GPa) = 17.52370 21.06693 19.29531
#
# Velocity S-wave (km/s) = 3.04404 3.33763 3.19421
# Velocity P-wave (km/s) = 6.33154 6.60300 6.46870
#
# Compressibility (1/GPa) = 0.01906645
#
# Stress axis : x y z
#
# Youngs Moduli (GPa) = 54.10021 81.80499 82.46868
#
# Poissons Ratio (x) = 0.42568 0.32169
# Poissons Ratio (y) = 0.28152 0.22923
# Poissons Ratio (z) = 0.21103 0.22738
#
# Static dielectric constant tensor:
#      x y z
#    x 2.940430 0.000000 0.000000 
#    y 0.000000 3.774130 0.000000 
#    z 0.000000 0.000000 3.790340 
# 
# 
# High freq. dielectric constant tensor:
#      x y z
#    x 1.670710 0.000000 0.000000 
#    y 0.000000 1.751300 0.000000 
#    z 0.000000 0.000000 1.754670 
# 
# From -- ./inp_files/8484.got.cif
#   From: 2010.03.12/outbox.cif.g09.slc.cpg/sg40_5_cif.got.tgz:8484.got - 2010.04.14 01:38:03.
