data_PCOD8183425
_publ_section_title
;
Structure prediction by ZEFSAII (Michael W. Deem and Ramdas Pophale) SiO2 
 PCOD8183425
Probable space group: A M A 2
;
_chemical_formula_sum "Si O2"
_cell_formula_units_Z 64
_cell_length_a 17.154431
_cell_length_b 12.089189
_cell_length_c 15.306333
_cell_angle_alpha 90.000000
_cell_angle_beta 90.000000
_cell_angle_gamma 90.000000
_cell_volume 3174.275683
_symmetry_space_group_name_H-M "A M A 2"
_symmetry_group_IT_number 40
_symmetry_cell_setting 'orthorhombic'
loop_
_space_group_symop_operation_xyz
x,y,z
-x,-y,z
1/2-x,y,z
1/2+x,-y,z
x,1/2+y,1/2+z
-x,1/2-y,1/2+z
1/2-x,1/2+y,1/2+z
1/2+x,1/2-y,1/2+z
loop_
_atom_site_type_symbol
_atom_site_label
_atom_site_fract_x
_atom_site_fract_y
_atom_site_fract_z
Si Si1 0.157426 0.611196 0.547950
Si Si2 0.339331 0.152277 0.573521
Si Si3 0.342878 0.523485 0.901127
Si Si4 0.590898 0.379971 0.257771
Si Si5 0.339379 0.874857 0.980781
Si Si6 0.911115 0.124097 0.802647
Si Si7 0.158107 0.773531 0.399263
Si Si8 0.658392 0.836826 0.237563
O O1 0.250000 0.620815 0.549880
O O2 0.130624 0.490510 0.518160
O O3 0.123355 0.703028 0.480678
O O4 0.122375 0.626195 0.644750
O O5 0.250000 0.120163 0.595700
O O6 0.370060 0.082620 0.490356
O O7 0.394717 0.126816 0.654698
O O8 0.345841 0.282716 0.555241
O O9 0.250000 0.525801 0.896239
O O10 0.376093 0.398164 0.900141
O O11 0.377173 0.590117 0.817209
O O12 0.620386 0.500013 0.289010
O O13 0.500602 0.363929 0.277621
O O14 0.638226 0.285164 0.307906
O O15 0.250000 0.881860 0.946386
O O16 0.396734 0.841506 0.902629
O O17 0.861267 0.207593 0.744317
O O18 0.250000 0.780478 0.407960
O O19 0.750000 0.853593 0.237009
#
# Coordination Sequence:
#
# PCOD8183425 Si02
#       8
#     8   8   8   8   8   8   8   8
#     4   9  19  33  57  92 116 142 191 243 297 348
#     4  10  21  38  62  90 118 156 202 248 296 353
#     4   9  19  35  59  91 120 147 190 245 298 347
#     4  11  25  40  56  87 121 160 202 245 300 351
#     4  10  19  38  67  91 114 152 202 253 300 351
#     4  11  23  42  58  82 121 158 204 246 290 356
#     4  10  20  37  59  86 120 153 191 244 298 351
#     4  10  20  37  62  88 116 152 194 246 297 352
#
# _framework density 20.162078999999999
#
# number of rings (size 3 to 8) (size 9 to 14) (size 15 to 20)
#    0.000    2.000    2.500    0.750    3.500    1.500 
#    2.250    0.625    0.000    0.000    0.000    0.000 
#    0.000    0.000    0.000    0.000    0.000    0.000 
#
# Total GULP energy -396806.944487 kJ/mol
# GULP energy per Si atom -12400.217015 kJ/mol
# Density = 2.011619 g / cm^3
# Si number density = 20.162079 Si / 1000 Ang^3
#
#
#
# Elastic Constant Matrix: (Units=GPa)
#
#
# Indices 1 2 3 4 5 6 
#
# 1 20.5506 14.0016 38.6454 0.0000 0.0000 0.0000
# 2 14.0016 138.4957 46.1247 0.0000 0.0000 0.0000
# 3 38.6454 46.1247 132.5501 0.0000 0.0000 0.0000
# 4 0.0000 0.0000 0.0000 26.9910 0.0000 0.0000
# 5 0.0000 0.0000 0.0000 0.0000 19.1133 0.0000
# 6 0.0000 0.0000 0.0000 0.0000 0.0000 16.0430
#
#
#
# Elastic Compliance Matrix: (Units=1/GPa)
#
#
# Indices 1 2 3 4 5 6 
#
# 1 0.107748 -0.000487 -0.031245 0.000000 0.000000 0.000000
# 2 -0.000487 0.008169 -0.002701 0.000000 0.000000 0.000000
# 3 -0.031245 -0.002701 0.017594 0.000000 0.000000 0.000000
# 4 0.000000 0.000000 0.000000 0.037049 0.000000 0.000000
# 5 0.000000 0.000000 0.000000 0.000000 0.052320 0.000000
# 6 0.000000 0.000000 0.000000 0.000000 0.000000 0.062332
#
#
# Mechanical properties :
#
#
# Convention : Reuss Voigt Hill
#
# Bulk Modulus (GPa) = 15.46900 54.34886 34.90893
# Shear Modulus (GPa) = 13.31113 25.28444 19.29779
#
# Velocity S-wave (km/s) = 2.57224 3.54511 3.09711
# Velocity P-wave (km/s) = 4.06335 6.61601 5.49010
#
# Compressibility (1/GPa) = 0.06464543
#
# Stress axis : x y z
#
# Youngs Moduli (GPa) = 9.28093 122.41216 56.83907
#
# Poissons Ratio (x) = 0.05965 1.77592
# Poissons Ratio (y) = 0.00452 0.15350
# Poissons Ratio (z) = 0.28998 0.33059
#
# Static dielectric constant tensor:
#      x y z
#    x 3.157370 0.000000 0.000000 
#    y 0.000000 4.000280 0.000000 
#    z 0.000000 0.000000 3.834230 
# 
# 
# High freq. dielectric constant tensor:
#      x y z
#    x 1.740550 0.000000 0.000000 
#    y 0.000000 1.803200 0.000000 
#    z 0.000000 0.000000 1.795300 
# 
# From -- ./inp_files/17846.got.cif
#   From: 2010.03.12/outbox.cif.g09.slc.cpg/sg40_9_cif.got.tgz:17846.got - 2010.04.14 01:38:03.
