data_PCOD8183137
_publ_section_title
;
Structure prediction by ZEFSAII (Michael W. Deem and Ramdas Pophale) SiO2 
 PCOD8183137
Probable space group: A M A 2
;
_chemical_formula_sum "Si O2"
_cell_formula_units_Z 56
_cell_length_a 9.055324
_cell_length_b 15.460836
_cell_length_c 19.665073
_cell_angle_alpha 90.000000
_cell_angle_beta 90.000000
_cell_angle_gamma 90.000000
_cell_volume 2753.166841
_symmetry_space_group_name_H-M "A M A 2"
_symmetry_group_IT_number 40
_symmetry_cell_setting 'orthorhombic'
loop_
_space_group_symop_operation_xyz
x,y,z
-x,-y,z
1/2-x,y,z
1/2+x,-y,z
x,1/2+y,1/2+z
-x,1/2-y,1/2+z
1/2-x,1/2+y,1/2+z
1/2+x,1/2-y,1/2+z
loop_
_atom_site_type_symbol
_atom_site_label
_atom_site_fract_x
_atom_site_fract_y
_atom_site_fract_z
Si Si1 0.588119 0.079984 0.784380
Si Si2 0.923601 0.190914 0.410809
Si Si3 0.424419 0.090748 0.529036
Si Si4 0.084893 0.760176 0.113358
Si Si5 0.582616 0.629606 0.434026
Si Si6 0.924047 0.420303 0.560033
Si Si7 0.586839 0.251722 0.268480
O O1 0.750000 0.072686 0.753186
O O2 0.587108 0.074801 0.865444
O O3 0.526487 0.171123 0.762442
O O4 0.500000 0.000000 0.752554
O O5 0.750000 0.184083 0.427773
O O6 0.953552 0.181905 0.328303
O O7 0.009493 0.119613 0.455518
O O8 0.985570 0.284112 0.429890
O O9 0.250000 0.075986 0.520430
O O10 0.457288 0.162554 0.588445
O O11 0.500000 0.000000 0.550785
O O12 0.250000 0.779491 0.085365
O O13 0.084322 0.784858 0.192875
O O14 0.963119 0.824661 0.084793
O O15 0.750000 0.653750 0.456434
O O16 0.499999 0.568639 0.486789
O O17 0.750000 0.432710 0.558258
O O18 0.000000 0.500000 0.602776
O O19 0.750000 0.288354 0.286542
#
# Coordination Sequence:
#
# PCOD8183137 Si02
#       7
#     8   8   8   8   8   8   8
#     4  10  20  32  50  78 113 150 191 237 286 349
#     4  10  19  35  60  89 119 153 199 247 300 360
#     4  11  23  39  63  91 125 165 211 262 313 369
#     4  10  22  42  63  87 122 161 201 251 310 370
#     4  10  19  33  54  82 116 151 187 232 289 347
#     4  12  24  37  58  86 117 153 193 241 296 358
#     4   9  20  38  60  83 114 157 197 245 307 366
#
# _framework density 20.340215000000001
#
# number of rings (size 3 to 8) (size 9 to 14) (size 15 to 20)
#    0.000    1.714    1.429    3.429    0.000    5.143 
#    0.000    2.143    0.000    0.000    0.000    0.000 
#    0.000    0.000    0.000    0.000    0.000    0.000 
#
# Total GULP energy -346872.634144 kJ/mol
# GULP energy per Si atom -12388.308362 kJ/mol
# Density = 2.029392 g / cm^3
# Si number density = 20.340215 Si / 1000 Ang^3
#
#
#
# Elastic Constant Matrix: (Units=GPa)
#
#
# Indices 1 2 3 4 5 6 
#
# 1 137.2538 37.5372 24.8099 0.0000 0.0000 0.0000
# 2 37.5372 82.8196 20.7466 0.0000 0.0000 0.0000
# 3 24.8099 20.7466 80.9553 0.0000 0.0000 0.0000
# 4 0.0000 0.0000 0.0000 12.3873 0.0000 0.0000
# 5 0.0000 0.0000 0.0000 0.0000 22.5309 0.0000
# 6 0.0000 0.0000 0.0000 0.0000 0.0000 34.1409
#
#
#
# Elastic Compliance Matrix: (Units=1/GPa)
#
#
# Indices 1 2 3 4 5 6 
#
# 1 0.008539 -0.003435 -0.001737 0.000000 0.000000 0.000000
# 2 -0.003435 0.014285 -0.002608 0.000000 0.000000 0.000000
# 3 -0.001737 -0.002608 0.013553 0.000000 0.000000 0.000000
# 4 0.000000 0.000000 0.000000 0.080728 0.000000 0.000000
# 5 0.000000 0.000000 0.000000 0.000000 0.044384 0.000000
# 6 0.000000 0.000000 0.000000 0.000000 0.000000 0.029290
#
#
# Mechanical properties :
#
#
# Convention : Reuss Voigt Hill
#
# Bulk Modulus (GPa) = 48.03706 51.91290 49.97498
# Shear Modulus (GPa) = 23.44364 28.34081 25.89222
#
# Velocity S-wave (km/s) = 3.39864 3.73679 3.57172
# Velocity P-wave (km/s) = 6.25053 6.64800 6.45232
#
# Compressibility (1/GPa) = 0.02081726
#
# Stress axis : x y z
#
# Youngs Moduli (GPa) = 117.10720 70.00465 73.78410
#
# Poissons Ratio (x) = 0.24049 0.12813
# Poissons Ratio (y) = 0.40230 0.19243
# Poissons Ratio (z) = 0.20337 0.18257
#
# Static dielectric constant tensor:
#      x y z
#    x 3.835790 0.000000 0.000000 
#    y 0.000000 3.526440 0.000000 
#    z 0.000000 0.000000 3.848930 
# 
# 
# High freq. dielectric constant tensor:
#      x y z
#    x 1.807220 0.000000 0.000000 
#    y 0.000000 1.780400 0.000000 
#    z 0.000000 0.000000 1.783580 
# 
# From -- ./inp_files/22153.got.cif
#   From: 2010.03.12/outbox.cif.g09.slc.cpg/sg40_12_cif.got.tgz:22153.got - 2010.04.14 01:38:03.
