data_PCOD8183637
_publ_section_title
;
Structure prediction by ZEFSAII (Michael W. Deem and Ramdas Pophale) SiO2 
 PCOD8183637
Probable space group: A M A 2
;
_chemical_formula_sum "Si O2"
_cell_formula_units_Z 56
_cell_length_a 9.218751
_cell_length_b 14.505461
_cell_length_c 22.042583
_cell_angle_alpha 90.000000
_cell_angle_beta 90.000000
_cell_angle_gamma 90.000000
_cell_volume 2947.583422
_symmetry_space_group_name_H-M "A M A 2"
_symmetry_group_IT_number 40
_symmetry_cell_setting 'orthorhombic'
loop_
_space_group_symop_operation_xyz
x,y,z
-x,-y,z
1/2-x,y,z
1/2+x,-y,z
x,1/2+y,1/2+z
-x,1/2-y,1/2+z
1/2-x,1/2+y,1/2+z
1/2+x,1/2-y,1/2+z
loop_
_atom_site_type_symbol
_atom_site_label
_atom_site_fract_x
_atom_site_fract_y
_atom_site_fract_z
Si Si1 0.923527 0.098627 0.417320
Si Si2 0.579354 0.090273 0.639856
Si Si3 0.417232 0.711380 0.816843
Si Si4 0.420883 0.590576 0.568011
Si Si5 0.578515 0.214460 0.531913
Si Si6 0.415623 0.587256 0.706021
Si Si7 0.581049 0.090141 0.777623
O O1 0.750000 0.085963 0.416168
O O2 0.981161 0.154506 0.476020
O O3 0.972732 0.157437 0.359583
O O4 0.000000 0.000000 0.416612
O O5 0.750000 0.073939 0.634952
O O6 0.527694 0.172800 0.596269
O O7 0.531281 0.111270 0.708692
O O8 0.500000 0.000000 0.615084
O O9 0.250000 0.695176 0.836980
O O10 0.440246 0.676165 0.748049
O O11 0.456223 0.820089 0.817876
O O12 0.500000 0.500000 0.542113
O O13 0.250000 0.575608 0.561766
O O14 0.474726 0.679199 0.529248
O O15 0.467173 0.609547 0.637756
O O16 0.750000 0.213633 0.528800
O O17 0.500000 0.500000 0.733658
O O18 0.250000 0.556872 0.705408
O O19 0.750000 0.067947 0.779826
O O20 0.500000 0.000000 0.803848
#
# Coordination Sequence:
#
# PCOD8183637 Si02
#       7
#     8   8   8   8   8   8   8
#     4  11  23  38  55  76 101 132 168 207 248 295
#     4   9  16  29  50  76 103 132 163 201 249 300
#     4  10  20  35  53  74 101 136 173 209 249 296
#     4   9  17  32  52  75 101 129 162 203 248 297
#     4   9  18  33  53  73  98 133 169 202 245 297
#     4   9  17  29  49  75 102 130 162 201 249 300
#     4   9  18  32  52  77 104 132 166 207 253 301
#
# _framework density 18.998615000000001
#
# number of rings (size 3 to 8) (size 9 to 14) (size 15 to 20)
#    0.000    2.571    0.000    2.143    0.000    5.714 
#    0.000    3.571    0.000   10.286    0.000    0.000 
#    0.000    0.000    0.000    0.000    0.000    0.000 
#
# Total GULP energy -347120.495966 kJ/mol
# GULP energy per Si atom -12397.160570 kJ/mol
# Density = 1.895537 g / cm^3
# Si number density = 18.998615 Si / 1000 Ang^3
#
#
#
# Elastic Constant Matrix: (Units=GPa)
#
#
# Indices 1 2 3 4 5 6 
#
# 1 48.1124 50.4254 26.1340 0.0000 0.0000 0.0000
# 2 50.4254 168.5128 51.2584 0.0000 0.0000 0.0000
# 3 26.1340 51.2584 60.4962 0.0000 0.0000 0.0000
# 4 0.0000 0.0000 0.0000 28.7226 0.0000 0.0000
# 5 0.0000 0.0000 0.0000 0.0000 3.1171 0.0000
# 6 0.0000 0.0000 0.0000 0.0000 0.0000 32.3748
#
#
#
# Elastic Compliance Matrix: (Units=1/GPa)
#
#
# Indices 1 2 3 4 5 6 
#
# 1 0.032865 -0.007431 -0.007901 0.000000 0.000000 0.000000
# 2 -0.007431 0.009675 -0.004987 0.000000 0.000000 0.000000
# 3 -0.007901 -0.004987 0.024169 0.000000 0.000000 0.000000
# 4 0.000000 0.000000 0.000000 0.034816 0.000000 0.000000
# 5 0.000000 0.000000 0.000000 0.000000 0.320816 0.000000
# 6 0.000000 0.000000 0.000000 0.000000 0.000000 0.030888
#
#
# Mechanical properties :
#
#
# Convention : Reuss Voigt Hill
#
# Bulk Modulus (GPa) = 38.35881 59.19522 48.77701
# Shear Modulus (GPa) = 9.94911 22.79647 16.37279
#
# Velocity S-wave (km/s) = 2.29088 3.46772 2.93881
# Velocity P-wave (km/s) = 5.21839 6.87450 6.10288
#
# Compressibility (1/GPa) = 0.02606963
#
# Stress axis : x y z
#
# Youngs Moduli (GPa) = 30.42780 103.35923 41.37520
#
# Poissons Ratio (x) = 0.76806 0.32691
# Poissons Ratio (y) = 0.22611 0.20636
# Poissons Ratio (z) = 0.24041 0.51550
#
# Static dielectric constant tensor:
#      x y z
#    x 3.310550 0.000000 0.000000 
#    y 0.000000 3.800830 0.000000 
#    z 0.000000 0.000000 3.432180 
# 
# 
# High freq. dielectric constant tensor:
#      x y z
#    x 1.716040 0.000000 0.000000 
#    y 0.000000 1.751210 0.000000 
#    z 0.000000 0.000000 1.719580 
# 
# From -- ./inp_files/22164.got.cif
#   From: 2010.03.12/outbox.cif.g09.slc.cpg/sg40_12_cif.got.tgz:22164.got - 2010.04.14 01:38:03.
