data_PCOD8183219
_publ_section_title
;
Structure prediction by ZEFSAII (Michael W. Deem and Ramdas Pophale) SiO2 
 PCOD8183219
Probable space group: A M A 2
;
_chemical_formula_sum "Si O2"
_cell_formula_units_Z 48
_cell_length_a 8.778016
_cell_length_b 15.394292
_cell_length_c 18.808101
_cell_angle_alpha 90.000000
_cell_angle_beta 90.000000
_cell_angle_gamma 90.000000
_cell_volume 2541.563919
_symmetry_space_group_name_H-M "A M A 2"
_symmetry_group_IT_number 40
_symmetry_cell_setting 'orthorhombic'
loop_
_space_group_symop_operation_xyz
x,y,z
-x,-y,z
1/2-x,y,z
1/2+x,-y,z
x,1/2+y,1/2+z
-x,1/2-y,1/2+z
1/2-x,1/2+y,1/2+z
1/2+x,1/2-y,1/2+z
loop_
_atom_site_type_symbol
_atom_site_label
_atom_site_fract_x
_atom_site_fract_y
_atom_site_fract_z
Si Si1 0.430267 0.089524 0.975570
Si Si2 0.571045 0.409969 0.819386
Si Si3 0.929291 0.410251 0.313552
Si Si4 0.071582 0.755497 0.726393
Si Si5 0.931108 0.091139 0.470254
Si Si6 0.430711 0.250434 0.065590
O O1 0.250000 0.083384 0.980965
O O2 0.482581 0.106826 0.894522
O O3 0.500000 0.000000 0.004467
O O4 0.496664 0.166910 0.024085
O O5 0.500000 0.500000 0.791073
O O6 0.750000 0.422583 0.831798
O O7 0.534285 0.336645 0.761883
O O8 0.494082 0.382228 0.893281
O O9 0.750000 0.418250 0.307914
O O10 0.000000 0.500000 0.284771
O O11 0.984002 0.331336 0.265918
O O12 0.250000 0.776524 0.729101
O O13 0.009040 0.750934 0.646062
O O14 0.750000 0.084646 0.466050
O O15 0.987067 0.162657 0.526456
O O16 0.000000 0.000000 0.495946
O O17 0.250000 0.245505 0.064208
#
# Coordination Sequence:
#
# PCOD8183219 Si02
#       6
#     8   8   8   8   8   8
#     4   9  18  34  55  77 101 132 170 211 254 300
#     4  10  20  34  54  78 105 136 172 215 258 304
#     4  10  20  35  56  80 105 135 173 215 257 304
#     4  10  21  36  53  76 107 140 172 210 258 308
#     4  10  19  34  56  77 100 132 172 215 256 303
#     4   9  19  35  53  74 104 139 169 204 256 309
#
# _framework density 18.886008
#
# number of rings (size 3 to 8) (size 9 to 14) (size 15 to 20)
#    0.000    2.333    0.000    3.500    0.000    4.667 
#    0.000    5.833    0.000    0.000    0.000    0.000 
#    0.000    0.000    0.000    0.000    0.000    0.000 
#
# Total GULP energy -297649.643818 kJ/mol
# GULP energy per Si atom -12402.068492 kJ/mol
# Density = 1.884302 g / cm^3
# Si number density = 18.886008 Si / 1000 Ang^3
#
#
#
# Elastic Constant Matrix: (Units=GPa)
#
#
# Indices 1 2 3 4 5 6 
#
# 1 61.6535 51.1618 39.9424 0.0000 0.0000 0.0000
# 2 51.1618 156.9419 93.5378 0.0000 0.0000 0.0000
# 3 39.9424 93.5378 125.8235 0.0000 0.0000 0.0000
# 4 0.0000 0.0000 0.0000 7.5414 0.0000 0.0000
# 5 0.0000 0.0000 0.0000 0.0000 19.9570 0.0000
# 6 0.0000 0.0000 0.0000 0.0000 0.0000 26.5394
#
#
#
# Elastic Compliance Matrix: (Units=1/GPa)
#
#
# Indices 1 2 3 4 5 6 
#
# 1 0.022883 -0.005620 -0.003086 0.000000 0.000000 0.000000
# 2 -0.005620 0.012821 -0.007747 0.000000 0.000000 0.000000
# 3 -0.003086 -0.007747 0.014687 0.000000 0.000000 0.000000
# 4 0.000000 0.000000 0.000000 0.132601 0.000000 0.000000
# 5 0.000000 0.000000 0.000000 0.000000 0.050108 0.000000
# 6 0.000000 0.000000 0.000000 0.000000 0.000000 0.037680
#
#
# Mechanical properties :
#
#
# Convention : Reuss Voigt Hill
#
# Bulk Modulus (GPa) = 57.19612 79.30032 68.24822
# Shear Modulus (GPa) = 16.15431 21.45935 18.80683
#
# Velocity S-wave (km/s) = 2.92782 3.37450 3.15907
# Velocity P-wave (km/s) = 6.46376 7.56724 7.03716
#
# Compressibility (1/GPa) = 0.01748370
#
# Stress axis : x y z
#
# Youngs Moduli (GPa) = 43.70080 77.99437 68.08915
#
# Poissons Ratio (x) = 0.43837 0.21011
# Poissons Ratio (y) = 0.24562 0.52751
# Poissons Ratio (z) = 0.13485 0.60425
#
# Static dielectric constant tensor:
#      x y z
#    x 3.326490 0.000000 0.000000 
#    y 0.000000 3.640240 0.000000 
#    z 0.000000 0.000000 3.585860 
# 
# 
# High freq. dielectric constant tensor:
#      x y z
#    x 1.722100 0.000000 0.000000 
#    y 0.000000 1.749050 0.000000 
#    z 0.000000 0.000000 1.729340 
# 
# From -- ./inp_files/19202.got.cif
#   From: 2010.03.12/outbox.cif.g09.slc.cpg/sg40_10_cif.got.tgz:19202.got - 2010.04.14 01:38:03.
