data_PCOD8183344
_publ_section_title
;
Structure prediction by ZEFSAII (Michael W. Deem and Ramdas Pophale) SiO2 
 PCOD8183344
Probable space group: A M A 2
;
_chemical_formula_sum "Si O2"
_cell_formula_units_Z 56
_cell_length_a 17.884470
_cell_length_b 17.074276
_cell_length_c 9.411277
_cell_angle_alpha 90.000000
_cell_angle_beta 90.000000
_cell_angle_gamma 90.000000
_cell_volume 2873.868737
_symmetry_space_group_name_H-M "A M A 2"
_symmetry_group_IT_number 40
_symmetry_cell_setting 'orthorhombic'
loop_
_space_group_symop_operation_xyz
x,y,z
-x,-y,z
1/2-x,y,z
1/2+x,-y,z
x,1/2+y,1/2+z
-x,1/2-y,1/2+z
1/2-x,1/2+y,1/2+z
1/2+x,1/2-y,1/2+z
loop_
_atom_site_type_symbol
_atom_site_label
_atom_site_fract_x
_atom_site_fract_y
_atom_site_fract_z
Si Si1 0.553221 0.928690 0.354580
Si Si2 0.089882 0.349590 0.817261
Si Si3 0.906612 0.425826 0.546723
Si Si4 0.423062 0.899762 0.002774
Si Si5 0.164505 0.974317 0.504137
Si Si6 0.164457 0.229807 0.992838
Si Si7 0.836438 0.651692 0.236339
O O1 0.493835 0.859640 0.386783
O O2 0.601454 0.911407 0.215437
O O3 0.500000 0.000000 0.305787
O O4 0.607779 0.951016 0.486995
O O5 0.091523 0.353204 0.647786
O O6 0.147282 0.415000 0.875657
O O7 0.116725 0.264150 0.862812
O O8 0.884045 0.514306 0.505516
O O9 0.847782 0.363243 0.486757
O O10 0.988236 0.407401 0.483519
O O11 0.388140 0.848951 0.875438
O O12 0.250000 0.003517 0.493590
O O13 0.149556 0.929658 0.651676
O O14 0.250000 0.249675 0.963954
O O15 0.140280 0.273451 0.139782
O O16 0.750000 0.658389 0.282123
#
# Coordination Sequence:
#
# PCOD8183344 Si02
#       7
#     8   8   8   8   8   8   8
#     4   9  15  32  55  80 107 137 189 238 261 325
#     4   9  17  34  56  78 107 150 192 230 269 340
#     4  10  19  36  56  85 114 140 188 239 278 330
#     4  10  19  36  59  84 112 142 189 238 275 336
#     4   9  16  30  53  81 110 141 186 233 277 329
#     4  10  22  38  55  81 114 146 188 232 280 343
#     4   9  20  36  54  81 115 149 185 230 283 344
#
# _framework density 19.485927
#
# number of rings (size 3 to 8) (size 9 to 14) (size 15 to 20)
#    0.000    2.571    4.286    1.286    0.000    4.571 
#   12.857    0.000    3.143    0.000    0.000    0.000 
#    0.000    0.000    0.000    0.000    0.000    0.000 
#
# Total GULP energy -347018.309422 kJ/mol
# GULP energy per Si atom -12393.511051 kJ/mol
# Density = 1.944158 g / cm^3
# Si number density = 19.485927 Si / 1000 Ang^3
#
#
#
# Elastic Constant Matrix: (Units=GPa)
#
#
# Indices 1 2 3 4 5 6 
#
# 1 57.4266 18.3678 28.5504 0.0000 0.0000 0.0000
# 2 18.3678 69.3123 13.7689 0.0000 0.0000 0.0000
# 3 28.5504 13.7689 70.8918 0.0000 0.0000 0.0000
# 4 0.0000 0.0000 0.0000 16.8569 0.0000 0.0000
# 5 0.0000 0.0000 0.0000 0.0000 25.7336 0.0000
# 6 0.0000 0.0000 0.0000 0.0000 0.0000 30.3926
#
#
#
# Elastic Compliance Matrix: (Units=1/GPa)
#
#
# Indices 1 2 3 4 5 6 
#
# 1 0.023009 -0.004427 -0.008407 0.000000 0.000000 0.000000
# 2 -0.004427 0.015858 -0.001297 0.000000 0.000000 0.000000
# 3 -0.008407 -0.001297 0.017744 0.000000 0.000000 0.000000
# 4 0.000000 0.000000 0.000000 0.059323 0.000000 0.000000
# 5 0.000000 0.000000 0.000000 0.000000 0.038860 0.000000
# 6 0.000000 0.000000 0.000000 0.000000 0.000000 0.032903
#
#
# Mechanical properties :
#
#
# Convention : Reuss Voigt Hill
#
# Bulk Modulus (GPa) = 35.27474 35.44500 35.35987
# Shear Modulus (GPa) = 22.18200 23.72620 22.95410
#
# Velocity S-wave (km/s) = 3.37762 3.49321 3.43590
# Velocity P-wave (km/s) = 5.77521 5.87363 5.82463
#
# Compressibility (1/GPa) = 0.02834890
#
# Stress axis : x y z
#
# Youngs Moduli (GPa) = 43.46106 63.05811 56.35863
#
# Poissons Ratio (x) = 0.27919 0.47378
# Poissons Ratio (y) = 0.19242 0.07310
# Poissons Ratio (z) = 0.36536 0.08179
#
# Static dielectric constant tensor:
#      x y z
#    x 3.582890 0.000000 0.000000 
#    y 0.000000 3.426140 0.000000 
#    z 0.000000 0.000000 3.320640 
# 
# 
# High freq. dielectric constant tensor:
#      x y z
#    x 1.753580 0.000000 0.000000 
#    y 0.000000 1.735980 0.000000 
#    z 0.000000 0.000000 1.736660 
# 
# From -- ./inp_files/8412.got.cif
#   From: 2010.03.12/outbox.cif.g09.slc.cpg/sg40_5_cif.got.tgz:8412.got - 2010.04.14 01:38:03.
