data_PCOD8183121
_publ_section_title
;
Structure prediction by ZEFSAII (Michael W. Deem and Ramdas Pophale) SiO2 
 PCOD8183121
Probable space group: A M A 2
;
_chemical_formula_sum "Si O2"
_cell_formula_units_Z 48
_cell_length_a 9.009576
_cell_length_b 30.769598
_cell_length_c 9.128751
_cell_angle_alpha 90.000000
_cell_angle_beta 90.000000
_cell_angle_gamma 90.000000
_cell_volume 2530.681770
_symmetry_space_group_name_H-M "A M A 2"
_symmetry_group_IT_number 40
_symmetry_cell_setting 'orthorhombic'
loop_
_space_group_symop_operation_xyz
x,y,z
-x,-y,z
1/2-x,y,z
1/2+x,-y,z
x,1/2+y,1/2+z
-x,1/2-y,1/2+z
1/2-x,1/2+y,1/2+z
1/2+x,1/2-y,1/2+z
loop_
_atom_site_type_symbol
_atom_site_label
_atom_site_fract_x
_atom_site_fract_y
_atom_site_fract_z
Si Si1 0.927264 0.635649 0.643580
Si Si2 0.918929 0.286210 0.127653
Si Si3 0.078357 0.128807 0.447300
Si Si4 0.083984 0.958225 0.471451
Si Si5 0.412568 0.959396 0.123948
Si Si6 0.077372 0.710261 0.467865
O O1 0.750000 0.636515 0.662268
O O2 0.981121 0.587994 0.586540
O O3 0.998446 0.645873 0.800928
O O4 0.980176 0.670680 0.527419
O O5 0.750000 0.270412 0.100257
O O6 0.958358 0.285081 0.297756
O O7 0.031822 0.254707 0.045764
O O8 0.941141 0.334928 0.070954
O O9 0.250000 0.119462 0.411074
O O10 0.004968 0.085303 0.512294
O O11 0.250000 0.955543 0.537643
O O12 0.093125 0.963496 0.298002
O O13 0.000000 0.000000 0.539546
O O14 0.250000 0.962613 0.054920
O O15 0.500000 0.000000 0.054281
O O16 0.250000 0.700967 0.497932
#
# Coordination Sequence:
#
# PCOD8183121 Si02
#       6
#     8   8   8   8   8   8
#     4  10  20  34  52  78 110 140 175 218 262 311
#     4  10  23  40  56  78 107 136 171 216 263 316
#     4  10  19  33  54  79 108 142 178 218 265 312
#     4   9  16  27  45  73 107 141 178 220 263 307
#     4   8  15  26  43  69 101 134 167 207 251 295
#     4  11  23  38  57  79 103 135 174 215 262 315
#
# _framework density 18.967220999999999
#
# number of rings (size 3 to 8) (size 9 to 14) (size 15 to 20)
#    0.000    2.333    0.000    4.000    0.000   10.000 
#    0.000    0.000    0.000    1.000    0.000    2.333 
#    0.000    0.000    0.000    0.000    0.000    0.000 
#
# Total GULP energy -297585.390719 kJ/mol
# GULP energy per Si atom -12399.391280 kJ/mol
# Density = 1.892405 g / cm^3
# Si number density = 18.967221 Si / 1000 Ang^3
#
#
#
# Elastic Constant Matrix: (Units=GPa)
#
#
# Indices 1 2 3 4 5 6 
#
# 1 114.3304 61.6129 41.5565 0.0000 0.0000 0.0000
# 2 61.6129 135.5406 47.2242 0.0000 0.0000 0.0000
# 3 41.5565 47.2242 71.5566 0.0000 0.0000 0.0000
# 4 0.0000 0.0000 0.0000 19.3358 0.0000 0.0000
# 5 0.0000 0.0000 0.0000 0.0000 13.3125 0.0000
# 6 0.0000 0.0000 0.0000 0.0000 0.0000 39.4701
#
#
#
# Elastic Compliance Matrix: (Units=1/GPa)
#
#
# Indices 1 2 3 4 5 6 
#
# 1 0.012658 -0.004146 -0.004615 0.000000 0.000000 0.000000
# 2 -0.004146 0.010939 -0.004811 0.000000 0.000000 0.000000
# 3 -0.004615 -0.004811 0.019830 0.000000 0.000000 0.000000
# 4 0.000000 0.000000 0.000000 0.051718 0.000000 0.000000
# 5 0.000000 0.000000 0.000000 0.000000 0.075117 0.000000
# 6 0.000000 0.000000 0.000000 0.000000 0.000000 0.025336
#
#
# Mechanical properties :
#
#
# Convention : Reuss Voigt Hill
#
# Bulk Modulus (GPa) = 61.41523 69.13498 65.27510
# Shear Modulus (GPa) = 21.91337 25.82593 23.86965
#
# Velocity S-wave (km/s) = 3.40270 3.69400 3.55134
# Velocity P-wave (km/s) = 6.92010 7.39750 7.16278
#
# Compressibility (1/GPa) = 0.01628261
#
# Stress axis : x y z
#
# Youngs Moduli (GPa) = 78.99851 91.41647 50.42756
#
# Poissons Ratio (x) = 0.37903 0.23273
# Poissons Ratio (y) = 0.32755 0.24262
# Poissons Ratio (z) = 0.36458 0.43983
#
# Static dielectric constant tensor:
#      x y z
#    x 3.718280 0.000000 0.000000 
#    y 0.000000 3.703820 0.000000 
#    z 0.000000 0.000000 3.042690 
# 
# 
# High freq. dielectric constant tensor:
#      x y z
#    x 1.748380 0.000000 0.000000 
#    y 0.000000 1.755940 0.000000 
#    z 0.000000 0.000000 1.690500 
# 
# From -- ./inp_files/4620.got.cif
#   From: 2010.03.12/outbox.cif.g09.slc.cpg/sg40_3_cif.got.tgz:4620.got - 2010.04.14 01:38:03.
