data_PCOD8183875
_publ_section_title
;
Structure prediction by ZEFSAII (Michael W. Deem and Ramdas Pophale) SiO2 
 PCOD8183875
Probable space group: A M A 2
;
_chemical_formula_sum "Si O2"
_cell_formula_units_Z 52
_cell_length_a 13.968357
_cell_length_b 15.458325
_cell_length_c 12.146351
_cell_angle_alpha 90.000000
_cell_angle_beta 90.000000
_cell_angle_gamma 90.000000
_cell_volume 2622.730018
_symmetry_space_group_name_H-M "A M A 2"
_symmetry_group_IT_number 40
_symmetry_cell_setting 'orthorhombic'
loop_
_space_group_symop_operation_xyz
x,y,z
-x,-y,z
1/2-x,y,z
1/2+x,-y,z
x,1/2+y,1/2+z
-x,1/2-y,1/2+z
1/2-x,1/2+y,1/2+z
1/2+x,1/2-y,1/2+z
loop_
_atom_site_type_symbol
_atom_site_label
_atom_site_fract_x
_atom_site_fract_y
_atom_site_fract_z
Si Si1 0.000000 0.000000 0.350040
Si Si2 0.855397 0.904625 0.205817
Si Si3 0.641311 0.337651 0.477527
Si Si4 0.969936 0.672821 0.985991
Si Si5 0.557160 0.624376 0.222607
Si Si6 0.857708 0.440016 0.263622
Si Si7 0.643437 0.256776 0.882008
O O1 0.037039 0.919511 0.423884
O O2 0.913812 0.978014 0.268551
O O3 0.750000 0.943156 0.180892
O O4 0.846669 0.822815 0.283369
O O5 0.904878 0.873974 0.091332
O O6 0.750000 0.309662 0.500312
O O7 0.588386 0.251899 0.429485
O O8 0.635830 0.417312 0.392534
O O9 0.919171 0.667017 0.105219
O O10 0.082049 0.702314 0.982641
O O11 0.619094 0.538857 0.239306
O O12 0.442481 0.613738 0.206704
O O13 0.584936 0.677342 0.330620
O O14 0.750000 0.418389 0.218812
O O15 0.750000 0.230514 0.924477
#
# Coordination Sequence:
#
# PCOD8183875 Si02
#       7
#     4   8   8   8   8   8   8
#     4  10  22  36  56  86 122 150 192 254 300 344
#     4   9  19  37  59  83 115 155 196 239 293 355
#     4  10  20  37  61  85 114 156 201 242 293 359
#     4  11  22  39  59  89 116 156 205 248 297 363
#     4  11  21  37  62  87 120 160 199 246 309 370
#     4  10  22  37  57  90 125 153 198 257 303 354
#     4  10  20  37  61  88 120 159 203 251 303 365
#
# _framework density 19.826668000000002
#
# number of rings (size 3 to 8) (size 9 to 14) (size 15 to 20)
#    0.000    1.846    3.077    1.385    0.000    3.077 
#    0.000    3.077    0.000    0.000    0.000    0.000 
#    0.000    0.000    0.000    0.000    0.000    0.000 
#
# Total GULP energy -322093.608058 kJ/mol
# GULP energy per Si atom -12388.215695 kJ/mol
# Density = 1.978154 g / cm^3
# Si number density = 19.826668 Si / 1000 Ang^3
#
#
#
# Elastic Constant Matrix: (Units=GPa)
#
#
# Indices 1 2 3 4 5 6 
#
# 1 94.7569 39.2413 4.6054 0.0000 0.0000 0.0000
# 2 39.2413 81.2627 29.9730 0.0000 0.0000 0.0000
# 3 4.6054 29.9730 57.9992 0.0000 0.0000 0.0000
# 4 0.0000 0.0000 0.0000 20.4586 0.0000 0.0000
# 5 0.0000 0.0000 0.0000 0.0000 11.0592 0.0000
# 6 0.0000 0.0000 0.0000 0.0000 0.0000 24.1983
#
#
#
# Elastic Compliance Matrix: (Units=1/GPa)
#
#
# Indices 1 2 3 4 5 6 
#
# 1 0.013562 -0.007601 0.002851 0.000000 0.000000 0.000000
# 2 -0.007601 0.019464 -0.009455 0.000000 0.000000 0.000000
# 3 0.002851 -0.009455 0.021901 0.000000 0.000000 0.000000
# 4 0.000000 0.000000 0.000000 0.048879 0.000000 0.000000
# 5 0.000000 0.000000 0.000000 0.000000 0.090422 0.000000
# 6 0.000000 0.000000 0.000000 0.000000 0.000000 0.041325
#
#
# Mechanical properties :
#
#
# Convention : Reuss Voigt Hill
#
# Bulk Modulus (GPa) = 37.71016 42.40647 40.05831
# Shear Modulus (GPa) = 18.32827 21.82317 20.07572
#
# Velocity S-wave (km/s) = 3.04373 3.32128 3.18553
# Velocity P-wave (km/s) = 5.60479 6.01189 5.81191
#
# Compressibility (1/GPa) = 0.02651805
#
# Stress axis : x y z
#
# Youngs Moduli (GPa) = 73.73302 51.37818 45.65922
#
# Poissons Ratio (x) = 0.39052 -0.13018
# Poissons Ratio (y) = 0.56043 0.43170
# Poissons Ratio (z) = -0.21022 0.48578
#
# Static dielectric constant tensor:
#      x y z
#    x 4.004480 0.000000 0.000000 
#    y 0.000000 3.582820 0.000000 
#    z 0.000000 0.000000 3.479320 
# 
# 
# High freq. dielectric constant tensor:
#      x y z
#    x 1.778190 0.000000 0.000000 
#    y 0.000000 1.768890 0.000000 
#    z 0.000000 0.000000 1.760040 
# 
# From -- ./inp_files/12227.got.cif
#   From: 2010.03.12/outbox.cif.g09.slc.cpg/sg40_7_cif.got.tgz:12227.got - 2010.04.14 01:38:03.
