data_PCOD8183184
_publ_section_title
;
Structure prediction by ZEFSAII (Michael W. Deem and Ramdas Pophale) SiO2 
 PCOD8183184
Probable space group: A M A 2
;
_chemical_formula_sum "Si O2"
_cell_formula_units_Z 40
_cell_length_a 14.526079
_cell_length_b 16.420198
_cell_length_c 9.338889
_cell_angle_alpha 90.000000
_cell_angle_beta 90.000000
_cell_angle_gamma 90.000000
_cell_volume 2227.522015
_symmetry_space_group_name_H-M "A M A 2"
_symmetry_group_IT_number 40
_symmetry_cell_setting 'orthorhombic'
loop_
_space_group_symop_operation_xyz
x,y,z
-x,-y,z
1/2-x,y,z
1/2+x,-y,z
x,1/2+y,1/2+z
-x,1/2-y,1/2+z
1/2-x,1/2+y,1/2+z
1/2+x,1/2-y,1/2+z
loop_
_atom_site_type_symbol
_atom_site_label
_atom_site_fract_x
_atom_site_fract_y
_atom_site_fract_z
Si Si1 0.851007 0.522312 0.405760
Si Si2 0.565036 0.927975 0.165637
Si Si3 0.647770 0.367389 0.234404
Si Si4 0.855719 0.323830 0.915625
Si Si5 0.517105 0.167762 0.924842
O O1 0.750000 0.562750 0.422003
O O2 0.869245 0.469288 0.548038
O O3 0.853939 0.462511 0.271126
O O4 0.926913 0.589323 0.370496
O O5 0.622350 0.890742 0.295484
O O6 0.500000 0.000000 0.226370
O O7 0.510011 0.852888 0.089535
O O8 0.750000 0.330455 0.265713
O O9 0.573253 0.317788 0.327674
O O10 0.624426 0.364255 0.067699
O O11 0.750000 0.296139 0.898286
O O12 0.920429 0.245909 0.906460
#
# Coordination Sequence:
#
# PCOD8183184 Si02
#       5
#     8   8   8   8   8
#     4   9  17  33  54  74  97 132 171 202 237 294
#     4   9  19  33  51  72 100 135 168 199 241 293
#     4   9  19  33  50  71 100 134 167 202 246 295
#     4  11  21  33  51  78 105 128 159 208 257 291
#     4  10  19  34  53  75  99 131 168 205 244 293
#
# _framework density 17.957173000000001
#
# number of rings (size 3 to 8) (size 9 to 14) (size 15 to 20)
#    0.000    2.400    0.000    4.200    0.000    2.400 
#    0.000    0.000    0.000    1.200    0.000   11.200 
#    0.000    0.000    0.000    0.000    0.000    0.000 
#
# Total GULP energy -247908.666582 kJ/mol
# GULP energy per Si atom -12395.433329 kJ/mol
# Density = 1.791630 g / cm^3
# Si number density = 17.957173 Si / 1000 Ang^3
#
#
#
# Elastic Constant Matrix: (Units=GPa)
#
#
# Indices 1 2 3 4 5 6 
#
# 1 124.1959 48.4930 58.5567 0.0000 0.0000 0.0000
# 2 48.4930 77.3426 57.8320 0.0000 0.0000 0.0000
# 3 58.5567 57.8320 106.2488 0.0000 0.0000 0.0000
# 4 0.0000 0.0000 0.0000 19.8622 0.0000 0.0000
# 5 0.0000 0.0000 0.0000 0.0000 27.9906 0.0000
# 6 0.0000 0.0000 0.0000 0.0000 0.0000 19.8823
#
#
#
# Elastic Compliance Matrix: (Units=1/GPa)
#
#
# Indices 1 2 3 4 5 6 
#
# 1 0.011641 -0.004219 -0.004120 0.000000 0.000000 0.000000
# 2 -0.004219 0.023332 -0.010375 0.000000 0.000000 0.000000
# 3 -0.004120 -0.010375 0.017329 0.000000 0.000000 0.000000
# 4 0.000000 0.000000 0.000000 0.050347 0.000000 0.000000
# 5 0.000000 0.000000 0.000000 0.000000 0.035726 0.000000
# 6 0.000000 0.000000 0.000000 0.000000 0.000000 0.050296
#
#
# Mechanical properties :
#
#
# Convention : Reuss Voigt Hill
#
# Bulk Modulus (GPa) = 67.21915 70.83895 69.02905
# Shear Modulus (GPa) = 21.63965 23.07406 22.35686
#
# Velocity S-wave (km/s) = 3.47518 3.58851 3.53230
# Velocity P-wave (km/s) = 7.32235 7.53023 7.42702
#
# Compressibility (1/GPa) = 0.01487671
#
# Stress axis : x y z
#
# Youngs Moduli (GPa) = 85.90091 42.85928 57.70520
#
# Poissons Ratio (x) = 0.18080 0.23773
# Poissons Ratio (y) = 0.36238 0.59869
# Poissons Ratio (z) = 0.35388 0.44466
#
# Static dielectric constant tensor:
#      x y z
#    x 3.660130 0.000000 0.000000 
#    y 0.000000 3.173930 0.000000 
#    z 0.000000 0.000000 3.238220 
# 
# 
# High freq. dielectric constant tensor:
#      x y z
#    x 1.713890 0.000000 0.000000 
#    y 0.000000 1.678750 0.000000 
#    z 0.000000 0.000000 1.686050 
# 
# From -- ./inp_files/6125.got.cif
#   From: 2010.03.12/outbox.cif.g09.slc.cpg/sg40_4_cif.got.tgz:6125.got - 2010.04.14 01:38:03.
