data_PCOD8183197
_publ_section_title
;
Structure prediction by ZEFSAII (Michael W. Deem and Ramdas Pophale) SiO2 
 PCOD8183197
Probable space group: A M A 2
;
_chemical_formula_sum "Si O2"
_cell_formula_units_Z 48
_cell_length_a 18.468596
_cell_length_b 8.708441
_cell_length_c 17.032309
_cell_angle_alpha 90.000000
_cell_angle_beta 90.000000
_cell_angle_gamma 90.000000
_cell_volume 2739.351880
_symmetry_space_group_name_H-M "A M A 2"
_symmetry_group_IT_number 40
_symmetry_cell_setting 'orthorhombic'
loop_
_space_group_symop_operation_xyz
x,y,z
-x,-y,z
1/2-x,y,z
1/2+x,-y,z
x,1/2+y,1/2+z
-x,1/2-y,1/2+z
1/2-x,1/2+y,1/2+z
1/2+x,1/2-y,1/2+z
loop_
_atom_site_type_symbol
_atom_site_label
_atom_site_fract_x
_atom_site_fract_y
_atom_site_fract_z
Si Si1 0.073585 0.588776 0.061770
Si Si2 0.543963 0.152401 0.341034
Si Si3 0.332604 0.867909 0.859332
Si Si4 0.455859 0.355508 0.466618
Si Si5 0.832603 0.470581 0.914210
Si Si6 0.578402 0.934795 0.741367
O O1 0.099274 0.560127 0.150008
O O2 0.000000 0.500000 0.039734
O O3 0.055498 0.767335 0.048168
O O4 0.139337 0.552891 0.002964
O O5 0.493644 0.246696 0.401362
O O6 0.572408 0.259100 0.270151
O O7 0.500000 0.000000 0.312564
O O8 0.619622 0.105904 0.379468
O O9 0.250000 0.919319 0.871510
O O10 0.380557 0.923192 0.932824
O O11 0.339199 0.681669 0.859071
O O12 0.362913 0.953622 0.782100
O O13 0.500000 0.500000 0.492471
O O14 0.750000 0.526073 0.918491
O O15 0.500000 0.000000 0.759186
#
# Coordination Sequence:
#
# PCOD8183197 Si02
#       6
#     8   8   8   8   8   8
#     4  10  20  35  55  79 109 141 180 223 277 329
#     4  12  18  34  58  80 109 142 183 234 265 322
#     4  10  19  34  54  80 109 143 181 224 273 322
#     4  11  18  35  57  80 105 144 185 231 265 321
#     4  10  20  35  57  80 106 146 188 227 275 325
#     4  11  21  34  54  84 109 141 182 224 274 329
#
# _framework density 17.522393000000001
#
# number of rings (size 3 to 8) (size 9 to 14) (size 15 to 20)
#    0.000    1.333    8.333    0.000    0.000    2.000 
#    0.000    0.000    0.000    0.000    0.000    0.000 
#    0.000    0.000    0.000    0.000    0.000    0.000 
#
# Total GULP energy -297365.573927 kJ/mol
# GULP energy per Si atom -12390.232247 kJ/mol
# Density = 1.748251 g / cm^3
# Si number density = 17.522393 Si / 1000 Ang^3
#
#
#
# Elastic Constant Matrix: (Units=GPa)
#
#
# Indices 1 2 3 4 5 6 
#
# 1 142.2936 48.3319 51.6866 0.0000 0.0000 0.0000
# 2 48.3319 79.6544 49.5966 0.0000 0.0000 0.0000
# 3 51.6866 49.5966 78.4877 0.0000 0.0000 0.0000
# 4 0.0000 0.0000 0.0000 28.2093 0.0000 0.0000
# 5 0.0000 0.0000 0.0000 0.0000 20.2858 0.0000
# 6 0.0000 0.0000 0.0000 0.0000 0.0000 23.9205
#
#
#
# Elastic Compliance Matrix: (Units=1/GPa)
#
#
# Indices 1 2 3 4 5 6 
#
# 1 0.009692 -0.003144 -0.004396 0.000000 0.000000 0.000000
# 2 -0.003144 0.021718 -0.011653 0.000000 0.000000 0.000000
# 3 -0.004396 -0.011653 0.022999 0.000000 0.000000 0.000000
# 4 0.000000 0.000000 0.000000 0.035449 0.000000 0.000000
# 5 0.000000 0.000000 0.000000 0.000000 0.049296 0.000000
# 6 0.000000 0.000000 0.000000 0.000000 0.000000 0.041805
#
#
# Mechanical properties :
#
#
# Convention : Reuss Voigt Hill
#
# Bulk Modulus (GPa) = 62.40905 66.62955 64.51930
# Shear Modulus (GPa) = 22.25320 24.53783 23.39552
#
# Velocity S-wave (km/s) = 3.56755 3.74621 3.65797
# Velocity P-wave (km/s) = 7.25699 7.53791 7.39878
#
# Compressibility (1/GPa) = 0.01602332
#
# Stress axis : x y z
#
# Youngs Moduli (GPa) = 103.17343 46.04567 43.47926
#
# Poissons Ratio (x) = 0.14476 0.19114
# Poissons Ratio (y) = 0.32436 0.50667
# Poissons Ratio (z) = 0.45357 0.53657
#
# Static dielectric constant tensor:
#      x y z
#    x 3.429560 0.000000 0.000000 
#    y 0.000000 3.479860 0.000000 
#    z 0.000000 0.000000 3.048220 
# 
# 
# High freq. dielectric constant tensor:
#      x y z
#    x 1.683370 0.000000 0.000000 
#    y 0.000000 1.681490 0.000000 
#    z 0.000000 0.000000 1.652090 
# 
# From -- ./inp_files/20989.got.cif
#   From: 2010.03.12/outbox.cif.g09.slc.cpg/sg40_11_cif.got.tgz:20989.got - 2010.04.14 01:38:03.
