data_PCOD8183995
_publ_section_title
;
Structure prediction by ZEFSAII (Michael W. Deem and Ramdas Pophale) SiO2 
 PCOD8183995
Probable space group: A M A 2
;
_chemical_formula_sum "Si O2"
_cell_formula_units_Z 56
_cell_length_a 21.683795
_cell_length_b 15.324116
_cell_length_c 7.522203
_cell_angle_alpha 90.000000
_cell_angle_beta 90.000000
_cell_angle_gamma 90.000000
_cell_volume 2499.515148
_symmetry_space_group_name_H-M "A M A 2"
_symmetry_group_IT_number 40
_symmetry_cell_setting 'orthorhombic'
loop_
_space_group_symop_operation_xyz
x,y,z
-x,-y,z
1/2-x,y,z
1/2+x,-y,z
x,1/2+y,1/2+z
-x,1/2-y,1/2+z
1/2-x,1/2+y,1/2+z
1/2+x,1/2-y,1/2+z
loop_
_atom_site_type_symbol
_atom_site_label
_atom_site_fract_x
_atom_site_fract_y
_atom_site_fract_z
Si Si1 0.998425 0.602377 0.248330
Si Si2 0.874806 0.670915 0.397884
Si Si3 0.319489 0.311639 0.048548
Si Si4 0.317784 0.504236 0.954296
Si Si5 0.097825 0.149597 0.023046
Si Si6 0.085178 0.645403 0.945536
Si Si7 0.318130 0.994742 0.045817
O O1 0.037455 0.650279 0.402156
O O2 0.000000 0.500000 0.282064
O O3 0.929888 0.638689 0.269565
O O4 0.021380 0.626085 0.048721
O O5 0.818875 0.692035 0.263340
O O6 0.892286 0.758390 0.504352
O O7 0.853153 0.597679 0.535525
O O8 0.250000 0.294331 0.978664
O O9 0.365145 0.237454 0.977214
O O10 0.343054 0.407048 0.988157
O O11 0.250000 0.516178 0.044782
O O12 0.366263 0.575247 0.025625
O O13 0.310258 0.521530 0.747554
O O14 0.077518 0.140697 0.231138
O O15 0.140309 0.069233 0.956141
O O16 0.250000 0.990445 0.956040
#
# Coordination Sequence:
#
# PCOD8183995 Si02
#       7
#     8   8   8   8   8   8   8
#     4  12  25  45  64  93 131 169 227 267 317 395
#     4  11  24  40  63  95 127 175 215 266 328 381
#     4  10  21  41  67  96 130 167 215 268 325 386
#     4   9  20  40  65  95 130 169 211 262 329 392
#     4  10  23  43  66  97 127 174 213 266 330 385
#     4  10  25  43  63  94 128 172 210 268 320 380
#     4  10  20  39  65  95 130 166 212 269 327 388
#
# _framework density 22.404346
#
# number of rings (size 3 to 8) (size 9 to 14) (size 15 to 20)
#    0.000    1.714    1.429    1.714    6.000    4.571 
#    2.571    0.714    0.000    0.000    0.000    0.000 
#    0.000    0.000    0.000    0.000    0.000    0.000 
#
# Total GULP energy -347145.372417 kJ/mol
# GULP energy per Si atom -12398.049015 kJ/mol
# Density = 2.235335 g / cm^3
# Si number density = 22.404346 Si / 1000 Ang^3
#
#
#
# Elastic Constant Matrix: (Units=GPa)
#
#
# Indices 1 2 3 4 5 6 
#
# 1 88.1274 30.0598 24.9011 0.0000 0.0000 0.0000
# 2 30.0598 140.0509 6.5138 0.0000 0.0000 0.0000
# 3 24.9011 6.5138 55.7980 0.0000 0.0000 0.0000
# 4 0.0000 0.0000 0.0000 29.1726 0.0000 0.0000
# 5 0.0000 0.0000 0.0000 0.0000 29.9038 0.0000
# 6 0.0000 0.0000 0.0000 0.0000 0.0000 33.4311
#
#
#
# Elastic Compliance Matrix: (Units=1/GPa)
#
#
# Indices 1 2 3 4 5 6 
#
# 1 0.013943 -0.002718 -0.005905 0.000000 0.000000 0.000000
# 2 -0.002718 0.007709 0.000313 0.000000 0.000000 0.000000
# 3 -0.005905 0.000313 0.020520 0.000000 0.000000 0.000000
# 4 0.000000 0.000000 0.000000 0.034279 0.000000 0.000000
# 5 0.000000 0.000000 0.000000 0.000000 0.033441 0.000000
# 6 0.000000 0.000000 0.000000 0.000000 0.000000 0.029912
#
#
# Mechanical properties :
#
#
# Convention : Reuss Voigt Hill
#
# Bulk Modulus (GPa) = 39.13518 45.21396 42.17457
# Shear Modulus (GPa) = 30.31382 33.33495 31.82438
#
# Velocity S-wave (km/s) = 3.68235 3.86149 3.77298
# Velocity P-wave (km/s) = 5.96533 6.33294 6.15188
#
# Compressibility (1/GPa) = 0.02555245
#
# Stress axis : x y z
#
# Youngs Moduli (GPa) = 71.72168 129.71727 48.73179
#
# Poissons Ratio (x) = 0.35257 0.28776
# Poissons Ratio (y) = 0.19494 -0.01525
# Poissons Ratio (z) = 0.42352 -0.04060
#
# Static dielectric constant tensor:
#      x y z
#    x 4.194660 0.000000 0.000000 
#    y 0.000000 4.209480 0.000000 
#    z 0.000000 0.000000 3.660230 
# 
# 
# High freq. dielectric constant tensor:
#      x y z
#    x 1.884720 0.000000 0.000000 
#    y 0.000000 1.897820 0.000000 
#    z 0.000000 0.000000 1.862380 
# 
# From -- ./inp_files/8284.got.cif
#   From: 2010.03.12/outbox.cif.g09.slc.cpg/sg40_5_cif.got.tgz:8284.got - 2010.04.14 01:38:03.
