data_PCOD8183053
_publ_section_title
;
Structure prediction by ZEFSAII (Michael W. Deem and Ramdas Pophale) SiO2 
 PCOD8183053
Probable space group: A M A 2
;
_chemical_formula_sum "Si O2"
_cell_formula_units_Z 48
_cell_length_a 16.029171
_cell_length_b 9.172246
_cell_length_c 15.878129
_cell_angle_alpha 90.000000
_cell_angle_beta 90.000000
_cell_angle_gamma 90.000000
_cell_volume 2334.458092
_symmetry_space_group_name_H-M "A M A 2"
_symmetry_group_IT_number 40
_symmetry_cell_setting 'orthorhombic'
loop_
_space_group_symop_operation_xyz
x,y,z
-x,-y,z
1/2-x,y,z
1/2+x,-y,z
x,1/2+y,1/2+z
-x,1/2-y,1/2+z
1/2-x,1/2+y,1/2+z
1/2+x,1/2-y,1/2+z
loop_
_atom_site_type_symbol
_atom_site_label
_atom_site_fract_x
_atom_site_fract_y
_atom_site_fract_z
Si Si1 0.911322 0.930542 0.651390
Si Si2 0.153403 0.385424 0.654266
Si Si3 0.153410 0.114139 0.480430
Si Si4 0.845123 0.413782 0.325401
Si Si5 0.346278 0.406974 0.838035
Si Si6 0.909279 0.567074 0.483636
O O1 0.907181 0.754813 0.658775
O O2 0.854404 0.971285 0.569952
O O3 0.882899 0.993418 0.742464
O O4 0.000000 0.000000 0.631297
O O5 0.250000 0.335239 0.642538
O O6 0.142817 0.471194 0.742813
O O7 0.126183 0.486066 0.574911
O O8 0.250000 0.156094 0.464047
O O9 0.095368 0.257795 0.482721
O O10 0.113477 0.015798 0.405972
O O11 0.750000 0.385437 0.302023
O O12 0.886701 0.254971 0.343309
O O13 0.852293 0.513428 0.407180
O O14 0.250000 0.395511 0.863812
O O15 0.000000 0.500000 0.469354
#
# Coordination Sequence:
#
# PCOD8183053 Si02
#       6
#     8   8   8   8   8   8
#     4  10  19  32  54  83 113 146 185 233 282 331
#     4   9  18  38  61  81 110 155 195 229 282 353
#     4  10  20  39  61  82 110 153 195 231 282 352
#     4  10  19  36  58  81 109 148 189 231 282 345
#     4   8  17  34  60  84 104 136 188 234 270 327
#     4  11  22  35  54  83 115 146 186 236 287 336
#
# _framework density 20.561516000000001
#
# number of rings (size 3 to 8) (size 9 to 14) (size 15 to 20)
#    0.000    2.333    0.000    5.500    0.000    2.667 
#    0.000   10.833    0.000    4.000    0.000    0.000 
#    0.000    0.000    0.000    0.000    0.000    0.000 
#
# Total GULP energy -297315.963222 kJ/mol
# GULP energy per Si atom -12388.165134 kJ/mol
# Density = 2.051472 g / cm^3
# Si number density = 20.561516 Si / 1000 Ang^3
#
#
#
# Elastic Constant Matrix: (Units=GPa)
#
#
# Indices 1 2 3 4 5 6 
#
# 1 72.4592 30.7344 14.6865 0.0000 0.0000 0.0000
# 2 30.7344 56.5239 52.0822 0.0000 0.0000 0.0000
# 3 14.6865 52.0822 195.8558 0.0000 0.0000 0.0000
# 4 0.0000 0.0000 0.0000 39.4840 0.0000 0.0000
# 5 0.0000 0.0000 0.0000 0.0000 18.4624 0.0000
# 6 0.0000 0.0000 0.0000 0.0000 0.0000 25.9521
#
#
#
# Elastic Compliance Matrix: (Units=1/GPa)
#
#
# Indices 1 2 3 4 5 6 
#
# 1 0.018352 -0.011538 0.001692 0.000000 0.000000 0.000000
# 2 -0.011538 0.030687 -0.007295 0.000000 0.000000 0.000000
# 3 0.001692 -0.007295 0.006919 0.000000 0.000000 0.000000
# 4 0.000000 0.000000 0.000000 0.025327 0.000000 0.000000
# 5 0.000000 0.000000 0.000000 0.000000 0.054164 0.000000
# 6 0.000000 0.000000 0.000000 0.000000 0.000000 0.038533
#
#
# Mechanical properties :
#
#
# Convention : Reuss Voigt Hill
#
# Bulk Modulus (GPa) = 46.13397 57.76056 51.94727
# Shear Modulus (GPa) = 23.20316 31.93543 27.56930
#
# Velocity S-wave (km/s) = 3.36292 3.94530 3.66569
# Velocity P-wave (km/s) = 6.12901 6.99331 6.57538
#
# Compressibility (1/GPa) = 0.02167600
#
# Stress axis : x y z
#
# Youngs Moduli (GPa) = 54.49078 32.58704 144.53241
#
# Poissons Ratio (x) = 0.37598 -0.24454
# Poissons Ratio (y) = 0.62869 1.05439
# Poissons Ratio (z) = -0.09220 0.23773
#
# Static dielectric constant tensor:
#      x y z
#    x 3.380820 0.000000 0.000000 
#    y 0.000000 3.408250 0.000000 
#    z 0.000000 0.000000 4.376770 
# 
# 
# High freq. dielectric constant tensor:
#      x y z
#    x 1.777250 0.000000 0.000000 
#    y 0.000000 1.760540 0.000000 
#    z 0.000000 0.000000 1.840630 
# 
# From -- ./inp_files/20544.got.cif
#   From: 2010.03.12/outbox.cif.g09.slc.cpg/sg40_11_cif.got.tgz:20544.got - 2010.04.14 01:38:03.
