data_PCOD8183420
_publ_section_title
;
Structure prediction by ZEFSAII (Michael W. Deem and Ramdas Pophale) SiO2 
 PCOD8183420
Probable space group: A M A 2
;
_chemical_formula_sum "Si O2"
_cell_formula_units_Z 64
_cell_length_a 17.122642
_cell_length_b 15.314364
_cell_length_c 12.090064
_cell_angle_alpha 90.000000
_cell_angle_beta 90.000000
_cell_angle_gamma 90.000000
_cell_volume 3170.285262
_symmetry_space_group_name_H-M "A M A 2"
_symmetry_group_IT_number 40
_symmetry_cell_setting 'orthorhombic'
loop_
_space_group_symop_operation_xyz
x,y,z
-x,-y,z
1/2-x,y,z
1/2+x,-y,z
x,1/2+y,1/2+z
-x,1/2-y,1/2+z
1/2-x,1/2+y,1/2+z
1/2+x,1/2-y,1/2+z
loop_
_atom_site_type_symbol
_atom_site_label
_atom_site_fract_x
_atom_site_fract_y
_atom_site_fract_z
Si Si1 0.657906 0.378081 0.264340
Si Si2 0.409513 0.480502 0.417851
Si Si3 0.160491 0.796375 0.885505
Si Si4 0.343101 0.624096 0.014174
Si Si5 0.342735 0.771102 0.425910
Si Si6 0.660481 0.295776 0.662546
Si Si7 0.589497 0.974211 0.161745
Si Si8 0.341576 0.960565 0.374846
O O1 0.750000 0.369877 0.258070
O O2 0.637495 0.469380 0.322662
O O3 0.623963 0.376870 0.139595
O O4 0.623091 0.296607 0.334665
O O5 0.500000 0.500000 0.401868
O O6 0.395068 0.377430 0.411101
O O7 0.379337 0.511818 0.537553
O O8 0.250000 0.818446 0.917672
O O9 0.153889 0.778363 0.755044
O O10 0.129501 0.713284 0.955081
O O11 0.250000 0.619519 0.011193
O O12 0.377513 0.540128 0.947687
O O13 0.250000 0.773358 0.415383
O O14 0.369171 0.741986 0.546975
O O15 0.378245 0.867719 0.410497
O O16 0.750000 0.330176 0.655650
O O17 0.603141 0.374086 0.695417
O O18 0.640051 0.031816 0.245300
O O19 0.500000 0.000000 0.173670
O O20 0.250000 0.959365 0.393837
#
# Coordination Sequence:
#
# PCOD8183420 Si02
#       8
#     8   8   8   8   8   8   8   8
#     4  10  20  37  60  86 118 153 193 243 293 349
#     4  11  25  42  56  84 122 161 202 245 295 353
#     4  10  21  38  65  92 115 153 200 247 299 354
#     4   9  19  35  59  92 121 144 186 247 300 345
#     4   9  19  33  57  90 115 145 191 238 293 349
#     4  10  19  38  64  89 117 154 202 252 297 350
#     4  11  23  40  58  85 119 157 204 247 295 353
#     4  10  20  37  61  88 119 152 191 246 299 352
#
# _framework density 20.187457999999999
#
# number of rings (size 3 to 8) (size 9 to 14) (size 15 to 20)
#    0.000    2.000    2.500    0.750    3.500    1.500 
#    2.250    0.625    0.000    0.000    0.000    0.000 
#    0.000    0.000    0.000    0.000    0.000    0.000 
#
# Total GULP energy -396807.827075 kJ/mol
# GULP energy per Si atom -12400.244596 kJ/mol
# Density = 2.014151 g / cm^3
# Si number density = 20.187458 Si / 1000 Ang^3
#
#
#
# Elastic Constant Matrix: (Units=GPa)
#
#
# Indices 1 2 3 4 5 6 
#
# 1 26.6001 29.4019 14.5681 0.0000 0.0000 0.0000
# 2 29.4019 142.5349 43.9499 0.0000 0.0000 0.0000
# 3 14.5681 43.9499 137.6075 0.0000 0.0000 0.0000
# 4 0.0000 0.0000 0.0000 -82.6331 0.0000 0.0000
# 5 0.0000 0.0000 0.0000 0.0000 16.0425 0.0000
# 6 0.0000 0.0000 0.0000 0.0000 0.0000 19.6083
#
#
#
# Elastic Compliance Matrix: (Units=1/GPa)
#
#
# Indices 1 2 3 4 5 6 
#
# 1 0.049283 -0.009492 -0.002186 0.000000 0.000000 0.000000
# 2 -0.009492 0.009610 -0.002065 0.000000 0.000000 0.000000
# 3 -0.002186 -0.002065 0.008158 0.000000 0.000000 0.000000
# 4 0.000000 0.000000 0.000000 -0.012102 0.000000 0.000000
# 5 0.000000 0.000000 0.000000 0.000000 0.062334 0.000000
# 6 0.000000 0.000000 0.000000 0.000000 0.000000 0.050999
#
#
# Mechanical properties :
#
#
# Convention : Reuss Voigt Hill
#
# Bulk Modulus (GPa) = 25.27402 53.62026 39.44714
# Shear Modulus (GPa) = 23.92848 5.19173 14.56011
#
# Velocity S-wave (km/s) = 3.44657 1.60541 2.68851
# Velocity P-wave (km/s) = 5.32779 5.48227 5.40558
#
# Compressibility (1/GPa) = 0.03956632
#
# Stress axis : x y z
#
# Youngs Moduli (GPa) = 20.29107 104.05376 122.58159
#
# Poissons Ratio (x) = 0.98768 0.26794
# Poissons Ratio (y) = 0.19260 0.25307
# Poissons Ratio (z) = 0.04435 0.21482
#
# Static dielectric constant tensor:
#      x y z
#    x 3.156000 0.000000 0.000000 
#    y 0.000000 4.879100 0.000000 
#    z 0.000000 0.000000 3.949170 
# 
# 
# High freq. dielectric constant tensor:
#      x y z
#    x 1.741360 0.000000 0.000000 
#    y 0.000000 1.797630 0.000000 
#    z 0.000000 0.000000 1.803810 
# 
# From -- ./inp_files/13103.got.cif
#   From: 2010.03.12/outbox.cif.g09.slc.cpg/sg40_7_cif.got.tgz:13103.got - 2010.04.14 01:38:03.
