data_PCOD8183925
_publ_section_title
;
Structure prediction by ZEFSAII (Michael W. Deem and Ramdas Pophale) SiO2 
 PCOD8183925
Probable space group: A M A 2
;
_chemical_formula_sum "Si O2"
_cell_formula_units_Z 64
_cell_length_a 8.809741
_cell_length_b 24.956473
_cell_length_c 14.858495
_cell_angle_alpha 90.000000
_cell_angle_beta 90.000000
_cell_angle_gamma 90.000000
_cell_volume 3266.789653
_symmetry_space_group_name_H-M "A M A 2"
_symmetry_group_IT_number 40
_symmetry_cell_setting 'orthorhombic'
loop_
_space_group_symop_operation_xyz
x,y,z
-x,-y,z
1/2-x,y,z
1/2+x,-y,z
x,1/2+y,1/2+z
-x,1/2-y,1/2+z
1/2-x,1/2+y,1/2+z
1/2+x,1/2-y,1/2+z
loop_
_atom_site_type_symbol
_atom_site_label
_atom_site_fract_x
_atom_site_fract_y
_atom_site_fract_z
Si Si1 0.079781 0.272147 0.754640
Si Si2 0.072584 0.866949 0.955041
Si Si3 0.071059 0.058035 0.095560
Si Si4 0.075919 0.335306 0.260068
Si Si5 0.069600 0.646288 0.074896
Si Si6 0.427405 0.390561 0.766970
Si Si7 0.579007 0.237261 0.046033
Si Si8 0.071342 0.443403 0.951755
O O1 0.250000 0.254997 0.782880
O O2 0.035276 0.329513 0.797395
O O3 0.070832 0.281414 0.648408
O O4 0.965316 0.226020 0.786559
O O5 0.250000 0.869765 0.981892
O O6 0.000855 0.809612 0.987206
O O7 0.986050 0.915363 0.003060
O O8 0.049875 0.872241 0.847856
O O9 0.250000 0.052315 0.091562
O O10 0.025716 0.093727 0.180959
O O11 0.000000 0.000000 0.106673
O O12 0.250000 0.336894 0.228884
O O13 0.971283 0.357900 0.180535
O O14 0.250000 0.642669 0.066334
O O15 0.005213 0.703347 0.036639
O O16 0.991711 0.599011 0.021947
O O17 0.250000 0.396321 0.742480
O O18 0.474418 0.427984 0.850256
O O19 0.750000 0.242844 0.011579
O O20 0.250000 0.446370 0.963493
O O21 0.000000 0.500000 0.976441
#
# Coordination Sequence:
#
# PCOD8183925 Si02
#       8
#     8   8   8   8   8   8   8   8
#     4   9  17  33  56  82 119 161 194 232 289 349
#     4  10  20  38  60  85 121 161 198 244 296 350
#     4  12  25  40  61  88 119 159 202 248 294 354
#     4  10  21  35  58  89 122 157 198 248 296 352
#     4  10  21  39  62  85 118 160 198 245 302 357
#     4  10  21  39  61  87 122 160 196 242 295 351
#     4   8  15  31  56  82 113 154 191 228 285 346
#     4  11  24  41  62  88 117 154 202 253 300 354
#
# _framework density 19.591100000000001
#
# number of rings (size 3 to 8) (size 9 to 14) (size 15 to 20)
#    0.000    2.000    1.250    3.375    1.750    3.500 
#    0.000    1.250    0.000    3.000    0.000    0.000 
#    0.000    0.000    0.000    0.000    0.000    0.000 
#
# Total GULP energy -396771.758636 kJ/mol
# GULP energy per Si atom -12399.117457 kJ/mol
# Density = 1.954651 g / cm^3
# Si number density = 19.591100 Si / 1000 Ang^3
#
#
#
# Elastic Constant Matrix: (Units=GPa)
#
#
# Indices 1 2 3 4 5 6 
#
# 1 76.4414 31.0140 32.1041 0.0000 0.0000 0.0000
# 2 31.0140 88.1228 27.5656 0.0000 0.0000 0.0000
# 3 32.1041 27.5656 59.9461 0.0000 0.0000 0.0000
# 4 0.0000 0.0000 0.0000 42.7299 0.0000 0.0000
# 5 0.0000 0.0000 0.0000 0.0000 24.9024 0.0000
# 6 0.0000 0.0000 0.0000 0.0000 0.0000 31.4868
#
#
#
# Elastic Compliance Matrix: (Units=1/GPa)
#
#
# Indices 1 2 3 4 5 6 
#
# 1 0.017938 -0.003864 -0.007830 0.000000 0.000000 0.000000
# 2 -0.003864 0.014087 -0.004408 0.000000 0.000000 0.000000
# 3 -0.007830 -0.004408 0.022902 0.000000 0.000000 0.000000
# 4 0.000000 0.000000 0.000000 0.023403 0.000000 0.000000
# 5 0.000000 0.000000 0.000000 0.000000 0.040157 0.000000
# 6 0.000000 0.000000 0.000000 0.000000 0.000000 0.031759
#
#
# Mechanical properties :
#
#
# Convention : Reuss Voigt Hill
#
# Bulk Modulus (GPa) = 44.00922 45.09754 44.55338
# Shear Modulus (GPa) = 26.31247 28.74558 27.52903
#
# Velocity S-wave (km/s) = 3.66879 3.83466 3.75264
# Velocity P-wave (km/s) = 6.36076 6.53265 6.44728
#
# Compressibility (1/GPa) = 0.02272251
#
# Stress axis : x y z
#
# Youngs Moduli (GPa) = 55.74759 70.98938 43.66417
#
# Poissons Ratio (x) = 0.27429 0.34189
# Poissons Ratio (y) = 0.21540 0.19249
# Poissons Ratio (z) = 0.43650 0.31294
#
# Static dielectric constant tensor:
#      x y z
#    x 3.462820 0.000000 0.000000 
#    y 0.000000 3.578910 0.000000 
#    z 0.000000 0.000000 3.457560 
# 
# 
# High freq. dielectric constant tensor:
#      x y z
#    x 1.750550 0.000000 0.000000 
#    y 0.000000 1.762250 0.000000 
#    z 0.000000 0.000000 1.759910 
# 
# From -- ./inp_files/15675.got.cif
#   From: 2010.03.12/outbox.cif.g09.slc.cpg/sg40_8_cif.got.tgz:15675.got - 2010.04.14 01:38:03.
