data_PCOD8183158
_publ_section_title
;
Structure prediction by ZEFSAII (Michael W. Deem and Ramdas Pophale) SiO2 
 PCOD8183158
Probable space group: A M A 2
;
_chemical_formula_sum "Si O2"
_cell_formula_units_Z 64
_cell_length_a 18.163708
_cell_length_b 12.079349
_cell_length_c 15.687933
_cell_angle_alpha 90.000000
_cell_angle_beta 90.000000
_cell_angle_gamma 90.000000
_cell_volume 3442.022989
_symmetry_space_group_name_H-M "A M A 2"
_symmetry_group_IT_number 40
_symmetry_cell_setting 'orthorhombic'
loop_
_space_group_symop_operation_xyz
x,y,z
-x,-y,z
1/2-x,y,z
1/2+x,-y,z
x,1/2+y,1/2+z
-x,1/2-y,1/2+z
1/2-x,1/2+y,1/2+z
1/2+x,1/2-y,1/2+z
loop_
_atom_site_type_symbol
_atom_site_label
_atom_site_fract_x
_atom_site_fract_y
_atom_site_fract_z
Si Si1 0.421230 0.052832 0.778640
Si Si2 0.832946 0.778170 0.211662
Si Si3 0.584895 0.520496 0.960300
Si Si4 0.567188 0.749480 0.897721
Si Si5 0.666757 0.537406 0.133955
Si Si6 0.399539 0.711303 0.890398
Si Si7 0.834698 0.872582 0.034875
Si Si8 0.667723 0.569160 0.421473
O O1 0.420894 0.180253 0.811250
O O2 0.500000 0.000000 0.757668
O O3 0.373918 0.054203 0.692056
O O4 0.387640 0.974527 0.850688
O O5 0.750000 0.807870 0.241764
O O6 0.836300 0.652001 0.183510
O O7 0.890067 0.793640 0.288329
O O8 0.857224 0.857545 0.133434
O O9 0.500000 0.500000 0.982475
O O10 0.593035 0.620858 0.891120
O O11 0.621781 0.409926 0.923737
O O12 0.626411 0.555408 0.045247
O O13 0.480718 0.748942 0.917694
O O14 0.610950 0.802785 0.975970
O O15 0.750000 0.497973 0.117869
O O16 0.345877 0.800428 0.935320
O O17 0.750000 0.831109 0.021610
O O18 0.842556 0.002200 0.009991
O O19 0.750000 0.551286 0.386054
#
# Coordination Sequence:
#
# PCOD8183158 Si02
#       8
#     8   8   8   8   8   8   8   8
#     4  11  19  33  59  87 117 146 192 243 294 341
#     4  10  19  35  58  84 112 149 195 234 279 347
#     4  10  23  39  57  79 117 157 193 235 290 349
#     4  10  20  37  57  83 117 148 194 234 289 348
#     4  11  21  35  56  86 113 147 195 238 287 347
#     4  11  21  36  58  84 115 150 191 237 289 347
#     4   9  19  34  58  84 111 145 188 238 282 336
#     4  10  19  33  55  86 116 145 185 239 289 333
#
# _framework density 18.593717000000002
#
# number of rings (size 3 to 8) (size 9 to 14) (size 15 to 20)
#    0.000    1.750    3.750    1.125    0.000    1.500 
#    0.000    1.250    5.500    1.500    0.000    0.000 
#    0.000    0.000    0.000    0.000    0.000    0.000 
#
# Total GULP energy -396706.401144 kJ/mol
# GULP energy per Si atom -12397.075036 kJ/mol
# Density = 1.855140 g / cm^3
# Si number density = 18.593717 Si / 1000 Ang^3
#
#
#
# Elastic Constant Matrix: (Units=GPa)
#
#
# Indices 1 2 3 4 5 6 
#
# 1 76.7286 29.5805 35.5617 0.0000 0.0000 0.0000
# 2 29.5805 103.7240 31.7265 0.0000 0.0000 0.0000
# 3 35.5617 31.7265 74.2165 0.0000 0.0000 0.0000
# 4 0.0000 0.0000 0.0000 24.8920 0.0000 0.0000
# 5 0.0000 0.0000 0.0000 0.0000 18.5755 0.0000
# 6 0.0000 0.0000 0.0000 0.0000 0.0000 22.7363
#
#
#
# Elastic Compliance Matrix: (Units=1/GPa)
#
#
# Indices 1 2 3 4 5 6 
#
# 1 0.017423 -0.002778 -0.007161 0.000000 0.000000 0.000000
# 2 -0.002778 0.011534 -0.003599 0.000000 0.000000 0.000000
# 3 -0.007161 -0.003599 0.018444 0.000000 0.000000 0.000000
# 4 0.000000 0.000000 0.000000 0.040174 0.000000 0.000000
# 5 0.000000 0.000000 0.000000 0.000000 0.053834 0.000000
# 6 0.000000 0.000000 0.000000 0.000000 0.000000 0.043983
#
#
# Mechanical properties :
#
#
# Convention : Reuss Voigt Hill
#
# Bulk Modulus (GPa) = 49.20278 49.82294 49.51286
# Shear Modulus (GPa) = 22.80571 23.76078 23.28324
#
# Velocity S-wave (km/s) = 3.50598 3.57864 3.54250
# Velocity P-wave (km/s) = 6.55047 6.62792 6.58931
#
# Compressibility (1/GPa) = 0.02032406
#
# Stress axis : x y z
#
# Youngs Moduli (GPa) = 57.39589 86.69781 54.21853
#
# Poissons Ratio (x) = 0.24089 0.38824
# Poissons Ratio (y) = 0.15947 0.19516
# Poissons Ratio (z) = 0.41099 0.31206
#
# Static dielectric constant tensor:
#      x y z
#    x 3.573380 0.000000 0.000000 
#    y 0.000000 3.657970 0.000000 
#    z 0.000000 0.000000 3.352240 
# 
# 
# High freq. dielectric constant tensor:
#      x y z
#    x 1.728350 0.000000 0.000000 
#    y 0.000000 1.719390 0.000000 
#    z 0.000000 0.000000 1.702360 
# 
# From -- ./inp_files/20814.got.cif
#   From: 2010.03.12/outbox.cif.g09.slc.cpg/sg40_11_cif.got.tgz:20814.got - 2010.04.14 01:38:03.
