data_PCOD8183537
_publ_section_title
;
Structure prediction by ZEFSAII (Michael W. Deem and Ramdas Pophale) SiO2 
 PCOD8183537
Probable space group: A M A 2
;
_chemical_formula_sum "Si O2"
_cell_formula_units_Z 56
_cell_length_a 8.654397
_cell_length_b 14.453830
_cell_length_c 21.964081
_cell_angle_alpha 90.000000
_cell_angle_beta 90.000000
_cell_angle_gamma 90.000000
_cell_volume 2747.468947
_symmetry_space_group_name_H-M "A M A 2"
_symmetry_group_IT_number 40
_symmetry_cell_setting 'orthorhombic'
loop_
_space_group_symop_operation_xyz
x,y,z
-x,-y,z
1/2-x,y,z
1/2+x,-y,z
x,1/2+y,1/2+z
-x,1/2-y,1/2+z
1/2-x,1/2+y,1/2+z
1/2+x,1/2-y,1/2+z
loop_
_atom_site_type_symbol
_atom_site_label
_atom_site_fract_x
_atom_site_fract_y
_atom_site_fract_z
Si Si1 0.933022 0.096709 0.104430
Si Si2 0.933175 0.403105 0.033084
Si Si3 0.571148 0.908524 0.235893
Si Si4 0.433553 0.398180 0.392185
Si Si5 0.927483 0.210448 0.773857
Si Si6 0.569088 0.405207 0.171711
Si Si7 0.432828 0.716187 0.502558
O O1 0.750000 0.099480 0.095625
O O2 0.976395 0.109816 0.174514
O O3 0.000000 0.000000 0.078873
O O4 0.009207 0.180691 0.067871
O O5 0.750000 0.402746 0.026359
O O6 0.989005 0.388660 0.102862
O O7 0.000000 0.500000 0.008071
O O8 0.004270 0.320238 0.992999
O O9 0.750000 0.925392 0.219192
O O10 0.550816 0.821172 0.280689
O O11 0.500000 0.000000 0.268274
O O12 0.500000 0.500000 0.384544
O O13 0.250000 0.402020 0.396965
O O14 0.490681 0.338107 0.334501
O O15 0.499821 0.351393 0.451994
O O16 0.750000 0.184027 0.763302
O O17 0.019545 0.179039 0.714262
O O18 0.500000 0.500000 0.198610
O O19 0.750000 0.414881 0.172512
O O20 0.250000 0.715886 0.499203
#
# Coordination Sequence:
#
# PCOD8183537 Si02
#       7
#     8   8   8   8   8   8   8
#     4  11  21  35  56  85 118 153 189 233 286 343
#     4  10  21  38  59  87 119 153 190 234 283 336
#     4  10  20  36  57  85 117 150 187 232 281 335
#     4  11  24  43  62  84 113 147 188 236 284 338
#     4  10  22  38  58  82 113 151 191 234 283 334
#     4  10  20  33  55  85 118 151 186 228 279 335
#     4  12  24  39  59  84 113 151 193 237 286 339
#
# _framework density 20.382394999999999
#
# number of rings (size 3 to 8) (size 9 to 14) (size 15 to 20)
#    0.000    1.429    0.000    6.857    0.000    7.429 
#    0.000    0.714    0.000    1.714    0.000    0.000 
#    0.000    0.000    0.000    0.000    0.000    0.000 
#
# Total GULP energy -347316.166611 kJ/mol
# GULP energy per Si atom -12404.148808 kJ/mol
# Density = 2.033600 g / cm^3
# Si number density = 20.382395 Si / 1000 Ang^3
#
#
#
# Elastic Constant Matrix: (Units=GPa)
#
#
# Indices 1 2 3 4 5 6 
#
# 1 107.6549 51.7011 27.0468 0.0000 0.0000 0.0000
# 2 51.7011 162.2363 45.5451 0.0000 0.0000 0.0000
# 3 27.0468 45.5451 54.5645 0.0000 0.0000 0.0000
# 4 0.0000 0.0000 0.0000 36.3515 0.0000 0.0000
# 5 0.0000 0.0000 0.0000 0.0000 9.3566 0.0000
# 6 0.0000 0.0000 0.0000 0.0000 0.0000 40.5278
#
#
#
# Elastic Compliance Matrix: (Units=1/GPa)
#
#
# Indices 1 2 3 4 5 6 
#
# 1 0.011439 -0.002682 -0.003431 0.000000 0.000000 0.000000
# 2 -0.002682 0.008679 -0.005915 0.000000 0.000000 0.000000
# 3 -0.003431 -0.005915 0.024965 0.000000 0.000000 0.000000
# 4 0.000000 0.000000 0.000000 0.027509 0.000000 0.000000
# 5 0.000000 0.000000 0.000000 0.000000 0.106876 0.000000
# 6 0.000000 0.000000 0.000000 0.000000 0.000000 0.024674
#
#
# Mechanical properties :
#
#
# Convention : Reuss Voigt Hill
#
# Bulk Modulus (GPa) = 47.55959 63.67132 55.61545
# Shear Modulus (GPa) = 21.25771 30.59138 25.92455
#
# Velocity S-wave (km/s) = 3.23297 3.87831 3.57025
# Velocity P-wave (km/s) = 6.10905 7.16668 6.65889
#
# Compressibility (1/GPa) = 0.02102625
#
# Stress axis : x y z
#
# Youngs Moduli (GPa) = 87.41944 115.21934 40.05591
#
# Poissons Ratio (x) = 0.30903 0.13745
# Poissons Ratio (y) = 0.23446 0.23693
# Poissons Ratio (z) = 0.29998 0.68152
#
# Static dielectric constant tensor:
#      x y z
#    x 3.734290 0.000000 0.000000 
#    y 0.000000 4.067320 0.000000 
#    z 0.000000 0.000000 3.501630 
# 
# 
# High freq. dielectric constant tensor:
#      x y z
#    x 1.807830 0.000000 0.000000 
#    y 0.000000 1.815980 0.000000 
#    z 0.000000 0.000000 1.767280 
# 
# From -- ./inp_files/22207.got.cif
#   From: 2010.03.12/outbox.cif.g09.slc.cpg/sg40_12_cif.got.tgz:22207.got - 2010.04.14 01:38:03.
