data_PCOD8183260
_publ_section_title
;
Structure prediction by ZEFSAII (Michael W. Deem and Ramdas Pophale) SiO2 
 PCOD8183260
Probable space group: A M A 2
;
_chemical_formula_sum "Si O2"
_cell_formula_units_Z 48
_cell_length_a 8.621745
_cell_length_b 23.292736
_cell_length_c 11.619419
_cell_angle_alpha 90.000000
_cell_angle_beta 90.000000
_cell_angle_gamma 90.000000
_cell_volume 2333.458552
_symmetry_space_group_name_H-M "A M A 2"
_symmetry_group_IT_number 40
_symmetry_cell_setting 'orthorhombic'
loop_
_space_group_symop_operation_xyz
x,y,z
-x,-y,z
1/2-x,y,z
1/2+x,-y,z
x,1/2+y,1/2+z
-x,1/2-y,1/2+z
1/2-x,1/2+y,1/2+z
1/2+x,1/2-y,1/2+z
loop_
_atom_site_type_symbol
_atom_site_label
_atom_site_fract_x
_atom_site_fract_y
_atom_site_fract_z
Si Si1 0.571083 0.345650 0.672650
Si Si2 0.922573 0.059115 0.040014
Si Si3 0.429844 0.346686 0.917709
Si Si4 0.421821 0.863716 0.818116
Si Si5 0.933856 0.232051 0.983414
Si Si6 0.432495 0.436027 0.109229
O O1 0.750000 0.331992 0.648926
O O2 0.529333 0.409855 0.633964
O O3 0.538000 0.342123 0.807196
O O4 0.465798 0.301226 0.602001
O O5 0.750000 0.051619 0.091679
O O6 0.914664 0.092095 0.921367
O O7 0.000000 0.000000 0.009105
O O8 0.250000 0.345747 0.882937
O O9 0.472143 0.291114 0.993694
O O10 0.469037 0.404548 0.988685
O O11 0.250000 0.847433 0.774956
O O12 0.495937 0.805025 0.871603
O O13 0.507240 0.895378 0.710677
O O14 0.750000 0.242137 0.973458
O O15 0.500000 0.500000 0.108878
O O16 0.250000 0.441911 0.131216
#
# Coordination Sequence:
#
# PCOD8183260 Si02
#       6
#     8   8   8   8   8   8
#     4  11  23  40  60  84 118 158 203 252 307 364
#     4  10  19  34  58  87 119 153 197 248 303 365
#     4  11  24  40  60  88 123 162 205 253 308 371
#     4   8  17  35  59  88 120 155 191 244 304 359
#     4  10  21  39  64  92 123 155 199 253 314 377
#     4  10  22  40  61  87 123 163 204 250 302 366
#
# _framework density 20.570323999999999
#
# number of rings (size 3 to 8) (size 9 to 14) (size 15 to 20)
#    0.000    2.000    0.000    4.500    2.333    2.000 
#    0.000    5.833    0.000    0.000    0.000    0.000 
#    0.000    0.000    0.000    0.000    0.000    0.000 
#
# Total GULP energy -297495.886154 kJ/mol
# GULP energy per Si atom -12395.661923 kJ/mol
# Density = 2.052351 g / cm^3
# Si number density = 20.570324 Si / 1000 Ang^3
#
#
#
# Elastic Constant Matrix: (Units=GPa)
#
#
# Indices 1 2 3 4 5 6 
#
# 1 66.6544 28.3631 21.4211 0.0000 0.0000 0.0000
# 2 28.3631 97.4206 24.2541 0.0000 0.0000 0.0000
# 3 21.4211 24.2541 89.3142 0.0000 0.0000 0.0000
# 4 0.0000 0.0000 0.0000 -4.1636 0.0000 0.0000
# 5 0.0000 0.0000 0.0000 0.0000 25.0834 0.0000
# 6 0.0000 0.0000 0.0000 0.0000 0.0000 34.6004
#
#
#
# Elastic Compliance Matrix: (Units=1/GPa)
#
#
# Indices 1 2 3 4 5 6 
#
# 1 0.017883 -0.004439 -0.003084 0.000000 0.000000 0.000000
# 2 -0.004439 0.012111 -0.002224 0.000000 0.000000 0.000000
# 3 -0.003084 -0.002224 0.012540 0.000000 0.000000 0.000000
# 4 0.000000 0.000000 0.000000 -0.240177 0.000000 0.000000
# 5 0.000000 0.000000 0.000000 0.000000 0.039867 0.000000
# 6 0.000000 0.000000 0.000000 0.000000 0.000000 0.028901
#
#
# Mechanical properties :
#
#
# Convention : Reuss Voigt Hill
#
# Bulk Modulus (GPa) = 43.40203 44.60731 44.00467
# Shear Modulus (GPa) = -49.16328 23.06075 -13.05127
#
# Velocity S-wave (km/s) = -4.89408 3.35187 -2.52160
# Velocity P-wave (km/s) = 3.28494 6.05907 3.60011
#
# Compressibility (1/GPa) = 0.02304040
#
# Stress axis : x y z
#
# Youngs Moduli (GPa) = 55.92058 82.57100 79.74477
#
# Poissons Ratio (x) = 0.36650 0.24590
# Poissons Ratio (y) = 0.24821 0.17737
# Poissons Ratio (z) = 0.17244 0.18366
#
# Static dielectric constant tensor:
#      x y z
#    x 3.638520 0.000000 0.000000 
#    y 0.000000 4.811520 0.000000 
#    z 0.000000 0.000000 3.675890 
# 
# 
# High freq. dielectric constant tensor:
#      x y z
#    x 1.787580 0.000000 0.000000 
#    y 0.000000 1.812600 0.000000 
#    z 0.000000 0.000000 1.802990 
# 
# From -- ./inp_files/10257.got.cif
#   From: 2010.03.12/outbox.cif.g09.slc.cpg/sg40_6_cif.got.tgz:10257.got - 2010.04.14 01:38:03.
