data_PCOD8183160
_publ_section_title
;
Structure prediction by ZEFSAII (Michael W. Deem and Ramdas Pophale) SiO2 
 PCOD8183160
Probable space group: A M A 2
;
_chemical_formula_sum "Si O2"
_cell_formula_units_Z 56
_cell_length_a 8.895324
_cell_length_b 14.071875
_cell_length_c 22.558993
_cell_angle_alpha 90.000000
_cell_angle_beta 90.000000
_cell_angle_gamma 90.000000
_cell_volume 2823.796850
_symmetry_space_group_name_H-M "A M A 2"
_symmetry_group_IT_number 40
_symmetry_cell_setting 'orthorhombic'
loop_
_space_group_symop_operation_xyz
x,y,z
-x,-y,z
1/2-x,y,z
1/2+x,-y,z
x,1/2+y,1/2+z
-x,1/2-y,1/2+z
1/2-x,1/2+y,1/2+z
1/2+x,1/2-y,1/2+z
loop_
_atom_site_type_symbol
_atom_site_label
_atom_site_fract_x
_atom_site_fract_y
_atom_site_fract_z
Si Si1 0.420730 0.650158 0.192840
Si Si2 0.917368 0.331552 0.664142
Si Si3 0.578335 0.299402 0.536172
Si Si4 0.572612 0.102938 0.928677
Si Si5 0.576208 0.091275 0.581269
Si Si6 0.573388 0.790952 0.819527
Si Si7 0.079204 0.094023 0.286261
O O1 0.250000 0.623332 0.177580
O O2 0.448247 0.760454 0.178855
O O3 0.528836 0.588721 0.150881
O O4 0.454685 0.639304 0.263043
O O5 0.750000 0.281840 0.667851
O O6 0.937294 0.364652 0.595798
O O7 0.924729 0.413289 0.713957
O O8 0.750000 0.302712 0.512400
O O9 0.464896 0.339671 0.488134
O O10 0.529354 0.190667 0.550865
O O11 0.750000 0.092044 0.922212
O O12 0.508383 0.160886 0.873970
O O13 0.500000 0.000000 0.931752
O O14 0.750000 0.074546 0.576328
O O15 0.500000 0.000000 0.549288
O O16 0.750000 0.779416 0.832105
O O17 0.504713 0.686824 0.809994
O O18 0.250000 0.096923 0.309407
O O19 0.000000 0.000000 0.311946
#
# Coordination Sequence:
#
# PCOD8183160 Si02
#       7
#     8   8   8   8   8   8   8
#     4   9  17  30  52  80 110 144 182 224 272 323
#     4   8  16  31  52  78 111 148 183 222 271 322
#     4   9  19  38  59  82 114 150 188 234 282 328
#     4  12  26  43  63  84 107 142 187 236 286 338
#     4  10  20  34  56  85 119 154 186 225 275 332
#     4  10  21  39  60  83 113 149 190 238 285 333
#     4  10  19  33  55  86 121 155 190 229 277 336
#
# _framework density 19.831454000000001
#
# number of rings (size 3 to 8) (size 9 to 14) (size 15 to 20)
#    0.000    2.286    0.000    3.857    0.000    6.286 
#    0.000    2.143    0.000    1.714    0.000    0.000 
#    0.000    0.000    0.000    0.000    0.000    0.000 
#
# Total GULP energy -346966.757766 kJ/mol
# GULP energy per Si atom -12391.669920 kJ/mol
# Density = 1.978632 g / cm^3
# Si number density = 19.831454 Si / 1000 Ang^3
#
#
#
# Elastic Constant Matrix: (Units=GPa)
#
#
# Indices 1 2 3 4 5 6 
#
# 1 125.8081 58.4878 56.6496 0.0000 0.0000 0.0000
# 2 58.4878 110.9788 46.3083 0.0000 0.0000 0.0000
# 3 56.6496 46.3083 108.6466 0.0000 0.0000 0.0000
# 4 0.0000 0.0000 0.0000 23.0187 0.0000 0.0000
# 5 0.0000 0.0000 0.0000 0.0000 28.7366 0.0000
# 6 0.0000 0.0000 0.0000 0.0000 0.0000 34.2591
#
#
#
# Elastic Compliance Matrix: (Units=1/GPa)
#
#
# Indices 1 2 3 4 5 6 
#
# 1 0.011998 -0.004516 -0.004331 0.000000 0.000000 0.000000
# 2 -0.004516 0.012660 -0.003041 0.000000 0.000000 0.000000
# 3 -0.004331 -0.003041 0.012759 0.000000 0.000000 0.000000
# 4 0.000000 0.000000 0.000000 0.043443 0.000000 0.000000
# 5 0.000000 0.000000 0.000000 0.000000 0.034799 0.000000
# 6 0.000000 0.000000 0.000000 0.000000 0.000000 0.029189
#
#
# Mechanical properties :
#
#
# Convention : Reuss Voigt Hill
#
# Bulk Modulus (GPa) = 73.31432 74.25832 73.78632
# Shear Modulus (GPa) = 28.87306 29.46873 29.17089
#
# Velocity S-wave (km/s) = 3.81979 3.85900 3.83945
# Velocity P-wave (km/s) = 7.51687 7.57508 7.54603
#
# Compressibility (1/GPa) = 0.01363990
#
# Stress axis : x y z
#
# Youngs Moduli (GPa) = 83.34430 78.99017 78.37747
#
# Poissons Ratio (x) = 0.35673 0.33947
# Poissons Ratio (y) = 0.37639 0.23836
# Poissons Ratio (z) = 0.36098 0.24023
#
# Static dielectric constant tensor:
#      x y z
#    x 3.681600 0.000000 0.000000 
#    y 0.000000 3.479770 0.000000 
#    z 0.000000 0.000000 3.628470 
# 
# 
# High freq. dielectric constant tensor:
#      x y z
#    x 1.783370 0.000000 0.000000 
#    y 0.000000 1.759120 0.000000 
#    z 0.000000 0.000000 1.759660 
# 
# From -- ./inp_files/22170.got.cif
#   From: 2010.03.12/outbox.cif.g09.slc.cpg/sg40_12_cif.got.tgz:22170.got - 2010.04.14 01:38:03.
