data_PCOD8183162
_publ_section_title
;
Structure prediction by ZEFSAII (Michael W. Deem and Ramdas Pophale) SiO2 
 PCOD8183162
Probable space group: A M A 2
;
_chemical_formula_sum "Si O2"
_cell_formula_units_Z 64
_cell_length_a 13.595667
_cell_length_b 17.988053
_cell_length_c 12.121284
_cell_angle_alpha 90.000000
_cell_angle_beta 90.000000
_cell_angle_gamma 90.000000
_cell_volume 2964.376107
_symmetry_space_group_name_H-M "A M A 2"
_symmetry_group_IT_number 40
_symmetry_cell_setting 'orthorhombic'
loop_
_space_group_symop_operation_xyz
x,y,z
-x,-y,z
1/2-x,y,z
1/2+x,-y,z
x,1/2+y,1/2+z
-x,1/2-y,1/2+z
1/2-x,1/2+y,1/2+z
1/2+x,1/2-y,1/2+z
loop_
_atom_site_type_symbol
_atom_site_label
_atom_site_fract_x
_atom_site_fract_y
_atom_site_fract_z
Si Si1 0.053614 0.174693 0.660710
Si Si2 0.641293 0.695087 0.038925
Si Si3 0.858326 0.367857 0.515487
Si Si4 0.027214 0.923741 0.146791
Si Si5 0.949779 0.692687 0.816351
Si Si6 0.634290 0.090687 0.926631
Si Si7 0.133378 0.049727 0.798900
Si Si8 0.364720 0.736628 0.933232
O O1 0.079182 0.227244 0.765127
O O2 0.084574 0.089623 0.691533
O O3 0.113771 0.207041 0.556337
O O4 0.936446 0.175352 0.634757
O O5 0.750000 0.667173 0.076947
O O6 0.643172 0.780376 0.006066
O O7 0.610284 0.662030 0.921357
O O8 0.750000 0.401047 0.535281
O O9 0.903713 0.403638 0.404834
O O10 0.924714 0.384844 0.619299
O O11 0.082335 0.868307 0.227466
O O12 0.091625 0.943145 0.039379
O O13 0.000000 0.000000 0.208703
O O14 0.066477 0.692268 0.847454
O O15 0.750000 0.084486 0.936388
O O16 0.602566 0.176881 0.918206
O O17 0.600732 0.037132 0.822548
O O18 0.250000 0.055443 0.782787
O O19 0.250000 0.724893 0.903866
#
# Coordination Sequence:
#
# PCOD8183162 Si02
#       8
#     8   8   8   8   8   8   8   8
#     4  11  20  35  61  91 126 165 218 255 315 390
#     4  10  21  37  58  85 122 164 213 265 307 366
#     4  10  19  33  55  86 122 159 196 245 309 376
#     4  12  22  36  60  89 126 158 197 253 329 383
#     4  11  22  36  57  91 119 159 217 264 311 387
#     4  10  21  37  59  92 130 161 200 259 322 381
#     4  10  20  34  58  93 130 166 202 252 326 393
#     4  10  22  39  60  90 128 165 210 270 315 371
#
# _framework density 21.589703
#
# number of rings (size 3 to 8) (size 9 to 14) (size 15 to 20)
#    0.000    1.500    5.000    1.125    0.000    2.000 
#    0.000    0.000    0.000    6.750    0.000    0.000 
#    0.000    0.000    0.000    0.000    0.000    0.000 
#
# Total GULP energy -396557.784543 kJ/mol
# GULP energy per Si atom -12392.430767 kJ/mol
# Density = 2.154056 g / cm^3
# Si number density = 21.589703 Si / 1000 Ang^3
#
#
#
# Elastic Constant Matrix: (Units=GPa)
#
#
# Indices 1 2 3 4 5 6 
#
# 1 53.2340 29.5893 12.2990 0.0000 0.0000 0.0000
# 2 29.5893 97.9518 38.4696 0.0000 0.0000 0.0000
# 3 12.2990 38.4696 67.3851 0.0000 0.0000 0.0000
# 4 0.0000 0.0000 0.0000 39.2709 0.0000 0.0000
# 5 0.0000 0.0000 0.0000 0.0000 28.3373 0.0000
# 6 0.0000 0.0000 0.0000 0.0000 0.0000 23.2360
#
#
#
# Elastic Compliance Matrix: (Units=1/GPa)
#
#
# Indices 1 2 3 4 5 6 
#
# 1 0.022580 -0.006706 -0.000293 0.000000 0.000000 0.000000
# 2 -0.006706 0.015151 -0.007426 0.000000 0.000000 0.000000
# 3 -0.000293 -0.007426 0.019133 0.000000 0.000000 0.000000
# 4 0.000000 0.000000 0.000000 0.025464 0.000000 0.000000
# 5 0.000000 0.000000 0.000000 0.000000 0.035289 0.000000
# 6 0.000000 0.000000 0.000000 0.000000 0.000000 0.043037
#
#
# Mechanical properties :
#
#
# Convention : Reuss Voigt Hill
#
# Bulk Modulus (GPa) = 35.69526 42.14296 38.91911
# Shear Modulus (GPa) = 25.14564 27.38304 26.26434
#
# Velocity S-wave (km/s) = 3.41648 3.56524 3.49165
# Velocity P-wave (km/s) = 5.66855 6.04237 5.85844
#
# Compressibility (1/GPa) = 0.02801493
#
# Stress axis : x y z
#
# Youngs Moduli (GPa) = 44.28681 66.00115 52.26614
#
# Poissons Ratio (x) = 0.44260 0.01531
# Poissons Ratio (y) = 0.29699 0.38812
# Poissons Ratio (z) = 0.01297 0.49011
#
# Static dielectric constant tensor:
#      x y z
#    x 4.229230 0.000000 0.000000 
#    y 0.000000 4.016040 0.000000 
#    z 0.000000 0.000000 3.740970 
# 
# 
# High freq. dielectric constant tensor:
#      x y z
#    x 1.858330 0.000000 0.000000 
#    y 0.000000 1.833760 0.000000 
#    z 0.000000 0.000000 1.827490 
# 
# From -- ./inp_files/12411.got.cif
#   From: 2010.03.12/outbox.cif.g09.slc.cpg/sg40_7_cif.got.tgz:12411.got - 2010.04.14 01:38:03.
