data_PCOD8183973
_publ_section_title
;
Structure prediction by ZEFSAII (Michael W. Deem and Ramdas Pophale) SiO2 
 PCOD8183973
Probable space group: A M A 2
;
_chemical_formula_sum "Si O2"
_cell_formula_units_Z 48
_cell_length_a 24.916576
_cell_length_b 8.756387
_cell_length_c 11.316916
_cell_angle_alpha 90.000000
_cell_angle_beta 90.000000
_cell_angle_gamma 90.000000
_cell_volume 2469.115478
_symmetry_space_group_name_H-M "A M A 2"
_symmetry_group_IT_number 40
_symmetry_cell_setting 'orthorhombic'
loop_
_space_group_symop_operation_xyz
x,y,z
-x,-y,z
1/2-x,y,z
1/2+x,-y,z
x,1/2+y,1/2+z
-x,1/2-y,1/2+z
1/2-x,1/2+y,1/2+z
1/2+x,1/2-y,1/2+z
loop_
_atom_site_type_symbol
_atom_site_label
_atom_site_fract_x
_atom_site_fract_y
_atom_site_fract_z
Si Si1 0.642756 0.679474 0.141210
Si Si2 0.250000 0.455904 0.218203
Si Si3 0.834050 0.470783 0.783952
Si Si4 0.500000 0.500000 0.014555
Si Si5 0.250000 0.796076 0.190128
Si Si6 0.750000 0.289910 0.918666
Si Si7 0.057658 0.540806 0.237644
Si Si8 0.914292 0.678254 0.895940
O O1 0.697301 0.580080 0.139597
O O2 0.599040 0.601291 0.229193
O O3 0.655592 0.848490 0.183331
O O4 0.622557 0.707876 0.009067
O O5 0.250000 0.633060 0.255956
O O6 0.250000 0.359972 0.337832
O O7 0.802494 0.611740 0.726758
O O8 0.802185 0.392854 0.892112
O O9 0.890915 0.532754 0.827479
O O10 0.525642 0.632274 0.934206
O O11 0.455610 0.583385 0.099715
O O12 0.250000 0.765472 0.051301
O O13 0.085140 0.675925 0.310317
O O14 0.000000 0.500000 0.299097
#
# Coordination Sequence:
#
# PCOD8183973 Si02
#       8
#     8   4   8   4   4   4   8   8
#     4  10  22  41  58  92 123 157 196 251 298 353
#     4  10  20  38  66  84 126 160 194 244 298 360
#     4  10  23  36  59  91 119 150 208 239 289 367
#     4   8  22  38  58  82 114 148 200 248 298 348
#     4  11  21  37  58  92 118 161 201 233 292 368
#     4   9  21  41  58  86 128 161 183 251 296 344
#     4   9  21  42  58  85 121 151 207 245 291 367
#     4  11  21  39  63  83 116 160 192 252 305 343
#
# _framework density 19.440159999999999
#
# number of rings (size 3 to 8) (size 9 to 14) (size 15 to 20)
#    0.500    1.667    0.000    2.500    2.333    6.000 
#    3.000    2.500    0.000    0.000    0.000    0.000 
#    0.000    0.000    0.000    0.000    0.000    0.000 
#
# Total GULP energy -297494.704496 kJ/mol
# GULP energy per Si atom -12395.612687 kJ/mol
# Density = 1.939591 g / cm^3
# Si number density = 19.440160 Si / 1000 Ang^3
#
#
#
# Elastic Constant Matrix: (Units=GPa)
#
#
# Indices 1 2 3 4 5 6 
#
# 1 103.3356 45.3925 21.5917 0.0000 0.0000 0.0000
# 2 45.3925 138.5940 46.2304 0.0000 0.0000 0.0000
# 3 21.5917 46.2304 82.3831 0.0000 0.0000 0.0000
# 4 0.0000 0.0000 0.0000 28.8559 0.0000 0.0000
# 5 0.0000 0.0000 0.0000 0.0000 16.5251 0.0000
# 6 0.0000 0.0000 0.0000 0.0000 0.0000 29.4193
#
#
#
# Elastic Compliance Matrix: (Units=1/GPa)
#
#
# Indices 1 2 3 4 5 6 
#
# 1 0.011383 -0.003363 -0.001097 0.000000 0.000000 0.000000
# 2 -0.003363 0.009870 -0.004658 0.000000 0.000000 0.000000
# 3 -0.001097 -0.004658 0.015039 0.000000 0.000000 0.000000
# 4 0.000000 0.000000 0.000000 0.034655 0.000000 0.000000
# 5 0.000000 0.000000 0.000000 0.000000 0.060514 0.000000
# 6 0.000000 0.000000 0.000000 0.000000 0.000000 0.033991
#
#
# Mechanical properties :
#
#
# Convention : Reuss Voigt Hill
#
# Bulk Modulus (GPa) = 55.37140 61.19355 58.28247
# Shear Modulus (GPa) = 26.35650 29.03327 27.69488
#
# Velocity S-wave (km/s) = 3.68608 3.86873 3.77851
# Velocity P-wave (km/s) = 6.83089 7.17652 7.00584
#
# Compressibility (1/GPa) = 0.01805987
#
# Stress axis : x y z
#
# Youngs Moduli (GPa) = 87.84729 101.31489 66.49184
#
# Poissons Ratio (x) = 0.34067 0.07291
# Poissons Ratio (y) = 0.29539 0.30969
# Poissons Ratio (z) = 0.09633 0.47188
#
# Static dielectric constant tensor:
#      x y z
#    x 3.726670 0.000000 0.000000 
#    y 0.000000 3.465430 0.000000 
#    z 0.000000 0.000000 3.373080 
# 
# 
# High freq. dielectric constant tensor:
#      x y z
#    x 1.767430 0.000000 0.000000 
#    y 0.000000 1.753380 0.000000 
#    z 0.000000 0.000000 1.747640 
# 
# From -- ./inp_files/13959.got.cif
#   From: 2010.03.12/outbox.cif.g09.slc.cpg/sg40_7_cif.got.tgz:13959.got - 2010.04.14 01:38:03.
