data_PCOD8183256
_publ_section_title
;
Structure prediction by ZEFSAII (Michael W. Deem and Ramdas Pophale) SiO2 
 PCOD8183256
Probable space group: A M A 2
;
_chemical_formula_sum "Si O2"
_cell_formula_units_Z 48
_cell_length_a 8.640414
_cell_length_b 28.109290
_cell_length_c 10.301631
_cell_angle_alpha 90.000000
_cell_angle_beta 90.000000
_cell_angle_gamma 90.000000
_cell_volume 2502.017930
_symmetry_space_group_name_H-M "A M A 2"
_symmetry_group_IT_number 40
_symmetry_cell_setting 'orthorhombic'
loop_
_space_group_symop_operation_xyz
x,y,z
-x,-y,z
1/2-x,y,z
1/2+x,-y,z
x,1/2+y,1/2+z
-x,1/2-y,1/2+z
1/2-x,1/2+y,1/2+z
1/2+x,1/2-y,1/2+z
loop_
_atom_site_type_symbol
_atom_site_label
_atom_site_fract_x
_atom_site_fract_y
_atom_site_fract_z
Si Si1 0.567732 0.450108 0.002340
Si Si2 0.432330 0.857905 0.401229
Si Si3 0.570524 0.048560 0.781444
Si Si4 0.433170 0.298653 0.144602
Si Si5 0.931445 0.309474 0.653236
Si Si6 0.070117 0.852422 0.901399
O O1 0.500000 0.500000 0.952593
O O2 0.750000 0.453296 0.001282
O O3 0.510466 0.437979 0.146785
O O4 0.511564 0.409397 0.904540
O O5 0.250000 0.864606 0.414304
O O6 0.500002 0.825655 0.518509
O O7 0.471803 0.833756 0.266049
O O8 0.750000 0.040577 0.750685
O O9 0.545262 0.091157 0.882655
O O10 0.500000 0.000000 0.841020
O O11 0.250000 0.300672 0.138636
O O12 0.492046 0.244552 0.141848
O O13 0.491344 0.324452 0.274907
O O14 0.750000 0.311726 0.685055
O O15 0.964721 0.336611 0.520124
O O16 0.250000 0.840746 0.928445
#
# Coordination Sequence:
#
# PCOD8183256 Si02
#       6
#     8   8   8   8   8   8
#     4  11  21  35  58  88 117 147 188 237 287 341
#     4  11  21  39  61  84 116 156 194 238 290 341
#     4  10  19  34  58  85 114 147 188 234 285 338
#     4   9  19  37  60  83 113 150 195 241 285 339
#     4  11  23  37  55  85 119 152 192 241 289 342
#     4  10  20  38  59  81 113 154 190 229 287 347
#
# _framework density 19.184514
#
# number of rings (size 3 to 8) (size 9 to 14) (size 15 to 20)
#    0.000    1.667    1.667    5.000    0.000    1.333 
#    0.000    4.167    0.000    2.000    0.000    0.000 
#    0.000    0.000    0.000    0.000    0.000    0.000 
#
# Total GULP energy -297696.363524 kJ/mol
# GULP energy per Si atom -12404.015147 kJ/mol
# Density = 1.914085 g / cm^3
# Si number density = 19.184514 Si / 1000 Ang^3
#
#
#
# Elastic Constant Matrix: (Units=GPa)
#
#
# Indices 1 2 3 4 5 6 
#
# 1 92.7596 47.3647 22.3576 0.0000 0.0000 0.0000
# 2 47.3647 152.0786 57.5297 0.0000 0.0000 0.0000
# 3 22.3576 57.5297 105.4849 0.0000 0.0000 0.0000
# 4 0.0000 0.0000 0.0000 -139.5840 0.0000 0.0000
# 5 0.0000 0.0000 0.0000 0.0000 25.3948 0.0000
# 6 0.0000 0.0000 0.0000 0.0000 0.0000 26.6975
#
#
#
# Elastic Compliance Matrix: (Units=1/GPa)
#
#
# Indices 1 2 3 4 5 6 
#
# 1 0.012858 -0.003747 -0.000682 0.000000 0.000000 0.000000
# 2 -0.003747 0.009377 -0.004320 0.000000 0.000000 0.000000
# 3 -0.000682 -0.004320 0.011980 0.000000 0.000000 0.000000
# 4 0.000000 0.000000 0.000000 -0.007164 0.000000 0.000000
# 5 0.000000 0.000000 0.000000 0.000000 0.039378 0.000000
# 6 0.000000 0.000000 0.000000 0.000000 0.000000 0.037457
#
#
# Mechanical properties :
#
#
# Convention : Reuss Voigt Hill
#
# Bulk Modulus (GPa) = 59.81402 67.20301 63.50852
# Shear Modulus (GPa) = 39.38401 -2.62693 18.37854
#
# Velocity S-wave (km/s) = 4.53582 -1.17144 3.09850
# Velocity P-wave (km/s) = 7.66012 5.76855 6.78062
#
# Compressibility (1/GPa) = 0.01671849
#
# Stress axis : x y z
#
# Youngs Moduli (GPa) = 77.77249 106.64918 83.46926
#
# Poissons Ratio (x) = 0.39958 0.05692
# Poissons Ratio (y) = 0.29139 0.36056
# Poissons Ratio (z) = 0.05303 0.46069
#
# Static dielectric constant tensor:
#      x y z
#    x 3.378910 0.000000 0.000000 
#    y 0.000000 3.801570 0.000000 
#    z 0.000000 0.000000 3.327560 
# 
# 
# High freq. dielectric constant tensor:
#      x y z
#    x 1.740840 0.000000 0.000000 
#    y 0.000000 1.764730 0.000000 
#    z 0.000000 0.000000 1.728790 
# 
# From -- ./inp_files/4632.got.cif
#   From: 2010.03.12/outbox.cif.g09.slc.cpg/sg40_3_cif.got.tgz:4632.got - 2010.04.14 01:38:03.
