data_PCOD8183176
_publ_section_title
;
Structure prediction by ZEFSAII (Michael W. Deem and Ramdas Pophale) SiO2 
 PCOD8183176
Probable space group: A M A 2
;
_chemical_formula_sum "Si O2"
_cell_formula_units_Z 64
_cell_length_a 18.479462
_cell_length_b 14.205691
_cell_length_c 12.863818
_cell_angle_alpha 90.000000
_cell_angle_beta 90.000000
_cell_angle_gamma 90.000000
_cell_volume 3376.926234
_symmetry_space_group_name_H-M "A M A 2"
_symmetry_group_IT_number 40
_symmetry_cell_setting 'orthorhombic'
loop_
_space_group_symop_operation_xyz
x,y,z
-x,-y,z
1/2-x,y,z
1/2+x,-y,z
x,1/2+y,1/2+z
-x,1/2-y,1/2+z
1/2-x,1/2+y,1/2+z
1/2+x,1/2-y,1/2+z
loop_
_atom_site_type_symbol
_atom_site_label
_atom_site_fract_x
_atom_site_fract_y
_atom_site_fract_z
Si Si1 0.416449 0.266896 0.782500
Si Si2 0.419264 0.965559 0.170759
Si Si3 0.334236 0.645248 0.698036
Si Si4 0.668458 0.735735 0.993398
Si Si5 0.419632 0.966562 0.927911
Si Si6 0.079663 0.794539 0.797956
Si Si7 0.329961 0.410661 0.149955
Si Si8 0.667721 0.911438 0.762995
O O1 0.401656 0.365284 0.724129
O O2 0.388350 0.260936 0.900759
O O3 0.500738 0.246769 0.779369
O O4 0.374249 0.181925 0.726477
O O5 0.500000 0.000000 0.195298
O O6 0.364753 0.041639 0.216875
O O7 0.402514 0.967601 0.048893
O O8 0.250000 0.639832 0.710209
O O9 0.355881 0.693052 0.586616
O O10 0.364913 0.707730 0.793170
O O11 0.750000 0.761435 0.956011
O O12 0.666510 0.627152 0.032415
O O13 0.413029 0.855168 0.902628
O O14 0.500000 0.000000 0.900414
O O15 0.365262 0.034663 0.864195
O O16 0.101317 0.867727 0.708262
O O17 0.250000 0.379066 0.195748
O O18 0.336193 0.522963 0.160276
O O19 0.750000 0.886240 0.792403
#
# Coordination Sequence:
#
# PCOD8183176 Si02
#       8
#     8   8   8   8   8   8   8   8
#     4  12  22  33  56  83 119 151 186 238 286 337
#     4  11  24  39  55  82 121 156 191 236 285 342
#     4  10  21  41  65  84 111 155 199 238 285 344
#     4   9  19  36  60  86 109 148 198 234 276 341
#     4  10  20  36  60  87 116 151 190 236 288 342
#     4  10  19  33  58  87 114 143 191 238 291 332
#     4   8  17  35  59  83 112 146 187 236 280 339
#     4  10  20  36  59  88 117 145 182 235 292 343
#
# _framework density 18.952145999999999
#
# number of rings (size 3 to 8) (size 9 to 14) (size 15 to 20)
#    0.000    2.000    2.500    2.250    1.750    3.000 
#    0.000    1.250    5.500    1.500    0.000    0.000 
#    0.000    0.000    0.000    0.000    0.000    0.000 
#
# Total GULP energy -396462.583909 kJ/mol
# GULP energy per Si atom -12389.455747 kJ/mol
# Density = 1.890901 g / cm^3
# Si number density = 18.952146 Si / 1000 Ang^3
#
#
#
# Elastic Constant Matrix: (Units=GPa)
#
#
# Indices 1 2 3 4 5 6 
#
# 1 104.6089 53.2418 24.9514 0.0000 0.0000 0.0000
# 2 53.2418 159.1434 35.3030 0.0000 0.0000 0.0000
# 3 24.9514 35.3030 29.6293 0.0000 0.0000 0.0000
# 4 0.0000 0.0000 0.0000 28.3082 0.0000 0.0000
# 5 0.0000 0.0000 0.0000 0.0000 22.9416 0.0000
# 6 0.0000 0.0000 0.0000 0.0000 0.0000 32.1372
#
#
#
# Elastic Compliance Matrix: (Units=1/GPa)
#
#
# Indices 1 2 3 4 5 6 
#
# 1 0.012678 -0.002546 -0.007643 0.000000 0.000000 0.000000
# 2 -0.002546 0.009052 -0.008642 0.000000 0.000000 0.000000
# 3 -0.007643 -0.008642 0.050483 0.000000 0.000000 0.000000
# 4 0.000000 0.000000 0.000000 0.035325 0.000000 0.000000
# 5 0.000000 0.000000 0.000000 0.000000 0.043589 0.000000
# 6 0.000000 0.000000 0.000000 0.000000 0.000000 0.031117
#
#
# Mechanical properties :
#
#
# Convention : Reuss Voigt Hill
#
# Bulk Modulus (GPa) = 28.94161 57.81933 43.38047
# Shear Modulus (GPa) = 21.60535 28.66976 25.13755
#
# Velocity S-wave (km/s) = 3.38004 3.89362 3.64589
# Velocity P-wave (km/s) = 5.52603 7.12657 6.37671
#
# Compressibility (1/GPa) = 0.03455232
#
# Stress axis : x y z
#
# Youngs Moduli (GPa) = 78.87499 110.46702 19.80852
#
# Poissons Ratio (x) = 0.28126 0.15140
# Poissons Ratio (y) = 0.20082 0.17118
# Poissons Ratio (z) = 0.60284 0.95464
#
# Static dielectric constant tensor:
#      x y z
#    x 3.559460 0.000000 0.000000 
#    y 0.000000 3.951790 0.000000 
#    z 0.000000 0.000000 3.244140 
# 
# 
# High freq. dielectric constant tensor:
#      x y z
#    x 1.747130 0.000000 0.000000 
#    y 0.000000 1.749240 0.000000 
#    z 0.000000 0.000000 1.699350 
# 
# From -- ./inp_files/13160.got.cif
#   From: 2010.03.12/outbox.cif.g09.slc.cpg/sg40_7_cif.got.tgz:13160.got - 2010.04.14 01:38:03.
