data_PCOD8183043
_publ_section_title
;
Structure prediction by ZEFSAII (Michael W. Deem and Ramdas Pophale) SiO2 
 PCOD8183043
Probable space group: A M A 2
;
_chemical_formula_sum "Si O2"
_cell_formula_units_Z 48
_cell_length_a 9.285166
_cell_length_b 13.270382
_cell_length_c 18.726475
_cell_angle_alpha 90.000000
_cell_angle_beta 90.000000
_cell_angle_gamma 90.000000
_cell_volume 2307.433174
_symmetry_space_group_name_H-M "A M A 2"
_symmetry_group_IT_number 40
_symmetry_cell_setting 'orthorhombic'
loop_
_space_group_symop_operation_xyz
x,y,z
-x,-y,z
1/2-x,y,z
1/2+x,-y,z
x,1/2+y,1/2+z
-x,1/2-y,1/2+z
1/2-x,1/2+y,1/2+z
1/2+x,1/2-y,1/2+z
loop_
_atom_site_type_symbol
_atom_site_label
_atom_site_fract_x
_atom_site_fract_y
_atom_site_fract_z
Si Si1 0.914547 0.399895 0.620700
Si Si2 0.078705 0.605022 0.906921
Si Si3 0.913526 0.287975 0.759792
Si Si4 0.579507 0.403498 0.245737
Si Si5 0.088968 0.262765 0.009812
Si Si6 0.094031 0.082871 0.906564
O O1 0.750000 0.417016 0.595588
O O2 0.925522 0.382227 0.705499
O O3 0.971455 0.300513 0.577587
O O4 0.000000 0.500000 0.599517
O O5 0.250000 0.589294 0.913218
O O6 0.039476 0.675411 0.838722
O O7 0.000000 0.500000 0.893629
O O8 0.019924 0.650543 0.982369
O O9 0.750000 0.246974 0.762209
O O10 0.013777 0.203315 0.721795
O O11 0.500000 0.500000 0.208652
O O12 0.750000 0.407630 0.230738
O O13 0.531063 0.401672 0.328007
O O14 0.250000 0.307099 0.025545
O O15 0.098501 0.188885 0.943384
O O16 0.250000 0.033469 0.899952
O O17 0.000000 0.000000 0.949064
#
# Coordination Sequence:
#
# PCOD8183043 Si02
#       6
#     8   8   8   8   8   8
#     4  10  22  39  61  88 120 156 192 236 289 348
#     4  11  23  38  60  86 115 151 194 243 291 345
#     4  10  21  38  58  86 120 155 195 238 288 344
#     4  10  19  32  53  82 114 149 188 235 286 337
#     4  10  20  37  57  82 115 149 189 236 286 341
#     4   9  17  28  47  76 108 140 176 220 272 325
#
# _framework density 20.802334999999999
#
# number of rings (size 3 to 8) (size 9 to 14) (size 15 to 20)
#    0.000    2.000    1.667    2.000    0.000    3.333 
#    0.000    0.833    0.000    0.000    0.000    0.000 
#    0.000    0.000    0.000    0.000    0.000    0.000 
#
# Total GULP energy -297374.336533 kJ/mol
# GULP energy per Si atom -12390.597356 kJ/mol
# Density = 2.075499 g / cm^3
# Si number density = 20.802335 Si / 1000 Ang^3
#
#
#
# Elastic Constant Matrix: (Units=GPa)
#
#
# Indices 1 2 3 4 5 6 
#
# 1 102.3170 62.1958 20.3629 0.0000 0.0000 0.0000
# 2 62.1958 103.8944 15.2433 0.0000 0.0000 0.0000
# 3 20.3629 15.2433 66.1832 0.0000 0.0000 0.0000
# 4 0.0000 0.0000 0.0000 18.4254 0.0000 0.0000
# 5 0.0000 0.0000 0.0000 0.0000 19.9024 0.0000
# 6 0.0000 0.0000 0.0000 0.0000 0.0000 43.4778
#
#
#
# Elastic Compliance Matrix: (Units=1/GPa)
#
#
# Indices 1 2 3 4 5 6 
#
# 1 0.015846 -0.009077 -0.002785 0.000000 0.000000 0.000000
# 2 -0.009077 0.015162 -0.000699 0.000000 0.000000 0.000000
# 3 -0.002785 -0.000699 0.016127 0.000000 0.000000 0.000000
# 4 0.000000 0.000000 0.000000 0.054273 0.000000 0.000000
# 5 0.000000 0.000000 0.000000 0.000000 0.050245 0.000000
# 6 0.000000 0.000000 0.000000 0.000000 0.000000 0.023000
#
#
# Mechanical properties :
#
#
# Convention : Reuss Voigt Hill
#
# Bulk Modulus (GPa) = 45.42867 51.99984 48.71425
# Shear Modulus (GPa) = 24.14142 28.00062 26.07102
#
# Velocity S-wave (km/s) = 3.41033 3.67281 3.54400
# Velocity P-wave (km/s) = 6.11496 6.56029 6.34154
#
# Compressibility (1/GPa) = 0.02201253
#
# Stress axis : x y z
#
# Youngs Moduli (GPa) = 63.10895 65.95501 62.00645
#
# Poissons Ratio (x) = 0.59870 0.17266
# Poissons Ratio (y) = 0.57286 0.04336
# Poissons Ratio (z) = 0.17573 0.04612
#
# Static dielectric constant tensor:
#      x y z
#    x 3.853730 0.000000 0.000000 
#    y 0.000000 3.755790 0.000000 
#    z 0.000000 0.000000 3.560070 
# 
# 
# High freq. dielectric constant tensor:
#      x y z
#    x 1.810300 0.000000 0.000000 
#    y 0.000000 1.807930 0.000000 
#    z 0.000000 0.000000 1.797840 
# 
# From -- ./inp_files/19219.got.cif
#   From: 2010.03.12/outbox.cif.g09.slc.cpg/sg40_10_cif.got.tgz:19219.got - 2010.04.14 01:38:03.
