data_PCOD8183376
_publ_section_title
;
Structure prediction by ZEFSAII (Michael W. Deem and Ramdas Pophale) SiO2 
 PCOD8183376
Probable space group: A M A 2
;
_chemical_formula_sum "Si O2"
_cell_formula_units_Z 64
_cell_length_a 8.843760
_cell_length_b 23.471302
_cell_length_c 15.263421
_cell_angle_alpha 90.000000
_cell_angle_beta 90.000000
_cell_angle_gamma 90.000000
_cell_volume 3168.297925
_symmetry_space_group_name_H-M "A M A 2"
_symmetry_group_IT_number 40
_symmetry_cell_setting 'orthorhombic'
loop_
_space_group_symop_operation_xyz
x,y,z
-x,-y,z
1/2-x,y,z
1/2+x,-y,z
x,1/2+y,1/2+z
-x,1/2-y,1/2+z
1/2-x,1/2+y,1/2+z
1/2+x,1/2-y,1/2+z
loop_
_atom_site_type_symbol
_atom_site_label
_atom_site_fract_x
_atom_site_fract_y
_atom_site_fract_z
Si Si1 0.072354 0.060833 0.000000
Si Si2 0.075848 0.240289 0.104604
Si Si3 0.925652 0.121711 0.353838
Si Si4 0.428679 0.559996 0.009625
Si Si5 0.429232 0.755356 0.408490
Si Si6 0.576219 0.133146 0.657979
Si Si7 0.075707 0.872384 0.155030
Si Si8 0.071743 0.137056 0.835334
O O1 0.250000 0.053406 0.005021
O O2 0.023350 0.100843 0.919766
O O3 0.000000 0.000000 0.984533
O O4 0.019064 0.088185 0.090599
O O5 0.250000 0.220093 0.101471
O O6 0.057280 0.298946 0.156501
O O7 0.977804 0.192931 0.153520
O O8 0.010022 0.247916 0.006967
O O9 0.750000 0.118969 0.381677
O O10 0.990762 0.185629 0.368483
O O11 0.948227 0.104039 0.253119
O O12 0.018207 0.077471 0.412576
O O13 0.500000 0.500000 0.036607
O O14 0.250000 0.554643 0.011267
O O15 0.481428 0.606923 0.078987
O O16 0.250000 0.756816 0.410931
O O17 0.483914 0.701948 0.350535
O O18 0.750000 0.114602 0.647292
O O19 0.512947 0.111330 0.750968
O O20 0.250000 0.875074 0.127531
O O21 0.250000 0.133638 0.818696
#
# Coordination Sequence:
#
# PCOD8183376 Si02
#       8
#     8   8   8   8   8   8   8   8
#     4  11  24  43  65  87 120 163 207 259 309 362
#     4  10  19  36  62  90 125 167 202 244 304 362
#     4  10  21  40  64  91 125 162 199 247 307 363
#     4  12  26  44  66  90 119 159 207 257 304 362
#     4   9  16  34  62  88 122 163 198 242 303 360
#     4  11  23  40  64  93 128 164 200 249 305 364
#     4  11  23  38  63  95 126 161 204 254 304 364
#     4  10  21  39  63  90 122 164 207 250 303 360
#
# _framework density 20.200120999999999
#
# number of rings (size 3 to 8) (size 9 to 14) (size 15 to 20)
#    0.000    1.500    2.500    3.000    0.000    5.000 
#    0.000    1.875    0.000    0.000    0.000    0.000 
#    0.000    0.000    0.000    0.000    0.000    0.000 
#
# Total GULP energy -396942.576287 kJ/mol
# GULP energy per Si atom -12404.455509 kJ/mol
# Density = 2.015414 g / cm^3
# Si number density = 20.200121 Si / 1000 Ang^3
#
#
#
# Elastic Constant Matrix: (Units=GPa)
#
#
# Indices 1 2 3 4 5 6 
#
# 1 89.8849 32.7089 45.1451 0.0000 0.0000 0.0000
# 2 32.7089 71.5236 15.3176 0.0000 0.0000 0.0000
# 3 45.1451 15.3176 112.2014 0.0000 0.0000 0.0000
# 4 0.0000 0.0000 0.0000 10.7256 0.0000 0.0000
# 5 0.0000 0.0000 0.0000 0.0000 32.6468 0.0000
# 6 0.0000 0.0000 0.0000 0.0000 0.0000 33.8721
#
#
#
# Elastic Compliance Matrix: (Units=1/GPa)
#
#
# Indices 1 2 3 4 5 6 
#
# 1 0.016241 -0.006209 -0.005687 0.000000 0.000000 0.000000
# 2 -0.006209 0.016777 0.000208 0.000000 0.000000 0.000000
# 3 -0.005687 0.000208 0.011172 0.000000 0.000000 0.000000
# 4 0.000000 0.000000 0.000000 0.093235 0.000000 0.000000
# 5 0.000000 0.000000 0.000000 0.000000 0.030631 0.000000
# 6 0.000000 0.000000 0.000000 0.000000 0.000000 0.029523
#
#
# Mechanical properties :
#
#
# Convention : Reuss Voigt Hill
#
# Bulk Modulus (GPa) = 48.04620 51.10590 49.57605
# Shear Modulus (GPa) = 21.94008 27.47813 24.70910
#
# Velocity S-wave (km/s) = 3.29923 3.69222 3.50124
# Velocity P-wave (km/s) = 6.19274 6.59783 6.39849
#
# Compressibility (1/GPa) = 0.02081330
#
# Stress axis : x y z
#
# Youngs Moduli (GPa) = 61.57130 59.60715 89.50643
#
# Poissons Ratio (x) = 0.37013 0.50903
# Poissons Ratio (y) = 0.38232 -0.01863
# Poissons Ratio (z) = 0.35016 -0.01241
#
# Static dielectric constant tensor:
#      x y z
#    x 3.512440 0.000000 0.000000 
#    y 0.000000 3.714490 0.000000 
#    z 0.000000 0.000000 3.693440 
# 
# 
# High freq. dielectric constant tensor:
#      x y z
#    x 1.776000 0.000000 0.000000 
#    y 0.000000 1.787290 0.000000 
#    z 0.000000 0.000000 1.801030 
# 
# From -- ./inp_files/15595.got.cif
#   From: 2010.03.12/outbox.cif.g09.slc.cpg/sg40_8_cif.got.tgz:15595.got - 2010.04.14 01:38:03.
