data_PCOD8183828
_publ_section_title
;
Structure prediction by ZEFSAII (Michael W. Deem and Ramdas Pophale) SiO2 
 PCOD8183828
Probable space group: A M A 2
;
_chemical_formula_sum "Si O2"
_cell_formula_units_Z 64
_cell_length_a 17.187588
_cell_length_b 15.822457
_cell_length_c 12.087613
_cell_angle_alpha 90.000000
_cell_angle_beta 90.000000
_cell_angle_gamma 90.000000
_cell_volume 3287.224809
_symmetry_space_group_name_H-M "A M A 2"
_symmetry_group_IT_number 40
_symmetry_cell_setting 'orthorhombic'
loop_
_space_group_symop_operation_xyz
x,y,z
-x,-y,z
1/2-x,y,z
1/2+x,-y,z
x,1/2+y,1/2+z
-x,1/2-y,1/2+z
1/2-x,1/2+y,1/2+z
1/2+x,1/2-y,1/2+z
loop_
_atom_site_type_symbol
_atom_site_label
_atom_site_fract_x
_atom_site_fract_y
_atom_site_fract_z
Si Si1 0.422455 0.873113 0.519110
Si Si2 0.409727 0.490868 0.212738
Si Si3 0.338745 0.509553 0.874531
Si Si4 0.604699 0.865889 0.542603
Si Si5 0.411254 0.480154 0.647721
Si Si6 0.160611 0.236018 0.896342
Si Si7 0.339779 0.543521 0.428880
Si Si8 0.158795 0.800554 0.154675
O O1 0.514461 0.865082 0.513004
O O2 0.386701 0.781491 0.494570
O O3 0.395653 0.906395 0.639809
O O4 0.395450 0.939443 0.426306
O O5 0.500000 0.500000 0.241430
O O6 0.378311 0.571941 0.145367
O O7 0.362500 0.482351 0.326835
O O8 0.250000 0.478650 0.887160
O O9 0.358314 0.518263 0.745341
O O10 0.349953 0.599554 0.934882
O O11 0.636452 0.773159 0.569232
O O12 0.500000 0.500000 0.677791
O O13 0.391610 0.527121 0.534935
O O14 0.393988 0.381282 0.627954
O O15 0.250000 0.251504 0.923395
O O16 0.140150 0.138034 0.891926
O O17 0.137201 0.273918 0.778509
O O18 0.250000 0.529164 0.458306
O O19 0.250000 0.822180 0.142232
#
# Coordination Sequence:
#
# PCOD8183828 Si02
#       8
#     8   8   8   8   8   8   8   8
#     4  10  20  36  61  91 126 157 205 256 307 360
#     4   9  19  37  58  88 121 157 198 250 305 360
#     4  11  21  38  63  92 125 164 207 259 314 371
#     4  10  21  37  63  95 126 155 205 264 307 360
#     4  12  26  42  62  89 124 165 211 254 317 375
#     4  10  21  37  61  89 120 159 207 251 299 366
#     4  11  23  40  60  86 122 161 204 254 310 374
#     4  11  22  41  65  91 120 161 209 253 303 372
#
# _framework density 19.46931
#
# number of rings (size 3 to 8) (size 9 to 14) (size 15 to 20)
#    0.000    1.500    2.500    4.125    1.750    2.500 
#    0.000    1.250    0.000    1.500    0.000    0.000 
#    0.000    0.000    0.000    0.000    0.000    0.000 
#
# Total GULP energy -396910.458696 kJ/mol
# GULP energy per Si atom -12403.451834 kJ/mol
# Density = 1.942500 g / cm^3
# Si number density = 19.469310 Si / 1000 Ang^3
#
#
#
# Elastic Constant Matrix: (Units=GPa)
#
#
# Indices 1 2 3 4 5 6 
#
# 1 83.3842 38.6304 35.5385 0.0000 0.0000 0.0000
# 2 38.6304 74.2960 26.5868 0.0000 0.0000 0.0000
# 3 35.5385 26.5868 103.1310 0.0000 0.0000 0.0000
# 4 0.0000 0.0000 0.0000 35.3640 0.0000 0.0000
# 5 0.0000 0.0000 0.0000 0.0000 31.6543 0.0000
# 6 0.0000 0.0000 0.0000 0.0000 0.0000 24.0005
#
#
#
# Elastic Compliance Matrix: (Units=1/GPa)
#
#
# Indices 1 2 3 4 5 6 
#
# 1 0.017164 -0.007500 -0.003981 0.000000 0.000000 0.000000
# 2 -0.007500 0.018105 -0.002083 0.000000 0.000000 0.000000
# 3 -0.003981 -0.002083 0.011605 0.000000 0.000000 0.000000
# 4 0.000000 0.000000 0.000000 0.028277 0.000000 0.000000
# 5 0.000000 0.000000 0.000000 0.000000 0.031591 0.000000
# 6 0.000000 0.000000 0.000000 0.000000 0.000000 0.041666
#
#
# Mechanical properties :
#
#
# Convention : Reuss Voigt Hill
#
# Bulk Modulus (GPa) = 50.64306 51.36916 51.00611
# Shear Modulus (GPa) = 27.45471 28.87412 28.16441
#
# Velocity S-wave (km/s) = 3.75927 3.85523 3.80755
# Velocity P-wave (km/s) = 6.70157 6.80140 6.75167
#
# Compressibility (1/GPa) = 0.01974604
#
# Stress axis : x y z
#
# Youngs Moduli (GPa) = 58.26148 55.23467 86.16770
#
# Poissons Ratio (x) = 0.41425 0.34305
# Poissons Ratio (y) = 0.43695 0.17948
# Poissons Ratio (z) = 0.23195 0.11505
#
# Static dielectric constant tensor:
#      x y z
#    x 3.526310 0.000000 0.000000 
#    y 0.000000 3.549660 0.000000 
#    z 0.000000 0.000000 3.572580 
# 
# 
# High freq. dielectric constant tensor:
#      x y z
#    x 1.762300 0.000000 0.000000 
#    y 0.000000 1.748540 0.000000 
#    z 0.000000 0.000000 1.758220 
# 
# From -- ./inp_files/12447.got.cif
#   From: 2010.03.12/outbox.cif.g09.slc.cpg/sg40_7_cif.got.tgz:12447.got - 2010.04.14 01:38:03.
