data_PCOD8183816
_publ_section_title
;
Structure prediction by ZEFSAII (Michael W. Deem and Ramdas Pophale) SiO2 
 PCOD8183816
Probable space group: A M A 2
;
_chemical_formula_sum "Si O2"
_cell_formula_units_Z 60
_cell_length_a 19.058187
_cell_length_b 5.154712
_cell_length_c 29.972007
_cell_angle_alpha 90.000000
_cell_angle_beta 90.000000
_cell_angle_gamma 90.000000
_cell_volume 2944.433939
_symmetry_space_group_name_H-M "A M A 2"
_symmetry_group_IT_number 40
_symmetry_cell_setting 'orthorhombic'
loop_
_space_group_symop_operation_xyz
x,y,z
-x,-y,z
1/2-x,y,z
1/2+x,-y,z
x,1/2+y,1/2+z
-x,1/2-y,1/2+z
1/2-x,1/2+y,1/2+z
1/2+x,1/2-y,1/2+z
loop_
_atom_site_type_symbol
_atom_site_label
_atom_site_fract_x
_atom_site_fract_y
_atom_site_fract_z
Si Si1 0.074001 0.878440 0.654570
Si Si2 0.917610 0.004006 0.935572
Si Si3 0.877453 0.065731 0.034885
Si Si4 0.827973 0.038373 0.579499
Si Si5 0.829233 0.645335 0.238859
Si Si6 0.582461 0.505981 0.881602
Si Si7 0.671173 0.653990 0.796474
Si Si8 0.000000 0.000000 0.091744
O O1 0.124466 0.046265 0.622262
O O2 0.116758 0.816175 0.698720
O O3 0.055634 0.633005 0.624393
O O4 0.000000 0.000000 0.668533
O O5 0.894294 0.226030 0.900391
O O6 0.895069 0.724307 0.917118
O O7 0.879233 0.057525 0.981738
O O8 0.000000 0.000000 0.944151
O O9 0.821813 0.286816 0.047751
O O10 0.858627 0.779966 0.052062
O O11 0.951274 0.164589 0.057435
O O12 0.750000 0.109589 0.596329
O O13 0.750000 0.578943 0.222205
O O14 0.855282 0.416539 0.271961
O O15 0.829605 0.921650 0.261842
O O16 0.500000 0.500000 0.871888
O O17 0.619929 0.575551 0.835848
O O18 0.750000 0.698283 0.815087
#
# Coordination Sequence:
#
# PCOD8183816 Si02
#       8
#     8   8   8   8   8   8   8   4
#     4  11  23  39  61  92 122 155 206 253 299 357
#     4  10  20  36  60  91 119 156 195 251 306 360
#     4  11  21  39  63  86 124 161 208 245 299 367
#     4  11  24  40  59  85 124 167 202 251 301 359
#     4  10  23  40  63  87 120 161 201 244 301 365
#     4  10  21  37  61  90 120 149 199 249 305 358
#     4  10  22  42  62  86 118 162 200 240 304 369
#     4  10  22  38  60  94 122 158 206 248 304 348
#
# _framework density 20.377431000000001
#
# number of rings (size 3 to 8) (size 9 to 14) (size 15 to 20)
#    0.000    1.600    2.000    2.400    1.867    1.067 
#    0.000    6.667    0.000    0.000    0.000    0.000 
#    0.000    0.000    0.000    0.000    0.000    0.000 
#
# Total GULP energy -371811.218503 kJ/mol
# GULP energy per Si atom -12393.707283 kJ/mol
# Density = 2.033105 g / cm^3
# Si number density = 20.377431 Si / 1000 Ang^3
#
#
#
# Elastic Constant Matrix: (Units=GPa)
#
#
# Indices 1 2 3 4 5 6 
#
# 1 91.7628 7.6620 55.2152 0.0000 0.0000 0.0000
# 2 7.6620 78.2064 8.0567 0.0000 0.0000 0.0000
# 3 55.2152 8.0567 101.4428 0.0000 0.0000 0.0000
# 4 0.0000 0.0000 0.0000 29.6995 0.0000 0.0000
# 5 0.0000 0.0000 0.0000 0.0000 35.9838 0.0000
# 6 0.0000 0.0000 0.0000 0.0000 0.0000 21.0112
#
#
#
# Elastic Compliance Matrix: (Units=1/GPa)
#
#
# Indices 1 2 3 4 5 6 
#
# 1 0.016241 -0.000686 -0.008786 0.000000 0.000000 0.000000
# 2 -0.000686 0.012921 -0.000653 0.000000 0.000000 0.000000
# 3 -0.008786 -0.000653 0.014692 0.000000 0.000000 0.000000
# 4 0.000000 0.000000 0.000000 0.033671 0.000000 0.000000
# 5 0.000000 0.000000 0.000000 0.000000 0.027790 0.000000
# 6 0.000000 0.000000 0.000000 0.000000 0.000000 0.047594
#
#
# Mechanical properties :
#
#
# Convention : Reuss Voigt Hill
#
# Bulk Modulus (GPa) = 42.36376 45.92000 44.14188
# Shear Modulus (GPa) = 27.62030 30.70412 29.16221
#
# Velocity S-wave (km/s) = 3.68562 3.88593 3.78710
# Velocity P-wave (km/s) = 6.24070 6.53587 6.38999
#
# Compressibility (1/GPa) = 0.02360508
#
# Stress axis : x y z
#
# Youngs Moduli (GPa) = 61.57086 77.39258 68.06583
#
# Poissons Ratio (x) = 0.05310 0.59801
# Poissons Ratio (y) = 0.04224 0.04443
# Poissons Ratio (z) = 0.54094 0.05052
#
# Static dielectric constant tensor:
#      x y z
#    x 3.841100 0.000000 0.000000 
#    y 0.000000 3.794560 0.000000 
#    z 0.000000 0.000000 3.563330 
# 
# 
# High freq. dielectric constant tensor:
#      x y z
#    x 1.793350 0.000000 0.000000 
#    y 0.000000 1.801960 0.000000 
#    z 0.000000 0.000000 1.794320 
# 
# From -- ./inp_files/25806.got.cif
#   From: 2010.03.12/outbox.cif.g09.slc.cpg/sg40_13_cif.got.tgz:25806.got - 2010.04.14 01:38:03.
