data_PCOD8183874
_publ_section_title
;
Structure prediction by ZEFSAII (Michael W. Deem and Ramdas Pophale) SiO2 
 PCOD8183874
Probable space group: A M A 2
;
_chemical_formula_sum "Si O2"
_cell_formula_units_Z 64
_cell_length_a 17.980010
_cell_length_b 15.716487
_cell_length_c 11.670708
_cell_angle_alpha 90.000000
_cell_angle_beta 90.000000
_cell_angle_gamma 90.000000
_cell_volume 3297.938934
_symmetry_space_group_name_H-M "A M A 2"
_symmetry_group_IT_number 40
_symmetry_cell_setting 'orthorhombic'
loop_
_space_group_symop_operation_xyz
x,y,z
-x,-y,z
1/2-x,y,z
1/2+x,-y,z
x,1/2+y,1/2+z
-x,1/2-y,1/2+z
1/2-x,1/2+y,1/2+z
1/2+x,1/2-y,1/2+z
loop_
_atom_site_type_symbol
_atom_site_label
_atom_site_fract_x
_atom_site_fract_y
_atom_site_fract_z
Si Si1 0.335471 0.171099 0.895980
Si Si2 0.903346 0.175363 0.532387
Si Si3 0.048593 0.203675 0.218689
Si Si4 0.927420 0.343601 0.968447
Si Si5 0.666640 0.562218 0.706737
Si Si6 0.162903 0.989481 0.459071
Si Si7 0.884874 0.746615 0.684688
Si Si8 0.429286 0.550908 0.546561
O O1 0.250000 0.153928 0.929025
O O2 0.362114 0.261137 0.946090
O O3 0.345368 0.178624 0.758547
O O4 0.385065 0.093329 0.941936
O O5 0.907359 0.219625 0.656993
O O6 0.984644 0.149063 0.487115
O O7 0.854602 0.089796 0.542996
O O8 0.090069 0.183677 0.337753
O O9 0.045562 0.121438 0.137599
O O10 0.964548 0.230648 0.243734
O O11 0.886910 0.431526 0.997952
O O12 0.893314 0.272860 0.052453
O O13 0.750000 0.528780 0.694721
O O14 0.636488 0.537308 0.831931
O O15 0.665195 0.663056 0.689531
O O16 0.620519 0.518385 0.607996
O O17 0.250000 0.012619 0.465791
O O18 0.500000 0.500000 0.496143
#
# Coordination Sequence:
#
# PCOD8183874 Si02
#       8
#     8   8   8   8   8   8   8   8
#     4  11  22  39  62  91 126 159 200 253 307 367
#     4  10  21  36  63  89 120 160 206 251 307 365
#     4  10  20  37  60  93 119 155 204 263 307 353
#     4  11  22  39  63  89 125 158 205 256 310 362
#     4  11  21  35  58  87 117 157 210 255 302 361
#     4  11  22  37  58  89 123 163 208 255 306 361
#     4  11  22  37  62  89 122 163 200 248 312 370
#     4  11  22  37  62  90 122 159 204 261 306 353
#
# _framework density 19.406058999999999
#
# number of rings (size 3 to 8) (size 9 to 14) (size 15 to 20)
#    0.000    1.250    5.000    1.500    0.000    1.000 
#    0.000    4.375    0.000    1.500    0.000    0.000 
#    0.000    0.000    0.000    0.000    0.000    0.000 
#
# Total GULP energy -396890.631212 kJ/mol
# GULP energy per Si atom -12402.832225 kJ/mol
# Density = 1.936189 g / cm^3
# Si number density = 19.406059 Si / 1000 Ang^3
#
#
#
# Elastic Constant Matrix: (Units=GPa)
#
#
# Indices 1 2 3 4 5 6 
#
# 1 100.2238 48.2810 32.3774 0.0000 0.0000 0.0000
# 2 48.2810 102.3209 42.1902 0.0000 0.0000 0.0000
# 3 32.3774 42.1902 72.2931 0.0000 0.0000 0.0000
# 4 0.0000 0.0000 0.0000 31.3801 0.0000 0.0000
# 5 0.0000 0.0000 0.0000 0.0000 20.4738 0.0000
# 6 0.0000 0.0000 0.0000 0.0000 0.0000 28.4626
#
#
#
# Elastic Compliance Matrix: (Units=1/GPa)
#
#
# Indices 1 2 3 4 5 6 
#
# 1 0.013403 -0.005069 -0.003044 0.000000 0.000000 0.000000
# 2 -0.005069 0.014787 -0.006360 0.000000 0.000000 0.000000
# 3 -0.003044 -0.006360 0.018908 0.000000 0.000000 0.000000
# 4 0.000000 0.000000 0.000000 0.031867 0.000000 0.000000
# 5 0.000000 0.000000 0.000000 0.000000 0.048843 0.000000
# 6 0.000000 0.000000 0.000000 0.000000 0.000000 0.035134
#
#
# Mechanical properties :
#
#
# Convention : Reuss Voigt Hill
#
# Bulk Modulus (GPa) = 55.09125 57.83723 56.46424
# Shear Modulus (GPa) = 25.26031 26.19590 25.72811
#
# Velocity S-wave (km/s) = 3.61178 3.67806 3.64507
# Velocity P-wave (km/s) = 6.77079 6.92141 6.84651
#
# Compressibility (1/GPa) = 0.01815170
#
# Stress axis : x y z
#
# Youngs Moduli (GPa) = 74.60964 67.62542 52.88890
#
# Poissons Ratio (x) = 0.34280 0.16102
# Poissons Ratio (y) = 0.37820 0.33636
# Poissons Ratio (z) = 0.22715 0.43007
#
# Static dielectric constant tensor:
#      x y z
#    x 3.605900 0.000000 0.000000 
#    y 0.000000 3.546440 0.000000 
#    z 0.000000 0.000000 3.453960 
# 
# 
# High freq. dielectric constant tensor:
#      x y z
#    x 1.758210 0.000000 0.000000 
#    y 0.000000 1.755070 0.000000 
#    z 0.000000 0.000000 1.740830 
# 
# From -- ./inp_files/13157.got.cif
#   From: 2010.03.12/outbox.cif.g09.slc.cpg/sg40_7_cif.got.tgz:13157.got - 2010.04.14 01:38:03.
