data_PCOD8183826
_publ_section_title
;
Structure prediction by ZEFSAII (Michael W. Deem and Ramdas Pophale) SiO2 
 PCOD8183826
Probable space group: A M A 2
;
_chemical_formula_sum "Si O2"
_cell_formula_units_Z 64
_cell_length_a 8.616958
_cell_length_b 28.024877
_cell_length_c 12.554727
_cell_angle_alpha 90.000000
_cell_angle_beta 90.000000
_cell_angle_gamma 90.000000
_cell_volume 3031.830830
_symmetry_space_group_name_H-M "A M A 2"
_symmetry_group_IT_number 40
_symmetry_cell_setting 'orthorhombic'
loop_
_space_group_symop_operation_xyz
x,y,z
-x,-y,z
1/2-x,y,z
1/2+x,-y,z
x,1/2+y,1/2+z
-x,1/2-y,1/2+z
1/2-x,1/2+y,1/2+z
1/2+x,1/2-y,1/2+z
loop_
_atom_site_type_symbol
_atom_site_label
_atom_site_fract_x
_atom_site_fract_y
_atom_site_fract_z
Si Si1 0.067168 0.404822 0.001720
Si Si2 0.433580 0.947443 0.277671
Si Si3 0.431169 0.795159 0.991869
Si Si4 0.576570 0.819795 0.776815
Si Si5 0.067142 0.616254 0.590171
Si Si6 0.567496 0.200830 0.564669
Si Si7 0.431436 0.951778 0.924803
Si Si8 0.576813 0.428551 0.213125
O O1 0.250000 0.410101 0.014154
O O2 0.017089 0.349262 0.010494
O O3 0.988422 0.436584 0.094346
O O4 0.008034 0.425998 0.889839
O O5 0.250000 0.950683 0.273143
O O6 0.488662 0.911530 0.186651
O O7 0.500000 0.000000 0.258702
O O8 0.250000 0.790687 0.014423
O O9 0.505360 0.829450 0.082543
O O10 0.511252 0.743464 0.989601
O O11 0.460242 0.816541 0.875294
O O12 0.750000 0.802699 0.809003
O O13 0.512743 0.788974 0.678468
O O14 0.579017 0.873059 0.735504
O O15 0.250000 0.616584 0.605889
O O16 0.022783 0.591809 0.478121
O O17 0.750000 0.202052 0.581460
O O18 0.250000 0.947310 0.949233
O O19 0.463969 0.953384 0.798430
O O20 0.500000 0.000000 0.976891
O O21 0.750000 0.450368 0.222510
#
# Coordination Sequence:
#
# PCOD8183826 Si02
#       8
#     8   8   8   8   8   8   8   8
#     4   9  21  41  65  90 125 168 214 264 320 380
#     4  11  24  44  67  94 128 173 221 273 332 394
#     4  12  24  39  62  92 126 168 214 264 325 390
#     4  10  20  37  60  86 121 160 201 255 315 378
#     4  12  25  43  64  90 124 164 213 267 323 386
#     4  10  21  39  62  91 125 166 215 269 325 384
#     4  12  24  39  61  89 123 159 201 252 311 375
#     4  10  20  36  61  90 122 158 200 251 311 372
#
# _framework density 21.109356999999999
#
# number of rings (size 3 to 8) (size 9 to 14) (size 15 to 20)
#    0.000    1.250    1.250    5.250    0.000    4.000 
#    0.000    5.000    0.000    0.000    0.000    0.000 
#    0.000    0.000    0.000    0.000    0.000    0.000 
#
# Total GULP energy -396902.808526 kJ/mol
# GULP energy per Si atom -12403.212766 kJ/mol
# Density = 2.106131 g / cm^3
# Si number density = 21.109357 Si / 1000 Ang^3
#
#
#
# Elastic Constant Matrix: (Units=GPa)
#
#
# Indices 1 2 3 4 5 6 
#
# 1 77.8100 22.3845 13.2270 0.0000 0.0000 0.0000
# 2 22.3845 58.8237 15.2739 0.0000 0.0000 0.0000
# 3 13.2270 15.2739 105.2469 0.0000 0.0000 0.0000
# 4 0.0000 0.0000 0.0000 9.3529 0.0000 0.0000
# 5 0.0000 0.0000 0.0000 0.0000 36.2198 0.0000
# 6 0.0000 0.0000 0.0000 0.0000 0.0000 31.2456
#
#
#
# Elastic Compliance Matrix: (Units=1/GPa)
#
#
# Indices 1 2 3 4 5 6 
#
# 1 0.014546 -0.005259 -0.001065 0.000000 0.000000 0.000000
# 2 -0.005259 0.019567 -0.002179 0.000000 0.000000 0.000000
# 3 -0.001065 -0.002179 0.009951 0.000000 0.000000 0.000000
# 4 0.000000 0.000000 0.000000 0.106919 0.000000 0.000000
# 5 0.000000 0.000000 0.000000 0.000000 0.027609 0.000000
# 6 0.000000 0.000000 0.000000 0.000000 0.000000 0.032005
#
#
# Mechanical properties :
#
#
# Convention : Reuss Voigt Hill
#
# Bulk Modulus (GPa) = 36.95574 38.18350 37.56962
# Shear Modulus (GPa) = 21.13087 28.09665 24.61376
#
# Velocity S-wave (km/s) = 3.16732 3.65225 3.41840
# Velocity P-wave (km/s) = 5.56064 5.99274 5.78073
#
# Compressibility (1/GPa) = 0.02705940
#
# Stress axis : x y z
#
# Youngs Moduli (GPa) = 68.74904 51.10705 100.48748
#
# Poissons Ratio (x) = 0.26875 0.10701
# Poissons Ratio (y) = 0.36153 0.21894
# Poissons Ratio (z) = 0.07321 0.11135
#
# Static dielectric constant tensor:
#      x y z
#    x 3.902010 0.000000 0.000000 
#    y 0.000000 5.329610 0.000000 
#    z 0.000000 0.000000 3.882280 
# 
# 
# High freq. dielectric constant tensor:
#      x y z
#    x 1.835640 0.000000 0.000000 
#    y 0.000000 1.828530 0.000000 
#    z 0.000000 0.000000 1.826780 
# 
# From -- ./inp_files/10577.got.cif
#   From: 2010.03.12/outbox.cif.g09.slc.cpg/sg40_6_cif.got.tgz:10577.got - 2010.04.14 01:38:03.
