data_PCOD8183048
_publ_section_title
;
Structure prediction by ZEFSAII (Michael W. Deem and Ramdas Pophale) SiO2 
 PCOD8183048
Probable space group: A M A 2
;
_chemical_formula_sum "Si O2"
_cell_formula_units_Z 64
_cell_length_a 9.395011
_cell_length_b 32.827358
_cell_length_c 11.571819
_cell_angle_alpha 90.000000
_cell_angle_beta 90.000000
_cell_angle_gamma 90.000000
_cell_volume 3568.903921
_symmetry_space_group_name_H-M "A M A 2"
_symmetry_group_IT_number 40
_symmetry_cell_setting 'orthorhombic'
loop_
_space_group_symop_operation_xyz
x,y,z
-x,-y,z
1/2-x,y,z
1/2+x,-y,z
x,1/2+y,1/2+z
-x,1/2-y,1/2+z
1/2-x,1/2+y,1/2+z
1/2+x,1/2-y,1/2+z
loop_
_atom_site_type_symbol
_atom_site_label
_atom_site_fract_x
_atom_site_fract_y
_atom_site_fract_z
Si Si1 0.584245 0.040597 0.629610
Si Si2 0.583695 0.856840 0.989384
Si Si3 0.093707 0.681247 0.850638
Si Si4 0.918108 0.122664 0.758833
Si Si5 0.080682 0.721445 0.626531
Si Si6 0.404883 0.098341 0.216467
Si Si7 0.584217 0.540055 0.864440
Si Si8 0.581794 0.688694 0.071172
O O1 0.750000 0.030963 0.646082
O O2 0.535725 0.078826 0.707180
O O3 0.551083 0.052470 0.496719
O O4 0.500000 0.000000 0.667520
O O5 0.750000 0.853560 0.957813
O O6 0.525388 0.813215 0.037386
O O7 0.556779 0.892427 0.083263
O O8 0.496179 0.869970 0.878243
O O9 0.250000 0.694762 0.897957
O O10 0.030308 0.713974 0.758956
O O11 0.113016 0.640651 0.779406
O O12 0.984762 0.673107 0.952856
O O13 0.750000 0.124007 0.779143
O O14 0.966812 0.158499 0.672524
O O15 0.250000 0.719922 0.625819
O O16 0.022563 0.765778 0.592042
O O17 0.250000 0.075768 0.224030
O O18 0.531637 0.074097 0.276154
O O19 0.500000 0.500000 0.830302
O O20 0.750000 0.532792 0.844511
O O21 0.750000 0.687917 0.056968
#
# Coordination Sequence:
#
# PCOD8183048 Si02
#       8
#     8   8   8   8   8   8   8   8
#     4   9  19  35  53  77 108 138 171 213 264 315
#     4   9  19  36  55  73 100 140 181 216 256 310
#     4   9  18  33  52  73  97 130 172 213 255 306
#     4  10  21  35  52  78 108 138 174 219 267 315
#     4   8  17  34  52  71 101 138 170 210 265 312
#     4   9  18  34  53  73 101 135 171 214 260 307
#     4  10  19  32  54  82 109 136 168 211 261 317
#     4  10  20  33  51  75 105 137 168 214 268 313
#
# _framework density 17.932676000000001
#
# number of rings (size 3 to 8) (size 9 to 14) (size 15 to 20)
#    0.000    2.750    0.000    2.625    1.750    3.500 
#    0.000    3.125    0.000    1.500    0.000    0.000 
#    0.000    0.000    0.000    0.000    0.000    0.000 
#
# Total GULP energy -396684.512104 kJ/mol
# GULP energy per Si atom -12396.391003 kJ/mol
# Density = 1.789186 g / cm^3
# Si number density = 17.932676 Si / 1000 Ang^3
#
#
#
# Elastic Constant Matrix: (Units=GPa)
#
#
# Indices 1 2 3 4 5 6 
#
# 1 52.0798 37.5609 47.0031 0.0000 0.0000 0.0000
# 2 37.5609 94.0148 52.3445 0.0000 0.0000 0.0000
# 3 47.0031 52.3445 126.1418 0.0000 0.0000 0.0000
# 4 0.0000 0.0000 0.0000 19.0567 0.0000 0.0000
# 5 0.0000 0.0000 0.0000 0.0000 -21.4242 0.0000
# 6 0.0000 0.0000 0.0000 0.0000 0.0000 25.0084
#
#
#
# Elastic Compliance Matrix: (Units=1/GPa)
#
#
# Indices 1 2 3 4 5 6 
#
# 1 0.033272 -0.008310 -0.008949 0.000000 0.000000 0.000000
# 2 -0.008310 0.015908 -0.003505 0.000000 0.000000 0.000000
# 3 -0.008949 -0.003505 0.012717 0.000000 0.000000 0.000000
# 4 0.000000 0.000000 0.000000 0.052475 0.000000 0.000000
# 5 0.000000 0.000000 0.000000 0.000000 -0.046676 0.000000
# 6 0.000000 0.000000 0.000000 0.000000 0.000000 0.039987
#
#
# Mechanical properties :
#
#
# Convention : Reuss Voigt Hill
#
# Bulk Modulus (GPa) = 49.09661 60.67261 54.88461
# Shear Modulus (GPa) = 32.05144 13.55003 22.80074
#
# Velocity S-wave (km/s) = 4.23226 2.75181 3.56963
# Velocity P-wave (km/s) = 7.16383 6.63352 6.90377
#
# Compressibility (1/GPa) = 0.02036800
#
# Stress axis : x y z
#
# Youngs Moduli (GPa) = 30.05568 62.86141 78.63690
#
# Poissons Ratio (x) = 0.52238 0.70375
# Poissons Ratio (y) = 0.24976 0.27561
# Poissons Ratio (z) = 0.26898 0.22032
#
# Static dielectric constant tensor:
#      x y z
#    x 3.548020 0.000000 0.000000 
#    y 0.000000 3.636050 0.000000 
#    z 0.000000 0.000000 3.333290 
# 
# 
# High freq. dielectric constant tensor:
#      x y z
#    x 1.679880 0.000000 0.000000 
#    y 0.000000 1.694110 0.000000 
#    z 0.000000 0.000000 1.691620 
# 
# From -- ./inp_files/10638.got.cif
#   From: 2010.03.12/outbox.cif.g09.slc.cpg/sg40_6_cif.got.tgz:10638.got - 2010.04.14 01:38:03.
