data_PCOD8183187
_publ_section_title
;
Structure prediction by ZEFSAII (Michael W. Deem and Ramdas Pophale) SiO2 
 PCOD8183187
Probable space group: A M A 2
;
_chemical_formula_sum "Si O2"
_cell_formula_units_Z 64
_cell_length_a 8.520978
_cell_length_b 20.184359
_cell_length_c 19.890924
_cell_angle_alpha 90.000000
_cell_angle_beta 90.000000
_cell_angle_gamma 90.000000
_cell_volume 3421.049546
_symmetry_space_group_name_H-M "A M A 2"
_symmetry_group_IT_number 40
_symmetry_cell_setting 'orthorhombic'
loop_
_space_group_symop_operation_xyz
x,y,z
-x,-y,z
1/2-x,y,z
1/2+x,-y,z
x,1/2+y,1/2+z
-x,1/2-y,1/2+z
1/2-x,1/2+y,1/2+z
1/2+x,1/2-y,1/2+z
loop_
_atom_site_type_symbol
_atom_site_label
_atom_site_fract_x
_atom_site_fract_y
_atom_site_fract_z
Si Si1 0.566944 0.827337 0.406990
Si Si2 0.435822 0.683869 0.409920
Si Si3 0.064956 0.824803 0.263030
Si Si4 0.065552 0.069518 0.007639
Si Si5 0.935622 0.429633 0.661467
Si Si6 0.063958 0.071628 0.654184
Si Si7 0.433699 0.929498 0.510114
Si Si8 0.065840 0.676723 0.258905
O O1 0.750000 0.839155 0.419017
O O2 0.522774 0.752289 0.425550
O O3 0.523490 0.846079 0.330750
O O4 0.468509 0.875054 0.454580
O O5 0.250000 0.696042 0.416330
O O6 0.499704 0.629385 0.462263
O O7 0.480750 0.658555 0.335362
O O8 0.250000 0.826330 0.277453
O O9 0.008517 0.751167 0.242097
O O10 0.020071 0.872980 0.203154
O O11 0.250000 0.066132 0.001057
O O12 0.013411 0.081692 0.084345
O O13 0.000000 0.000000 0.980426
O O14 0.750000 0.426352 0.671595
O O15 0.000000 0.500000 0.687157
O O16 0.250000 0.069915 0.657269
O O17 0.990371 0.124459 0.707000
O O18 0.011595 0.092907 0.579970
O O19 0.000000 0.000000 0.674476
O O20 0.250000 0.936789 0.521899
O O21 0.500000 0.000000 0.485606
O O22 0.250000 0.673173 0.249684
#
# Coordination Sequence:
#
# PCOD8183187 Si02
#       8
#     8   8   8   8   8   8   8   8
#     4  11  22  37  56  81 108 137 173 218 264 316
#     4   9  18  36  56  78 108 144 180 220 265 312
#     4  10  20  37  57  78 104 139 176 217 264 313
#     4   9  19  34  54  78 109 143 180 222 266 312
#     4  10  20  35  53  78 107 139 176 218 262 311
#     4  10  19  34  53  78 108 141 178 219 262 310
#     4  11  22  38  57  79 106 139 175 217 263 314
#     4   8  17  33  54  76 105 140 175 213 261 312
#
# _framework density 18.707709999999999
#
# number of rings (size 3 to 8) (size 9 to 14) (size 15 to 20)
#    0.000    2.250    0.000    4.875    0.000    3.000 
#    0.000   11.250    0.000    0.000    0.000    0.000 
#    0.000    0.000    0.000    0.000    0.000    0.000 
#
# Total GULP energy -396840.056978 kJ/mol
# GULP energy per Si atom -12401.251781 kJ/mol
# Density = 1.866513 g / cm^3
# Si number density = 18.707710 Si / 1000 Ang^3
#
#
#
# Elastic Constant Matrix: (Units=GPa)
#
#
# Indices 1 2 3 4 5 6 
#
# 1 55.4988 18.5261 14.9434 0.0000 0.0000 0.0000
# 2 18.5261 110.9491 84.1729 0.0000 0.0000 0.0000
# 3 14.9434 84.1729 103.5263 0.0000 0.0000 0.0000
# 4 0.0000 0.0000 0.0000 44.6560 0.0000 0.0000
# 5 0.0000 0.0000 0.0000 0.0000 11.8587 0.0000
# 6 0.0000 0.0000 0.0000 0.0000 0.0000 29.0509
#
#
#
# Elastic Compliance Matrix: (Units=1/GPa)
#
#
# Indices 1 2 3 4 5 6 
#
# 1 0.019089 -0.002863 -0.000428 0.000000 0.000000 0.000000
# 2 -0.002863 0.023952 -0.019061 0.000000 0.000000 0.000000
# 3 -0.000428 -0.019061 0.025219 0.000000 0.000000 0.000000
# 4 0.000000 0.000000 0.000000 0.022393 0.000000 0.000000
# 5 0.000000 0.000000 0.000000 0.000000 0.084326 0.000000
# 6 0.000000 0.000000 0.000000 0.000000 0.000000 0.034422
#
#
# Mechanical properties :
#
#
# Convention : Reuss Voigt Hill
#
# Bulk Modulus (GPa) = 42.45088 56.13989 49.29539
# Shear Modulus (GPa) = 19.08693 27.26855 23.17774
#
# Velocity S-wave (km/s) = 3.19763 3.82201 3.52368
# Velocity P-wave (km/s) = 6.03109 7.03925 6.55458
#
# Compressibility (1/GPa) = 0.02355664
#
# Stress axis : x y z
#
# Youngs Moduli (GPa) = 52.38544 41.74953 39.65250
#
# Poissons Ratio (x) = 0.11954 0.01695
# Poissons Ratio (y) = 0.14999 0.75583
# Poissons Ratio (z) = 0.02240 0.79580
#
# Static dielectric constant tensor:
#      x y z
#    x 3.335840 0.000000 0.000000 
#    y 0.000000 3.586270 0.000000 
#    z 0.000000 0.000000 3.567380 
# 
# 
# High freq. dielectric constant tensor:
#      x y z
#    x 1.722760 0.000000 0.000000 
#    y 0.000000 1.732430 0.000000 
#    z 0.000000 0.000000 1.727840 
# 
# From -- ./inp_files/22442.got.cif
#   From: 2010.03.12/outbox.cif.g09.slc.cpg/sg40_12_cif.got.tgz:22442.got - 2010.04.14 01:38:03.
