data_PCOD8183661
_publ_section_title
;
Structure prediction by ZEFSAII (Michael W. Deem and Ramdas Pophale) SiO2 
 PCOD8183661
Probable space group: A M A 2
;
_chemical_formula_sum "Si O2"
_cell_formula_units_Z 64
_cell_length_a 8.843781
_cell_length_b 20.239398
_cell_length_c 19.511678
_cell_angle_alpha 90.000000
_cell_angle_beta 90.000000
_cell_angle_gamma 90.000000
_cell_volume 3492.449946
_symmetry_space_group_name_H-M "A M A 2"
_symmetry_group_IT_number 40
_symmetry_cell_setting 'orthorhombic'
loop_
_space_group_symop_operation_xyz
x,y,z
-x,-y,z
1/2-x,y,z
1/2+x,-y,z
x,1/2+y,1/2+z
-x,1/2-y,1/2+z
1/2-x,1/2+y,1/2+z
1/2+x,1/2-y,1/2+z
loop_
_atom_site_type_symbol
_atom_site_label
_atom_site_fract_x
_atom_site_fract_y
_atom_site_fract_z
Si Si1 0.070978 0.931024 0.134570
Si Si2 0.928882 0.568354 0.136303
Si Si3 0.077472 0.173607 0.884458
Si Si4 0.427443 0.323496 0.873823
Si Si5 0.074185 0.432692 0.477177
Si Si6 0.426942 0.933046 0.479846
Si Si7 0.070537 0.178579 0.230396
Si Si8 0.573559 0.819229 0.726859
O O1 0.250000 0.932540 0.146494
O O2 0.996608 0.872578 0.176762
O O3 0.027082 0.918549 0.055418
O O4 0.000000 0.000000 0.159885
O O5 0.750000 0.565929 0.146347
O O6 0.000000 0.500000 0.162943
O O7 0.998492 0.627109 0.179034
O O8 0.976936 0.580646 0.057685
O O9 0.250000 0.159033 0.904701
O O10 0.035374 0.249713 0.899102
O O11 0.048203 0.158020 0.804873
O O12 0.971713 0.128799 0.930715
O O13 0.250000 0.329744 0.856192
O O14 0.481508 0.372002 0.933869
O O15 0.520499 0.342517 0.806397
O O16 0.250000 0.443538 0.470328
O O17 0.000000 0.500000 0.449551
O O18 0.250000 0.942498 0.474546
O O19 0.500000 0.000000 0.451203
O O20 0.250000 0.179249 0.225080
O O21 0.006692 0.250192 0.211399
O O22 0.750000 0.811435 0.710185
#
# Coordination Sequence:
#
# PCOD8183661 Si02
#       8
#     8   8   8   8   8   8   8   8
#     4  10  21  38  57  80 109 142 179 221 267 317
#     4  10  20  35  55  81 110 143 182 224 268 318
#     4   9  19  35  55  77 105 140 176 216 267 318
#     4   9  19  37  56  76 107 144 178 219 266 315
#     4  10  21  36  56  80 107 138 175 218 264 315
#     4   9  19  35  55  79 108 141 178 218 264 314
#     4  11  22  36  56  82 109 141 179 221 267 320
#     4  10  21  38  57  79 108 143 180 223 270 317
#
# _framework density 18.325244999999999
#
# number of rings (size 3 to 8) (size 9 to 14) (size 15 to 20)
#    0.000    2.250    0.000    3.375    0.000    7.000 
#    0.000    2.500    0.000    0.000    0.000    0.000 
#    0.000    0.000    0.000    0.000    0.000    0.000 
#
# Total GULP energy -396901.351961 kJ/mol
# GULP energy per Si atom -12403.167249 kJ/mol
# Density = 1.828354 g / cm^3
# Si number density = 18.325245 Si / 1000 Ang^3
#
#
#
# Elastic Constant Matrix: (Units=GPa)
#
#
# Indices 1 2 3 4 5 6 
#
# 1 93.9781 60.5872 50.6672 0.0000 0.0000 0.0000
# 2 60.5872 139.9976 87.2737 0.0000 0.0000 0.0000
# 3 50.6672 87.2737 90.4132 0.0000 0.0000 0.0000
# 4 0.0000 0.0000 0.0000 44.4112 0.0000 0.0000
# 5 0.0000 0.0000 0.0000 0.0000 38.3517 0.0000
# 6 0.0000 0.0000 0.0000 0.0000 0.0000 38.2980
#
#
#
# Elastic Compliance Matrix: (Units=1/GPa)
#
#
# Indices 1 2 3 4 5 6 
#
# 1 0.015838 -0.003318 -0.005673 0.000000 0.000000 0.000000
# 2 -0.003318 0.018631 -0.016125 0.000000 0.000000 0.000000
# 3 -0.005673 -0.016125 0.029804 0.000000 0.000000 0.000000
# 4 0.000000 0.000000 0.000000 0.022517 0.000000 0.000000
# 5 0.000000 0.000000 0.000000 0.000000 0.026074 0.000000
# 6 0.000000 0.000000 0.000000 0.000000 0.000000 0.026111
#
#
# Mechanical properties :
#
#
# Convention : Reuss Voigt Hill
#
# Bulk Modulus (GPa) = 71.21344 80.16058 75.68701
# Shear Modulus (GPa) = 25.78812 32.60290 29.19551
#
# Velocity S-wave (km/s) = 3.75540 4.22254 3.99580
# Velocity P-wave (km/s) = 7.59929 8.22261 7.91709
#
# Compressibility (1/GPa) = 0.01404229
#
# Stress axis : x y z
#
# Youngs Moduli (GPa) = 63.13782 53.67450 33.55222
#
# Poissons Ratio (x) = 0.17808 0.19035
# Poissons Ratio (y) = 0.20948 0.54102
# Poissons Ratio (z) = 0.35819 0.86548
#
# Static dielectric constant tensor:
#      x y z
#    x 3.324970 0.000000 0.000000 
#    y 0.000000 3.479140 0.000000 
#    z 0.000000 0.000000 3.446650 
# 
# 
# High freq. dielectric constant tensor:
#      x y z
#    x 1.718680 0.000000 0.000000 
#    y 0.000000 1.719390 0.000000 
#    z 0.000000 0.000000 1.708020 
# 
# From -- ./inp_files/19585.got.cif
#   From: 2010.03.12/outbox.cif.g09.slc.cpg/sg40_10_cif.got.tgz:19585.got - 2010.04.14 01:38:03.
