data_PCOD8183767
_publ_section_title
;
Structure prediction by ZEFSAII (Michael W. Deem and Ramdas Pophale) SiO2 
 PCOD8183767
Probable space group: A M A 2
;
_chemical_formula_sum "Si O2"
_cell_formula_units_Z 64
_cell_length_a 27.309510
_cell_length_b 13.122548
_cell_length_c 8.498841
_cell_angle_alpha 90.000000
_cell_angle_beta 90.000000
_cell_angle_gamma 90.000000
_cell_volume 3045.732673
_symmetry_space_group_name_H-M "A M A 2"
_symmetry_group_IT_number 40
_symmetry_cell_setting 'orthorhombic'
loop_
_space_group_symop_operation_xyz
x,y,z
-x,-y,z
1/2-x,y,z
1/2+x,-y,z
x,1/2+y,1/2+z
-x,1/2-y,1/2+z
1/2-x,1/2+y,1/2+z
1/2+x,1/2-y,1/2+z
loop_
_atom_site_type_symbol
_atom_site_label
_atom_site_fract_x
_atom_site_fract_y
_atom_site_fract_z
Si Si1 0.303859 0.281127 0.681360
Si Si2 0.805167 0.926624 0.847217
Si Si3 0.194425 0.746933 0.829180
Si Si4 0.363771 0.907288 0.681872
Si Si5 0.114833 0.913662 0.327809
Si Si6 0.489990 0.377362 0.914311
Si Si7 0.053611 0.758731 0.686450
Si Si8 0.633993 0.390537 0.644887
O O1 0.250000 0.328800 0.715949
O O2 0.302587 0.162345 0.720264
O O3 0.316758 0.296803 0.498420
O O4 0.344165 0.332160 0.788815
O O5 0.750000 0.974974 0.861257
O O6 0.848550 0.000132 0.791816
O O7 0.822716 0.890301 0.017620
O O8 0.250000 0.710961 0.815273
O O9 0.181690 0.828002 0.690673
O O10 0.159140 0.650377 0.805232
O O11 0.374416 0.949096 0.506809
O O12 0.411822 0.849820 0.754827
O O13 0.061151 0.863475 0.323103
O O14 0.114055 0.999750 0.194463
O O15 0.500000 0.500000 0.936316
O O16 0.531019 0.315739 0.818204
O O17 0.486934 0.315844 0.079802
O O18 0.089655 0.683297 0.586724
#
# Coordination Sequence:
#
# PCOD8183767 Si02
#       8
#     8   8   8   8   8   8   8   8
#     4  10  22  38  60  92 129 173 219 268 329 395
#     4  11  22  38  60  93 133 177 226 272 327 404
#     4  10  20  36  57  85 122 165 211 264 320 389
#     4  10  22  39  60  89 124 164 218 264 331 391
#     4  11  23  41  64  91 127 170 213 277 331 399
#     4  11  23  47  70  97 133 171 223 279 344 407
#     4  10  24  45  66  97 126 168 219 277 341 410
#     4  11  22  39  62  90 128 166 219 264 336 391
#
# _framework density 21.013005
#
# number of rings (size 3 to 8) (size 9 to 14) (size 15 to 20)
#    0.000    1.500    1.250    4.500    0.000    7.000 
#    9.000    0.000    0.000    0.000    0.000    0.000 
#    0.000    0.000    0.000    0.000    0.000    0.000 
#
# Total GULP energy -396525.493638 kJ/mol
# GULP energy per Si atom -12391.421676 kJ/mol
# Density = 2.096518 g / cm^3
# Si number density = 21.013005 Si / 1000 Ang^3
#
#
#
# Elastic Constant Matrix: (Units=GPa)
#
#
# Indices 1 2 3 4 5 6 
#
# 1 112.7365 42.9900 43.9117 0.0000 0.0000 0.0000
# 2 42.9900 94.4902 30.9165 0.0000 0.0000 0.0000
# 3 43.9117 30.9165 68.7551 0.0000 0.0000 0.0000
# 4 0.0000 0.0000 0.0000 35.2509 0.0000 0.0000
# 5 0.0000 0.0000 0.0000 0.0000 36.2241 0.0000
# 6 0.0000 0.0000 0.0000 0.0000 0.0000 33.0634
#
#
#
# Elastic Compliance Matrix: (Units=1/GPa)
#
#
# Indices 1 2 3 4 5 6 
#
# 1 0.012823 -0.003699 -0.006526 0.000000 0.000000 0.000000
# 2 -0.003699 0.013476 -0.003697 0.000000 0.000000 0.000000
# 3 -0.006526 -0.003697 0.020375 0.000000 0.000000 0.000000
# 4 0.000000 0.000000 0.000000 0.028368 0.000000 0.000000
# 5 0.000000 0.000000 0.000000 0.000000 0.027606 0.000000
# 6 0.000000 0.000000 0.000000 0.000000 0.000000 0.030245
#
#
# Mechanical properties :
#
#
# Convention : Reuss Voigt Hill
#
# Bulk Modulus (GPa) = 53.10968 56.84644 54.97806
# Shear Modulus (GPa) = 29.93780 31.45190 30.69485
#
# Velocity S-wave (km/s) = 3.77865 3.87302 3.82613
# Velocity P-wave (km/s) = 6.66087 6.86383 6.76311
#
# Compressibility (1/GPa) = 0.01882896
#
# Stress axis : x y z
#
# Youngs Moduli (GPa) = 77.98690 74.20848 49.07955
#
# Poissons Ratio (x) = 0.27446 0.32031
# Poissons Ratio (y) = 0.28844 0.18146
# Poissons Ratio (z) = 0.50897 0.27437
#
# Static dielectric constant tensor:
#      x y z
#    x 3.944200 0.000000 0.000000 
#    y 0.000000 3.826130 0.000000 
#    z 0.000000 0.000000 3.627200 
# 
# 
# High freq. dielectric constant tensor:
#      x y z
#    x 1.831950 0.000000 0.000000 
#    y 0.000000 1.824910 0.000000 
#    z 0.000000 0.000000 1.808120 
# 
# From -- ./inp_files/8944.got.cif
#   From: 2010.03.12/outbox.cif.g09.slc.cpg/sg40_5_cif.got.tgz:8944.got - 2010.04.14 01:38:03.
