data_PCOD8183839
_publ_section_title
;
Structure prediction by ZEFSAII (Michael W. Deem and Ramdas Pophale) SiO2 
 PCOD8183839
Probable space group: A M A 2
;
_chemical_formula_sum "Si O2"
_cell_formula_units_Z 56
_cell_length_a 9.012504
_cell_length_b 19.633745
_cell_length_c 15.361320
_cell_angle_alpha 90.000000
_cell_angle_beta 90.000000
_cell_angle_gamma 90.000000
_cell_volume 2718.173367
_symmetry_space_group_name_H-M "A M A 2"
_symmetry_group_IT_number 40
_symmetry_cell_setting 'orthorhombic'
loop_
_space_group_symop_operation_xyz
x,y,z
-x,-y,z
1/2-x,y,z
1/2+x,-y,z
x,1/2+y,1/2+z
-x,1/2-y,1/2+z
1/2-x,1/2+y,1/2+z
1/2+x,1/2-y,1/2+z
loop_
_atom_site_type_symbol
_atom_site_label
_atom_site_fract_x
_atom_site_fract_y
_atom_site_fract_z
Si Si1 0.085412 0.395017 0.883940
Si Si2 0.422876 0.430011 0.077896
Si Si3 0.917526 0.254788 0.311890
Si Si4 0.917719 0.702714 0.474331
Si Si5 0.416335 0.432478 0.566774
Si Si6 0.073124 0.781095 0.632468
Si Si7 0.422821 0.568788 0.720477
O O1 0.250000 0.426076 0.868211
O O2 0.087931 0.316209 0.862620
O O3 0.966057 0.427662 0.820192
O O4 0.027474 0.411713 0.979673
O O5 0.500000 0.500000 0.110664
O O6 0.250000 0.444689 0.081905
O O7 0.462961 0.362761 0.134141
O O8 0.750000 0.281575 0.295524
O O9 0.007260 0.300545 0.379290
O O10 0.002850 0.248951 0.219935
O O11 0.750000 0.732673 0.469474
O O12 0.912049 0.622509 0.491128
O O13 0.007016 0.747243 0.545402
O O14 0.500000 0.500000 0.530776
O O15 0.250000 0.452826 0.596695
O O16 0.497845 0.386451 0.645802
O O17 0.250000 0.768787 0.632185
O O18 0.500000 0.500000 0.682922
O O19 0.250000 0.573748 0.711116
#
# Coordination Sequence:
#
# PCOD8183839 Si02
#       7
#     8   8   8   8   8   8   8
#     4  10  20  37  56  82 118 153 195 249 309 368
#     4  10  22  40  61  87 122 165 209 262 317 374
#     4  11  23  40  63  91 122 159 205 258 314 373
#     4  11  23  40  63  92 123 159 204 255 310 373
#     4  10  21  37  57  83 116 155 198 246 301 362
#     4  11  23  42  64  92 128 167 211 262 317 376
#     4  11  21  32  50  79 113 152 192 234 290 356
#
# _framework density 20.602070000000001
#
# number of rings (size 3 to 8) (size 9 to 14) (size 15 to 20)
#    0.000    1.429    1.429    5.143    0.000    9.714 
#    0.000    0.714    0.000    0.000    0.000    0.000 
#    0.000    0.000    0.000    0.000    0.000    0.000 
#
# Total GULP energy -346871.163554 kJ/mol
# GULP energy per Si atom -12388.255841 kJ/mol
# Density = 2.055518 g / cm^3
# Si number density = 20.602070 Si / 1000 Ang^3
#
#
#
# Elastic Constant Matrix: (Units=GPa)
#
#
# Indices 1 2 3 4 5 6 
#
# 1 157.1235 27.5150 40.5459 0.0000 0.0000 0.0000
# 2 27.5150 64.1037 5.8484 0.0000 0.0000 0.0000
# 3 40.5459 5.8484 82.5542 0.0000 0.0000 0.0000
# 4 0.0000 0.0000 0.0000 36.6616 0.0000 0.0000
# 5 0.0000 0.0000 0.0000 0.0000 24.0737 0.0000
# 6 0.0000 0.0000 0.0000 0.0000 0.0000 26.1124
#
#
#
# Elastic Compliance Matrix: (Units=1/GPa)
#
#
# Indices 1 2 3 4 5 6 
#
# 1 0.007832 -0.003030 -0.003632 0.000000 0.000000 0.000000
# 2 -0.003030 0.016874 0.000293 0.000000 0.000000 0.000000
# 3 -0.003632 0.000293 0.013876 0.000000 0.000000 0.000000
# 4 0.000000 0.000000 0.000000 0.027277 0.000000 0.000000
# 5 0.000000 0.000000 0.000000 0.000000 0.041539 0.000000
# 6 0.000000 0.000000 0.000000 0.000000 0.000000 0.038296
#
#
# Mechanical properties :
#
#
# Convention : Reuss Voigt Hill
#
# Bulk Modulus (GPa) = 38.69476 50.17778 44.43627
# Shear Modulus (GPa) = 29.93156 32.69435 31.31296
#
# Velocity S-wave (km/s) = 3.81575 3.98797 3.90281
# Velocity P-wave (km/s) = 6.18353 6.75380 6.47494
#
# Compressibility (1/GPa) = 0.02584329
#
# Stress axis : x y z
#
# Youngs Moduli (GPa) = 127.67504 59.26367 72.06490
#
# Poissons Ratio (x) = 0.17960 0.26175
# Poissons Ratio (y) = 0.38692 -0.02112
# Poissons Ratio (z) = 0.46373 -0.01736
#
# Static dielectric constant tensor:
#      x y z
#    x 3.862880 0.000000 0.000000 
#    y 0.000000 3.727070 0.000000 
#    z 0.000000 0.000000 3.720400 
# 
# 
# High freq. dielectric constant tensor:
#      x y z
#    x 1.817050 0.000000 0.000000 
#    y 0.000000 1.802810 0.000000 
#    z 0.000000 0.000000 1.796990 
# 
# From -- ./inp_files/15327.got.cif
#   From: 2010.03.12/outbox.cif.g09.slc.cpg/sg40_8_cif.got.tgz:15327.got - 2010.04.14 01:38:03.
