data_PCOD8183505
_publ_section_title
;
Structure prediction by ZEFSAII (Michael W. Deem and Ramdas Pophale) SiO2 
 PCOD8183505
Probable space group: A M A 2
;
_chemical_formula_sum "Si O2"
_cell_formula_units_Z 64
_cell_length_a 9.382921
_cell_length_b 28.171304
_cell_length_c 12.646482
_cell_angle_alpha 90.000000
_cell_angle_beta 90.000000
_cell_angle_gamma 90.000000
_cell_volume 3342.833457
_symmetry_space_group_name_H-M "A M A 2"
_symmetry_group_IT_number 40
_symmetry_cell_setting 'orthorhombic'
loop_
_space_group_symop_operation_xyz
x,y,z
-x,-y,z
1/2-x,y,z
1/2+x,-y,z
x,1/2+y,1/2+z
-x,1/2-y,1/2+z
1/2-x,1/2+y,1/2+z
1/2+x,1/2-y,1/2+z
loop_
_atom_site_type_symbol
_atom_site_label
_atom_site_fract_x
_atom_site_fract_y
_atom_site_fract_z
Si Si1 0.908005 0.181085 0.036010
Si Si2 0.587601 0.042414 0.198729
Si Si3 0.416063 0.594636 0.280055
Si Si4 0.592374 0.073136 0.973738
Si Si5 0.081736 0.799523 0.264563
Si Si6 0.583213 0.300902 0.342893
Si Si7 0.079648 0.050220 0.554108
Si Si8 0.414382 0.387745 0.886094
O O1 0.750000 0.204636 0.036019
O O2 0.979993 0.183845 0.151652
O O3 0.894851 0.128060 0.997056
O O4 0.009536 0.208101 0.955116
O O5 0.750000 0.026378 0.190611
O O6 0.572455 0.088284 0.271193
O O7 0.500000 0.000000 0.253104
O O8 0.526356 0.050354 0.080079
O O9 0.250000 0.589993 0.302367
O O10 0.493231 0.564163 0.371900
O O11 0.463376 0.650275 0.283800
O O12 0.457785 0.572207 0.168037
O O13 0.750000 0.052686 0.948706
O O14 0.250000 0.805935 0.261273
O O15 0.035674 0.744738 0.275486
O O16 0.031636 0.833748 0.361902
O O17 0.750000 0.301436 0.364076
O O18 0.250000 0.043685 0.538398
O O19 0.019291 0.087519 0.469190
O O20 0.000000 0.000000 0.540541
O O21 0.250000 0.390285 0.927140
#
# Coordination Sequence:
#
# PCOD8183505 Si02
#       8
#     8   8   8   8   8   8   8   8
#     4   9  16  31  53  74 101 139 178 219 269 324
#     4  10  20  33  51  77 107 134 168 215 266 321
#     4   9  20  37  55  77 110 145 181 228 280 330
#     4   9  17  32  54  77 101 133 175 220 266 324
#     4   9  17  32  56  80 107 147 187 222 274 338
#     4   9  18  33  53  80 110 144 183 227 280 332
#     4  11  24  41  59  81 112 151 194 239 287 338
#     4  10  20  37  58  80 109 145 186 228 274 333
#
# _framework density 19.145434999999999
#
# number of rings (size 3 to 8) (size 9 to 14) (size 15 to 20)
#    0.000    2.500    1.250    0.750    0.000    4.500 
#    0.000    5.625    0.000    0.000    0.000    0.000 
#    0.000    0.000    0.000    0.000    0.000    0.000 
#
# Total GULP energy -396576.312611 kJ/mol
# GULP energy per Si atom -12393.009769 kJ/mol
# Density = 1.910186 g / cm^3
# Si number density = 19.145435 Si / 1000 Ang^3
#
#
#
# Elastic Constant Matrix: (Units=GPa)
#
#
# Indices 1 2 3 4 5 6 
#
# 1 48.9492 21.1649 35.3435 0.0000 0.0000 0.0000
# 2 21.1649 52.2399 16.0365 0.0000 0.0000 0.0000
# 3 35.3435 16.0365 101.5264 0.0000 0.0000 0.0000
# 4 0.0000 0.0000 0.0000 22.6809 0.0000 0.0000
# 5 0.0000 0.0000 0.0000 0.0000 28.7825 0.0000
# 6 0.0000 0.0000 0.0000 0.0000 0.0000 19.3355
#
#
#
# Elastic Compliance Matrix: (Units=1/GPa)
#
#
# Indices 1 2 3 4 5 6 
#
# 1 0.031486 -0.009870 -0.009402 0.000000 0.000000 0.000000
# 2 -0.009870 0.023212 -0.000230 0.000000 0.000000 0.000000
# 3 -0.009402 -0.000230 0.013159 0.000000 0.000000 0.000000
# 4 0.000000 0.000000 0.000000 0.044090 0.000000 0.000000
# 5 0.000000 0.000000 0.000000 0.000000 0.034743 0.000000
# 6 0.000000 0.000000 0.000000 0.000000 0.000000 0.051718
#
#
# Mechanical properties :
#
#
# Convention : Reuss Voigt Hill
#
# Bulk Modulus (GPa) = 34.65976 38.64504 36.65240
# Shear Modulus (GPa) = 20.24040 22.83779 21.53910
#
# Velocity S-wave (km/s) = 3.25498 3.45753 3.35778
# Velocity P-wave (km/s) = 5.68060 6.01399 5.84967
#
# Compressibility (1/GPa) = 0.02885190
#
# Stress axis : x y z
#
# Youngs Moduli (GPa) = 31.76055 43.08101 75.99360
#
# Poissons Ratio (x) = 0.42522 0.71447
# Poissons Ratio (y) = 0.31348 0.01751
# Poissons Ratio (z) = 0.29861 0.00993
#
# Static dielectric constant tensor:
#      x y z
#    x 3.556490 0.000000 0.000000 
#    y 0.000000 3.594840 0.000000 
#    z 0.000000 0.000000 3.620970 
# 
# 
# High freq. dielectric constant tensor:
#      x y z
#    x 1.724050 0.000000 0.000000 
#    y 0.000000 1.743550 0.000000 
#    z 0.000000 0.000000 1.746060 
# 
# From -- ./inp_files/10551.got.cif
#   From: 2010.03.12/outbox.cif.g09.slc.cpg/sg40_6_cif.got.tgz:10551.got - 2010.04.14 01:38:03.
