data_PCOD8183055
_publ_section_title
;
Structure prediction by ZEFSAII (Michael W. Deem and Ramdas Pophale) SiO2 
 PCOD8183055
Probable space group: A M A 2
;
_chemical_formula_sum "Si O2"
_cell_formula_units_Z 64
_cell_length_a 8.853067
_cell_length_b 20.718216
_cell_length_c 19.333106
_cell_angle_alpha 90.000000
_cell_angle_beta 90.000000
_cell_angle_gamma 90.000000
_cell_volume 3546.073554
_symmetry_space_group_name_H-M "A M A 2"
_symmetry_group_IT_number 40
_symmetry_cell_setting 'orthorhombic'
loop_
_space_group_symop_operation_xyz
x,y,z
-x,-y,z
1/2-x,y,z
1/2+x,-y,z
x,1/2+y,1/2+z
-x,1/2-y,1/2+z
1/2-x,1/2+y,1/2+z
1/2+x,1/2-y,1/2+z
loop_
_atom_site_type_symbol
_atom_site_label
_atom_site_fract_x
_atom_site_fract_y
_atom_site_fract_z
Si Si1 0.072831 0.566512 0.527900
Si Si2 0.575130 0.817956 0.528959
Si Si3 0.424465 0.125071 0.169412
Si Si4 0.576161 0.257980 0.168001
Si Si5 0.572369 0.686081 0.450398
Si Si6 0.571926 0.064950 0.452590
Si Si7 0.070983 0.620253 0.822345
Si Si8 0.072000 0.742064 0.323278
O O1 0.250000 0.567014 0.511299
O O2 0.041225 0.572702 0.610307
O O3 0.000000 0.500000 0.502010
O O4 0.993614 0.624716 0.489026
O O5 0.750000 0.835228 0.515554
O O6 0.537803 0.812466 0.610995
O O7 0.532796 0.750454 0.492994
O O8 0.472260 0.874411 0.499477
O O9 0.250000 0.139939 0.176951
O O10 0.494818 0.192494 0.147109
O O11 0.482585 0.100928 0.244605
O O12 0.750000 0.239541 0.163209
O O13 0.534761 0.282056 0.245222
O O14 0.750000 0.677047 0.440523
O O15 0.491438 0.688619 0.375629
O O16 0.750000 0.058157 0.450871
O O17 0.509695 0.071790 0.374675
O O18 0.500000 0.000000 0.484757
O O19 0.250000 0.616199 0.833262
O O20 0.016776 0.692305 0.839579
O O21 0.250000 0.753235 0.334190
#
# Coordination Sequence:
#
# PCOD8183055 Si02
#       8
#     8   8   8   8   8   8   8   8
#     4  11  23  38  55  79 112 148 189 232 277 330
#     4  10  20  36  58  83 112 144 183 227 275 327
#     4   9  19  33  52  78 110 146 184 226 268 321
#     4   9  18  33  55  82 111 143 179 225 274 323
#     4  11  21  35  58  83 112 148 184 227 278 326
#     4  12  25  39  56  79 110 148 188 230 277 329
#     4  10  19  34  53  78 112 148 186 225 269 321
#     4  10  19  32  54  84 113 143 183 227 275 324
#
# _framework density 18.048131000000001
#
# number of rings (size 3 to 8) (size 9 to 14) (size 15 to 20)
#    0.000    1.750    2.500    2.625    0.000    3.000 
#    0.000    1.250    0.000    0.750    0.000    3.500 
#    0.000    0.000    0.000    0.000    0.000    0.000 
#
# Total GULP energy -396802.578360 kJ/mol
# GULP energy per Si atom -12400.080574 kJ/mol
# Density = 1.800705 g / cm^3
# Si number density = 18.048131 Si / 1000 Ang^3
#
#
#
# Elastic Constant Matrix: (Units=GPa)
#
#
# Indices 1 2 3 4 5 6 
#
# 1 86.3724 48.7957 38.1504 0.0000 0.0000 0.0000
# 2 48.7957 101.7932 43.6298 0.0000 0.0000 0.0000
# 3 38.1504 43.6298 88.6500 0.0000 0.0000 0.0000
# 4 0.0000 0.0000 0.0000 20.7135 0.0000 0.0000
# 5 0.0000 0.0000 0.0000 0.0000 37.6990 0.0000
# 6 0.0000 0.0000 0.0000 0.0000 0.0000 29.2031
#
#
#
# Elastic Compliance Matrix: (Units=1/GPa)
#
#
# Indices 1 2 3 4 5 6 
#
# 1 0.017026 -0.006363 -0.004195 0.000000 0.000000 0.000000
# 2 -0.006363 0.014828 -0.004559 0.000000 0.000000 0.000000
# 3 -0.004195 -0.004559 0.015330 0.000000 0.000000 0.000000
# 4 0.000000 0.000000 0.000000 0.048278 0.000000 0.000000
# 5 0.000000 0.000000 0.000000 0.000000 0.026526 0.000000
# 6 0.000000 0.000000 0.000000 0.000000 0.000000 0.034243
#
#
# Mechanical properties :
#
#
# Convention : Reuss Voigt Hill
#
# Bulk Modulus (GPa) = 59.00478 59.77414 59.38946
# Shear Modulus (GPa) = 26.02599 27.27244 26.64922
#
# Velocity S-wave (km/s) = 3.80153 3.89150 3.84678
# Velocity P-wave (km/s) = 7.21338 7.30636 7.26002
#
# Compressibility (1/GPa) = 0.01694778
#
# Stress axis : x y z
#
# Youngs Moduli (GPa) = 58.73463 67.43810 65.23286
#
# Poissons Ratio (x) = 0.42913 0.27367
# Poissons Ratio (y) = 0.37375 0.29743
# Poissons Ratio (z) = 0.24640 0.30748
#
# Static dielectric constant tensor:
#      x y z
#    x 3.072100 0.000000 0.000000 
#    y 0.000000 3.086840 0.000000 
#    z 0.000000 0.000000 3.752710 
# 
# 
# High freq. dielectric constant tensor:
#      x y z
#    x 1.708960 0.000000 0.000000 
#    y 0.000000 1.671110 0.000000 
#    z 0.000000 0.000000 1.705480 
# 
# From -- ./inp_files/19597.got.cif
#   From: 2010.03.12/outbox.cif.g09.slc.cpg/sg40_10_cif.got.tgz:19597.got - 2010.04.14 01:38:03.
