data_PCOD8183309
_publ_section_title
;
Structure prediction by ZEFSAII (Michael W. Deem and Ramdas Pophale) SiO2 
 PCOD8183309
Probable space group: A M A 2
;
_chemical_formula_sum "Si O2"
_cell_formula_units_Z 60
_cell_length_a 14.241646
_cell_length_b 8.833263
_cell_length_c 25.819849
_cell_angle_alpha 90.000000
_cell_angle_beta 90.000000
_cell_angle_gamma 90.000000
_cell_volume 3248.142289
_symmetry_space_group_name_H-M "A M A 2"
_symmetry_group_IT_number 40
_symmetry_cell_setting 'orthorhombic'
loop_
_space_group_symop_operation_xyz
x,y,z
-x,-y,z
1/2-x,y,z
1/2+x,-y,z
x,1/2+y,1/2+z
-x,1/2-y,1/2+z
1/2-x,1/2+y,1/2+z
1/2+x,1/2-y,1/2+z
loop_
_atom_site_type_symbol
_atom_site_label
_atom_site_fract_x
_atom_site_fract_y
_atom_site_fract_z
Si Si1 0.500000 0.500000 0.333271
Si Si2 0.353655 0.901561 0.566047
Si Si3 0.352882 0.180870 0.768881
Si Si4 0.859910 0.819018 0.494404
Si Si5 0.959398 0.297048 0.885312
Si Si6 0.084869 0.601476 0.159080
Si Si7 0.518235 0.674947 0.576314
Si Si8 0.359184 0.432781 0.845380
O O1 0.423231 0.569352 0.296165
O O2 0.549951 0.622721 0.369726
O O3 0.250000 0.833206 0.560562
O O4 0.423682 0.762039 0.559963
O O5 0.376576 0.018004 0.520208
O O6 0.358030 0.992319 0.620381
O O7 0.250000 0.130162 0.786994
O O8 0.356526 0.166183 0.707014
O O9 0.369718 0.354214 0.788686
O O10 0.750000 0.783816 0.485996
O O11 0.914988 0.821483 0.440993
O O12 0.903764 0.690230 0.531398
O O13 0.898298 0.395429 0.843666
O O14 0.070161 0.344822 0.885191
O O15 0.000000 0.500000 0.180976
O O16 0.052808 0.752199 0.129633
O O17 0.500000 0.500000 0.586509
O O18 0.250000 0.427589 0.864648
#
# Coordination Sequence:
#
# PCOD8183309 Si02
#       8
#     4   8   8   8   8   8   8   8
#     4  10  22  38  56  84 116 152 186 238 282 332
#     4   9  19  36  59  86 112 148 192 230 275 344
#     4  10  19  35  58  84 115 152 191 232 281 334
#     4  10  21  37  60  83 111 152 195 230 280 342
#     4  10  21  37  58  82 114 154 186 239 279 338
#     4   9  17  35  59  82 113 151 187 227 283 339
#     4  10  22  37  56  86 117 146 186 241 290 340
#     4   9  20  36  55  82 114 150 193 235 277 329
#
# _framework density 18.472097000000002
#
# number of rings (size 3 to 8) (size 9 to 14) (size 15 to 20)
#    0.000    2.400    0.667    2.000    4.667    2.133 
#    4.800    0.000    0.000    1.600    0.000    0.000 
#    0.000    0.000    0.000    0.000    0.000    0.000 
#
# Total GULP energy -371816.463304 kJ/mol
# GULP energy per Si atom -12393.882110 kJ/mol
# Density = 1.843005 g / cm^3
# Si number density = 18.472097 Si / 1000 Ang^3
#
#
#
# Elastic Constant Matrix: (Units=GPa)
#
#
# Indices 1 2 3 4 5 6 
#
# 1 127.0059 49.0916 49.1202 0.0000 0.0000 0.0000
# 2 49.0916 127.0846 46.9999 0.0000 0.0000 0.0000
# 3 49.1202 46.9999 106.8365 0.0000 0.0000 0.0000
# 4 0.0000 0.0000 0.0000 16.8094 0.0000 0.0000
# 5 0.0000 0.0000 0.0000 0.0000 37.9144 0.0000
# 6 0.0000 0.0000 0.0000 0.0000 0.0000 20.7796
#
#
#
# Elastic Compliance Matrix: (Units=1/GPa)
#
#
# Indices 1 2 3 4 5 6 
#
# 1 0.010275 -0.002654 -0.003557 0.000000 0.000000 0.000000
# 2 -0.002654 0.010083 -0.003216 0.000000 0.000000 0.000000
# 3 -0.003557 -0.003216 0.012410 0.000000 0.000000 0.000000
# 4 0.000000 0.000000 0.000000 0.059490 0.000000 0.000000
# 5 0.000000 0.000000 0.000000 0.000000 0.026375 0.000000
# 6 0.000000 0.000000 0.000000 0.000000 0.000000 0.048124
#
#
# Mechanical properties :
#
#
# Convention : Reuss Voigt Hill
#
# Bulk Modulus (GPa) = 71.86035 72.37227 72.11631
# Shear Modulus (GPa) = 26.28136 29.48170 27.88153
#
# Velocity S-wave (km/s) = 3.77604 3.99935 3.88930
# Velocity P-wave (km/s) = 7.61563 7.78400 7.70028
#
# Compressibility (1/GPa) = 0.01391588
#
# Stress axis : x y z
#
# Youngs Moduli (GPa) = 97.32388 99.17516 80.58012
#
# Poissons Ratio (x) = 0.26319 0.28660
# Poissons Ratio (y) = 0.25827 0.25912
# Poissons Ratio (z) = 0.34615 0.31892
#
# Static dielectric constant tensor:
#      x y z
#    x 3.570250 0.000000 0.000000 
#    y 0.000000 3.365170 0.000000 
#    z 0.000000 0.000000 3.309940 
# 
# 
# High freq. dielectric constant tensor:
#      x y z
#    x 1.731070 0.000000 0.000000 
#    y 0.000000 1.702640 0.000000 
#    z 0.000000 0.000000 1.707890 
# 
# From -- ./inp_files/24763.got.cif
#   From: 2010.03.12/outbox.cif.g09.slc.cpg/sg40_13_cif.got.tgz:24763.got - 2010.04.14 01:38:03.
