data_PCOD8183447
_publ_section_title
;
Structure prediction by ZEFSAII (Michael W. Deem and Ramdas Pophale) SiO2 
 PCOD8183447
Probable space group: A M A 2
;
_chemical_formula_sum "Si O2"
_cell_formula_units_Z 48
_cell_length_a 15.738540
_cell_length_b 8.809430
_cell_length_c 18.925446
_cell_angle_alpha 90.000000
_cell_angle_beta 90.000000
_cell_angle_gamma 90.000000
_cell_volume 2623.967032
_symmetry_space_group_name_H-M "A M A 2"
_symmetry_group_IT_number 40
_symmetry_cell_setting 'orthorhombic'
loop_
_space_group_symop_operation_xyz
x,y,z
-x,-y,z
1/2-x,y,z
1/2+x,-y,z
x,1/2+y,1/2+z
-x,1/2-y,1/2+z
1/2-x,1/2+y,1/2+z
1/2+x,1/2-y,1/2+z
loop_
_atom_site_type_symbol
_atom_site_label
_atom_site_fract_x
_atom_site_fract_y
_atom_site_fract_z
Si Si1 0.918292 0.605047 0.262470
Si Si2 0.008537 0.821391 0.364285
Si Si3 0.497624 0.819292 0.525525
Si Si4 0.155483 0.693201 0.115212
Si Si5 0.845116 0.665230 0.118425
Si Si6 0.656006 0.302958 0.276298
O O1 0.936234 0.729483 0.322393
O O2 0.884747 0.698954 0.195367
O O3 0.847723 0.485297 0.288819
O O4 0.000000 0.500000 0.242845
O O5 0.002912 0.765610 0.444807
O O6 0.099583 0.784582 0.332271
O O7 0.000000 0.000000 0.357338
O O8 0.581183 0.746162 0.563270
O O9 0.410027 0.760826 0.561673
O O10 0.500000 0.000000 0.532183
O O11 0.250000 0.759587 0.096366
O O12 0.161242 0.513491 0.107608
O O13 0.129889 0.736701 0.195467
O O14 0.750000 0.736688 0.111024
O O15 0.750000 0.245806 0.291729
#
# Coordination Sequence:
#
# PCOD8183447 Si02
#       6
#     8   8   8   8   8   8
#     4   9  16  30  51  71  91 122 165 205 240 279
#     4  10  20  31  46  72 105 136 156 184 243 304
#     4   9  16  27  42  66  99 125 151 192 241 289
#     4   8  14  27  49  71  87 113 160 211 246 270
#     4   9  15  25  46  72  92 115 156 207 244 271
#     4   9  17  32  54  74  92 121 166 211 242 277
#
# _framework density 18.292912999999999
#
# number of rings (size 3 to 8) (size 9 to 14) (size 15 to 20)
#    0.000    3.000    0.000    5.000    0.000    0.667 
#    0.000    5.833    0.000   12.000    0.000    0.000 
#    0.000    0.000    0.000    0.000    0.000    0.000 
#
# Total GULP energy -297400.499686 kJ/mol
# GULP energy per Si atom -12391.687487 kJ/mol
# Density = 1.825128 g / cm^3
# Si number density = 18.292913 Si / 1000 Ang^3
#
#
#
# Elastic Constant Matrix: (Units=GPa)
#
#
# Indices 1 2 3 4 5 6 
#
# 1 139.1254 16.2007 95.6686 0.0000 0.0000 0.0000
# 2 16.2007 31.8383 39.0145 0.0000 0.0000 0.0000
# 3 95.6686 39.0145 158.3428 0.0000 0.0000 0.0000
# 4 0.0000 0.0000 0.0000 22.7760 0.0000 0.0000
# 5 0.0000 0.0000 0.0000 0.0000 15.8016 0.0000
# 6 0.0000 0.0000 0.0000 0.0000 0.0000 13.1546
#
#
#
# Elastic Compliance Matrix: (Units=1/GPa)
#
#
# Indices 1 2 3 4 5 6 
#
# 1 0.012678 0.004205 -0.008696 0.000000 0.000000 0.000000
# 2 0.004205 0.046388 -0.013970 0.000000 0.000000 0.000000
# 3 -0.008696 -0.013970 0.015011 0.000000 0.000000 0.000000
# 4 0.000000 0.000000 0.000000 0.043906 0.000000 0.000000
# 5 0.000000 0.000000 0.000000 0.000000 0.063285 0.000000
# 6 0.000000 0.000000 0.000000 0.000000 0.000000 0.076019
#
#
# Mechanical properties :
#
#
# Convention : Reuss Voigt Hill
#
# Bulk Modulus (GPa) = 26.91441 70.11936 48.51689
# Shear Modulus (GPa) = 16.30825 22.24131 19.27478
#
# Velocity S-wave (km/s) = 2.98905 3.49068 3.24956
# Velocity P-wave (km/s) = 5.16309 7.39331 6.37646
#
# Compressibility (1/GPa) = 0.03715482
#
# Stress axis : x y z
#
# Youngs Moduli (GPa) = 78.87898 21.55734 66.61640
#
# Poissons Ratio (x) = -0.09064 0.57927
# Poissons Ratio (y) = -0.33166 0.93063
# Poissons Ratio (z) = 0.68590 0.30116
#
# Static dielectric constant tensor:
#      x y z
#    x 3.915360 0.000000 0.000000 
#    y 0.000000 2.810370 0.000000 
#    z 0.000000 0.000000 3.392720 
# 
# 
# High freq. dielectric constant tensor:
#      x y z
#    x 1.723100 0.000000 0.000000 
#    y 0.000000 1.646900 0.000000 
#    z 0.000000 0.000000 1.704650 
# 
# From -- ./inp_files/22985.got.cif
#   From: 2010.03.12/outbox.cif.g09.slc.cpg/sg40_12_cif.got.tgz:22985.got - 2010.04.14 01:38:03.
