data_PCOD8183089
_publ_section_title
;
Structure prediction by ZEFSAII (Michael W. Deem and Ramdas Pophale) SiO2 
 PCOD8183089
Probable space group: A M A 2
;
_chemical_formula_sum "Si O2"
_cell_formula_units_Z 64
_cell_length_a 8.957763
_cell_length_b 14.535261
_cell_length_c 27.340696
_cell_angle_alpha 90.000000
_cell_angle_beta 90.000000
_cell_angle_gamma 90.000000
_cell_volume 3559.852211
_symmetry_space_group_name_H-M "A M A 2"
_symmetry_group_IT_number 40
_symmetry_cell_setting 'orthorhombic'
loop_
_space_group_symop_operation_xyz
x,y,z
-x,-y,z
1/2-x,y,z
1/2+x,-y,z
x,1/2+y,1/2+z
-x,1/2-y,1/2+z
1/2-x,1/2+y,1/2+z
1/2+x,1/2-y,1/2+z
loop_
_atom_site_type_symbol
_atom_site_label
_atom_site_fract_x
_atom_site_fract_y
_atom_site_fract_z
Si Si1 0.427068 0.591836 0.899420
Si Si2 0.916095 0.147005 0.961709
Si Si3 0.073680 0.594977 0.173235
Si Si4 0.577217 0.907980 0.784080
Si Si5 0.074451 0.221263 0.871309
Si Si6 0.413362 0.150800 0.503215
Si Si7 0.075699 0.288248 0.093944
Si Si8 0.574284 0.411163 0.555348
O O1 0.500000 0.500000 0.876415
O O2 0.250000 0.593631 0.891057
O O3 0.497869 0.679215 0.872340
O O4 0.468034 0.590125 0.957348
O O5 0.750000 0.104607 0.953661
O O6 0.005738 0.150894 0.910873
O O7 0.898431 0.248015 0.982399
O O8 0.009342 0.088024 0.000434
O O9 0.250000 0.587409 0.166782
O O10 0.024876 0.615512 0.228998
O O11 0.000000 0.500000 0.154857
O O12 0.012927 0.679907 0.141633
O O13 0.750000 0.930829 0.784771
O O14 0.539633 0.821195 0.818192
O O15 0.500000 0.000000 0.804058
O O16 0.250000 0.232116 0.881597
O O17 0.250000 0.118123 0.522201
O O18 0.530122 0.147583 0.547765
O O19 0.250000 0.300562 0.102754
O O20 0.031955 0.181917 0.084302
O O21 0.500000 0.500000 0.582242
O O22 0.750000 0.423857 0.552765
#
# Coordination Sequence:
#
# PCOD8183089 Si02
#       8
#     8   8   8   8   8   8   8   8
#     4  10  20  33  50  74 103 138 176 211 251 296
#     4   9  17  30  47  69  98 131 168 205 244 289
#     4  10  20  36  56  77 101 128 161 203 253 305
#     4   9  20  36  55  78 101 128 162 203 252 304
#     4  10  19  33  52  75 104 135 170 210 252 300
#     4   8  16  30  46  66  95 130 166 202 240 285
#     4  10  20  33  51  76 103 132 168 208 251 299
#     4  10  20  33  50  73 103 138 174 210 249 294
#
# _framework density 17.978273999999999
#
# number of rings (size 3 to 8) (size 9 to 14) (size 15 to 20)
#    0.000    2.500    0.000    3.000    0.000    7.500 
#    0.000    2.500    0.000    0.750    0.000    1.750 
#    0.000    0.000    0.000    0.000    0.000    0.000 
#
# Total GULP energy -396715.728826 kJ/mol
# GULP energy per Si atom -12397.366526 kJ/mol
# Density = 1.793735 g / cm^3
# Si number density = 17.978274 Si / 1000 Ang^3
#
#
#
# Elastic Constant Matrix: (Units=GPa)
#
#
# Indices 1 2 3 4 5 6 
#
# 1 106.0585 58.3267 49.6697 0.0000 0.0000 0.0000
# 2 58.3267 106.2673 51.5456 0.0000 0.0000 0.0000
# 3 49.6697 51.5456 85.0711 0.0000 0.0000 0.0000
# 4 0.0000 0.0000 0.0000 20.8937 0.0000 0.0000
# 5 0.0000 0.0000 0.0000 0.0000 25.3503 0.0000
# 6 0.0000 0.0000 0.0000 0.0000 0.0000 29.9618
#
#
#
# Elastic Compliance Matrix: (Units=1/GPa)
#
#
# Indices 1 2 3 4 5 6 
#
# 1 0.015052 -0.005663 -0.005357 0.000000 0.000000 0.000000
# 2 -0.005663 0.015458 -0.006060 0.000000 0.000000 0.000000
# 3 -0.005357 -0.006060 0.018554 0.000000 0.000000 0.000000
# 4 0.000000 0.000000 0.000000 0.047861 0.000000 0.000000
# 5 0.000000 0.000000 0.000000 0.000000 0.039447 0.000000
# 6 0.000000 0.000000 0.000000 0.000000 0.000000 0.033376
#
#
# Mechanical properties :
#
#
# Convention : Reuss Voigt Hill
#
# Bulk Modulus (GPa) = 67.09311 68.49788 67.79550
# Shear Modulus (GPa) = 23.93770 24.43149 24.18460
#
# Velocity S-wave (km/s) = 3.65290 3.69039 3.67169
# Velocity P-wave (km/s) = 7.42911 7.50611 7.46771
#
# Compressibility (1/GPa) = 0.01490466
#
# Stress axis : x y z
#
# Youngs Moduli (GPa) = 66.43661 64.69230 53.89648
#
# Poissons Ratio (x) = 0.36636 0.28872
# Poissons Ratio (y) = 0.37624 0.32659
# Poissons Ratio (z) = 0.35589 0.39201
#
# Static dielectric constant tensor:
#      x y z
#    x 3.464590 0.000000 0.000000 
#    y 0.000000 3.331150 0.000000 
#    z 0.000000 0.000000 3.288950 
# 
# 
# High freq. dielectric constant tensor:
#      x y z
#    x 1.710660 0.000000 0.000000 
#    y 0.000000 1.690400 0.000000 
#    z 0.000000 0.000000 1.669010 
# 
# From -- ./inp_files/24293.got.cif
#   From: 2010.03.12/outbox.cif.g09.slc.cpg/sg40_13_cif.got.tgz:24293.got - 2010.04.14 01:38:03.
