data_PCOD8183370
_publ_section_title
;
Structure prediction by ZEFSAII (Michael W. Deem and Ramdas Pophale) SiO2 
 PCOD8183370
Probable space group: A M A 2
;
_chemical_formula_sum "Si O2"
_cell_formula_units_Z 48
_cell_length_a 10.099681
_cell_length_b 8.768307
_cell_length_c 27.824342
_cell_angle_alpha 90.000000
_cell_angle_beta 90.000000
_cell_angle_gamma 90.000000
_cell_volume 2464.043137
_symmetry_space_group_name_H-M "A M A 2"
_symmetry_group_IT_number 40
_symmetry_cell_setting 'orthorhombic'
loop_
_space_group_symop_operation_xyz
x,y,z
-x,-y,z
1/2-x,y,z
1/2+x,-y,z
x,1/2+y,1/2+z
-x,1/2-y,1/2+z
1/2-x,1/2+y,1/2+z
1/2+x,1/2-y,1/2+z
loop_
_atom_site_type_symbol
_atom_site_label
_atom_site_fract_x
_atom_site_fract_y
_atom_site_fract_z
Si Si1 0.490286 0.319768 0.001540
Si Si2 0.511977 0.179805 0.216582
Si Si3 0.097385 0.137950 0.804400
Si Si4 0.250000 0.328408 0.543892
Si Si5 0.596992 0.860642 0.914096
Si Si6 0.750000 0.678545 0.653943
Si Si7 0.750000 0.810035 0.058743
Si Si8 0.750000 0.317427 0.668227
O O1 0.500000 0.500000 0.005534
O O2 0.624883 0.234736 0.015226
O O3 0.381076 0.262732 0.038072
O O4 0.446612 0.279827 0.947289
O O5 0.551638 0.224487 0.270540
O O6 0.620168 0.245671 0.179485
O O7 0.373650 0.248265 0.198222
O O8 0.500000 0.000000 0.215407
O O9 0.250000 0.090701 0.794857
O O10 0.079367 0.192881 0.859192
O O11 0.000000 0.000000 0.792386
O O12 0.250000 0.269147 0.598699
O O13 0.250000 0.511064 0.546220
O O14 0.750000 0.908049 0.924496
O O15 0.500000 0.000000 0.926278
O O16 0.750000 0.498762 0.662924
O O17 0.750000 0.759010 0.113992
#
# Coordination Sequence:
#
# PCOD8183370 Si02
#       8
#     8   8   8   4   8   4   4   4
#     4  12  25  40  60  93 129 155 193 258 316 356
#     4  10  19  36  61  88 118 155 199 249 297 345
#     4  10  22  40  61  88 121 156 197 247 297 358
#     4  11  23  39  68  89 116 167 212 245 292 363
#     4  10  22  42  66  88 115 158 208 249 295 369
#     4   9  18  37  58  87 116 155 208 249 282 345
#     4  11  21  43  64  87 118 165 216 245 288 365
#     4   9  20  33  60  89 116 151 206 253 282 343
#
# _framework density 19.480177999999999
#
# number of rings (size 3 to 8) (size 9 to 14) (size 15 to 20)
#    0.000    1.667    1.667    3.000    2.333    3.333 
#    0.000    5.000    0.000    0.000    0.000    0.000 
#    0.000    0.000    0.000    0.000    0.000    0.000 
#
# Total GULP energy -297574.373068 kJ/mol
# GULP energy per Si atom -12398.932211 kJ/mol
# Density = 1.943584 g / cm^3
# Si number density = 19.480178 Si / 1000 Ang^3
#
#
#
# Elastic Constant Matrix: (Units=GPa)
#
#
# Indices 1 2 3 4 5 6 
#
# 1 185.3669 47.4016 72.0108 0.0000 0.0000 0.0000
# 2 47.4016 77.5260 41.2201 0.0000 0.0000 0.0000
# 3 72.0108 41.2201 130.8285 0.0000 0.0000 0.0000
# 4 0.0000 0.0000 0.0000 28.9290 0.0000 0.0000
# 5 0.0000 0.0000 0.0000 0.0000 123.9170 0.0000
# 6 0.0000 0.0000 0.0000 0.0000 0.0000 23.5839
#
#
#
# Elastic Compliance Matrix: (Units=1/GPa)
#
#
# Indices 1 2 3 4 5 6 
#
# 1 0.007339 -0.002810 -0.003154 0.000000 0.000000 0.000000
# 2 -0.002810 0.016571 -0.003674 0.000000 0.000000 0.000000
# 3 -0.003154 -0.003674 0.010537 0.000000 0.000000 0.000000
# 4 0.000000 0.000000 0.000000 0.034567 0.000000 0.000000
# 5 0.000000 0.000000 0.000000 0.000000 0.008070 0.000000
# 6 0.000000 0.000000 0.000000 0.000000 0.000000 0.042402
#
#
# Mechanical properties :
#
#
# Convention : Reuss Voigt Hill
#
# Bulk Modulus (GPa) = 65.91953 79.44291 72.68122
# Shear Modulus (GPa) = 34.76609 50.82524 42.79567
#
# Velocity S-wave (km/s) = 4.22914 5.11345 4.69218
# Velocity P-wave (km/s) = 7.60002 8.70248 8.16987
#
# Compressibility (1/GPa) = 0.01517001
#
# Stress axis : x y z
#
# Youngs Moduli (GPa) = 136.26749 60.34790 94.90197
#
# Poissons Ratio (x) = 0.16958 0.29931
# Poissons Ratio (y) = 0.38292 0.34869
# Poissons Ratio (z) = 0.42977 0.22173
#
# Static dielectric constant tensor:
#      x y z
#    x 2.230010 0.000000 0.000000 
#    y 0.000000 3.211630 0.000000 
#    z 0.000000 0.000000 3.732050 
# 
# 
# High freq. dielectric constant tensor:
#      x y z
#    x 1.784370 0.000000 0.000000 
#    y 0.000000 1.725310 0.000000 
#    z 0.000000 0.000000 1.774840 
# 
# From -- ./inp_files/26222.got.cif
#   From: 2010.03.12/outbox.cif.g09.slc.cpg/sg40_14_cif.got.tgz:26222.got - 2010.04.14 01:38:03.
