data_PCOD8183333
_publ_section_title
;
Structure prediction by ZEFSAII (Michael W. Deem and Ramdas Pophale) SiO2 
 PCOD8183333
Probable space group: A M A 2
;
_chemical_formula_sum "Si O2"
_cell_formula_units_Z 64
_cell_length_a 8.651973
_cell_length_b 23.616567
_cell_length_c 15.351197
_cell_angle_alpha 90.000000
_cell_angle_beta 90.000000
_cell_angle_gamma 90.000000
_cell_volume 3136.708548
_symmetry_space_group_name_H-M "A M A 2"
_symmetry_group_IT_number 40
_symmetry_cell_setting 'orthorhombic'
loop_
_space_group_symop_operation_xyz
x,y,z
-x,-y,z
1/2-x,y,z
1/2+x,-y,z
x,1/2+y,1/2+z
-x,1/2-y,1/2+z
1/2-x,1/2+y,1/2+z
1/2+x,1/2-y,1/2+z
loop_
_atom_site_type_symbol
_atom_site_label
_atom_site_fract_x
_atom_site_fract_y
_atom_site_fract_z
Si Si1 0.433272 0.877373 0.532660
Si Si2 0.567709 0.244187 0.473396
Si Si3 0.572066 0.135951 0.224738
Si Si4 0.931270 0.939794 0.369571
Si Si5 0.568456 0.258438 0.280610
Si Si6 0.928519 0.144322 0.031463
Si Si7 0.933471 0.560703 0.380181
Si Si8 0.066468 0.122037 0.716052
O O1 0.250000 0.879098 0.539551
O O2 0.497549 0.814260 0.512970
O O3 0.486347 0.919264 0.457010
O O4 0.505867 0.898832 0.622863
O O5 0.750000 0.239206 0.467773
O O6 0.496028 0.253004 0.377145
O O7 0.520217 0.296791 0.532740
O O8 0.750000 0.127827 0.254973
O O9 0.462250 0.102121 0.289311
O O10 0.526695 0.202365 0.226619
O O11 0.546743 0.114838 0.125690
O O12 0.750000 0.944120 0.386114
O O13 0.000000 0.000000 0.342557
O O14 0.750000 0.266771 0.289034
O O15 0.501173 0.314384 0.233706
O O16 0.750000 0.158859 0.016537
O O17 0.991160 0.103158 0.956086
O O18 0.750000 0.558071 0.375818
O O19 0.000000 0.500000 0.405236
O O20 0.000446 0.579795 0.288038
O O21 0.250000 0.118996 0.718218
#
# Coordination Sequence:
#
# PCOD8183333 Si02
#       8
#     8   8   8   8   8   8   8   8
#     4  11  23  41  64  92 127 162 199 248 302 359
#     4  10  19  35  61  91 124 164 201 242 300 360
#     4  10  20  40  64  90 126 163 199 245 303 359
#     4  12  26  44  65  90 119 158 206 254 303 359
#     4   9  17  33  60  90 124 163 197 239 300 359
#     4  10  22  38  62  93 125 160 201 252 304 359
#     4  11  24  42  61  87 119 159 208 256 306 358
#     4  11  22  39  64  93 124 161 203 248 301 361
#
# _framework density 20.403552000000001
#
# number of rings (size 3 to 8) (size 9 to 14) (size 15 to 20)
#    0.000    1.500    2.500    3.000    0.000    4.000 
#    0.000    5.000    0.000    0.000    0.000    0.000 
#    0.000    0.000    0.000    0.000    0.000    0.000 
#
# Total GULP energy -396914.905080 kJ/mol
# GULP energy per Si atom -12403.590784 kJ/mol
# Density = 2.035711 g / cm^3
# Si number density = 20.403552 Si / 1000 Ang^3
#
#
#
# Elastic Constant Matrix: (Units=GPa)
#
#
# Indices 1 2 3 4 5 6 
#
# 1 57.0435 21.6616 18.0551 0.0000 0.0000 0.0000
# 2 21.6616 77.4192 14.0385 0.0000 0.0000 0.0000
# 3 18.0551 14.0385 114.8869 0.0000 0.0000 0.0000
# 4 0.0000 0.0000 0.0000 14.2015 0.0000 0.0000
# 5 0.0000 0.0000 0.0000 0.0000 28.0726 0.0000
# 6 0.0000 0.0000 0.0000 0.0000 0.0000 30.8459
#
#
#
# Elastic Compliance Matrix: (Units=1/GPa)
#
#
# Indices 1 2 3 4 5 6 
#
# 1 0.020323 -0.005223 -0.002556 0.000000 0.000000 0.000000
# 2 -0.005223 0.014552 -0.000957 0.000000 0.000000 0.000000
# 3 -0.002556 -0.000957 0.009223 0.000000 0.000000 0.000000
# 4 0.000000 0.000000 0.000000 0.070415 0.000000 0.000000
# 5 0.000000 0.000000 0.000000 0.000000 0.035622 0.000000
# 6 0.000000 0.000000 0.000000 0.000000 0.000000 0.032419
#
#
# Mechanical properties :
#
#
# Convention : Reuss Voigt Hill
#
# Bulk Modulus (GPa) = 37.55784 39.65112 38.60448
# Shear Modulus (GPa) = 23.93490 27.66361 25.79926
#
# Velocity S-wave (km/s) = 3.42873 3.68615 3.55977
# Velocity P-wave (km/s) = 5.84144 6.13127 5.98811
#
# Compressibility (1/GPa) = 0.02662560
#
# Stress axis : x y z
#
# Youngs Moduli (GPa) = 49.20609 68.72090 108.42669
#
# Poissons Ratio (x) = 0.35892 0.27710
# Poissons Ratio (y) = 0.25699 0.10380
# Poissons Ratio (z) = 0.12575 0.06579
#
# Static dielectric constant tensor:
#      x y z
#    x 3.484910 0.000000 0.000000 
#    y 0.000000 3.734450 0.000000 
#    z 0.000000 0.000000 3.812470 
# 
# 
# High freq. dielectric constant tensor:
#      x y z
#    x 1.781820 0.000000 0.000000 
#    y 0.000000 1.795410 0.000000 
#    z 0.000000 0.000000 1.811040 
# 
# From -- ./inp_files/15693.got.cif
#   From: 2010.03.12/outbox.cif.g09.slc.cpg/sg40_8_cif.got.tgz:15693.got - 2010.04.14 01:38:03.
