data_PCOD8183706
_publ_section_title
;
Structure prediction by ZEFSAII (Michael W. Deem and Ramdas Pophale) SiO2 
 PCOD8183706
Probable space group: A M A 2
;
_chemical_formula_sum "Si O2"
_cell_formula_units_Z 64
_cell_length_a 14.968054
_cell_length_b 21.424462
_cell_length_c 10.037390
_cell_angle_alpha 90.000000
_cell_angle_beta 90.000000
_cell_angle_gamma 90.000000
_cell_volume 3218.815360
_symmetry_space_group_name_H-M "A M A 2"
_symmetry_group_IT_number 40
_symmetry_cell_setting 'orthorhombic'
loop_
_space_group_symop_operation_xyz
x,y,z
-x,-y,z
1/2-x,y,z
1/2+x,-y,z
x,1/2+y,1/2+z
-x,1/2-y,1/2+z
1/2-x,1/2+y,1/2+z
1/2+x,1/2-y,1/2+z
loop_
_atom_site_type_symbol
_atom_site_label
_atom_site_fract_x
_atom_site_fract_y
_atom_site_fract_z
Si Si1 0.350078 0.731185 0.752080
Si Si2 0.993210 0.810507 0.820652
Si Si3 0.968188 0.129596 0.564870
Si Si4 0.413130 0.540319 0.921962
Si Si5 0.649686 0.020616 0.672366
Si Si6 0.650474 0.723932 0.954331
Si Si7 0.560713 0.943509 0.906158
Si Si8 0.850763 0.899903 0.170381
O O1 0.250000 0.727588 0.817628
O O2 0.415801 0.770888 0.850768
O O3 0.340529 0.762994 0.609674
O O4 0.397365 0.663837 0.722901
O O5 0.904901 0.776020 0.873790
O O6 0.996476 0.880898 0.878376
O O7 0.990673 0.816473 0.659772
O O8 0.919140 0.078472 0.661625
O O9 0.900312 0.157168 0.453020
O O10 0.053394 0.104636 0.486027
O O11 0.500000 0.500000 0.893912
O O12 0.362642 0.547675 0.782718
O O13 0.345298 0.509120 0.025617
O O14 0.750000 0.042363 0.712375
O O15 0.614892 0.968327 0.776795
O O16 0.750000 0.719159 0.890592
O O17 0.500000 0.000000 0.957021
O O18 0.623778 0.927045 0.028376
O O19 0.750000 0.878750 0.153744
#
# Coordination Sequence:
#
# PCOD8183706 Si02
#       8
#     8   8   8   8   8   8   8   8
#     4   9  20  36  57  84 112 151 199 241 296 369
#     4  11  20  37  61  86 121 153 199 255 303 355
#     4  10  20  38  60  86 119 160 204 246 307 365
#     4  10  20  37  57  85 116 161 206 243 298 372
#     4  11  21  36  59  88 124 159 204 257 298 356
#     4  10  20  35  58  88 115 151 198 244 304 364
#     4  12  22  39  56  87 119 158 201 243 308 366
#     4  11  22  38  59  86 118 153 200 250 307 369
#
# _framework density 19.883091
#
# number of rings (size 3 to 8) (size 9 to 14) (size 15 to 20)
#    0.000    1.500    3.750    2.625    0.000    1.000 
#    0.000    0.000    0.000    3.000    0.000    0.000 
#    0.000    0.000    0.000    0.000    0.000    0.000 
#
# Total GULP energy -396464.747128 kJ/mol
# GULP energy per Si atom -12389.523348 kJ/mol
# Density = 1.983784 g / cm^3
# Si number density = 19.883091 Si / 1000 Ang^3
#
#
#
# Elastic Constant Matrix: (Units=GPa)
#
#
# Indices 1 2 3 4 5 6 
#
# 1 88.2124 27.1540 23.7967 0.0000 0.0000 0.0000
# 2 27.1540 94.1260 30.0887 0.0000 0.0000 0.0000
# 3 23.7967 30.0887 74.6836 0.0000 0.0000 0.0000
# 4 0.0000 0.0000 0.0000 -108.3553 0.0000 0.0000
# 5 0.0000 0.0000 0.0000 0.0000 20.9606 0.0000
# 6 0.0000 0.0000 0.0000 0.0000 0.0000 22.9089
#
#
#
# Elastic Compliance Matrix: (Units=1/GPa)
#
#
# Indices 1 2 3 4 5 6 
#
# 1 0.013010 -0.002787 -0.003022 0.000000 0.000000 0.000000
# 2 -0.002787 0.012792 -0.004265 0.000000 0.000000 0.000000
# 3 -0.003022 -0.004265 0.016071 0.000000 0.000000 0.000000
# 4 0.000000 0.000000 0.000000 -0.009229 0.000000 0.000000
# 5 0.000000 0.000000 0.000000 0.000000 0.047709 0.000000
# 6 0.000000 0.000000 0.000000 0.000000 0.000000 0.043651
#
#
# Mechanical properties :
#
#
# Convention : Reuss Voigt Hill
#
# Bulk Modulus (GPa) = 46.03472 46.56674 46.30073
# Shear Modulus (GPa) = 33.02643 -1.16499 15.93072
#
# Velocity S-wave (km/s) = 4.08000 -0.76628 2.83365
# Velocity P-wave (km/s) = 6.73781 4.76321 5.83465
#
# Compressibility (1/GPa) = 0.02172274
#
# Stress axis : x y z
#
# Youngs Moduli (GPa) = 76.86689 78.17665 62.22241
#
# Poissons Ratio (x) = 0.21787 0.18807
# Poissons Ratio (y) = 0.21422 0.26541
# Poissons Ratio (z) = 0.23233 0.33346
#
# Static dielectric constant tensor:
#      x y z
#    x 3.865060 0.000000 0.000000 
#    y 0.000000 5.997920 0.000000 
#    z 0.000000 0.000000 3.427190 
# 
# 
# High freq. dielectric constant tensor:
#      x y z
#    x 1.769490 0.000000 0.000000 
#    y 0.000000 1.784050 0.000000 
#    z 0.000000 0.000000 1.753490 
# 
# From -- ./inp_files/6867.got.cif
#   From: 2010.03.12/outbox.cif.g09.slc.cpg/sg40_4_cif.got.tgz:6867.got - 2010.04.14 01:38:03.
