data_PCOD8183707
_publ_section_title
;
Structure prediction by ZEFSAII (Michael W. Deem and Ramdas Pophale) SiO2 
 PCOD8183707
Probable space group: A M A 2
;
_chemical_formula_sum "Si O2"
_cell_formula_units_Z 48
_cell_length_a 8.816777
_cell_length_b 22.668249
_cell_length_c 11.460505
_cell_angle_alpha 90.000000
_cell_angle_beta 90.000000
_cell_angle_gamma 90.000000
_cell_volume 2290.506803
_symmetry_space_group_name_H-M "A M A 2"
_symmetry_group_IT_number 40
_symmetry_cell_setting 'orthorhombic'
loop_
_space_group_symop_operation_xyz
x,y,z
-x,-y,z
1/2-x,y,z
1/2+x,-y,z
x,1/2+y,1/2+z
-x,1/2-y,1/2+z
1/2-x,1/2+y,1/2+z
1/2+x,1/2-y,1/2+z
loop_
_atom_site_type_symbol
_atom_site_label
_atom_site_fract_x
_atom_site_fract_y
_atom_site_fract_z
Si Si1 0.572225 0.144510 0.408870
Si Si2 0.070825 0.935750 0.841783
Si Si3 0.075463 0.272797 0.699286
Si Si4 0.919070 0.442343 0.751225
Si Si5 0.925254 0.858353 0.655746
Si Si6 0.419102 0.143337 0.034813
O O1 0.750000 0.145096 0.435792
O O2 0.522039 0.195434 0.318075
O O3 0.522973 0.081856 0.355735
O O4 0.479036 0.153619 0.525552
O O5 0.250000 0.942888 0.846166
O O6 0.019993 0.910827 0.715859
O O7 0.000000 0.000000 0.865909
O O8 0.019509 0.887419 0.936170
O O9 0.250000 0.287966 0.675069
O O10 0.048572 0.203614 0.722265
O O11 0.987299 0.295131 0.583084
O O12 0.750000 0.455468 0.798294
O O13 0.911419 0.398563 0.644706
O O14 0.000000 0.500000 0.702001
O O15 0.750000 0.877111 0.656711
O O16 0.250000 0.155090 0.984137
#
# Coordination Sequence:
#
# PCOD8183707 Si02
#       6
#     8   8   8   8   8   8
#     4  10  21  39  60  87 120 158 202 251 304 366
#     4  12  26  44  65  92 127 170 216 262 317 379
#     4   9  21  40  63  92 126 162 204 256 313 371
#     4  10  20  35  58  88 119 157 199 249 303 360
#     4  11  24  42  63  91 125 164 207 257 314 375
#     4  10  21  38  63  94 127 163 206 257 309 366
#
# _framework density 20.956061999999999
#
# number of rings (size 3 to 8) (size 9 to 14) (size 15 to 20)
#    0.000    1.667    0.000    4.000    2.333    6.000 
#    0.000    3.333    0.000    0.000    0.000    0.000 
#    0.000    0.000    0.000    0.000    0.000    0.000 
#
# Total GULP energy -297639.515363 kJ/mol
# GULP energy per Si atom -12401.646473 kJ/mol
# Density = 2.090837 g / cm^3
# Si number density = 20.956062 Si / 1000 Ang^3
#
#
#
# Elastic Constant Matrix: (Units=GPa)
#
#
# Indices 1 2 3 4 5 6 
#
# 1 128.6169 35.4915 37.5787 0.0000 0.0000 0.0000
# 2 35.4915 60.5128 12.3600 0.0000 0.0000 0.0000
# 3 37.5787 12.3600 83.3925 0.0000 0.0000 0.0000
# 4 0.0000 0.0000 0.0000 10.3266 0.0000 0.0000
# 5 0.0000 0.0000 0.0000 0.0000 38.1532 0.0000
# 6 0.0000 0.0000 0.0000 0.0000 0.0000 32.3890
#
#
#
# Elastic Compliance Matrix: (Units=1/GPa)
#
#
# Indices 1 2 3 4 5 6 
#
# 1 0.010371 -0.005288 -0.003890 0.000000 0.000000 0.000000
# 2 -0.005288 0.019738 -0.000542 0.000000 0.000000 0.000000
# 3 -0.003890 -0.000542 0.013825 0.000000 0.000000 0.000000
# 4 0.000000 0.000000 0.000000 0.096837 0.000000 0.000000
# 5 0.000000 0.000000 0.000000 0.000000 0.026210 0.000000
# 6 0.000000 0.000000 0.000000 0.000000 0.000000 0.030875
#
#
# Mechanical properties :
#
#
# Convention : Reuss Voigt Hill
#
# Bulk Modulus (GPa) = 40.82819 49.26472 45.04646
# Shear Modulus (GPa) = 22.17693 28.64656 25.41175
#
# Velocity S-wave (km/s) = 3.25662 3.70128 3.48605
# Velocity P-wave (km/s) = 5.80222 6.46727 6.14375
#
# Compressibility (1/GPa) = 0.02449288
#
# Stress axis : x y z
#
# Youngs Moduli (GPa) = 96.42568 50.66430 72.33481
#
# Poissons Ratio (x) = 0.26792 0.28135
# Poissons Ratio (y) = 0.50991 0.03924
# Poissons Ratio (z) = 0.37505 0.02749
#
# Static dielectric constant tensor:
#      x y z
#    x 4.031190 0.000000 0.000000 
#    y 0.000000 3.952600 0.000000 
#    z 0.000000 0.000000 3.755830 
# 
# 
# High freq. dielectric constant tensor:
#      x y z
#    x 1.829840 0.000000 0.000000 
#    y 0.000000 1.822550 0.000000 
#    z 0.000000 0.000000 1.818240 
# 
# From -- ./inp_files/10321.got.cif
#   From: 2010.03.12/outbox.cif.g09.slc.cpg/sg40_6_cif.got.tgz:10321.got - 2010.04.14 01:38:03.
