data_PCOD8183811
_publ_section_title
;
Structure prediction by ZEFSAII (Michael W. Deem and Ramdas Pophale) SiO2 
 PCOD8183811
Probable space group: A M A 2
;
_chemical_formula_sum "Si O2"
_cell_formula_units_Z 48
_cell_length_a 17.219307
_cell_length_b 9.712278
_cell_length_c 14.705354
_cell_angle_alpha 90.000000
_cell_angle_beta 90.000000
_cell_angle_gamma 90.000000
_cell_volume 2459.304235
_symmetry_space_group_name_H-M "A M A 2"
_symmetry_group_IT_number 40
_symmetry_cell_setting 'orthorhombic'
loop_
_space_group_symop_operation_xyz
x,y,z
-x,-y,z
1/2-x,y,z
1/2+x,-y,z
x,1/2+y,1/2+z
-x,1/2-y,1/2+z
1/2-x,1/2+y,1/2+z
1/2+x,1/2-y,1/2+z
loop_
_atom_site_type_symbol
_atom_site_label
_atom_site_fract_x
_atom_site_fract_y
_atom_site_fract_z
Si Si1 0.910390 0.978624 0.245030
Si Si2 0.441062 0.248383 0.104206
Si Si3 0.664050 0.550866 0.196997
Si Si4 0.162634 0.741950 0.863594
Si Si5 0.506367 0.162102 0.920355
Si Si6 0.422306 0.222535 0.734472
O O1 0.905912 0.889166 0.151949
O O2 0.860306 0.907322 0.324032
O O3 0.875581 0.132312 0.231612
O O4 0.000000 0.000000 0.274807
O O5 0.386335 0.381464 0.116730
O O6 0.523846 0.285291 0.146383
O O7 0.451033 0.226132 0.997127
O O8 0.750000 0.535862 0.157462
O O9 0.660688 0.647691 0.283759
O O10 0.637093 0.401956 0.230523
O O11 0.250000 0.735383 0.906558
O O12 0.096378 0.789702 0.935205
O O13 0.477888 0.214114 0.822511
O O14 0.500000 0.000000 0.927400
#
# Coordination Sequence:
#
# PCOD8183811 Si02
#       6
#     8   8   8   8   8   8
#     4   9  17  35  58  83 117 150 199 243 296 360
#     4  10  21  37  59  88 117 156 204 250 292 369
#     4  10  20  39  61  86 122 158 195 255 314 357
#     4  10  20  36  60  88 119 154 195 252 312 353
#     4  12  20  36  65  91 115 160 215 249 292 368
#     4  11  19  38  60  89 116 154 208 243 300 361
#
# _framework density 19.517716
#
# number of rings (size 3 to 8) (size 9 to 14) (size 15 to 20)
#    0.000    1.667    6.667    2.000    0.000    0.667 
#    6.000    2.500    0.000    5.000    0.000    0.000 
#    0.000    0.000    0.000    0.000    0.000    0.000 
#
# Total GULP energy -297512.876030 kJ/mol
# GULP energy per Si atom -12396.369835 kJ/mol
# Density = 1.947329 g / cm^3
# Si number density = 19.517716 Si / 1000 Ang^3
#
#
#
# Elastic Constant Matrix: (Units=GPa)
#
#
# Indices 1 2 3 4 5 6 
#
# 1 90.9910 62.4821 14.9590 0.0000 0.0000 0.0000
# 2 62.4821 143.4407 14.3372 0.0000 0.0000 0.0000
# 3 14.9590 14.3372 51.1839 0.0000 0.0000 0.0000
# 4 0.0000 0.0000 0.0000 14.5649 0.0000 0.0000
# 5 0.0000 0.0000 0.0000 0.0000 19.0223 0.0000
# 6 0.0000 0.0000 0.0000 0.0000 0.0000 18.0417
#
#
#
# Elastic Compliance Matrix: (Units=1/GPa)
#
#
# Indices 1 2 3 4 5 6 
#
# 1 0.016065 -0.006717 -0.002814 0.000000 0.000000 0.000000
# 2 -0.006717 0.009980 -0.000833 0.000000 0.000000 0.000000
# 3 -0.002814 -0.000833 0.020593 0.000000 0.000000 0.000000
# 4 0.000000 0.000000 0.000000 0.068658 0.000000 0.000000
# 5 0.000000 0.000000 0.000000 0.000000 0.052570 0.000000
# 6 0.000000 0.000000 0.000000 0.000000 0.000000 0.055427
#
#
# Mechanical properties :
#
#
# Convention : Reuss Voigt Hill
#
# Bulk Modulus (GPa) = 38.59158 52.13026 45.36092
# Shear Modulus (GPa) = 19.78970 23.24827 21.51898
#
# Velocity S-wave (km/s) = 3.18769 3.45503 3.32405
# Velocity P-wave (km/s) = 5.77616 6.53326 6.16634
#
# Compressibility (1/GPa) = 0.02591239
#
# Stress axis : x y z
#
# Youngs Moduli (GPa) = 62.24787 100.19603 48.56029
#
# Poissons Ratio (x) = 0.67297 0.13663
# Poissons Ratio (y) = 0.41809 0.04044
# Poissons Ratio (z) = 0.17515 0.08343
#
# Static dielectric constant tensor:
#      x y z
#    x 3.658800 0.000000 0.000000 
#    y 0.000000 4.004950 0.000000 
#    z 0.000000 0.000000 3.227720 
# 
# 
# High freq. dielectric constant tensor:
#      x y z
#    x 1.742440 0.000000 0.000000 
#    y 0.000000 1.781310 0.000000 
#    z 0.000000 0.000000 1.724440 
# 
# From -- ./inp_files/17613.got.cif
#   From: 2010.03.12/outbox.cif.g09.slc.cpg/sg40_9_cif.got.tgz:17613.got - 2010.04.14 01:38:03.
