data_PCOD8183652
_publ_section_title
;
Structure prediction by ZEFSAII (Michael W. Deem and Ramdas Pophale) SiO2 
 PCOD8183652
Probable space group: A M A 2
;
_chemical_formula_sum "Si O2"
_cell_formula_units_Z 48
_cell_length_a 8.870654
_cell_length_b 29.978057
_cell_length_c 9.951167
_cell_angle_alpha 90.000000
_cell_angle_beta 90.000000
_cell_angle_gamma 90.000000
_cell_volume 2646.263798
_symmetry_space_group_name_H-M "A M A 2"
_symmetry_group_IT_number 40
_symmetry_cell_setting 'orthorhombic'
loop_
_space_group_symop_operation_xyz
x,y,z
-x,-y,z
1/2-x,y,z
1/2+x,-y,z
x,1/2+y,1/2+z
-x,1/2-y,1/2+z
1/2-x,1/2+y,1/2+z
1/2+x,1/2-y,1/2+z
loop_
_atom_site_type_symbol
_atom_site_label
_atom_site_fract_x
_atom_site_fract_y
_atom_site_fract_z
Si Si1 0.428953 0.453297 0.832980
Si Si2 0.926762 0.620904 0.619259
Si Si3 0.424248 0.116814 0.839962
Si Si4 0.076784 0.218524 0.823343
Si Si5 0.925806 0.786453 0.128629
Si Si6 0.429196 0.546689 0.115318
O O1 0.500000 0.500000 0.785782
O O2 0.250000 0.458441 0.847961
O O3 0.475989 0.416641 0.724530
O O4 0.499542 0.438275 0.974460
O O5 0.750000 0.626611 0.613320
O O6 0.983320 0.605873 0.473448
O O7 0.993998 0.667687 0.668668
O O8 0.250000 0.110555 0.877083
O O9 0.454414 0.166931 0.788987
O O10 0.476470 0.083567 0.723636
O O11 0.250000 0.231342 0.796034
O O12 0.970937 0.247528 0.729166
O O13 0.031250 0.228102 0.977480
O O14 0.750000 0.795836 0.138651
O O15 0.500000 0.500000 0.163016
O O16 0.250000 0.542031 0.100585
#
# Coordination Sequence:
#
# PCOD8183652 Si02
#       6
#     8   8   8   8   8   8
#     4  10  21  36  54  78 106 137 175 216 259 308
#     4  10  21  36  55  79 106 137 174 216 260 308
#     4   9  20  37  55  77 106 139 175 215 259 309
#     4   9  19  36  54  76 106 136 173 217 257 305
#     4  10  21  36  55  79 106 138 174 213 260 311
#     4  10  20  35  55  79 107 139 175 215 260 309
#
# _framework density 18.138780000000001
#
# number of rings (size 3 to 8) (size 9 to 14) (size 15 to 20)
#    0.000    2.333    0.000    4.000    0.000    9.333 
#    0.000    6.667    0.000    0.000    0.000    0.000 
#    0.000    0.000    0.000    0.000    0.000    0.000 
#
# Total GULP energy -297662.771065 kJ/mol
# GULP energy per Si atom -12402.615461 kJ/mol
# Density = 1.809750 g / cm^3
# Si number density = 18.138780 Si / 1000 Ang^3
#
#
#
# Elastic Constant Matrix: (Units=GPa)
#
#
# Indices 1 2 3 4 5 6 
#
# 1 68.1477 51.0567 49.6860 0.0000 0.0000 0.0000
# 2 51.0567 127.3860 98.1666 0.0000 0.0000 0.0000
# 3 49.6860 98.1666 116.9674 0.0000 0.0000 0.0000
# 4 0.0000 0.0000 0.0000 41.0128 0.0000 0.0000
# 5 0.0000 0.0000 0.0000 0.0000 29.7499 0.0000
# 6 0.0000 0.0000 0.0000 0.0000 0.0000 24.3447
#
#
#
# Elastic Compliance Matrix: (Units=1/GPa)
#
#
# Indices 1 2 3 4 5 6 
#
# 1 0.022175 -0.004611 -0.005550 0.000000 0.000000 0.000000
# 2 -0.004611 0.023182 -0.017497 0.000000 0.000000 0.000000
# 3 -0.005550 -0.017497 0.025591 0.000000 0.000000 0.000000
# 4 0.000000 0.000000 0.000000 0.024383 0.000000 0.000000
# 5 0.000000 0.000000 0.000000 0.000000 0.033614 0.000000
# 6 0.000000 0.000000 0.000000 0.000000 0.000000 0.041077
#
#
# Mechanical properties :
#
#
# Convention : Reuss Voigt Hill
#
# Bulk Modulus (GPa) = 63.96842 78.92439 71.44640
# Shear Modulus (GPa) = 21.68750 26.59427 24.14089
#
# Velocity S-wave (km/s) = 3.46156 3.83320 3.65211
# Velocity P-wave (km/s) = 7.16374 7.94966 7.56691
#
# Compressibility (1/GPa) = 0.01563271
#
# Stress axis : x y z
#
# Youngs Moduli (GPa) = 45.09609 43.13705 39.07558
#
# Poissons Ratio (x) = 0.19891 0.21685
# Poissons Ratio (y) = 0.20794 0.68371
# Poissons Ratio (z) = 0.25027 0.75477
#
# Static dielectric constant tensor:
#      x y z
#    x 3.378020 0.000000 0.000000 
#    y 0.000000 3.428230 0.000000 
#    z 0.000000 0.000000 3.421930 
# 
# 
# High freq. dielectric constant tensor:
#      x y z
#    x 1.712930 0.000000 0.000000 
#    y 0.000000 1.706930 0.000000 
#    z 0.000000 0.000000 1.704140 
# 
# From -- ./inp_files/4639.got.cif
#   From: 2010.03.12/outbox.cif.g09.slc.cpg/sg40_3_cif.got.tgz:4639.got - 2010.04.14 01:38:03.
