data_PCOD8183676
_publ_section_title
;
Structure prediction by ZEFSAII (Michael W. Deem and Ramdas Pophale) SiO2 
 PCOD8183676
Probable space group: A M A 2
;
_chemical_formula_sum "Si O2"
_cell_formula_units_Z 64
_cell_length_a 8.936791
_cell_length_b 24.850609
_cell_length_c 15.051504
_cell_angle_alpha 90.000000
_cell_angle_beta 90.000000
_cell_angle_gamma 90.000000
_cell_volume 3342.708733
_symmetry_space_group_name_H-M "A M A 2"
_symmetry_group_IT_number 40
_symmetry_cell_setting 'orthorhombic'
loop_
_space_group_symop_operation_xyz
x,y,z
-x,-y,z
1/2-x,y,z
1/2+x,-y,z
x,1/2+y,1/2+z
-x,1/2-y,1/2+z
1/2-x,1/2+y,1/2+z
1/2+x,1/2-y,1/2+z
loop_
_atom_site_type_symbol
_atom_site_label
_atom_site_fract_x
_atom_site_fract_y
_atom_site_fract_z
Si Si1 0.925700 0.352048 0.680630
Si Si2 0.925184 0.444585 0.548220
Si Si3 0.073464 0.057174 0.683951
Si Si4 0.427189 0.330632 0.862794
Si Si5 0.421938 0.281164 0.342059
Si Si6 0.926139 0.890173 0.867213
Si Si7 0.580610 0.733200 0.136812
Si Si8 0.074588 0.142523 0.536013
O O1 0.750000 0.354595 0.703174
O O2 0.981335 0.399054 0.616099
O O3 0.962060 0.295999 0.631344
O O4 0.014915 0.357264 0.772238
O O5 0.750000 0.451711 0.557239
O O6 0.969715 0.429371 0.447871
O O7 0.000000 0.500000 0.576251
O O8 0.250000 0.049654 0.687092
O O9 0.016100 0.081944 0.776995
O O10 0.023620 0.096408 0.604522
O O11 0.000000 0.000000 0.666456
O O12 0.250000 0.329643 0.862166
O O13 0.488071 0.270358 0.876539
O O14 0.486897 0.367064 0.944060
O O15 0.250000 0.274233 0.370795
O O16 0.490884 0.334201 0.385833
O O17 0.437982 0.287313 0.236815
O O18 0.750000 0.878184 0.863372
O O19 0.750000 0.723414 0.103030
O O20 0.466626 0.700858 0.075367
O O21 0.250000 0.140528 0.517609
#
# Coordination Sequence:
#
# PCOD8183676 Si02
#       8
#     8   8   8   8   8   8   8   8
#     4   9  20  40  60  84 117 153 195 244 298 345
#     4  10  22  39  61  86 118 155 196 247 294 346
#     4  10  22  38  58  84 118 157 198 241 288 344
#     4  11  23  38  59  85 116 155 195 243 297 354
#     4  10  20  35  56  86 120 156 193 234 285 345
#     4  10  20  36  57  87 121 157 196 238 289 344
#     4   9  18  33  55  84 116 151 190 231 287 350
#     4  11  22  37  57  86 120 154 195 244 293 343
#
# _framework density 19.146149000000001
#
# number of rings (size 3 to 8) (size 9 to 14) (size 15 to 20)
#    0.000    2.000    1.250    3.000    1.750    4.500 
#    0.000    0.625    0.000    0.000    0.000    0.000 
#    0.000    0.000    0.000    0.000    0.000    0.000 
#
# Total GULP energy -396928.501503 kJ/mol
# GULP energy per Si atom -12404.015672 kJ/mol
# Density = 1.910257 g / cm^3
# Si number density = 19.146149 Si / 1000 Ang^3
#
#
#
# Elastic Constant Matrix: (Units=GPa)
#
#
# Indices 1 2 3 4 5 6 
#
# 1 78.9522 45.2532 52.3363 0.0000 0.0000 0.0000
# 2 45.2532 131.1567 68.3147 0.0000 0.0000 0.0000
# 3 52.3363 68.3147 114.2136 0.0000 0.0000 0.0000
# 4 0.0000 0.0000 0.0000 27.2089 0.0000 0.0000
# 5 0.0000 0.0000 0.0000 0.0000 27.4306 0.0000
# 6 0.0000 0.0000 0.0000 0.0000 0.0000 34.4991
#
#
#
# Elastic Compliance Matrix: (Units=1/GPa)
#
#
# Indices 1 2 3 4 5 6 
#
# 1 0.018934 -0.002925 -0.006927 0.000000 0.000000 0.000000
# 2 -0.002925 0.011527 -0.005554 0.000000 0.000000 0.000000
# 3 -0.006927 -0.005554 0.015252 0.000000 0.000000 0.000000
# 4 0.000000 0.000000 0.000000 0.036753 0.000000 0.000000
# 5 0.000000 0.000000 0.000000 0.000000 0.036456 0.000000
# 6 0.000000 0.000000 0.000000 0.000000 0.000000 0.028986
#
#
# Mechanical properties :
#
#
# Convention : Reuss Voigt Hill
#
# Bulk Modulus (GPa) = 67.11069 72.90345 70.00707
# Shear Modulus (GPa) = 27.22049 28.38893 27.80471
#
# Velocity S-wave (km/s) = 3.77466 3.85483 3.81495
# Velocity P-wave (km/s) = 7.35699 7.61399 7.48660
#
# Compressibility (1/GPa) = 0.01490076
#
# Stress axis : x y z
#
# Youngs Moduli (GPa) = 52.81508 86.75578 65.56691
#
# Poissons Ratio (x) = 0.25376 0.45416
# Poissons Ratio (y) = 0.15448 0.36416
# Poissons Ratio (z) = 0.36583 0.48185
#
# Static dielectric constant tensor:
#      x y z
#    x 3.399270 0.000000 0.000000 
#    y 0.000000 3.439130 0.000000 
#    z 0.000000 0.000000 3.588020 
# 
# 
# High freq. dielectric constant tensor:
#      x y z
#    x 1.740490 0.000000 0.000000 
#    y 0.000000 1.736320 0.000000 
#    z 0.000000 0.000000 1.749070 
# 
# From -- ./inp_files/15611.got.cif
#   From: 2010.03.12/outbox.cif.g09.slc.cpg/sg40_8_cif.got.tgz:15611.got - 2010.04.14 01:38:03.
