data_PCOD8183889
_publ_section_title
;
Structure prediction by ZEFSAII (Michael W. Deem and Ramdas Pophale) SiO2 
 PCOD8183889
Probable space group: A M A 2
;
_chemical_formula_sum "Si O2"
_cell_formula_units_Z 56
_cell_length_a 19.078976
_cell_length_b 7.569350
_cell_length_c 17.118229
_cell_angle_alpha 90.000000
_cell_angle_beta 90.000000
_cell_angle_gamma 90.000000
_cell_volume 2472.136693
_symmetry_space_group_name_H-M "A M A 2"
_symmetry_group_IT_number 40
_symmetry_cell_setting 'orthorhombic'
loop_
_space_group_symop_operation_xyz
x,y,z
-x,-y,z
1/2-x,y,z
1/2+x,-y,z
x,1/2+y,1/2+z
-x,1/2-y,1/2+z
1/2-x,1/2+y,1/2+z
1/2+x,1/2-y,1/2+z
loop_
_atom_site_type_symbol
_atom_site_label
_atom_site_fract_x
_atom_site_fract_y
_atom_site_fract_z
Si Si1 0.866227 0.299874 0.670420
Si Si2 0.569498 0.714033 0.323960
Si Si3 0.329132 0.574179 0.113236
Si Si4 0.168138 0.089380 0.007360
Si Si5 0.087395 0.683490 0.359872
Si Si6 0.173026 0.348973 0.733584
Si Si7 0.329433 0.188644 0.452759
O O1 0.930972 0.277106 0.732389
O O2 0.880669 0.374509 0.583681
O O3 0.816681 0.446978 0.709595
O O4 0.830799 0.109769 0.659489
O O5 0.494358 0.733117 0.364953
O O6 0.595932 0.511788 0.323795
O O7 0.622632 0.831715 0.375998
O O8 0.250000 0.636297 0.099503
O O9 0.363286 0.730096 0.165188
O O10 0.359692 0.565932 0.024275
O O11 0.250000 0.153404 0.018326
O O12 0.127932 0.200487 0.941432
O O13 0.166861 0.885706 0.986455
O O14 0.123078 0.832472 0.307411
O O15 0.250000 0.271974 0.753920
O O16 0.250000 0.138655 0.427890
#
# Coordination Sequence:
#
# PCOD8183889 Si02
#       7
#     8   8   8   8   8   8   8
#     4  12  23  39  64 100 130 165 218 273 322 389
#     4  10  23  42  65  96 132 176 221 272 326 398
#     4  10  20  37  61  94 129 162 206 267 323 378
#     4  10  20  38  64  95 128 168 219 276 331 391
#     4  10  22  45  63  92 135 176 224 265 330 398
#     4  11  22  39  65  95 129 169 213 270 327 383
#     4   9  19  38  63  92 130 173 215 267 333 391
#
# _framework density 22.652467999999999
#
# number of rings (size 3 to 8) (size 9 to 14) (size 15 to 20)
#    0.000    1.714    2.857    1.714    0.000    4.000 
#    2.571    2.857    0.000    0.000    0.000    0.000 
#    0.000    0.000    0.000    0.000    0.000    0.000 
#
# Total GULP energy -346868.326545 kJ/mol
# GULP energy per Si atom -12388.154519 kJ/mol
# Density = 2.260091 g / cm^3
# Si number density = 22.652468 Si / 1000 Ang^3
#
#
#
# Elastic Constant Matrix: (Units=GPa)
#
#
# Indices 1 2 3 4 5 6 
#
# 1 88.2369 25.9442 64.1482 0.0000 0.0000 0.0000
# 2 25.9442 86.8211 41.5376 0.0000 0.0000 0.0000
# 3 64.1482 41.5376 172.8471 0.0000 0.0000 0.0000
# 4 0.0000 0.0000 0.0000 38.9681 0.0000 0.0000
# 5 0.0000 0.0000 0.0000 0.0000 19.1715 0.0000
# 6 0.0000 0.0000 0.0000 0.0000 0.0000 13.5624
#
#
#
# Elastic Compliance Matrix: (Units=1/GPa)
#
#
# Indices 1 2 3 4 5 6 
#
# 1 0.015876 -0.002175 -0.005369 0.000000 0.000000 0.000000
# 2 -0.002175 0.013312 -0.002392 0.000000 0.000000 0.000000
# 3 -0.005369 -0.002392 0.008353 0.000000 0.000000 0.000000
# 4 0.000000 0.000000 0.000000 0.025662 0.000000 0.000000
# 5 0.000000 0.000000 0.000000 0.000000 0.052161 0.000000
# 6 0.000000 0.000000 0.000000 0.000000 0.000000 0.073733
#
#
# Mechanical properties :
#
#
# Convention : Reuss Voigt Hill
#
# Bulk Modulus (GPa) = 56.59791 67.90725 62.25258
# Shear Modulus (GPa) = 23.27100 28.75875 26.01487
#
# Velocity S-wave (km/s) = 3.20864 3.56696 3.39253
# Velocity P-wave (km/s) = 6.22629 6.85618 6.54881
#
# Compressibility (1/GPa) = 0.01766850
#
# Stress axis : x y z
#
# Youngs Moduli (GPa) = 62.98714 75.11853 119.71818
#
# Poissons Ratio (x) = 0.16341 0.64281
# Poissons Ratio (y) = 0.13702 0.28634
# Poissons Ratio (z) = 0.33820 0.17967
#
# Static dielectric constant tensor:
#      x y z
#    x 3.672770 0.000000 0.000000 
#    y 0.000000 4.036080 0.000000 
#    z 0.000000 0.000000 4.433350 
# 
# 
# High freq. dielectric constant tensor:
#      x y z
#    x 1.843440 0.000000 0.000000 
#    y 0.000000 1.901360 0.000000 
#    z 0.000000 0.000000 1.908920 
# 
# From -- ./inp_files/18248.got.cif
#   From: 2010.03.12/outbox.cif.g09.slc.cpg/sg40_10_cif.got.tgz:18248.got - 2010.04.14 01:38:03.
