data_PCOD8183152
_publ_section_title
;
Structure prediction by ZEFSAII (Michael W. Deem and Ramdas Pophale) SiO2 
 PCOD8183152
Probable space group: A M A 2
;
_chemical_formula_sum "Si O2"
_cell_formula_units_Z 64
_cell_length_a 8.992461
_cell_length_b 24.907982
_cell_length_c 14.940628
_cell_angle_alpha 90.000000
_cell_angle_beta 90.000000
_cell_angle_gamma 90.000000
_cell_volume 3346.462469
_symmetry_space_group_name_H-M "A M A 2"
_symmetry_group_IT_number 40
_symmetry_cell_setting 'orthorhombic'
loop_
_space_group_symop_operation_xyz
x,y,z
-x,-y,z
1/2-x,y,z
1/2+x,-y,z
x,1/2+y,1/2+z
-x,1/2-y,1/2+z
1/2-x,1/2+y,1/2+z
1/2+x,1/2-y,1/2+z
loop_
_atom_site_type_symbol
_atom_site_label
_atom_site_fract_x
_atom_site_fract_y
_atom_site_fract_z
Si Si1 0.427639 0.352289 0.431320
Si Si2 0.921880 0.332802 0.250778
Si Si3 0.423192 0.632795 0.057637
Si Si4 0.076492 0.884080 0.240891
Si Si5 0.081556 0.723304 0.756995
Si Si6 0.574221 0.557249 0.922589
Si Si7 0.076183 0.944588 0.064792
Si Si8 0.583090 0.263683 0.964395
O O1 0.250000 0.348868 0.421351
O O2 0.494166 0.361474 0.332660
O O3 0.481658 0.399593 0.495677
O O4 0.490646 0.295637 0.471458
O O5 0.750000 0.325114 0.275825
O O6 0.941606 0.371137 0.164516
O O7 0.988789 0.274846 0.226185
O O8 0.250000 0.628324 0.029120
O O9 0.513841 0.584574 0.012822
O O10 0.493264 0.689960 0.024178
O O11 0.250000 0.870139 0.238020
O O12 0.028623 0.907045 0.336988
O O13 0.035022 0.927900 0.165725
O O14 0.989383 0.830116 0.215412
O O15 0.250000 0.729637 0.722487
O O16 0.076067 0.716607 0.863042
O O17 0.500000 0.500000 0.910501
O O18 0.750000 0.550002 0.929675
O O19 0.250000 0.952465 0.052849
O O20 0.000000 0.000000 0.039387
O O21 0.750000 0.257964 0.000161
#
# Coordination Sequence:
#
# PCOD8183152 Si02
#       8
#     8   8   8   8   8   8   8   8
#     4   9  19  37  59  81 110 151 192 234 286 337
#     4  10  21  35  57  85 116 150 186 236 286 336
#     4  10  20  36  58  83 113 153 192 231 281 337
#     4  10  21  36  56  85 116 148 188 233 281 334
#     4  10  19  33  55  82 115 154 188 224 274 336
#     4  11  23  38  58  84 116 152 189 236 281 334
#     4  10  22  39  60  83 112 150 192 238 285 339
#     4   8  15  30  53  79 106 142 184 221 268 331
#
# _framework density 19.124673999999999
#
# number of rings (size 3 to 8) (size 9 to 14) (size 15 to 20)
#    0.000    2.250    1.250    2.250    1.750    2.500 
#    0.000    0.625    0.000    1.500    0.000    0.000 
#    0.000    0.000    0.000    0.000    0.000    0.000 
#
# Total GULP energy -396782.685070 kJ/mol
# GULP energy per Si atom -12399.458908 kJ/mol
# Density = 1.908115 g / cm^3
# Si number density = 19.124674 Si / 1000 Ang^3
#
#
#
# Elastic Constant Matrix: (Units=GPa)
#
#
# Indices 1 2 3 4 5 6 
#
# 1 65.1477 40.3995 32.7186 0.0000 0.0000 0.0000
# 2 40.3995 100.2107 33.0855 0.0000 0.0000 0.0000
# 3 32.7186 33.0855 68.0112 0.0000 0.0000 0.0000
# 4 0.0000 0.0000 0.0000 27.4541 0.0000 0.0000
# 5 0.0000 0.0000 0.0000 0.0000 26.5627 0.0000
# 6 0.0000 0.0000 0.0000 0.0000 0.0000 32.9802
#
#
#
# Elastic Compliance Matrix: (Units=1/GPa)
#
#
# Indices 1 2 3 4 5 6 
#
# 1 0.023651 -0.006884 -0.008029 0.000000 0.000000 0.000000
# 2 -0.006884 0.013892 -0.003446 0.000000 0.000000 0.000000
# 3 -0.008029 -0.003446 0.020243 0.000000 0.000000 0.000000
# 4 0.000000 0.000000 0.000000 0.036424 0.000000 0.000000
# 5 0.000000 0.000000 0.000000 0.000000 0.037647 0.000000
# 6 0.000000 0.000000 0.000000 0.000000 0.000000 0.030321
#
#
# Mechanical properties :
#
#
# Convention : Reuss Voigt Hill
#
# Bulk Modulus (GPa) = 47.46794 49.53077 48.49935
# Shear Modulus (GPa) = 24.28136 25.87712 25.07924
#
# Velocity S-wave (km/s) = 3.56706 3.68241 3.62519
# Velocity P-wave (km/s) = 6.46834 6.63591 6.55266
#
# Compressibility (1/GPa) = 0.02106685
#
# Stress axis : x y z
#
# Youngs Moduli (GPa) = 42.28154 71.98363 49.40066
#
# Poissons Ratio (x) = 0.49553 0.39664
# Poissons Ratio (y) = 0.29106 0.17025
# Poissons Ratio (z) = 0.33948 0.24808
#
# Static dielectric constant tensor:
#      x y z
#    x 3.361470 0.000000 0.000000 
#    y 0.000000 3.454390 0.000000 
#    z 0.000000 0.000000 3.443330 
# 
# 
# High freq. dielectric constant tensor:
#      x y z
#    x 1.729500 0.000000 0.000000 
#    y 0.000000 1.738690 0.000000 
#    z 0.000000 0.000000 1.741780 
# 
# From -- ./inp_files/15570.got.cif
#   From: 2010.03.12/outbox.cif.g09.slc.cpg/sg40_8_cif.got.tgz:15570.got - 2010.04.14 01:38:03.
