data_PCOD8183636
_publ_section_title
;
Structure prediction by ZEFSAII (Michael W. Deem and Ramdas Pophale) SiO2 
 PCOD8183636
Probable space group: A M A 2
;
_chemical_formula_sum "Si O2"
_cell_formula_units_Z 64
_cell_length_a 8.734391
_cell_length_b 23.274524
_cell_length_c 18.816632
_cell_angle_alpha 90.000000
_cell_angle_beta 90.000000
_cell_angle_gamma 90.000000
_cell_volume 3825.210407
_symmetry_space_group_name_H-M "A M A 2"
_symmetry_group_IT_number 40
_symmetry_cell_setting 'orthorhombic'
loop_
_space_group_symop_operation_xyz
x,y,z
-x,-y,z
1/2-x,y,z
1/2+x,-y,z
x,1/2+y,1/2+z
-x,1/2-y,1/2+z
1/2-x,1/2+y,1/2+z
1/2+x,1/2-y,1/2+z
loop_
_atom_site_type_symbol
_atom_site_label
_atom_site_fract_x
_atom_site_fract_y
_atom_site_fract_z
Si Si1 0.428649 0.337660 0.826460
Si Si2 0.930565 0.339015 0.282038
Si Si3 0.573501 0.230144 0.189109
Si Si4 0.068993 0.937666 0.694174
Si Si5 0.928780 0.616618 0.044757
Si Si6 0.930129 0.229804 0.902404
Si Si7 0.569779 0.937929 0.406599
Si Si8 0.927907 0.250014 0.545680
O O1 0.250000 0.343477 0.843399
O O2 0.458089 0.321545 0.744322
O O3 0.491430 0.288864 0.878534
O O4 0.511502 0.397366 0.842935
O O5 0.750000 0.342799 0.293238
O O6 0.974889 0.289885 0.225594
O O7 0.997141 0.399066 0.256007
O O8 0.007930 0.323841 0.357170
O O9 0.750000 0.231947 0.166135
O O10 0.470231 0.219856 0.120082
O O11 0.250000 0.938878 0.703234
O O12 0.020518 0.913285 0.617693
O O13 0.000000 0.000000 0.703855
O O14 0.750000 0.607789 0.029235
O O15 0.972915 0.683176 0.049975
O O16 0.023321 0.586994 0.982688
O O17 0.750000 0.235400 0.892925
O O18 0.974670 0.219144 0.984239
O O19 0.750000 0.942740 0.402998
O O20 0.500000 0.000000 0.394089
O O21 0.750000 0.258970 0.530115
#
# Coordination Sequence:
#
# PCOD8183636 Si02
#       8
#     8   8   8   8   8   8   8   8
#     4  10  20  36  53  74 103 134 171 216 260 306
#     4  10  20  35  53  74 101 135 172 216 262 306
#     4   9  19  33  52  75 102 133 168 211 260 310
#     4  11  22  36  52  74 102 139 180 218 258 305
#     4  10  21  35  50  72 105 141 179 218 253 298
#     4  11  21  33  52  76 103 135 172 213 259 312
#     4  12  24  36  53  74 101 140 180 219 258 305
#     4  11  20  32  52  77 107 139 171 212 257 307
#
# _framework density 16.731104999999999
#
# number of rings (size 3 to 8) (size 9 to 14) (size 15 to 20)
#    0.000    1.500    2.500    4.875    0.000    5.000 
#    0.000    0.000    0.000    0.000    0.000    0.875 
#    0.000    4.000    0.000    0.000    0.000    0.000 
#
# Total GULP energy -396958.159094 kJ/mol
# GULP energy per Si atom -12404.942472 kJ/mol
# Density = 1.669302 g / cm^3
# Si number density = 16.731105 Si / 1000 Ang^3
#
#
#
# Elastic Constant Matrix: (Units=GPa)
#
#
# Indices 1 2 3 4 5 6 
#
# 1 91.9467 44.2648 44.4336 0.0000 0.0000 0.0000
# 2 44.2648 90.3411 57.2517 0.0000 0.0000 0.0000
# 3 44.4336 57.2517 106.3264 0.0000 0.0000 0.0000
# 4 0.0000 0.0000 0.0000 23.7122 0.0000 0.0000
# 5 0.0000 0.0000 0.0000 0.0000 30.8328 0.0000
# 6 0.0000 0.0000 0.0000 0.0000 0.0000 26.4120
#
#
#
# Elastic Compliance Matrix: (Units=1/GPa)
#
#
# Indices 1 2 3 4 5 6 
#
# 1 0.015054 -0.005145 -0.003521 0.000000 0.000000 0.000000
# 2 -0.005145 0.018561 -0.007844 0.000000 0.000000 0.000000
# 3 -0.003521 -0.007844 0.015100 0.000000 0.000000 0.000000
# 4 0.000000 0.000000 0.000000 0.042172 0.000000 0.000000
# 5 0.000000 0.000000 0.000000 0.000000 0.032433 0.000000
# 6 0.000000 0.000000 0.000000 0.000000 0.000000 0.037862
#
#
# Mechanical properties :
#
#
# Convention : Reuss Voigt Hill
#
# Bulk Modulus (GPa) = 63.71266 64.50159 64.10712
# Shear Modulus (GPa) = 25.07094 25.70235 25.38665
#
# Velocity S-wave (km/s) = 3.87520 3.92369 3.89952
# Velocity P-wave (km/s) = 7.62797 7.69173 7.65992
#
# Compressibility (1/GPa) = 0.01569547
#
# Stress axis : x y z
#
# Youngs Moduli (GPa) = 66.42679 53.87597 66.22469
#
# Poissons Ratio (x) = 0.27719 0.23317
# Poissons Ratio (y) = 0.34176 0.51948
# Poissons Ratio (z) = 0.23388 0.42262
#
# Static dielectric constant tensor:
#      x y z
#    x 3.192550 0.000000 0.000000 
#    y 0.000000 3.021130 0.000000 
#    z 0.000000 0.000000 3.187180 
# 
# 
# High freq. dielectric constant tensor:
#      x y z
#    x 1.660130 0.000000 0.000000 
#    y 0.000000 1.619250 0.000000 
#    z 0.000000 0.000000 1.641770 
# 
# From -- ./inp_files/15694.got.cif
#   From: 2010.03.12/outbox.cif.g09.slc.cpg/sg40_8_cif.got.tgz:15694.got - 2010.04.14 01:38:03.
