data_PCOD8183391
_publ_section_title
;
Structure prediction by ZEFSAII (Michael W. Deem and Ramdas Pophale) SiO2 
 PCOD8183391
Probable space group: A M A 2
;
_chemical_formula_sum "Si O2"
_cell_formula_units_Z 64
_cell_length_a 8.673162
_cell_length_b 28.308206
_cell_length_c 12.722889
_cell_angle_alpha 90.000000
_cell_angle_beta 90.000000
_cell_angle_gamma 90.000000
_cell_volume 3123.744784
_symmetry_space_group_name_H-M "A M A 2"
_symmetry_group_IT_number 40
_symmetry_cell_setting 'orthorhombic'
loop_
_space_group_symop_operation_xyz
x,y,z
-x,-y,z
1/2-x,y,z
1/2+x,-y,z
x,1/2+y,1/2+z
-x,1/2-y,1/2+z
1/2-x,1/2+y,1/2+z
1/2+x,1/2-y,1/2+z
loop_
_atom_site_type_symbol
_atom_site_label
_atom_site_fract_x
_atom_site_fract_y
_atom_site_fract_z
Si Si1 0.068469 0.453585 0.440560
Si Si2 0.430182 0.198205 0.305108
Si Si3 0.932557 0.448117 0.078709
Si Si4 0.565082 0.601943 0.875407
Si Si5 0.581373 0.575051 0.655436
Si Si6 0.927526 0.387267 0.279126
Si Si7 0.079198 0.818049 0.089706
Si Si8 0.072505 0.208750 0.878097
O O1 0.250000 0.456622 0.448869
O O2 0.994571 0.451410 0.559362
O O3 0.000000 0.500000 0.384185
O O4 0.027506 0.408396 0.372821
O O5 0.250000 0.188045 0.295139
O O6 0.504375 0.155640 0.373153
O O7 0.503485 0.206414 0.190874
O O8 0.460631 0.246912 0.365040
O O9 0.750000 0.452501 0.067317
O O10 0.979940 0.410396 0.168856
O O11 0.000000 0.500000 0.104055
O O12 0.003089 0.427694 0.972426
O O13 0.750000 0.603386 0.876094
O O14 0.499941 0.575204 0.769868
O O15 0.750000 0.552280 0.671030
O O16 0.599561 0.627754 0.614942
O O17 0.750000 0.399708 0.300273
O O18 0.955134 0.330726 0.286092
O O19 0.250000 0.796055 0.068893
O O20 0.966427 0.812778 0.991250
O O21 0.250000 0.225171 0.876260
#
# Coordination Sequence:
#
# PCOD8183391 Si02
#       8
#     8   8   8   8   8   8   8   8
#     4  11  21  35  56  85 118 152 192 239 300 363
#     4  11  23  39  60  91 126 167 212 257 315 382
#     4  11  24  43  64  90 125 169 218 269 326 386
#     4  10  21  41  65  90 123 161 208 263 320 375
#     4   8  17  34  57  83 113 149 188 239 300 360
#     4  10  23  41  61  87 120 158 206 260 312 371
#     4  10  19  37  60  84 117 156 197 250 309 368
#     4  11  22  38  61  90 122 161 210 264 321 381
#
# _framework density 20.488229
#
# number of rings (size 3 to 8) (size 9 to 14) (size 15 to 20)
#    0.000    1.750    1.250    4.125    0.000    4.000 
#    0.000    6.875    0.000    0.000    0.000    0.000 
#    0.000    0.000    0.000    0.000    0.000    0.000 
#
# Total GULP energy -396604.510372 kJ/mol
# GULP energy per Si atom -12393.890949 kJ/mol
# Density = 2.044160 g / cm^3
# Si number density = 20.488229 Si / 1000 Ang^3
#
#
#
# Elastic Constant Matrix: (Units=GPa)
#
#
# Indices 1 2 3 4 5 6 
#
# 1 85.9875 26.8622 28.1123 0.0000 0.0000 0.0000
# 2 26.8622 70.4122 26.5617 0.0000 0.0000 0.0000
# 3 28.1123 26.5617 101.5820 0.0000 0.0000 0.0000
# 4 0.0000 0.0000 0.0000 25.3058 0.0000 0.0000
# 5 0.0000 0.0000 0.0000 0.0000 22.3700 0.0000
# 6 0.0000 0.0000 0.0000 0.0000 0.0000 28.6227
#
#
#
# Elastic Compliance Matrix: (Units=1/GPa)
#
#
# Indices 1 2 3 4 5 6 
#
# 1 0.013849 -0.004257 -0.002719 0.000000 0.000000 0.000000
# 2 -0.004257 0.017065 -0.003284 0.000000 0.000000 0.000000
# 3 -0.002719 -0.003284 0.011456 0.000000 0.000000 0.000000
# 4 0.000000 0.000000 0.000000 0.039517 0.000000 0.000000
# 5 0.000000 0.000000 0.000000 0.000000 0.044703 0.000000
# 6 0.000000 0.000000 0.000000 0.000000 0.000000 0.034937
#
#
# Mechanical properties :
#
#
# Convention : Reuss Voigt Hill
#
# Bulk Modulus (GPa) = 45.77112 46.78380 46.27746
# Shear Modulus (GPa) = 26.40891 27.02272 26.71581
#
# Velocity S-wave (km/s) = 3.59413 3.63566 3.61495
# Velocity P-wave (km/s) = 6.29384 6.36460 6.32932
#
# Compressibility (1/GPa) = 0.02184784
#
# Stress axis : x y z
#
# Youngs Moduli (GPa) = 72.20921 58.59911 87.29420
#
# Poissons Ratio (x) = 0.24948 0.23738
# Poissons Ratio (y) = 0.30743 0.28667
# Poissons Ratio (z) = 0.19636 0.19244
#
# Static dielectric constant tensor:
#      x y z
#    x 3.681390 0.000000 0.000000 
#    y 0.000000 3.725620 0.000000 
#    z 0.000000 0.000000 3.979190 
# 
# 
# High freq. dielectric constant tensor:
#      x y z
#    x 1.796760 0.000000 0.000000 
#    y 0.000000 1.797710 0.000000 
#    z 0.000000 0.000000 1.806750 
# 
# From -- ./inp_files/10653.got.cif
#   From: 2010.03.12/outbox.cif.g09.slc.cpg/sg40_6_cif.got.tgz:10653.got - 2010.04.14 01:38:03.
