data_PCOD8183336
_publ_section_title
;
Structure prediction by ZEFSAII (Michael W. Deem and Ramdas Pophale) SiO2 
 PCOD8183336
Probable space group: A M A 2
;
_chemical_formula_sum "Si O2"
_cell_formula_units_Z 64
_cell_length_a 17.386878
_cell_length_b 11.668218
_cell_length_c 16.291368
_cell_angle_alpha 90.000000
_cell_angle_beta 90.000000
_cell_angle_gamma 90.000000
_cell_volume 3305.093083
_symmetry_space_group_name_H-M "A M A 2"
_symmetry_group_IT_number 40
_symmetry_cell_setting 'orthorhombic'
loop_
_space_group_symop_operation_xyz
x,y,z
-x,-y,z
1/2-x,y,z
1/2+x,-y,z
x,1/2+y,1/2+z
-x,1/2-y,1/2+z
1/2-x,1/2+y,1/2+z
1/2+x,1/2-y,1/2+z
loop_
_atom_site_type_symbol
_atom_site_label
_atom_site_fract_x
_atom_site_fract_y
_atom_site_fract_z
Si Si1 0.340606 0.451320 0.848480
Si Si2 0.657581 0.798263 0.897584
Si Si3 0.662010 0.925835 0.505702
Si Si4 0.923504 0.254234 0.117175
Si Si5 0.659872 0.032752 0.164921
Si Si6 0.587865 0.825343 0.076751
Si Si7 0.836908 0.607738 0.143778
Si Si8 0.423109 0.562911 0.258176
O O1 0.250000 0.443483 0.858252
O O2 0.372124 0.324134 0.865007
O O3 0.370865 0.543063 0.915377
O O4 0.364801 0.493471 0.758639
O O5 0.750000 0.809080 0.902062
O O6 0.623988 0.892738 0.836081
O O7 0.620933 0.815888 0.986087
O O8 0.750000 0.882273 0.503818
O O9 0.609354 0.826794 0.541670
O O10 0.655669 0.042399 0.557547
O O11 0.858799 0.164581 0.145151
O O12 0.943944 0.336702 0.193490
O O13 0.996209 0.186861 0.080944
O O14 0.750000 0.012205 0.150575
O O15 0.610375 0.950340 0.108308
O O16 0.621573 0.729069 0.136873
O O17 0.750000 0.634377 0.167095
O O18 0.870463 0.531870 0.216093
O O19 0.500000 0.500000 0.289021
#
# Coordination Sequence:
#
# PCOD8183336 Si02
#       8
#     8   8   8   8   8   8   8   8
#     4   9  18  36  62  94 119 149 207 264 308 361
#     4  11  22  41  67  92 123 168 217 259 307 380
#     4   9  18  35  63  94 121 156 211 268 312 372
#     4  11  23  40  61  91 129 169 208 265 328 386
#     4  11  23  41  65  90 123 169 216 261 318 386
#     4  12  24  41  60  91 133 169 209 259 326 386
#     4  10  19  35  62  91 121 162 210 256 310 375
#     4  11  22  39  63  94 129 161 208 270 321 374
#
# _framework density 19.364052999999998
#
# number of rings (size 3 to 8) (size 9 to 14) (size 15 to 20)
#    0.000    1.500    3.750    2.250    0.000    2.000 
#    2.250    1.250    0.000    1.500    0.000    0.000 
#    0.000    0.000    0.000    0.000    0.000    0.000 
#
# Total GULP energy -396855.719814 kJ/mol
# GULP energy per Si atom -12401.741244 kJ/mol
# Density = 1.931998 g / cm^3
# Si number density = 19.364053 Si / 1000 Ang^3
#
#
#
# Elastic Constant Matrix: (Units=GPa)
#
#
# Indices 1 2 3 4 5 6 
#
# 1 80.2236 25.6873 36.0252 0.0000 0.0000 0.0000
# 2 25.6873 86.3239 37.8522 0.0000 0.0000 0.0000
# 3 36.0252 37.8522 96.6750 0.0000 0.0000 0.0000
# 4 0.0000 0.0000 0.0000 31.5198 0.0000 0.0000
# 5 0.0000 0.0000 0.0000 0.0000 22.1000 0.0000
# 6 0.0000 0.0000 0.0000 0.0000 0.0000 35.9273
#
#
#
# Elastic Compliance Matrix: (Units=1/GPa)
#
#
# Indices 1 2 3 4 5 6 
#
# 1 0.015403 -0.002495 -0.004763 0.000000 0.000000 0.000000
# 2 -0.002495 0.014390 -0.004704 0.000000 0.000000 0.000000
# 3 -0.004763 -0.004704 0.013961 0.000000 0.000000 0.000000
# 4 0.000000 0.000000 0.000000 0.031726 0.000000 0.000000
# 5 0.000000 0.000000 0.000000 0.000000 0.045249 0.000000
# 6 0.000000 0.000000 0.000000 0.000000 0.000000 0.027834
#
#
# Mechanical properties :
#
#
# Convention : Reuss Voigt Hill
#
# Bulk Modulus (GPa) = 50.43186 51.37244 50.90215
# Shear Modulus (GPa) = 27.91800 28.81994 28.36897
#
# Velocity S-wave (km/s) = 3.80115 3.86206 3.83173
# Velocity P-wave (km/s) = 6.73540 6.81724 6.77644
#
# Compressibility (1/GPa) = 0.01982873
#
# Stress axis : x y z
#
# Youngs Moduli (GPa) = 64.92306 69.49509 71.62941
#
# Poissons Ratio (x) = 0.17339 0.34116
# Poissons Ratio (y) = 0.16198 0.33697
# Poissons Ratio (z) = 0.30922 0.32693
#
# Static dielectric constant tensor:
#      x y z
#    x 3.489510 0.000000 0.000000 
#    y 0.000000 3.423240 0.000000 
#    z 0.000000 0.000000 3.602400 
# 
# 
# High freq. dielectric constant tensor:
#      x y z
#    x 1.750940 0.000000 0.000000 
#    y 0.000000 1.754760 0.000000 
#    z 0.000000 0.000000 1.752730 
# 
# From -- ./inp_files/17861.got.cif
#   From: 2010.03.12/outbox.cif.g09.slc.cpg/sg40_9_cif.got.tgz:17861.got - 2010.04.14 01:38:03.
