data_PCOD8183597
_publ_section_title
;
Structure prediction by ZEFSAII (Michael W. Deem and Ramdas Pophale) SiO2 
 PCOD8183597
Probable space group: A M A 2
;
_chemical_formula_sum "Si O2"
_cell_formula_units_Z 64
_cell_length_a 9.063464
_cell_length_b 24.832146
_cell_length_c 15.086078
_cell_angle_alpha 90.000000
_cell_angle_beta 90.000000
_cell_angle_gamma 90.000000
_cell_volume 3395.352087
_symmetry_space_group_name_H-M "A M A 2"
_symmetry_group_IT_number 40
_symmetry_cell_setting 'orthorhombic'
loop_
_space_group_symop_operation_xyz
x,y,z
-x,-y,z
1/2-x,y,z
1/2+x,-y,z
x,1/2+y,1/2+z
-x,1/2-y,1/2+z
1/2-x,1/2+y,1/2+z
1/2+x,1/2-y,1/2+z
loop_
_atom_site_type_symbol
_atom_site_label
_atom_site_fract_x
_atom_site_fract_y
_atom_site_fract_z
Si Si1 0.926249 0.352096 0.710260
Si Si2 0.077997 0.555570 0.581383
Si Si3 0.924412 0.057494 0.736293
Si Si4 0.576515 0.339370 0.908113
Si Si5 0.418188 0.282359 0.386688
Si Si6 0.922102 0.887223 0.899813
Si Si7 0.580568 0.735540 0.182402
Si Si8 0.924201 0.135107 0.578814
O O1 0.750000 0.348072 0.707601
O O2 0.986965 0.399990 0.649231
O O3 0.976831 0.360755 0.812025
O O4 0.991864 0.295063 0.673751
O O5 0.250000 0.548155 0.598755
O O6 0.046075 0.572863 0.481048
O O7 0.000000 0.500000 0.602982
O O8 0.750000 0.050959 0.748587
O O9 0.965304 0.086096 0.643805
O O10 0.983941 0.093004 0.816860
O O11 0.000000 0.000000 0.737147
O O12 0.750000 0.346946 0.918081
O O13 0.532457 0.276611 0.919730
O O14 0.496484 0.374914 0.982993
O O15 0.250000 0.294209 0.414924
O O16 0.525054 0.327467 0.428693
O O17 0.434946 0.286184 0.281469
O O18 0.750000 0.885850 0.875647
O O19 0.750000 0.740187 0.155703
O O20 0.507578 0.690950 0.118212
O O21 0.750000 0.139007 0.568012
#
# Coordination Sequence:
#
# PCOD8183597 Si02
#       8
#     8   8   8   8   8   8   8   8
#     4   8  16  34  57  77 103 142 185 220 268 331
#     4  10  22  38  56  79 105 140 185 227 270 322
#     4  11  23  40  59  80 110 151 190 228 279 336
#     4   9  19  34  56  82 112 147 183 227 275 328
#     4   9  17  33  53  78 113 150 182 215 269 331
#     4  11  22  34  54  85 114 145 185 229 274 328
#     4   8  14  29  53  77 103 141 178 212 261 324
#     4  10  20  34  56  82 111 147 184 225 276 330
#
# _framework density 18.849297
#
# number of rings (size 3 to 8) (size 9 to 14) (size 15 to 20)
#    0.000    2.500    1.250    2.625    1.750    3.500 
#    0.000    1.250    0.000    3.750    0.000    0.000 
#    0.000    0.000    0.000    0.000    0.000    0.000 
#
# Total GULP energy -396709.246608 kJ/mol
# GULP energy per Si atom -12397.163957 kJ/mol
# Density = 1.880640 g / cm^3
# Si number density = 18.849297 Si / 1000 Ang^3
#
#
#
# Elastic Constant Matrix: (Units=GPa)
#
#
# Indices 1 2 3 4 5 6 
#
# 1 47.4220 38.2436 33.1334 0.0000 0.0000 0.0000
# 2 38.2436 97.8481 29.4113 0.0000 0.0000 0.0000
# 3 33.1334 29.4113 70.6673 0.0000 0.0000 0.0000
# 4 0.0000 0.0000 0.0000 27.8358 0.0000 0.0000
# 5 0.0000 0.0000 0.0000 0.0000 25.4615 0.0000
# 6 0.0000 0.0000 0.0000 0.0000 0.0000 22.8457
#
#
#
# Elastic Compliance Matrix: (Units=1/GPa)
#
#
# Indices 1 2 3 4 5 6 
#
# 1 0.040158 -0.011471 -0.014054 0.000000 0.000000 0.000000
# 2 -0.011471 0.014958 -0.000847 0.000000 0.000000 0.000000
# 3 -0.014054 -0.000847 0.021093 0.000000 0.000000 0.000000
# 4 0.000000 0.000000 0.000000 0.035925 0.000000 0.000000
# 5 0.000000 0.000000 0.000000 0.000000 0.039275 0.000000
# 6 0.000000 0.000000 0.000000 0.000000 0.000000 0.043772
#
#
# Mechanical properties :
#
#
# Convention : Reuss Voigt Hill
#
# Bulk Modulus (GPa) = 42.61893 46.39043 44.50468
# Shear Modulus (GPa) = 19.55059 22.90520 21.22789
#
# Velocity S-wave (km/s) = 3.22406 3.48972 3.35952
# Velocity P-wave (km/s) = 6.04308 6.39548 6.22178
#
# Compressibility (1/GPa) = 0.02346375
#
# Stress axis : x y z
#
# Youngs Moduli (GPa) = 24.90176 66.85408 47.40920
#
# Poissons Ratio (x) = 0.76689 0.66631
# Poissons Ratio (y) = 0.28565 0.04016
# Poissons Ratio (z) = 0.34998 0.05663
#
# Static dielectric constant tensor:
#      x y z
#    x 3.117970 0.000000 0.000000 
#    y 0.000000 3.565420 0.000000 
#    z 0.000000 0.000000 3.488220 
# 
# 
# High freq. dielectric constant tensor:
#      x y z
#    x 1.701940 0.000000 0.000000 
#    y 0.000000 1.731610 0.000000 
#    z 0.000000 0.000000 1.732760 
# 
# From -- ./inp_files/15609.got.cif
#   From: 2010.03.12/outbox.cif.g09.slc.cpg/sg40_8_cif.got.tgz:15609.got - 2010.04.14 01:38:03.
