data_PCOD8183335
_publ_section_title
;
Structure prediction by ZEFSAII (Michael W. Deem and Ramdas Pophale) SiO2 
 PCOD8183335
Probable space group: A M A 2
;
_chemical_formula_sum "Si O2"
_cell_formula_units_Z 64
_cell_length_a 15.838869
_cell_length_b 16.167802
_cell_length_c 11.494945
_cell_angle_alpha 90.000000
_cell_angle_beta 90.000000
_cell_angle_gamma 90.000000
_cell_volume 2943.622043
_symmetry_space_group_name_H-M "A M A 2"
_symmetry_group_IT_number 40
_symmetry_cell_setting 'orthorhombic'
loop_
_space_group_symop_operation_xyz
x,y,z
-x,-y,z
1/2-x,y,z
1/2+x,-y,z
x,1/2+y,1/2+z
-x,1/2-y,1/2+z
1/2-x,1/2+y,1/2+z
1/2+x,1/2-y,1/2+z
loop_
_atom_site_type_symbol
_atom_site_label
_atom_site_fract_x
_atom_site_fract_y
_atom_site_fract_z
Si Si1 0.652902 0.183142 0.691150
Si Si2 0.849334 0.039032 0.850815
Si Si3 0.614869 0.799969 0.532944
Si Si4 0.935103 0.764074 0.987661
Si Si5 0.851387 0.856099 0.784280
Si Si6 0.484522 0.090219 0.146634
Si Si7 0.841799 0.124957 0.088382
Si Si8 0.656704 0.858701 0.302360
O O1 0.750000 0.164299 0.673150
O O2 0.610364 0.104928 0.758771
O O3 0.615998 0.196743 0.562696
O O4 0.636795 0.264368 0.767981
O O5 0.750000 0.041595 0.833834
O O6 0.882216 0.946182 0.828119
O O7 0.870935 0.066059 0.982163
O O8 0.526494 0.775476 0.472813
O O9 0.607656 0.844233 0.657407
O O10 0.671647 0.718094 0.544052
O O11 0.658291 0.863274 0.442673
O O12 0.939915 0.852123 0.052417
O O13 0.888573 0.783282 0.866084
O O14 0.750000 0.848067 0.780826
O O15 0.579456 0.124181 0.179993
O O16 0.419042 0.083532 0.254563
O O17 0.500000 0.000000 0.094625
O O18 0.750000 0.096495 0.140020
O O19 0.750000 0.886482 0.255778
#
# Coordination Sequence:
#
# PCOD8183335 Si02
#       8
#     8   8   8   8   8   8   8   8
#     4   9  17  35  61  88 118 160 208 252 304 381
#     4   9  18  34  62  96 126 158 205 258 317 380
#     4  11  23  38  60  87 124 165 210 255 309 377
#     4  10  23  36  60  87 126 162 204 258 318 374
#     4  11  23  39  62  95 128 160 207 269 327 375
#     4  10  22  37  58  90 126 157 204 262 312 372
#     4  10  19  35  62  90 122 164 205 250 311 380
#     4  10  20  38  64  86 115 167 217 253 307 380
#
# _framework density 21.741921000000001
#
# number of rings (size 3 to 8) (size 9 to 14) (size 15 to 20)
#    0.000    2.000    1.250    2.250    5.250    1.000 
#    0.000    4.375    0.000    0.000    0.000    0.000 
#    0.000    0.000    0.000    0.000    0.000    0.000 
#
# Total GULP energy -396535.523601 kJ/mol
# GULP energy per Si atom -12391.735113 kJ/mol
# Density = 2.169244 g / cm^3
# Si number density = 21.741921 Si / 1000 Ang^3
#
#
#
# Elastic Constant Matrix: (Units=GPa)
#
#
# Indices 1 2 3 4 5 6 
#
# 1 120.7409 28.4205 44.4583 0.0000 0.0000 0.0000
# 2 28.4205 66.4619 15.0051 0.0000 0.0000 0.0000
# 3 44.4583 15.0051 85.5598 0.0000 0.0000 0.0000
# 4 0.0000 0.0000 0.0000 26.9624 0.0000 0.0000
# 5 0.0000 0.0000 0.0000 0.0000 24.5023 0.0000
# 6 0.0000 0.0000 0.0000 0.0000 0.0000 23.6066
#
#
#
# Elastic Compliance Matrix: (Units=1/GPa)
#
#
# Indices 1 2 3 4 5 6 
#
# 1 0.010992 -0.003551 -0.005089 0.000000 0.000000 0.000000
# 2 -0.003551 0.016814 -0.001103 0.000000 0.000000 0.000000
# 3 -0.005089 -0.001103 0.014525 0.000000 0.000000 0.000000
# 4 0.000000 0.000000 0.000000 0.037089 0.000000 0.000000
# 5 0.000000 0.000000 0.000000 0.000000 0.040813 0.000000
# 6 0.000000 0.000000 0.000000 0.000000 0.000000 0.042361
#
#
# Mechanical properties :
#
#
# Convention : Reuss Voigt Hill
#
# Bulk Modulus (GPa) = 43.77481 49.83671 46.80576
# Shear Modulus (GPa) = 26.35806 27.33952 26.84879
#
# Velocity S-wave (km/s) = 3.48561 3.54991 3.51791
# Velocity P-wave (km/s) = 6.03132 6.30668 6.17054
#
# Compressibility (1/GPa) = 0.02284419
#
# Stress axis : x y z
#
# Youngs Moduli (GPa) = 90.97610 59.47426 68.84482
#
# Poissons Ratio (x) = 0.21122 0.35033
# Poissons Ratio (y) = 0.32310 0.07596
# Poissons Ratio (z) = 0.46295 0.06562
#
# Static dielectric constant tensor:
#      x y z
#    x 4.052080 0.000000 0.000000 
#    y 0.000000 3.899390 0.000000 
#    z 0.000000 0.000000 3.771610 
# 
# 
# High freq. dielectric constant tensor:
#      x y z
#    x 1.865880 0.000000 0.000000 
#    y 0.000000 1.832890 0.000000 
#    z 0.000000 0.000000 1.829040 
# 
# From -- ./inp_files/12489.got.cif
#   From: 2010.03.12/outbox.cif.g09.slc.cpg/sg40_7_cif.got.tgz:12489.got - 2010.04.14 01:38:03.
