data_PCOD8183739
_publ_section_title
;
Structure prediction by ZEFSAII (Michael W. Deem and Ramdas Pophale) SiO2 
 PCOD8183739
Probable space group: A M A 2
;
_chemical_formula_sum "Si O2"
_cell_formula_units_Z 64
_cell_length_a 8.931821
_cell_length_b 32.691153
_cell_length_c 11.606252
_cell_angle_alpha 90.000000
_cell_angle_beta 90.000000
_cell_angle_gamma 90.000000
_cell_volume 3388.927243
_symmetry_space_group_name_H-M "A M A 2"
_symmetry_group_IT_number 40
_symmetry_cell_setting 'orthorhombic'
loop_
_space_group_symop_operation_xyz
x,y,z
-x,-y,z
1/2-x,y,z
1/2+x,-y,z
x,1/2+y,1/2+z
-x,1/2-y,1/2+z
1/2-x,1/2+y,1/2+z
1/2+x,1/2-y,1/2+z
loop_
_atom_site_type_symbol
_atom_site_label
_atom_site_fract_x
_atom_site_fract_y
_atom_site_fract_z
Si Si1 0.072753 0.041994 0.680950
Si Si2 0.073369 0.378393 0.547011
Si Si3 0.416698 0.687397 0.132794
Si Si4 0.073663 0.810136 0.862682
Si Si5 0.425338 0.854615 0.300840
Si Si6 0.085100 0.604965 0.996292
Si Si7 0.573030 0.726718 0.932797
Si Si8 0.427546 0.543086 0.442906
O O1 0.250000 0.038690 0.674183
O O2 0.009539 0.075158 0.590547
O O3 0.024923 0.053388 0.811248
O O4 0.000000 0.000000 0.641621
O O5 0.250000 0.386668 0.542981
O O6 0.025715 0.344101 0.455058
O O7 0.019235 0.361308 0.670488
O O8 0.989459 0.420819 0.522845
O O9 0.250000 0.701986 0.172317
O O10 0.521043 0.673981 0.238637
O O11 0.401314 0.648976 0.051612
O O12 0.496074 0.722750 0.058139
O O13 0.250000 0.801662 0.866288
O O14 0.983685 0.768545 0.879604
O O15 0.250000 0.858887 0.308233
O O16 0.489686 0.891269 0.379840
O O17 0.475243 0.809829 0.345814
O O18 0.250000 0.588621 0.962967
O O19 0.750000 0.727483 0.950624
O O20 0.500000 0.500000 0.481304
O O21 0.250000 0.539806 0.457301
#
# Coordination Sequence:
#
# PCOD8183739 Si02
#       8
#     8   8   8   8   8   8   8   8
#     4   9  18  32  52  81 113 140 173 219 274 328
#     4  10  22  39  57  81 114 151 191 236 284 337
#     4  10  20  36  56  77 106 141 180 229 280 330
#     4  11  23  36  55  83 113 146 187 235 284 339
#     4   9  20  38  57  77 107 147 186 229 281 334
#     4   9  18  34  55  78 105 139 178 223 271 325
#     4  10  21  37  57  81 109 145 187 232 287 344
#     4  10  20  36  59  86 116 149 186 231 284 341
#
# _framework density 18.885031999999999
#
# number of rings (size 3 to 8) (size 9 to 14) (size 15 to 20)
#    0.000    2.250    0.000    2.250    1.750    4.500 
#    0.000    0.625    0.000    1.500    0.000    0.000 
#    0.000    0.000    0.000    0.000    0.000    0.000 
#
# Total GULP energy -396779.692266 kJ/mol
# GULP energy per Si atom -12399.365383 kJ/mol
# Density = 1.884205 g / cm^3
# Si number density = 18.885032 Si / 1000 Ang^3
#
#
#
# Elastic Constant Matrix: (Units=GPa)
#
#
# Indices 1 2 3 4 5 6 
#
# 1 49.7995 41.6128 35.7937 0.0000 0.0000 0.0000
# 2 41.6128 95.6880 46.8824 0.0000 0.0000 0.0000
# 3 35.7937 46.8824 117.6124 0.0000 0.0000 0.0000
# 4 0.0000 0.0000 0.0000 19.9972 0.0000 0.0000
# 5 0.0000 0.0000 0.0000 0.0000 31.3505 0.0000
# 6 0.0000 0.0000 0.0000 0.0000 0.0000 31.8483
#
#
#
# Elastic Compliance Matrix: (Units=1/GPa)
#
#
# Indices 1 2 3 4 5 6 
#
# 1 0.034252 -0.012164 -0.005575 0.000000 0.000000 0.000000
# 2 -0.012164 0.017307 -0.003197 0.000000 0.000000 0.000000
# 3 -0.005575 -0.003197 0.011474 0.000000 0.000000 0.000000
# 4 0.000000 0.000000 0.000000 0.050007 0.000000 0.000000
# 5 0.000000 0.000000 0.000000 0.000000 0.031897 0.000000
# 6 0.000000 0.000000 0.000000 0.000000 0.000000 0.031399
#
#
# Mechanical properties :
#
#
# Convention : Reuss Voigt Hill
#
# Bulk Modulus (GPa) = 47.25857 56.85306 52.05582
# Shear Modulus (GPa) = 22.19641 25.89326 24.04484
#
# Velocity S-wave (km/s) = 3.43205 3.70685 3.57209
# Velocity P-wave (km/s) = 6.38623 6.96356 6.68114
#
# Compressibility (1/GPa) = 0.02116018
#
# Stress axis : x y z
#
# Youngs Moduli (GPa) = 29.19523 57.78080 87.15632
#
# Poissons Ratio (x) = 0.70284 0.48593
# Poissons Ratio (y) = 0.35513 0.27863
# Poissons Ratio (z) = 0.16278 0.18472
#
# Static dielectric constant tensor:
#      x y z
#    x 3.625490 0.000000 0.000000 
#    y 0.000000 3.394140 0.000000 
#    z 0.000000 0.000000 3.633440 
# 
# 
# High freq. dielectric constant tensor:
#      x y z
#    x 1.735050 0.000000 0.000000 
#    y 0.000000 1.727210 0.000000 
#    z 0.000000 0.000000 1.733900 
# 
# From -- ./inp_files/10561.got.cif
#   From: 2010.03.12/outbox.cif.g09.slc.cpg/sg40_6_cif.got.tgz:10561.got - 2010.04.14 01:38:03.
