data_PCOD8183085
_publ_section_title
;
Structure prediction by ZEFSAII (Michael W. Deem and Ramdas Pophale) SiO2 
 PCOD8183085
Probable space group: A M A 2
;
_chemical_formula_sum "Si O2"
_cell_formula_units_Z 64
_cell_length_a 8.921653
_cell_length_b 14.734918
_cell_length_c 27.339184
_cell_angle_alpha 90.000000
_cell_angle_beta 90.000000
_cell_angle_gamma 90.000000
_cell_volume 3594.004355
_symmetry_space_group_name_H-M "A M A 2"
_symmetry_group_IT_number 40
_symmetry_cell_setting 'orthorhombic'
loop_
_space_group_symop_operation_xyz
x,y,z
-x,-y,z
1/2-x,y,z
1/2+x,-y,z
x,1/2+y,1/2+z
-x,1/2-y,1/2+z
1/2-x,1/2+y,1/2+z
1/2+x,1/2-y,1/2+z
loop_
_atom_site_type_symbol
_atom_site_label
_atom_site_fract_x
_atom_site_fract_y
_atom_site_fract_z
Si Si1 0.425010 0.784210 0.207830
Si Si2 0.925511 0.909474 0.566930
Si Si3 0.073536 0.408313 0.524886
Si Si4 0.924638 0.591260 0.795580
Si Si5 0.928441 0.406301 0.628825
Si Si6 0.426622 0.406338 0.906257
Si Si7 0.075738 0.589891 0.177082
Si Si8 0.923369 0.779916 0.481484
O O1 0.250000 0.800146 0.195052
O O2 0.468573 0.825376 0.260468
O O3 0.525929 0.827384 0.165761
O O4 0.462397 0.677127 0.210278
O O5 0.750000 0.924951 0.566631
O O6 0.983904 0.890718 0.621964
O O7 0.971557 0.825495 0.532791
O O8 0.000000 0.000000 0.545155
O O9 0.250000 0.422637 0.534437
O O10 0.045194 0.327498 0.486242
O O11 0.000000 0.500000 0.503002
O O12 0.994624 0.383060 0.575763
O O13 0.750000 0.572502 0.794755
O O14 0.978662 0.613292 0.850570
O O15 0.000000 0.500000 0.775264
O O16 0.750000 0.415142 0.625960
O O17 0.000000 0.500000 0.648308
O O18 0.500000 0.500000 0.925336
O O19 0.250000 0.416659 0.911025
O O20 0.479690 0.320519 0.937601
O O21 0.250000 0.569940 0.176052
O O22 0.000000 0.500000 0.199645
O O23 0.750000 0.799393 0.470064
#
# Coordination Sequence:
#
# PCOD8183085 Si02
#       8
#     8   8   8   8   8   8   8   8
#     4  10  19  33  52  72  97 131 169 207 249 293
#     4   9  17  29  44  66  95 125 156 189 230 279
#     4  10  20  35  52  71  99 133 169 207 246 288
#     4   9  19  34  52  74  99 128 160 198 247 299
#     4  11  21  32  48  73 104 135 167 202 243 292
#     4  10  20  34  52  75 102 129 160 200 247 300
#     4   9  18  32  49  68  95 129 162 200 241 282
#     4  10  20  33  51  73  97 128 165 203 245 293
#
# _framework density 17.807435000000002
#
# number of rings (size 3 to 8) (size 9 to 14) (size 15 to 20)
#    0.000    2.250    0.000    4.125    0.000    7.000 
#    0.000    2.500    0.000    0.750    0.000    3.500 
#    0.000    0.000    0.000    0.000    0.000    0.000 
#
# Total GULP energy -396814.911211 kJ/mol
# GULP energy per Si atom -12400.465975 kJ/mol
# Density = 1.776690 g / cm^3
# Si number density = 17.807435 Si / 1000 Ang^3
#
#
#
# Elastic Constant Matrix: (Units=GPa)
#
#
# Indices 1 2 3 4 5 6 
#
# 1 72.3938 51.9595 36.6157 0.0000 0.0000 0.0000
# 2 51.9595 141.8673 64.3125 0.0000 0.0000 0.0000
# 3 36.6157 64.3125 74.0865 0.0000 0.0000 0.0000
# 4 0.0000 0.0000 0.0000 28.1914 0.0000 0.0000
# 5 0.0000 0.0000 0.0000 0.0000 6.1206 0.0000
# 6 0.0000 0.0000 0.0000 0.0000 0.0000 30.7267
#
#
#
# Elastic Compliance Matrix: (Units=1/GPa)
#
#
# Indices 1 2 3 4 5 6 
#
# 1 0.020175 -0.004731 -0.005864 0.000000 0.000000 0.000000
# 2 -0.004731 0.012732 -0.008714 0.000000 0.000000 0.000000
# 3 -0.005864 -0.008714 0.023961 0.000000 0.000000 0.000000
# 4 0.000000 0.000000 0.000000 0.035472 0.000000 0.000000
# 5 0.000000 0.000000 0.000000 0.000000 0.163382 0.000000
# 6 0.000000 0.000000 0.000000 0.000000 0.000000 0.032545
#
#
# Mechanical properties :
#
#
# Convention : Reuss Voigt Hill
#
# Bulk Modulus (GPa) = 54.79800 66.01367 60.40583
# Shear Modulus (GPa) = 15.01650 22.03842 18.52746
#
# Velocity S-wave (km/s) = 2.90706 3.52177 3.22907
# Velocity P-wave (km/s) = 6.48902 7.32724 6.92083
#
# Compressibility (1/GPa) = 0.01824884
#
# Stress axis : x y z
#
# Youngs Moduli (GPa) = 49.56676 78.54340 41.73510
#
# Poissons Ratio (x) = 0.37156 0.24475
# Poissons Ratio (y) = 0.23448 0.36369
# Poissons Ratio (z) = 0.29068 0.68444
#
# Static dielectric constant tensor:
#      x y z
#    x 3.276890 0.000000 0.000000 
#    y 0.000000 3.462960 0.000000 
#    z 0.000000 0.000000 3.233330 
# 
# 
# High freq. dielectric constant tensor:
#      x y z
#    x 1.689800 0.000000 0.000000 
#    y 0.000000 1.689500 0.000000 
#    z 0.000000 0.000000 1.664080 
# 
# From -- ./inp_files/26448.got.cif
#   From: 2010.03.12/outbox.cif.g09.slc.cpg/sg40_14_cif.got.tgz:26448.got - 2010.04.14 01:38:03.
