data_PCOD8183239
_publ_section_title
;
Structure prediction by ZEFSAII (Michael W. Deem and Ramdas Pophale) SiO2 
 PCOD8183239
Probable space group: A M A 2
;
_chemical_formula_sum "Si O2"
_cell_formula_units_Z 48
_cell_length_a 16.396035
_cell_length_b 9.125518
_cell_length_c 15.912193
_cell_angle_alpha 90.000000
_cell_angle_beta 90.000000
_cell_angle_gamma 90.000000
_cell_volume 2380.819114
_symmetry_space_group_name_H-M "A M A 2"
_symmetry_group_IT_number 40
_symmetry_cell_setting 'orthorhombic'
loop_
_space_group_symop_operation_xyz
x,y,z
-x,-y,z
1/2-x,y,z
1/2+x,-y,z
x,1/2+y,1/2+z
-x,1/2-y,1/2+z
1/2-x,1/2+y,1/2+z
1/2+x,1/2-y,1/2+z
loop_
_atom_site_type_symbol
_atom_site_label
_atom_site_fract_x
_atom_site_fract_y
_atom_site_fract_z
Si Si1 0.092555 0.035682 0.882480
Si Si2 0.155962 0.293486 0.484406
Si Si3 0.408235 0.958307 0.139902
Si Si4 0.657216 0.799960 0.037891
Si Si5 0.155057 0.684332 0.217101
Si Si6 0.094257 0.020355 0.556961
O O1 0.136006 0.120835 0.807832
O O2 0.138162 0.879112 0.897551
O O3 0.098417 0.138987 0.964617
O O4 0.000000 0.000000 0.859221
O O5 0.250000 0.313282 0.510570
O O6 0.096898 0.364793 0.554154
O O7 0.132669 0.121715 0.482541
O O8 0.370867 0.856656 0.213972
O O9 0.500000 0.000000 0.163478
O O10 0.358635 0.109388 0.124334
O O11 0.750000 0.823079 0.008667
O O12 0.641139 0.631820 0.056125
O O13 0.250000 0.670078 0.196567
O O14 0.105370 0.593030 0.147989
O O15 0.000000 0.000000 0.537247
#
# Coordination Sequence:
#
# PCOD8183239 Si02
#       6
#     8   8   8   8   8   8
#     4  11  22  38  59  83 112 149 191 237 289 344
#     4  10  19  36  59  85 113 151 193 234 281 342
#     4  10  19  34  57  82 111 148 189 231 279 339
#     4  11  20  35  58  86 113 147 190 237 285 342
#     4  11  22  39  58  82 114 153 192 236 287 342
#     4  11  21  36  58  86 117 150 189 237 284 337
#
# _framework density 20.16113
#
# number of rings (size 3 to 8) (size 9 to 14) (size 15 to 20)
#    0.000    1.333    0.000   12.000    0.000    0.000 
#    0.000    4.167    0.000    0.000    0.000    0.000 
#    0.000    0.000    0.000    0.000    0.000    0.000 
#
# Total GULP energy -297558.842680 kJ/mol
# GULP energy per Si atom -12398.285112 kJ/mol
# Density = 2.011524 g / cm^3
# Si number density = 20.161130 Si / 1000 Ang^3
#
#
#
# Elastic Constant Matrix: (Units=GPa)
#
#
# Indices 1 2 3 4 5 6 
#
# 1 107.8817 33.4939 17.6751 0.0000 0.0000 0.0000
# 2 33.4939 173.5993 50.1697 0.0000 0.0000 0.0000
# 3 17.6751 50.1697 75.7865 0.0000 0.0000 0.0000
# 4 0.0000 0.0000 0.0000 40.6385 0.0000 0.0000
# 5 0.0000 0.0000 0.0000 0.0000 -9.7879 0.0000
# 6 0.0000 0.0000 0.0000 0.0000 0.0000 37.3254
#
#
#
# Elastic Compliance Matrix: (Units=1/GPa)
#
#
# Indices 1 2 3 4 5 6 
#
# 1 0.009963 -0.001547 -0.001300 0.000000 0.000000 0.000000
# 2 -0.001547 0.007363 -0.004514 0.000000 0.000000 0.000000
# 3 -0.001300 -0.004514 0.016486 0.000000 0.000000 0.000000
# 4 0.000000 0.000000 0.000000 0.024607 0.000000 0.000000
# 5 0.000000 0.000000 0.000000 0.000000 -0.102167 0.000000
# 6 0.000000 0.000000 0.000000 0.000000 0.000000 0.026791
#
#
# Mechanical properties :
#
#
# Convention : Reuss Voigt Hill
#
# Bulk Modulus (GPa) = 52.37798 62.21611 57.29705
# Shear Modulus (GPa) = 1211.44258 30.69711 621.06985
#
# Velocity S-wave (km/s) = 24.53945 3.90627 17.57048
# Velocity P-wave (km/s) = 28.79148 7.16043 20.97881
#
# Compressibility (1/GPa) = 0.01909199
#
# Stress axis : x y z
#
# Youngs Moduli (GPa) = 100.37641 135.81020 60.65723
#
# Poissons Ratio (x) = 0.21004 0.07884
# Poissons Ratio (y) = 0.15524 0.27379
# Poissons Ratio (z) = 0.13046 0.61300
#
# Static dielectric constant tensor:
#      x y z
#    x 3.792100 0.000000 0.000000 
#    y 0.000000 4.188800 0.000000 
#    z 0.000000 0.000000 3.364260 
# 
# 
# High freq. dielectric constant tensor:
#      x y z
#    x 1.802230 0.000000 0.000000 
#    y 0.000000 1.805150 0.000000 
#    z 0.000000 0.000000 1.743370 
# 
# From -- ./inp_files/20540.got.cif
#   From: 2010.03.12/outbox.cif.g09.slc.cpg/sg40_11_cif.got.tgz:20540.got - 2010.04.14 01:38:03.
