data_PCOD8183036
_publ_section_title
;
Structure prediction by ZEFSAII (Michael W. Deem and Ramdas Pophale) SiO2 
 PCOD8183036
Probable space group: A M A 2
;
_chemical_formula_sum "Si O2"
_cell_formula_units_Z 64
_cell_length_a 9.064313
_cell_length_b 20.594533
_cell_length_c 19.316508
_cell_angle_alpha 90.000000
_cell_angle_beta 90.000000
_cell_angle_gamma 90.000000
_cell_volume 3605.914795
_symmetry_space_group_name_H-M "A M A 2"
_symmetry_group_IT_number 40
_symmetry_cell_setting 'orthorhombic'
loop_
_space_group_symop_operation_xyz
x,y,z
-x,-y,z
1/2-x,y,z
1/2+x,-y,z
x,1/2+y,1/2+z
-x,1/2-y,1/2+z
1/2-x,1/2+y,1/2+z
1/2+x,1/2-y,1/2+z
loop_
_atom_site_type_symbol
_atom_site_label
_atom_site_fract_x
_atom_site_fract_y
_atom_site_fract_z
Si Si1 0.418053 0.766029 0.446420
Si Si2 0.078546 0.806738 0.596700
Si Si3 0.919804 0.619473 0.318388
Si Si4 0.921038 0.770043 0.309838
Si Si5 0.578135 0.564889 0.171646
Si Si6 0.423406 0.808925 0.175266
Si Si7 0.922049 0.383449 0.456166
Si Si8 0.076242 0.435470 0.588754
O O1 0.250000 0.770064 0.420328
O O2 0.444605 0.809587 0.514148
O O3 0.521735 0.792203 0.385247
O O4 0.457590 0.692325 0.466618
O O5 0.250000 0.795555 0.616408
O O6 0.019372 0.874576 0.626801
O O7 0.987207 0.748475 0.628945
O O8 0.750000 0.612149 0.341150
O O9 0.953016 0.693977 0.298516
O O10 0.958820 0.576300 0.252102
O O11 0.023469 0.594738 0.380236
O O12 0.750000 0.787051 0.304378
O O13 0.006466 0.809983 0.251372
O O14 0.500000 0.500000 0.145187
O O15 0.750000 0.556116 0.159171
O O16 0.250000 0.798812 0.181791
O O17 0.464385 0.876863 0.139749
O O18 0.750000 0.399388 0.463949
O O19 0.012201 0.423175 0.512568
O O20 0.250000 0.445918 0.582683
O O21 0.000000 0.500000 0.619442
#
# Coordination Sequence:
#
# PCOD8183036 Si02
#       8
#     8   8   8   8   8   8   8   8
#     4   9  18  32  54  82 110 139 177 223 269 322
#     4  10  19  36  58  80 108 144 181 220 273 325
#     4   9  18  33  51  73 108 148 183 220 261 316
#     4  10  19  33  55  80 110 143 177 222 271 322
#     4  10  21  36  53  76 107 145 183 220 266 315
#     4  11  22  35  56  84 110 138 180 229 272 319
#     4  10  19  32  53  79 108 143 180 220 266 319
#     4  11  24  39  55  78 109 145 182 224 272 325
#
# _framework density 17.748616999999999
#
# number of rings (size 3 to 8) (size 9 to 14) (size 15 to 20)
#    0.000    2.000    2.500    1.500    0.000    4.500 
#    0.000    1.250    0.000    0.750    0.000    1.750 
#    0.000    0.000    0.000    0.000    0.000    0.000 
#
# Total GULP energy -396924.370998 kJ/mol
# GULP energy per Si atom -12403.886594 kJ/mol
# Density = 1.770822 g / cm^3
# Si number density = 17.748617 Si / 1000 Ang^3
#
#
#
# Elastic Constant Matrix: (Units=GPa)
#
#
# Indices 1 2 3 4 5 6 
#
# 1 83.1576 59.1373 52.4614 0.0000 0.0000 0.0000
# 2 59.1373 110.9578 58.0917 0.0000 0.0000 0.0000
# 3 52.4614 58.0917 92.4072 0.0000 0.0000 0.0000
# 4 0.0000 0.0000 0.0000 22.5736 0.0000 0.0000
# 5 0.0000 0.0000 0.0000 0.0000 31.1674 0.0000
# 6 0.0000 0.0000 0.0000 0.0000 0.0000 27.8803
#
#
#
# Elastic Compliance Matrix: (Units=1/GPa)
#
#
# Indices 1 2 3 4 5 6 
#
# 1 0.022633 -0.007953 -0.007850 0.000000 0.000000 0.000000
# 2 -0.007953 0.016229 -0.005687 0.000000 0.000000 0.000000
# 3 -0.007850 -0.005687 0.018853 0.000000 0.000000 0.000000
# 4 0.000000 0.000000 0.000000 0.044300 0.000000 0.000000
# 5 0.000000 0.000000 0.000000 0.000000 0.032085 0.000000
# 6 0.000000 0.000000 0.000000 0.000000 0.000000 0.035868
#
#
# Mechanical properties :
#
#
# Convention : Reuss Voigt Hill
#
# Bulk Modulus (GPa) = 67.86293 69.54482 68.70388
# Shear Modulus (GPa) = 22.95067 24.11306 23.53186
#
# Velocity S-wave (km/s) = 3.59987 3.68990 3.64516
# Velocity P-wave (km/s) = 7.45636 7.57774 7.51730
#
# Compressibility (1/GPa) = 0.01473559
#
# Stress axis : x y z
#
# Youngs Moduli (GPa) = 44.18257 61.61934 53.04162
#
# Poissons Ratio (x) = 0.49008 0.41635
# Poissons Ratio (y) = 0.35140 0.30164
# Poissons Ratio (z) = 0.34682 0.35042
#
# Static dielectric constant tensor:
#      x y z
#    x 3.307150 0.000000 0.000000 
#    y 0.000000 3.181970 0.000000 
#    z 0.000000 0.000000 3.335800 
# 
# 
# High freq. dielectric constant tensor:
#      x y z
#    x 1.692030 0.000000 0.000000 
#    y 0.000000 1.663940 0.000000 
#    z 0.000000 0.000000 1.687860 
# 
# From -- ./inp_files/19633.got.cif
#   From: 2010.03.12/outbox.cif.g09.slc.cpg/sg40_10_cif.got.tgz:19633.got - 2010.04.14 01:38:03.
