data_PCOD8183559
_publ_section_title
;
Structure prediction by ZEFSAII (Michael W. Deem and Ramdas Pophale) SiO2 
 PCOD8183559
Probable space group: A M A 2
;
_chemical_formula_sum "Si O2"
_cell_formula_units_Z 56
_cell_length_a 8.690246
_cell_length_b 15.705747
_cell_length_c 19.749179
_cell_angle_alpha 90.000000
_cell_angle_beta 90.000000
_cell_angle_gamma 90.000000
_cell_volume 2695.502344
_symmetry_space_group_name_H-M "A M A 2"
_symmetry_group_IT_number 40
_symmetry_cell_setting 'orthorhombic'
loop_
_space_group_symop_operation_xyz
x,y,z
-x,-y,z
1/2-x,y,z
1/2+x,-y,z
x,1/2+y,1/2+z
-x,1/2-y,1/2+z
1/2-x,1/2+y,1/2+z
1/2+x,1/2-y,1/2+z
loop_
_atom_site_type_symbol
_atom_site_label
_atom_site_fract_x
_atom_site_fract_y
_atom_site_fract_z
Si Si1 0.570793 0.693399 0.301570
Si Si2 0.081682 0.616171 0.842368
Si Si3 0.425015 0.417837 0.969779
Si Si4 0.068473 0.242358 0.024309
Si Si5 0.421828 0.081706 0.194237
Si Si6 0.428546 0.245623 0.668554
Si Si7 0.567241 0.593927 0.434331
O O1 0.750000 0.682185 0.285265
O O2 0.533769 0.786390 0.329584
O O3 0.482065 0.682124 0.229526
O O4 0.515304 0.626643 0.359388
O O5 0.250000 0.613446 0.878765
O O6 0.095704 0.563199 0.773553
O O7 0.952336 0.572964 0.889260
O O8 0.500000 0.500000 0.007032
O O9 0.250000 0.418779 0.991085
O O10 0.498374 0.326534 0.987756
O O11 0.250000 0.231154 0.014465
O O12 0.030147 0.263883 0.101691
O O13 0.989688 0.157794 0.993642
O O14 0.250000 0.100228 0.163162
O O15 0.542528 0.157417 0.188937
O O16 0.500000 0.000000 0.158187
O O17 0.250000 0.229153 0.653345
O O18 0.500000 0.500000 0.446898
O O19 0.750000 0.590103 0.438849
#
# Coordination Sequence:
#
# PCOD8183559 Si02
#       7
#     8   8   8   8   8   8   8
#     4   9  19  38  62  88 121 161 202 253 308 365
#     4   9  17  32  55  82 115 151 187 232 288 346
#     4  11  23  36  57  86 117 153 193 242 298 359
#     4  11  24  43  63  89 125 165 210 262 318 380
#     4  10  20  34  52  80 116 153 193 240 294 357
#     4  11  23  38  61  87 116 160 207 257 317 379
#     4  11  23  41  67  98 131 170 217 269 325 384
#
# _framework density 20.775348000000001
#
# number of rings (size 3 to 8) (size 9 to 14) (size 15 to 20)
#    0.000    1.714    1.429    4.286    0.000    7.429 
#    0.000    3.571    0.000    0.000    0.000    0.000 
#    0.000    0.000    0.000    0.000    0.000    0.000 
#
# Total GULP energy -346953.068558 kJ/mol
# GULP energy per Si atom -12391.181020 kJ/mol
# Density = 2.072806 g / cm^3
# Si number density = 20.775348 Si / 1000 Ang^3
#
#
#
# Elastic Constant Matrix: (Units=GPa)
#
#
# Indices 1 2 3 4 5 6 
#
# 1 76.8473 34.2829 21.2334 0.0000 0.0000 0.0000
# 2 34.2829 106.8823 24.2288 0.0000 0.0000 0.0000
# 3 21.2334 24.2288 87.6171 0.0000 0.0000 0.0000
# 4 0.0000 0.0000 0.0000 13.2998 0.0000 0.0000
# 5 0.0000 0.0000 0.0000 0.0000 29.4575 0.0000
# 6 0.0000 0.0000 0.0000 0.0000 0.0000 27.7577
#
#
#
# Elastic Compliance Matrix: (Units=1/GPa)
#
#
# Indices 1 2 3 4 5 6 
#
# 1 0.015712 -0.004456 -0.002576 0.000000 0.000000 0.000000
# 2 -0.004456 0.011245 -0.002030 0.000000 0.000000 0.000000
# 3 -0.002576 -0.002030 0.012599 0.000000 0.000000 0.000000
# 4 0.000000 0.000000 0.000000 0.075189 0.000000 0.000000
# 5 0.000000 0.000000 0.000000 0.000000 0.033947 0.000000
# 6 0.000000 0.000000 0.000000 0.000000 0.000000 0.036026
#
#
# Mechanical properties :
#
#
# Convention : Reuss Voigt Hill
#
# Bulk Modulus (GPa) = 46.65512 47.87076 47.26294
# Shear Modulus (GPa) = 23.81105 26.87643 25.34374
#
# Velocity S-wave (km/s) = 3.38911 3.60066 3.49649
# Velocity P-wave (km/s) = 6.14984 6.35441 6.25296
#
# Compressibility (1/GPa) = 0.02143387
#
# Stress axis : x y z
#
# Youngs Moduli (GPa) = 63.64428 88.92462 79.37276
#
# Poissons Ratio (x) = 0.39624 0.20443
# Poissons Ratio (y) = 0.28359 0.16111
# Poissons Ratio (z) = 0.16392 0.18050
#
# Static dielectric constant tensor:
#      x y z
#    x 3.832950 0.000000 0.000000 
#    y 0.000000 3.869950 0.000000 
#    z 0.000000 0.000000 3.844040 
# 
# 
# High freq. dielectric constant tensor:
#      x y z
#    x 1.813240 0.000000 0.000000 
#    y 0.000000 1.807290 0.000000 
#    z 0.000000 0.000000 1.799960 
# 
# From -- ./inp_files/22185.got.cif
#   From: 2010.03.12/outbox.cif.g09.slc.cpg/sg40_12_cif.got.tgz:22185.got - 2010.04.14 01:38:03.
