data_PCOD8183380
_publ_section_title
;
Structure prediction by ZEFSAII (Michael W. Deem and Ramdas Pophale) SiO2 
 PCOD8183380
Probable space group: A M A 2
;
_chemical_formula_sum "Si O2"
_cell_formula_units_Z 64
_cell_length_a 8.803291
_cell_length_b 23.481406
_cell_length_c 15.206416
_cell_angle_alpha 90.000000
_cell_angle_beta 90.000000
_cell_angle_gamma 90.000000
_cell_volume 3143.373756
_symmetry_space_group_name_H-M "A M A 2"
_symmetry_group_IT_number 40
_symmetry_cell_setting 'orthorhombic'
loop_
_space_group_symop_operation_xyz
x,y,z
-x,-y,z
1/2-x,y,z
1/2+x,-y,z
x,1/2+y,1/2+z
-x,1/2-y,1/2+z
1/2-x,1/2+y,1/2+z
1/2+x,1/2-y,1/2+z
loop_
_atom_site_type_symbol
_atom_site_label
_atom_site_fract_x
_atom_site_fract_y
_atom_site_fract_z
Si Si1 0.072839 0.378465 0.418960
Si Si2 0.075217 0.881589 0.718959
Si Si3 0.928567 0.940365 0.077038
Si Si4 0.576621 0.743006 0.154002
Si Si5 0.928799 0.439518 0.058902
Si Si6 0.072507 0.752942 0.971246
Si Si7 0.072131 0.359459 0.914090
Si Si8 0.924779 0.361398 0.736226
O O1 0.250000 0.383869 0.440300
O O2 0.035701 0.396530 0.319355
O O3 0.018954 0.313965 0.435500
O O4 0.983506 0.421430 0.481229
O O5 0.250000 0.895427 0.697038
O O6 0.041848 0.814948 0.705219
O O7 0.971649 0.920757 0.657460
O O8 0.750000 0.947051 0.074054
O O9 0.980552 0.894235 0.149292
O O10 0.000000 0.000000 0.104535
O O11 0.750000 0.744269 0.117779
O O12 0.550466 0.794172 0.222140
O O13 0.459796 0.749056 0.074591
O O14 0.750000 0.444403 0.050601
O O15 0.000000 0.500000 0.034880
O O16 0.988177 0.392839 0.991150
O O17 0.250000 0.742080 0.953378
O O18 0.975701 0.706315 0.919080
O O19 0.250000 0.366893 0.928071
O O20 0.024070 0.382932 0.818550
O O21 0.750000 0.375562 0.756876
#
# Coordination Sequence:
#
# PCOD8183380 Si02
#       8
#     8   8   8   8   8   8   8   8
#     4  10  22  40  64  93 127 165 207 256 307 364
#     4  10  21  39  64  93 126 164 202 251 310 368
#     4  11  24  42  65  90 122 164 209 260 311 365
#     4  10  19  36  63  92 128 165 201 249 311 371
#     4  12  26  45  67  91 121 161 208 262 313 371
#     4  11  21  36  62  95 129 165 204 252 311 370
#     4  12  25  41  64  94 128 167 207 254 308 372
#     4  10  22  41  64  92 126 166 208 257 311 366
#
# _framework density 20.360291
#
# number of rings (size 3 to 8) (size 9 to 14) (size 15 to 20)
#    0.000    1.250    2.500    3.750    0.000    5.500 
#    0.000    2.500    0.000    0.000    0.000    0.000 
#    0.000    0.000    0.000    0.000    0.000    0.000 
#
# Total GULP energy -397007.392369 kJ/mol
# GULP energy per Si atom -12406.481012 kJ/mol
# Density = 2.031395 g / cm^3
# Si number density = 20.360291 Si / 1000 Ang^3
#
#
#
# Elastic Constant Matrix: (Units=GPa)
#
#
# Indices 1 2 3 4 5 6 
#
# 1 96.1468 28.8470 38.9406 0.0000 0.0000 0.0000
# 2 28.8470 74.3138 13.1665 0.0000 0.0000 0.0000
# 3 38.9406 13.1665 107.5813 0.0000 0.0000 0.0000
# 4 0.0000 0.0000 0.0000 11.8748 0.0000 0.0000
# 5 0.0000 0.0000 0.0000 0.0000 36.5511 0.0000
# 6 0.0000 0.0000 0.0000 0.0000 0.0000 31.4105
#
#
#
# Elastic Compliance Matrix: (Units=1/GPa)
#
#
# Indices 1 2 3 4 5 6 
#
# 1 0.013500 -0.004472 -0.004339 0.000000 0.000000 0.000000
# 2 -0.004472 0.015236 -0.000246 0.000000 0.000000 0.000000
# 3 -0.004339 -0.000246 0.010896 0.000000 0.000000 0.000000
# 4 0.000000 0.000000 0.000000 0.084212 0.000000 0.000000
# 5 0.000000 0.000000 0.000000 0.000000 0.027359 0.000000
# 6 0.000000 0.000000 0.000000 0.000000 0.000000 0.031836
#
#
# Mechanical properties :
#
#
# Convention : Reuss Voigt Hill
#
# Bulk Modulus (GPa) = 46.47280 48.88334 47.67807
# Shear Modulus (GPa) = 24.00094 29.10647 26.55370
#
# Velocity S-wave (km/s) = 3.43711 3.78507 3.61528
# Velocity P-wave (km/s) = 6.21501 6.56990 6.39492
#
# Compressibility (1/GPa) = 0.02151796
#
# Stress axis : x y z
#
# Youngs Moduli (GPa) = 74.07531 65.63489 91.77636
#
# Poissons Ratio (x) = 0.29349 0.39823
# Poissons Ratio (y) = 0.33123 0.02259
# Poissons Ratio (z) = 0.32143 0.01615
#
# Static dielectric constant tensor:
#      x y z
#    x 3.643450 0.000000 0.000000 
#    y 0.000000 3.718160 0.000000 
#    z 0.000000 0.000000 3.720040 
# 
# 
# High freq. dielectric constant tensor:
#      x y z
#    x 1.791280 0.000000 0.000000 
#    y 0.000000 1.796340 0.000000 
#    z 0.000000 0.000000 1.804750 
# 
# From -- ./inp_files/15682.got.cif
#   From: 2010.03.12/outbox.cif.g09.slc.cpg/sg40_8_cif.got.tgz:15682.got - 2010.04.14 01:38:03.
