data_PCOD8183234
_publ_section_title
;
Structure prediction by ZEFSAII (Michael W. Deem and Ramdas Pophale) SiO2 
 PCOD8183234
Probable space group: A M A 2
;
_chemical_formula_sum "Si O2"
_cell_formula_units_Z 48
_cell_length_a 8.847988
_cell_length_b 13.514117
_cell_length_c 18.257818
_cell_angle_alpha 90.000000
_cell_angle_beta 90.000000
_cell_angle_gamma 90.000000
_cell_volume 2183.137417
_symmetry_space_group_name_H-M "A M A 2"
_symmetry_group_IT_number 40
_symmetry_cell_setting 'orthorhombic'
loop_
_space_group_symop_operation_xyz
x,y,z
-x,-y,z
1/2-x,y,z
1/2+x,-y,z
x,1/2+y,1/2+z
-x,1/2-y,1/2+z
1/2-x,1/2+y,1/2+z
1/2+x,1/2-y,1/2+z
loop_
_atom_site_type_symbol
_atom_site_label
_atom_site_fract_x
_atom_site_fract_y
_atom_site_fract_z
Si Si1 0.072874 0.803379 0.242330
Si Si2 0.586881 0.090352 0.899652
Si Si3 0.572961 0.104361 0.396930
Si Si4 0.570227 0.396544 0.610601
Si Si5 0.080194 0.402240 0.227919
Si Si6 0.428557 0.244684 0.500390
O O1 0.250000 0.813543 0.225407
O O2 0.037906 0.823035 0.327797
O O3 0.980045 0.883429 0.194997
O O4 0.020204 0.694559 0.215364
O O5 0.750000 0.080887 0.935847
O O6 0.593220 0.081391 0.813673
O O7 0.500000 0.000000 0.935883
O O8 0.521914 0.193097 0.928181
O O9 0.750000 0.091344 0.408381
O O10 0.502670 0.141035 0.475124
O O11 0.500000 0.000000 0.377132
O O12 0.500000 0.500000 0.581269
O O13 0.750000 0.399421 0.603093
O O14 0.504015 0.299712 0.569036
O O15 0.250000 0.389848 0.194888
O O16 0.000000 0.500000 0.193128
O O17 0.250000 0.230578 0.513953
#
# Coordination Sequence:
#
# PCOD8183234 Si02
#       6
#     8   8   8   8   8   8
#     4  11  23  41  65  95 130 171 217 266 321 382
#     4   9  18  30  51  82 117 155 194 242 298 356
#     4  11  24  41  65  95 127 166 215 267 321 382
#     4  12  26  44  66  95 131 171 215 263 321 384
#     4  10  19  34  56  88 125 163 206 256 312 370
#     4  11  22  40  63  91 126 164 208 260 317 378
#
# _framework density 21.986706000000002
#
# number of rings (size 3 to 8) (size 9 to 14) (size 15 to 20)
#    0.000    1.333    1.667    4.500    0.000    6.667 
#    0.000    0.833    0.000    0.000    0.000    0.000 
#    0.000    0.000    0.000    0.000    0.000    0.000 
#
# Total GULP energy -297407.398802 kJ/mol
# GULP energy per Si atom -12391.974950 kJ/mol
# Density = 2.193666 g / cm^3
# Si number density = 21.986706 Si / 1000 Ang^3
#
#
#
# Elastic Constant Matrix: (Units=GPa)
#
#
# Indices 1 2 3 4 5 6 
#
# 1 144.1726 45.1204 45.2206 0.0000 0.0000 0.0000
# 2 45.1204 98.7940 20.2355 0.0000 0.0000 0.0000
# 3 45.2206 20.2355 63.8574 0.0000 0.0000 0.0000
# 4 0.0000 0.0000 0.0000 27.2586 0.0000 0.0000
# 5 0.0000 0.0000 0.0000 0.0000 39.4740 0.0000
# 6 0.0000 0.0000 0.0000 0.0000 0.0000 43.2216
#
#
#
# Elastic Compliance Matrix: (Units=1/GPa)
#
#
# Indices 1 2 3 4 5 6 
#
# 1 0.009815 -0.003271 -0.005914 0.000000 0.000000 0.000000
# 2 -0.003271 0.011915 -0.001459 0.000000 0.000000 0.000000
# 3 -0.005914 -0.001459 0.020310 0.000000 0.000000 0.000000
# 4 0.000000 0.000000 0.000000 0.036686 0.000000 0.000000
# 5 0.000000 0.000000 0.000000 0.000000 0.025333 0.000000
# 6 0.000000 0.000000 0.000000 0.000000 0.000000 0.023137
#
#
# Mechanical properties :
#
#
# Convention : Reuss Voigt Hill
#
# Bulk Modulus (GPa) = 48.18909 58.66410 53.42660
# Shear Modulus (GPa) = 32.17489 35.07400 33.62445
#
# Velocity S-wave (km/s) = 3.82956 3.99837 3.91488
# Velocity P-wave (km/s) = 6.44353 6.93221 6.69233
#
# Compressibility (1/GPa) = 0.02075159
#
# Stress axis : x y z
#
# Youngs Moduli (GPa) = 101.88719 83.92807 49.23660
#
# Poissons Ratio (x) = 0.27455 0.29117
# Poissons Ratio (y) = 0.33330 0.07184
# Poissons Ratio (z) = 0.60253 0.12246
#
# Static dielectric constant tensor:
#      x y z
#    x 4.115740 0.000000 0.000000 
#    y 0.000000 3.992120 0.000000 
#    z 0.000000 0.000000 3.685970 
# 
# 
# High freq. dielectric constant tensor:
#      x y z
#    x 1.873130 0.000000 0.000000 
#    y 0.000000 1.868740 0.000000 
#    z 0.000000 0.000000 1.845860 
# 
# From -- ./inp_files/19223.got.cif
#   From: 2010.03.12/outbox.cif.g09.slc.cpg/sg40_10_cif.got.tgz:19223.got - 2010.04.14 01:38:03.
