data_PCOD8183868
_publ_section_title
;
Structure prediction by ZEFSAII (Michael W. Deem and Ramdas Pophale) SiO2 
 PCOD8183868
Probable space group: A M A 2
;
_chemical_formula_sum "Si O2"
_cell_formula_units_Z 64
_cell_length_a 9.182950
_cell_length_b 30.555921
_cell_length_c 11.756501
_cell_angle_alpha 90.000000
_cell_angle_beta 90.000000
_cell_angle_gamma 90.000000
_cell_volume 3298.797702
_symmetry_space_group_name_H-M "A M A 2"
_symmetry_group_IT_number 40
_symmetry_cell_setting 'orthorhombic'
loop_
_space_group_symop_operation_xyz
x,y,z
-x,-y,z
1/2-x,y,z
1/2+x,-y,z
x,1/2+y,1/2+z
-x,1/2-y,1/2+z
1/2-x,1/2+y,1/2+z
1/2+x,1/2-y,1/2+z
loop_
_atom_site_type_symbol
_atom_site_label
_atom_site_fract_x
_atom_site_fract_y
_atom_site_fract_z
Si Si1 0.920493 0.373354 0.288630
Si Si2 0.580510 0.295899 0.695906
Si Si3 0.580124 0.378788 0.550754
Si Si4 0.921353 0.697619 0.149662
Si Si5 0.577504 0.956833 0.640509
Si Si6 0.082746 0.957881 0.165825
Si Si7 0.084908 0.932917 0.417347
Si Si8 0.580793 0.666962 0.905361
O O1 0.750000 0.365231 0.274137
O O2 0.963132 0.381310 0.419016
O O3 0.971387 0.415400 0.215742
O O4 0.001357 0.329760 0.248445
O O5 0.750000 0.297886 0.722373
O O6 0.538272 0.330955 0.598891
O O7 0.532432 0.248180 0.653928
O O8 0.500557 0.304282 0.813422
O O9 0.750000 0.389021 0.569073
O O10 0.487713 0.414040 0.618606
O O11 0.750000 0.691032 0.164509
O O12 0.977449 0.679679 0.029406
O O13 0.750000 0.963580 0.642460
O O14 0.526388 0.950994 0.510520
O O15 0.500000 0.000000 0.691906
O O16 0.250000 0.959425 0.126765
O O17 0.069197 0.960271 0.302184
O O18 0.000000 0.000000 0.114648
O O19 0.250000 0.935673 0.465971
O O20 0.044574 0.883501 0.384882
O O21 0.750000 0.677681 0.893592
#
# Coordination Sequence:
#
# PCOD8183868 Si02
#       8
#     8   8   8   8   8   8   8   8
#     4  10  23  41  61  86 116 155 198 241 291 345
#     4  10  22  38  59  88 119 154 196 241 290 344
#     4  10  22  41  61  83 117 156 196 242 291 343
#     4  10  22  39  60  88 120 156 196 240 292 345
#     4  11  23  38  59  87 117 151 194 239 290 348
#     4  11  23  39  60  88 118 151 194 239 291 349
#     4  10  20  37  60  88 119 152 191 236 289 346
#     4  10  20  37  62  88 119 155 192 238 291 344
#
# _framework density 19.401007
#
# number of rings (size 3 to 8) (size 9 to 14) (size 15 to 20)
#    0.000    1.750    2.500    1.125    1.750    5.000 
#    0.000    1.250    0.000    0.000    0.000    0.000 
#    0.000    0.000    0.000    0.000    0.000    0.000 
#
# Total GULP energy -396938.600010 kJ/mol
# GULP energy per Si atom -12404.331250 kJ/mol
# Density = 1.935685 g / cm^3
# Si number density = 19.401007 Si / 1000 Ang^3
#
#
#
# Elastic Constant Matrix: (Units=GPa)
#
#
# Indices 1 2 3 4 5 6 
#
# 1 67.7561 55.5391 36.9260 0.0000 0.0000 0.0000
# 2 55.5391 124.9069 32.5829 0.0000 0.0000 0.0000
# 3 36.9260 32.5829 87.0905 0.0000 0.0000 0.0000
# 4 0.0000 0.0000 0.0000 21.5481 0.0000 0.0000
# 5 0.0000 0.0000 0.0000 0.0000 25.4606 0.0000
# 6 0.0000 0.0000 0.0000 0.0000 0.0000 35.1243
#
#
#
# Elastic Compliance Matrix: (Units=1/GPa)
#
#
# Indices 1 2 3 4 5 6 
#
# 1 0.027282 -0.010099 -0.007789 0.000000 0.000000 0.000000
# 2 -0.010099 0.012610 -0.000436 0.000000 0.000000 0.000000
# 3 -0.007789 -0.000436 0.014948 0.000000 0.000000 0.000000
# 4 0.000000 0.000000 0.000000 0.046408 0.000000 0.000000
# 5 0.000000 0.000000 0.000000 0.000000 0.039276 0.000000
# 6 0.000000 0.000000 0.000000 0.000000 0.000000 0.028470
#
#
# Mechanical properties :
#
#
# Convention : Reuss Voigt Hill
#
# Bulk Modulus (GPa) = 54.96901 58.87217 56.92059
# Shear Modulus (GPa) = 23.61771 26.74030 25.17901
#
# Velocity S-wave (km/s) = 3.49283 3.71657 3.60643
# Velocity P-wave (km/s) = 6.68289 6.98770 6.83700
#
# Compressibility (1/GPa) = 0.01819207
#
# Stress axis : x y z
#
# Youngs Moduli (GPa) = 36.65478 79.30192 66.89900
#
# Poissons Ratio (x) = 0.80085 0.52108
# Poissons Ratio (y) = 0.37017 0.02916
# Poissons Ratio (z) = 0.28551 0.03457
#
# Static dielectric constant tensor:
#      x y z
#    x 3.462140 0.000000 0.000000 
#    y 0.000000 3.711020 0.000000 
#    z 0.000000 0.000000 3.485000 
# 
# 
# High freq. dielectric constant tensor:
#      x y z
#    x 1.750260 0.000000 0.000000 
#    y 0.000000 1.769840 0.000000 
#    z 0.000000 0.000000 1.753180 
# 
# From -- ./inp_files/10554.got.cif
#   From: 2010.03.12/outbox.cif.g09.slc.cpg/sg40_6_cif.got.tgz:10554.got - 2010.04.14 01:38:03.
