data_PCOD8183594
_publ_section_title
;
Structure prediction by ZEFSAII (Michael W. Deem and Ramdas Pophale) SiO2 
 PCOD8183594
Probable space group: A M A 2
;
_chemical_formula_sum "Si O2"
_cell_formula_units_Z 56
_cell_length_a 16.946714
_cell_length_b 7.703370
_cell_length_c 20.457190
_cell_angle_alpha 90.000000
_cell_angle_beta 90.000000
_cell_angle_gamma 90.000000
_cell_volume 2670.620860
_symmetry_space_group_name_H-M "A M A 2"
_symmetry_group_IT_number 40
_symmetry_cell_setting 'orthorhombic'
loop_
_space_group_symop_operation_xyz
x,y,z
-x,-y,z
1/2-x,y,z
1/2+x,-y,z
x,1/2+y,1/2+z
-x,1/2-y,1/2+z
1/2-x,1/2+y,1/2+z
1/2+x,1/2-y,1/2+z
loop_
_atom_site_type_symbol
_atom_site_label
_atom_site_fract_x
_atom_site_fract_y
_atom_site_fract_z
Si Si1 0.163301 0.375855 0.720550
Si Si2 0.930851 0.362295 0.788876
Si Si3 0.949057 0.793058 0.045513
Si Si4 0.012384 0.693911 0.177657
Si Si5 0.340489 0.538381 0.032961
Si Si6 0.662642 0.087251 0.076925
Si Si7 0.052363 0.664714 0.930635
O O1 0.250000 0.291975 0.734117
O O2 0.147500 0.521306 0.776246
O O3 0.095823 0.228204 0.714485
O O4 0.164132 0.478208 0.651349
O O5 0.928928 0.257921 0.858408
O O6 0.000000 0.500000 0.782256
O O7 0.942637 0.226440 0.730205
O O8 0.894599 0.622999 0.053884
O O9 0.001849 0.811391 0.111658
O O10 0.897447 0.967480 0.035528
O O11 0.005096 0.786855 0.981481
O O12 0.000000 0.500000 0.153470
O O13 0.250000 0.478447 0.034740
O O14 0.358594 0.705155 0.079068
O O15 0.364231 0.603523 0.960606
O O16 0.750000 0.068483 0.044784
O O17 0.000000 0.500000 0.914886
#
# Coordination Sequence:
#
# PCOD8183594 Si02
#       7
#     8   8   8   8   8   8   8
#     4  10  20  36  58  84 115 156 199 243 303 360
#     4   9  19  37  57  80 113 150 198 242 284 357
#     4  11  20  36  59  84 115 155 193 247 298 354
#     4  11  21  36  58  86 120 153 194 247 304 356
#     4  10  21  36  55  82 116 149 190 248 302 352
#     4  10  20  34  55  87 116 147 193 241 295 355
#     4   9  19  35  56  84 109 146 200 234 287 353
#
# _framework density 20.968907000000002
#
# number of rings (size 3 to 8) (size 9 to 14) (size 15 to 20)
#    0.000    2.000    1.429    3.429    0.000    2.286 
#    2.571    1.429    0.000    0.857    0.000    0.000 
#    0.000    0.000    0.000    0.000    0.000    0.000 
#
# Total GULP energy -346885.438752 kJ/mol
# GULP energy per Si atom -12388.765670 kJ/mol
# Density = 2.092118 g / cm^3
# Si number density = 20.968907 Si / 1000 Ang^3
#
#
#
# Elastic Constant Matrix: (Units=GPa)
#
#
# Indices 1 2 3 4 5 6 
#
# 1 107.3166 40.3415 19.5254 0.0000 0.0000 0.0000
# 2 40.3415 94.4357 21.7308 0.0000 0.0000 0.0000
# 3 19.5254 21.7308 122.0507 0.0000 0.0000 0.0000
# 4 0.0000 0.0000 0.0000 21.3083 0.0000 0.0000
# 5 0.0000 0.0000 0.0000 0.0000 10.5245 0.0000
# 6 0.0000 0.0000 0.0000 0.0000 0.0000 33.9330
#
#
#
# Elastic Compliance Matrix: (Units=1/GPa)
#
#
# Indices 1 2 3 4 5 6 
#
# 1 0.011212 -0.004564 -0.000981 0.000000 0.000000 0.000000
# 2 -0.004564 0.012899 -0.001567 0.000000 0.000000 0.000000
# 3 -0.000981 -0.001567 0.008629 0.000000 0.000000 0.000000
# 4 0.000000 0.000000 0.000000 0.046930 0.000000 0.000000
# 5 0.000000 0.000000 0.000000 0.000000 0.095016 0.000000
# 6 0.000000 0.000000 0.000000 0.000000 0.000000 0.029470
#
#
# Mechanical properties :
#
#
# Convention : Reuss Voigt Hill
#
# Bulk Modulus (GPa) = 54.00272 54.11095 54.05684
# Shear Modulus (GPa) = 22.26647 29.30018 25.78332
#
# Velocity S-wave (km/s) = 3.26219 3.74212 3.51037
# Velocity P-wave (km/s) = 6.32446 6.67328 6.50121
#
# Compressibility (1/GPa) = 0.01851759
#
# Stress axis : x y z
#
# Youngs Moduli (GPa) = 89.18705 77.52318 115.88558
#
# Poissons Ratio (x) = 0.35382 0.11370
# Poissons Ratio (y) = 0.40705 0.18154
# Poissons Ratio (z) = 0.08750 0.12144
#
# Static dielectric constant tensor:
#      x y z
#    x 4.011390 0.000000 0.000000 
#    y 0.000000 3.648610 0.000000 
#    z 0.000000 0.000000 3.948290 
# 
# 
# High freq. dielectric constant tensor:
#      x y z
#    x 1.828820 0.000000 0.000000 
#    y 0.000000 1.795230 0.000000 
#    z 0.000000 0.000000 1.805790 
# 
# From -- ./inp_files/23304.got.cif
#   From: 2010.03.12/outbox.cif.g09.slc.cpg/sg40_12_cif.got.tgz:23304.got - 2010.04.14 01:38:03.
