data_PCOD8183352
_publ_section_title
;
Structure prediction by ZEFSAII (Michael W. Deem and Ramdas Pophale) SiO2 
 PCOD8183352
Probable space group: A M A 2
;
_chemical_formula_sum "Si O2"
_cell_formula_units_Z 64
_cell_length_a 9.536995
_cell_length_b 19.182145
_cell_length_c 18.342182
_cell_angle_alpha 90.000000
_cell_angle_beta 90.000000
_cell_angle_gamma 90.000000
_cell_volume 3355.519159
_symmetry_space_group_name_H-M "A M A 2"
_symmetry_group_IT_number 40
_symmetry_cell_setting 'orthorhombic'
loop_
_space_group_symop_operation_xyz
x,y,z
-x,-y,z
1/2-x,y,z
1/2+x,-y,z
x,1/2+y,1/2+z
-x,1/2-y,1/2+z
1/2-x,1/2+y,1/2+z
1/2+x,1/2-y,1/2+z
loop_
_atom_site_type_symbol
_atom_site_label
_atom_site_fract_x
_atom_site_fract_y
_atom_site_fract_z
Si Si1 0.089184 0.770001 0.268820
Si Si2 0.901039 0.382806 0.315464
Si Si3 0.909048 0.320561 0.889146
Si Si4 0.084622 0.933562 0.942198
Si Si5 0.589061 0.724271 0.134525
Si Si6 0.408525 0.287573 0.508394
Si Si7 0.966742 0.418703 0.155754
Si Si8 0.400884 0.064935 0.500574
O O1 0.250000 0.791842 0.252307
O O2 0.080371 0.699676 0.315473
O O3 0.012143 0.826606 0.319890
O O4 0.003457 0.764024 0.194432
O O5 0.750000 0.402195 0.351220
O O6 0.889283 0.407357 0.231578
O O7 0.025536 0.418695 0.360507
O O8 0.750000 0.335450 0.863071
O O9 0.963265 0.376318 0.948121
O O10 0.915384 0.245364 0.927864
O O11 0.250000 0.949048 0.934902
O O12 0.055813 0.869428 0.997130
O O13 0.000000 0.000000 0.974107
O O14 0.750000 0.749012 0.138060
O O15 0.522583 0.749134 0.058392
O O16 0.589531 0.640081 0.148336
O O17 0.250000 0.278549 0.540190
O O18 0.000000 0.500000 0.153043
O O19 0.878013 0.404342 0.082347
O O20 0.250000 0.041032 0.471185
O O21 0.500000 0.000000 0.499483
#
# Coordination Sequence:
#
# PCOD8183352 Si02
#       8
#     8   8   8   8   8   8   8   8
#     4  10  21  36  57  84 114 147 185 233 281 331
#     4  10  20  33  52  78 111 150 191 228 267 322
#     4  10  19  36  59  82 111 149 190 234 280 331
#     4  11  23  38  58  81 111 148 186 230 283 338
#     4  11  23  37  58  86 114 149 192 236 279 334
#     4  10  21  39  59  81 112 150 186 230 284 335
#     4  10  21  35  50  77 113 155 191 229 270 319
#     4  10  21  36  55  79 113 151 189 234 282 331
#
# _framework density 19.073053000000002
#
# number of rings (size 3 to 8) (size 9 to 14) (size 15 to 20)
#    0.000    1.750    2.500    1.875    0.000    7.500 
#    0.000    0.000    0.000    0.750    0.000    5.250 
#    0.000    0.000    0.000    0.000    0.000    0.000 
#
# Total GULP energy -396454.030355 kJ/mol
# GULP energy per Si atom -12389.188449 kJ/mol
# Density = 1.902964 g / cm^3
# Si number density = 19.073053 Si / 1000 Ang^3
#
#
#
# Elastic Constant Matrix: (Units=GPa)
#
#
# Indices 1 2 3 4 5 6 
#
# 1 135.2284 33.4501 48.1123 0.0000 0.0000 0.0000
# 2 33.4501 70.0110 32.6485 0.0000 0.0000 0.0000
# 3 48.1123 32.6485 80.9288 0.0000 0.0000 0.0000
# 4 0.0000 0.0000 0.0000 29.5890 0.0000 0.0000
# 5 0.0000 0.0000 0.0000 0.0000 22.3313 0.0000
# 6 0.0000 0.0000 0.0000 0.0000 0.0000 24.6748
#
#
#
# Elastic Compliance Matrix: (Units=1/GPa)
#
#
# Indices 1 2 3 4 5 6 
#
# 1 0.009694 -0.002395 -0.004797 0.000000 0.000000 0.000000
# 2 -0.002395 0.018185 -0.005913 0.000000 0.000000 0.000000
# 3 -0.004797 -0.005913 0.017594 0.000000 0.000000 0.000000
# 4 0.000000 0.000000 0.000000 0.033796 0.000000 0.000000
# 5 0.000000 0.000000 0.000000 0.000000 0.044780 0.000000
# 6 0.000000 0.000000 0.000000 0.000000 0.000000 0.040527
#
#
# Mechanical properties :
#
#
# Convention : Reuss Voigt Hill
#
# Bulk Modulus (GPa) = 51.91028 57.17667 54.54347
# Shear Modulus (GPa) = 25.35421 26.78282 26.06851
#
# Velocity S-wave (km/s) = 3.64994 3.75136 3.70100
# Velocity P-wave (km/s) = 6.71107 6.98616 6.84999
#
# Compressibility (1/GPa) = 0.01926401
#
# Stress axis : x y z
#
# Youngs Moduli (GPa) = 103.15722 54.99098 56.83865
#
# Poissons Ratio (x) = 0.13168 0.27266
# Poissons Ratio (y) = 0.24702 0.33606
# Poissons Ratio (z) = 0.49485 0.32514
#
# Static dielectric constant tensor:
#      x y z
#    x 3.467630 0.000000 0.000000 
#    y 0.000000 3.418910 0.000000 
#    z 0.000000 0.000000 3.436080 
# 
# 
# High freq. dielectric constant tensor:
#      x y z
#    x 1.743250 0.000000 0.000000 
#    y 0.000000 1.726300 0.000000 
#    z 0.000000 0.000000 1.727390 
# 
# From -- ./inp_files/19574.got.cif
#   From: 2010.03.12/outbox.cif.g09.slc.cpg/sg40_10_cif.got.tgz:19574.got - 2010.04.14 01:38:03.
