data_PCOD8183266
_publ_section_title
;
Structure prediction by ZEFSAII (Michael W. Deem and Ramdas Pophale) SiO2 
 PCOD8183266
Probable space group: A M A 2
;
_chemical_formula_sum "Si O2"
_cell_formula_units_Z 64
_cell_length_a 19.043419
_cell_length_b 17.045941
_cell_length_c 10.088746
_cell_angle_alpha 90.000000
_cell_angle_beta 90.000000
_cell_angle_gamma 90.000000
_cell_volume 3274.938072
_symmetry_space_group_name_H-M "A M A 2"
_symmetry_group_IT_number 40
_symmetry_cell_setting 'orthorhombic'
loop_
_space_group_symop_operation_xyz
x,y,z
-x,-y,z
1/2-x,y,z
1/2+x,-y,z
x,1/2+y,1/2+z
-x,1/2-y,1/2+z
1/2-x,1/2+y,1/2+z
1/2+x,1/2-y,1/2+z
loop_
_atom_site_type_symbol
_atom_site_label
_atom_site_fract_x
_atom_site_fract_y
_atom_site_fract_z
Si Si1 0.328617 0.998458 0.266780
Si Si2 0.328853 0.826211 0.245754
Si Si3 0.970947 0.683400 0.615080
Si Si4 0.961796 0.421421 0.836560
Si Si5 0.033302 0.139324 0.625895
Si Si6 0.670434 0.846059 0.787693
Si Si7 0.829626 0.494176 0.456375
Si Si8 0.538935 0.576317 0.377169
O O1 0.250000 0.027092 0.295778
O O2 0.340553 0.909063 0.323855
O O3 0.378458 0.062284 0.334168
O O4 0.345521 0.998232 0.110957
O O5 0.250000 0.829068 0.183074
O O6 0.386775 0.823204 0.131074
O O7 0.337255 0.746120 0.333710
O O8 0.994812 0.772747 0.612617
O O9 0.986656 0.646482 0.472071
O O10 0.014540 0.645617 0.735358
O O11 0.000000 0.500000 0.789747
O O12 0.980433 0.400501 0.985841
O O13 0.114977 0.135287 0.670781
O O14 0.983293 0.094486 0.728019
O O15 0.750000 0.859857 0.733892
O O16 0.654817 0.904089 0.910615
O O17 0.750000 0.517347 0.422474
O O18 0.878087 0.556781 0.378912
O O19 0.500000 0.500000 0.433309
#
# Coordination Sequence:
#
# PCOD8183266 Si02
#       8
#     8   8   8   8   8   8   8   8
#     4  10  20  37  61  89 116 151 199 253 298 342
#     4   9  17  33  56  86 116 150 194 237 282 349
#     4  11  22  39  61  84 113 159 202 239 291 355
#     4  12  23  39  57  87 121 153 192 247 298 346
#     4  11  25  38  57  85 124 155 192 244 299 351
#     4   9  19  35  56  83 117 155 193 233 288 351
#     4  10  19  34  59  91 118 150 199 250 295 347
#     4  12  21  37  61  87 115 153 199 245 291 351
#
# _framework density 19.542354
#
# number of rings (size 3 to 8) (size 9 to 14) (size 15 to 20)
#    0.000    1.500    3.750    2.250    0.000    0.500 
#    0.000    0.000    0.000    3.000    0.000    0.000 
#    0.000    0.000    0.000    0.000    0.000    0.000 
#
# Total GULP energy -396627.891367 kJ/mol
# GULP energy per Si atom -12394.621605 kJ/mol
# Density = 1.949787 g / cm^3
# Si number density = 19.542354 Si / 1000 Ang^3
#
#
#
# Elastic Constant Matrix: (Units=GPa)
#
#
# Indices 1 2 3 4 5 6 
#
# 1 92.2799 39.4379 36.1545 0.0000 0.0000 0.0000
# 2 39.4379 97.3651 35.9320 0.0000 0.0000 0.0000
# 3 36.1545 35.9320 88.1553 0.0000 0.0000 0.0000
# 4 0.0000 0.0000 0.0000 28.9846 0.0000 0.0000
# 5 0.0000 0.0000 0.0000 0.0000 16.3671 0.0000
# 6 0.0000 0.0000 0.0000 0.0000 0.0000 29.7032
#
#
#
# Elastic Compliance Matrix: (Units=1/GPa)
#
#
# Indices 1 2 3 4 5 6 
#
# 1 0.014270 -0.004261 -0.004116 0.000000 0.000000 0.000000
# 2 -0.004261 0.013362 -0.003698 0.000000 0.000000 0.000000
# 3 -0.004116 -0.003698 0.014539 0.000000 0.000000 0.000000
# 4 0.000000 0.000000 0.000000 0.034501 0.000000 0.000000
# 5 0.000000 0.000000 0.000000 0.000000 0.061098 0.000000
# 6 0.000000 0.000000 0.000000 0.000000 0.000000 0.033666
#
#
# Mechanical properties :
#
#
# Convention : Reuss Voigt Hill
#
# Bulk Modulus (GPa) = 55.49409 55.64988 55.57199
# Shear Modulus (GPa) = 24.80230 26.09604 25.44917
#
# Velocity S-wave (km/s) = 3.56639 3.65822 3.61259
# Velocity P-wave (km/s) = 6.73924 6.81042 6.77492
#
# Compressibility (1/GPa) = 0.01801994
#
# Stress axis : x y z
#
# Youngs Moduli (GPa) = 70.07595 74.84140 68.78041
#
# Poissons Ratio (x) = 0.31892 0.28307
# Poissons Ratio (y) = 0.29862 0.25438
# Poissons Ratio (z) = 0.28841 0.27680
#
# Static dielectric constant tensor:
#      x y z
#    x 3.850980 0.000000 0.000000 
#    y 0.000000 3.897020 0.000000 
#    z 0.000000 0.000000 3.152890 
# 
# 
# High freq. dielectric constant tensor:
#      x y z
#    x 1.775600 0.000000 0.000000 
#    y 0.000000 1.774400 0.000000 
#    z 0.000000 0.000000 1.719720 
# 
# From -- ./inp_files/8469.got.cif
#   From: 2010.03.12/outbox.cif.g09.slc.cpg/sg40_5_cif.got.tgz:8469.got - 2010.04.14 01:38:03.
