data_PCOD8183588
_publ_section_title
;
Structure prediction by ZEFSAII (Michael W. Deem and Ramdas Pophale) SiO2 
 PCOD8183588
Probable space group: A M A 2
;
_chemical_formula_sum "Si O2"
_cell_formula_units_Z 48
_cell_length_a 8.803586
_cell_length_b 29.883453
_cell_length_c 9.989742
_cell_angle_alpha 90.000000
_cell_angle_beta 90.000000
_cell_angle_gamma 90.000000
_cell_volume 2628.116794
_symmetry_space_group_name_H-M "A M A 2"
_symmetry_group_IT_number 40
_symmetry_cell_setting 'orthorhombic'
loop_
_space_group_symop_operation_xyz
x,y,z
-x,-y,z
1/2-x,y,z
1/2+x,-y,z
x,1/2+y,1/2+z
-x,1/2-y,1/2+z
1/2-x,1/2+y,1/2+z
1/2+x,1/2-y,1/2+z
loop_
_atom_site_type_symbol
_atom_site_label
_atom_site_fract_x
_atom_site_fract_y
_atom_site_fract_z
Si Si1 0.070874 0.952778 0.890370
Si Si2 0.924588 0.386436 0.190452
Si Si3 0.072798 0.215747 0.680804
Si Si4 0.069693 0.047400 0.171084
Si Si5 0.573468 0.879110 0.385017
Si Si6 0.070963 0.785642 0.399318
O O1 0.250000 0.958295 0.908609
O O2 0.036316 0.916687 0.776881
O O3 0.000000 0.000000 0.846076
O O4 0.997668 0.936466 0.029656
O O5 0.750000 0.398243 0.223991
O O6 0.961176 0.335013 0.225338
O O7 0.961013 0.395867 0.034975
O O8 0.250000 0.222152 0.653359
O O9 0.010822 0.248615 0.795091
O O10 0.989453 0.227953 0.544051
O O11 0.250000 0.043057 0.159370
O O12 0.019733 0.082787 0.283101
O O13 0.000000 0.000000 0.213713
O O14 0.750000 0.867792 0.369164
O O15 0.484051 0.834069 0.350808
O O16 0.250000 0.785635 0.404476
#
# Coordination Sequence:
#
# PCOD8183588 Si02
#       6
#     8   8   8   8   8   8
#     4  11  22  36  54  78 106 137 174 215 259 307
#     4   9  18  36  56  75 104 139 174 213 259 310
#     4   9  20  37  54  76 108 141 173 214 263 310
#     4  10  20  36  56  78 105 138 174 213 260 310
#     4   9  20  37  56  78 107 140 171 211 265 315
#     4  10  20  34  55  81 106 137 178 218 256 306
#
# _framework density 18.264026999999999
#
# number of rings (size 3 to 8) (size 9 to 14) (size 15 to 20)
#    0.000    2.333    0.000    4.500    0.000    7.333 
#    0.000    6.667    0.000    0.000    0.000    0.000 
#    0.000    0.000    0.000    0.000    0.000    0.000 
#
# Total GULP energy -297664.919040 kJ/mol
# GULP energy per Si atom -12402.704960 kJ/mol
# Density = 1.822246 g / cm^3
# Si number density = 18.264027 Si / 1000 Ang^3
#
#
#
# Elastic Constant Matrix: (Units=GPa)
#
#
# Indices 1 2 3 4 5 6 
#
# 1 80.2511 51.4885 51.4094 0.0000 0.0000 0.0000
# 2 51.4885 120.9445 100.0942 0.0000 0.0000 0.0000
# 3 51.4094 100.0942 125.4615 0.0000 0.0000 0.0000
# 4 0.0000 0.0000 0.0000 43.3823 0.0000 0.0000
# 5 0.0000 0.0000 0.0000 0.0000 27.7721 0.0000
# 6 0.0000 0.0000 0.0000 0.0000 0.0000 27.2157
#
#
#
# Elastic Compliance Matrix: (Units=1/GPa)
#
#
# Indices 1 2 3 4 5 6 
#
# 1 0.017694 -0.004510 -0.003652 0.000000 0.000000 0.000000
# 2 -0.004510 0.025487 -0.018486 0.000000 0.000000 0.000000
# 3 -0.003652 -0.018486 0.024215 0.000000 0.000000 0.000000
# 4 0.000000 0.000000 0.000000 0.023051 0.000000 0.000000
# 5 0.000000 0.000000 0.000000 0.000000 0.036007 0.000000
# 6 0.000000 0.000000 0.000000 0.000000 0.000000 0.036743
#
#
# Mechanical properties :
#
#
# Convention : Reuss Voigt Hill
#
# Bulk Modulus (GPa) = 70.92039 81.40459 76.16249
# Shear Modulus (GPa) = 22.60447 27.91837 25.26142
#
# Velocity S-wave (km/s) = 3.52184 3.91397 3.72307
# Velocity P-wave (km/s) = 7.44666 8.06804 7.76357
#
# Compressibility (1/GPa) = 0.01410032
#
# Stress axis : x y z
#
# Youngs Moduli (GPa) = 56.51566 39.23502 41.29631
#
# Poissons Ratio (x) = 0.17696 0.15081
# Poissons Ratio (y) = 0.25491 0.76340
# Poissons Ratio (z) = 0.20640 0.72530
#
# Static dielectric constant tensor:
#      x y z
#    x 3.325040 0.000000 0.000000 
#    y 0.000000 3.469590 0.000000 
#    z 0.000000 0.000000 3.474040 
# 
# 
# High freq. dielectric constant tensor:
#      x y z
#    x 1.711170 0.000000 0.000000 
#    y 0.000000 1.709990 0.000000 
#    z 0.000000 0.000000 1.711500 
# 
# From -- ./inp_files/4633.got.cif
#   From: 2010.03.12/outbox.cif.g09.slc.cpg/sg40_3_cif.got.tgz:4633.got - 2010.04.14 01:38:03.
