data_PCOD8183103
_publ_section_title
;
Structure prediction by ZEFSAII (Michael W. Deem and Ramdas Pophale) SiO2 
 PCOD8183103
Probable space group: A M A 2
;
_chemical_formula_sum "Si O2"
_cell_formula_units_Z 48
_cell_length_a 17.677045
_cell_length_b 16.085651
_cell_length_c 9.012171
_cell_angle_alpha 90.000000
_cell_angle_beta 90.000000
_cell_angle_gamma 90.000000
_cell_volume 2562.581774
_symmetry_space_group_name_H-M "A M A 2"
_symmetry_group_IT_number 40
_symmetry_cell_setting 'orthorhombic'
loop_
_space_group_symop_operation_xyz
x,y,z
-x,-y,z
1/2-x,y,z
1/2+x,-y,z
x,1/2+y,1/2+z
-x,1/2-y,1/2+z
1/2-x,1/2+y,1/2+z
1/2+x,1/2-y,1/2+z
loop_
_atom_site_type_symbol
_atom_site_label
_atom_site_fract_x
_atom_site_fract_y
_atom_site_fract_z
Si Si1 0.079450 0.173891 0.952680
Si Si2 0.588223 0.992193 0.113390
Si Si3 0.338744 0.685476 0.146138
Si Si4 0.165580 0.589528 0.866642
Si Si5 0.599863 0.662644 0.466779
Si Si6 0.335699 0.261583 0.193003
O O1 0.105654 0.178952 0.784190
O O2 0.989499 0.180372 0.967586
O O3 0.115519 0.251302 0.042874
O O4 0.111680 0.087158 0.015557
O O5 0.500000 0.000000 0.124644
O O6 0.616433 0.980499 0.283196
O O7 0.622005 0.073333 0.034520
O O8 0.250000 0.682538 0.190802
O O9 0.359327 0.608155 0.036334
O O10 0.354982 0.772160 0.066043
O O11 0.250000 0.554581 0.864239
O O12 0.159753 0.676467 0.782578
O O13 0.628925 0.666221 0.296612
O O14 0.250000 0.285210 0.150240
#
# Coordination Sequence:
#
# PCOD8183103 Si02
#       6
#     8   8   8   8   8   8
#     4  10  19  34  54  76 104 139 175 212 261 319
#     4   9  19  34  52  76 104 135 173 212 260 317
#     4  10  20  35  54  78 104 136 178 222 262 313
#     4   8  16  31  51  71  97 134 171 203 252 315
#     4  10  19  33  53  78 105 135 174 220 262 307
#     4   9  17  31  50  73  99 133 172 209 250 305
#
# _framework density 18.731110999999999
#
# number of rings (size 3 to 8) (size 9 to 14) (size 15 to 20)
#    0.000    2.667    0.000    3.000    0.000    3.333 
#    0.000    4.167    0.000    2.000    0.000    0.000 
#    0.000    0.000    0.000    0.000    0.000    0.000 
#
# Total GULP energy -297496.068291 kJ/mol
# GULP energy per Si atom -12395.669512 kJ/mol
# Density = 1.868848 g / cm^3
# Si number density = 18.731111 Si / 1000 Ang^3
#
#
#
# Elastic Constant Matrix: (Units=GPa)
#
#
# Indices 1 2 3 4 5 6 
#
# 1 44.2613 16.3320 15.0154 0.0000 0.0000 0.0000
# 2 16.3320 73.0539 33.3465 0.0000 0.0000 0.0000
# 3 15.0154 33.3465 102.8013 0.0000 0.0000 0.0000
# 4 0.0000 0.0000 0.0000 29.3695 0.0000 0.0000
# 5 0.0000 0.0000 0.0000 0.0000 26.9497 0.0000
# 6 0.0000 0.0000 0.0000 0.0000 0.0000 6.5455
#
#
#
# Elastic Compliance Matrix: (Units=1/GPa)
#
#
# Indices 1 2 3 4 5 6 
#
# 1 0.025027 -0.004609 -0.002160 0.000000 0.000000 0.000000
# 2 -0.004609 0.016916 -0.004814 0.000000 0.000000 0.000000
# 3 -0.002160 -0.004814 0.011605 0.000000 0.000000 0.000000
# 4 0.000000 0.000000 0.000000 0.034049 0.000000 0.000000
# 5 0.000000 0.000000 0.000000 0.000000 0.037106 0.000000
# 6 0.000000 0.000000 0.000000 0.000000 0.000000 0.152778
#
#
# Mechanical properties :
#
#
# Convention : Reuss Voigt Hill
#
# Bulk Modulus (GPa) = 32.91544 38.83380 35.87462
# Shear Modulus (GPa) = 16.08886 22.93445 19.51165
#
# Velocity S-wave (km/s) = 2.93394 3.50294 3.23099
# Velocity P-wave (km/s) = 5.39334 6.09410 5.75440
#
# Compressibility (1/GPa) = 0.03038088
#
# Stress axis : x y z
#
# Youngs Moduli (GPa) = 39.95740 59.11437 86.17235
#
# Poissons Ratio (x) = 0.27245 0.18617
# Poissons Ratio (y) = 0.18416 0.41484
# Poissons Ratio (z) = 0.08633 0.28458
#
# Static dielectric constant tensor:
#      x y z
#    x 3.426000 0.000000 0.000000 
#    y 0.000000 3.428090 0.000000 
#    z 0.000000 0.000000 3.658620 
# 
# 
# High freq. dielectric constant tensor:
#      x y z
#    x 1.732410 0.000000 0.000000 
#    y 0.000000 1.698810 0.000000 
#    z 0.000000 0.000000 1.730310 
# 
# From -- ./inp_files/6431.got.cif
#   From: 2010.03.12/outbox.cif.g09.slc.cpg/sg40_4_cif.got.tgz:6431.got - 2010.04.14 01:38:03.
