data_PCOD8183692
_publ_section_title
;
Structure prediction by ZEFSAII (Michael W. Deem and Ramdas Pophale) SiO2 
 PCOD8183692
Probable space group: A M A 2
;
_chemical_formula_sum "Si O2"
_cell_formula_units_Z 48
_cell_length_a 8.786438
_cell_length_b 20.422667
_cell_length_c 14.450806
_cell_angle_alpha 90.000000
_cell_angle_beta 90.000000
_cell_angle_gamma 90.000000
_cell_volume 2593.088718
_symmetry_space_group_name_H-M "A M A 2"
_symmetry_group_IT_number 40
_symmetry_cell_setting 'orthorhombic'
loop_
_space_group_symop_operation_xyz
x,y,z
-x,-y,z
1/2-x,y,z
1/2+x,-y,z
x,1/2+y,1/2+z
-x,1/2-y,1/2+z
1/2-x,1/2+y,1/2+z
1/2+x,1/2-y,1/2+z
loop_
_atom_site_type_symbol
_atom_site_label
_atom_site_fract_x
_atom_site_fract_y
_atom_site_fract_z
Si Si1 0.569662 0.693053 0.633550
Si Si2 0.927230 0.632227 0.333263
Si Si3 0.929158 0.070148 0.639022
Si Si4 0.572422 0.568402 0.524703
Si Si5 0.429214 0.772007 0.337944
Si Si6 0.069706 0.182026 0.520426
O O1 0.750000 0.693878 0.624237
O O2 0.504179 0.626130 0.589492
O O3 0.517497 0.698841 0.739504
O O4 0.506025 0.754929 0.576013
O O5 0.750000 0.653015 0.333542
O O6 0.975904 0.595169 0.240500
O O7 0.964512 0.584039 0.417962
O O8 0.029515 0.696016 0.343731
O O9 0.750000 0.065679 0.628044
O O10 0.994922 0.117597 0.561638
O O11 0.000000 0.000000 0.621484
O O12 0.500000 0.500000 0.554271
O O13 0.750000 0.562240 0.541960
O O14 0.250000 0.780196 0.352981
O O15 0.519769 0.813000 0.414166
O O16 0.250000 0.176264 0.527770
#
# Coordination Sequence:
#
# PCOD8183692 Si02
#       6
#     8   8   8   8   8   8
#     4   9  19  36  58  80 113 152 188 233 288 340
#     4  10  20  35  57  85 120 152 185 234 292 349
#     4  11  23  38  58  88 121 156 196 241 292 353
#     4  10  20  37  56  81 115 152 187 228 283 341
#     4  11  21  35  58  89 115 147 195 241 286 345
#     4  11  21  39  61  83 115 156 194 240 295 344
#
# _framework density 18.510743000000002
#
# number of rings (size 3 to 8) (size 9 to 14) (size 15 to 20)
#    0.000    1.667    3.333    2.000    0.000    1.333 
#    0.000    2.500    0.000    2.000    0.000    0.000 
#    0.000    0.000    0.000    0.000    0.000    0.000 
#
# Total GULP energy -297692.304010 kJ/mol
# GULP energy per Si atom -12403.846000 kJ/mol
# Density = 1.846861 g / cm^3
# Si number density = 18.510743 Si / 1000 Ang^3
#
#
#
# Elastic Constant Matrix: (Units=GPa)
#
#
# Indices 1 2 3 4 5 6 
#
# 1 46.9405 32.6274 26.3762 0.0000 0.0000 0.0000
# 2 32.6274 134.6047 59.5541 0.0000 0.0000 0.0000
# 3 26.3762 59.5541 121.5048 0.0000 0.0000 0.0000
# 4 0.0000 0.0000 0.0000 34.0900 0.0000 0.0000
# 5 0.0000 0.0000 0.0000 0.0000 23.3024 0.0000
# 6 0.0000 0.0000 0.0000 0.0000 0.0000 34.1840
#
#
#
# Elastic Compliance Matrix: (Units=1/GPa)
#
#
# Indices 1 2 3 4 5 6 
#
# 1 0.026643 -0.004979 -0.003343 0.000000 0.000000 0.000000
# 2 -0.004979 0.010417 -0.004025 0.000000 0.000000 0.000000
# 3 -0.003343 -0.004025 0.010929 0.000000 0.000000 0.000000
# 4 0.000000 0.000000 0.000000 0.029334 0.000000 0.000000
# 5 0.000000 0.000000 0.000000 0.000000 0.042914 0.000000
# 6 0.000000 0.000000 0.000000 0.000000 0.000000 0.029253
#
#
# Mechanical properties :
#
#
# Convention : Reuss Voigt Hill
#
# Bulk Modulus (GPa) = 42.92902 60.01836 51.47369
# Shear Modulus (GPa) = 27.48029 30.61477 29.04753
#
# Velocity S-wave (km/s) = 3.85718 4.07122 3.96564
# Velocity P-wave (km/s) = 6.56345 7.38875 6.98829
#
# Compressibility (1/GPa) = 0.02329427
#
# Stress axis : x y z
#
# Youngs Moduli (GPa) = 37.53344 95.99930 91.50300
#
# Poissons Ratio (x) = 0.47797 0.30592
# Poissons Ratio (y) = 0.18687 0.36828
# Poissons Ratio (z) = 0.12548 0.38638
#
# Static dielectric constant tensor:
#      x y z
#    x 3.278030 0.000000 0.000000 
#    y 0.000000 3.476600 0.000000 
#    z 0.000000 0.000000 3.665890 
# 
# 
# High freq. dielectric constant tensor:
#      x y z
#    x 1.707550 0.000000 0.000000 
#    y 0.000000 1.717750 0.000000 
#    z 0.000000 0.000000 1.724750 
# 
# From -- ./inp_files/15020.got.cif
#   From: 2010.03.12/outbox.cif.g09.slc.cpg/sg40_8_cif.got.tgz:15020.got - 2010.04.14 01:38:03.
