data_PCOD8183653
_publ_section_title
;
Structure prediction by ZEFSAII (Michael W. Deem and Ramdas Pophale) SiO2 
 PCOD8183653
Probable space group: A M A 2
;
_chemical_formula_sum "Si O2"
_cell_formula_units_Z 64
_cell_length_a 8.664296
_cell_length_b 20.138056
_cell_length_c 19.625190
_cell_angle_alpha 90.000000
_cell_angle_beta 90.000000
_cell_angle_gamma 90.000000
_cell_volume 3424.243933
_symmetry_space_group_name_H-M "A M A 2"
_symmetry_group_IT_number 40
_symmetry_cell_setting 'orthorhombic'
loop_
_space_group_symop_operation_xyz
x,y,z
-x,-y,z
1/2-x,y,z
1/2+x,-y,z
x,1/2+y,1/2+z
-x,1/2-y,1/2+z
1/2-x,1/2+y,1/2+z
1/2+x,1/2-y,1/2+z
loop_
_atom_site_type_symbol
_atom_site_label
_atom_site_fract_x
_atom_site_fract_y
_atom_site_fract_z
Si Si1 0.570664 0.185753 0.239410
Si Si2 0.427839 0.324212 0.081876
Si Si3 0.432444 0.929433 0.982213
Si Si4 0.568898 0.429899 0.985087
Si Si5 0.431102 0.570101 0.337503
Si Si6 0.932444 0.570567 0.840377
Si Si7 0.070664 0.814247 0.083180
Si Si8 0.072161 0.824212 0.740714
O O1 0.750000 0.201886 0.251206
O O2 0.514379 0.124550 0.285169
O O3 0.537190 0.166610 0.161295
O O4 0.473517 0.249801 0.261940
O O5 0.250000 0.336258 0.063242
O O6 0.473518 0.249801 0.060650
O O7 0.460892 0.335481 0.161295
O O8 0.533599 0.375496 0.041743
O O9 0.250000 0.935365 0.977963
O O10 0.496006 0.907217 0.908973
O O11 0.500000 0.000000 0.005208
O O12 0.485622 0.875450 0.037420
O O13 0.500000 0.500000 0.009412
O O14 0.750000 0.438049 0.975481
O O15 0.496006 0.407217 0.913617
O O16 0.500000 0.500000 0.313178
O O17 0.250000 0.561951 0.347109
O O18 0.466401 0.624505 0.280847
O O19 0.750000 0.564635 0.844627
O O20 0.000000 0.500000 0.817382
O O21 0.250000 0.798114 0.071384
O O22 0.250000 0.836258 0.759347
#
# Coordination Sequence:
#
# PCOD8183653 Si02
#       8
#     8   8   8   8   8   8   8   8
#     4   9  19  36  56  79 108 142 179 219 264 313
#     4  10  21  37  57  81 108 138 175 219 265 315
#     4  10  20  35  55  79 109 142 178 221 265 313
#     4  11  22  37  57  79 107 141 177 219 264 314
#     4  11  22  37  57  79 107 141 177 219 264 314
#     4  10  20  35  55  79 109 142 178 221 265 313
#     4   9  19  36  56  79 108 142 179 219 264 313
#     4  10  21  37  57  81 108 138 175 219 265 315
#
# _framework density 18.690258
#
# number of rings (size 3 to 8) (size 9 to 14) (size 15 to 20)
#    0.000    2.000    0.000    5.250    0.000    5.500 
#    0.000    0.000    0.000    0.000    0.000    0.000 
#    0.000    0.000    0.000    0.000    0.000    0.000 
#
# Total GULP energy -396946.746564 kJ/mol
# GULP energy per Si atom -12404.585830 kJ/mol
# Density = 1.864772 g / cm^3
# Si number density = 18.690258 Si / 1000 Ang^3
#
#
#
# Elastic Constant Matrix: (Units=GPa)
#
#
# Indices 1 2 3 4 5 6 
#
# 1 86.6119 47.7143 37.8410 0.0000 0.0000 0.0000
# 2 47.7143 128.4106 82.3469 0.0000 0.0000 0.0000
# 3 37.8410 82.3469 88.3520 0.0000 0.0000 0.0000
# 4 0.0000 0.0000 0.0000 39.4643 0.0000 0.0000
# 5 0.0000 0.0000 0.0000 0.0000 -0.1832 0.0000
# 6 0.0000 0.0000 0.0000 0.0000 0.0000 36.0392
#
#
#
# Elastic Compliance Matrix: (Units=1/GPa)
#
#
# Indices 1 2 3 4 5 6 
#
# 1 0.014835 -0.003574 -0.003023 0.000000 0.000000 0.000000
# 2 -0.003574 0.020218 -0.017313 0.000000 0.000000 0.000000
# 3 -0.003023 -0.017313 0.028750 0.000000 0.000000 0.000000
# 4 0.000000 0.000000 0.000000 0.025339 0.000000 0.000000
# 5 0.000000 0.000000 0.000000 0.000000 -5.459643 0.000000
# 6 0.000000 0.000000 0.000000 0.000000 0.000000 0.027748
#
#
# Mechanical properties :
#
#
# Convention : Reuss Voigt Hill
#
# Bulk Modulus (GPa) = 62.56706 71.01989 66.79347
# Shear Modulus (GPa) = -0.94525 24.09554 11.57515
#
# Velocity S-wave (km/s) = -0.71193 3.59444 2.49130
# Velocity P-wave (km/s) = 5.73347 7.43690 6.64004
#
# Compressibility (1/GPa) = 0.01598285
#
# Stress axis : x y z
#
# Youngs Moduli (GPa) = 67.40649 49.46062 34.78309
#
# Poissons Ratio (x) = 0.17677 0.10515
# Poissons Ratio (y) = 0.24090 0.60221
# Poissons Ratio (z) = 0.20377 0.85632
#
# Static dielectric constant tensor:
#      x y z
#    x 3.493160 0.000000 0.000000 
#    y 0.000000 3.475470 0.000000 
#    z 0.000000 0.000000 3.427170 
# 
# 
# High freq. dielectric constant tensor:
#      x y z
#    x 1.737570 0.000000 0.000000 
#    y 0.000000 1.730420 0.000000 
#    z 0.000000 0.000000 1.724280 
# 
# From -- ./inp_files/22435.got.cif
#   From: 2010.03.12/outbox.cif.g09.slc.cpg/sg40_12_cif.got.tgz:22435.got - 2010.04.14 01:38:03.
