data_PCOD8183398
_publ_section_title
;
Structure prediction by ZEFSAII (Michael W. Deem and Ramdas Pophale) SiO2 
 PCOD8183398
Probable space group: A M A 2
;
_chemical_formula_sum "Si O2"
_cell_formula_units_Z 36
_cell_length_a 10.010754
_cell_length_b 19.952342
_cell_length_c 8.401731
_cell_angle_alpha 90.000000
_cell_angle_beta 90.000000
_cell_angle_gamma 90.000000
_cell_volume 1678.144841
_symmetry_space_group_name_H-M "A M A 2"
_symmetry_group_IT_number 40
_symmetry_cell_setting 'orthorhombic'
loop_
_space_group_symop_operation_xyz
x,y,z
-x,-y,z
1/2-x,y,z
1/2+x,-y,z
x,1/2+y,1/2+z
-x,1/2-y,1/2+z
1/2-x,1/2+y,1/2+z
1/2+x,1/2-y,1/2+z
loop_
_atom_site_type_symbol
_atom_site_label
_atom_site_fract_x
_atom_site_fract_y
_atom_site_fract_z
Si Si1 0.250000 0.215201 0.113060
Si Si2 0.750000 0.965144 0.116014
Si Si3 0.750000 0.640847 0.988522
Si Si4 0.468484 0.127212 0.972342
Si Si5 0.750000 0.122446 0.127756
Si Si6 0.494363 0.079582 0.620968
Si Si7 0.750000 0.381176 0.908783
O O1 0.250000 0.295125 0.105779
O O2 0.380374 0.191677 0.016312
O O3 0.250000 0.185786 0.295139
O O4 0.613185 0.937756 0.035974
O O5 0.750000 0.946168 0.299381
O O6 0.750000 0.043330 0.114297
O O7 0.625506 0.594684 0.023634
O O8 0.750000 0.656673 0.800964
O O9 0.613357 0.143988 0.043814
O O10 0.488747 0.118499 0.786194
O O11 0.377388 0.112893 0.519766
O O12 0.500000 0.000000 0.648361
#
# Coordination Sequence:
#
# PCOD8183398 Si02
#       7
#     4   4   4   8   4   8   4
#     4  10  25  48  60  88 124 179 229 257 325 384
#     4  10  19  37  62  94 128 168 210 257 323 392
#     4  12  27  41  65  93 129 168 222 274 313 392
#     4  10  23  40  65  91 133 172 211 267 321 390
#     4  12  21  38  64  95 122 167 214 265 322 373
#     4  12  23  40  65 102 132 166 213 273 334 381
#     4  10  22  40  65  88 131 172 209 263 315 383
#
# _framework density 21.452259999999999
#
# number of rings (size 3 to 8) (size 9 to 14) (size 15 to 20)
#    0.000    1.333    0.000    8.667    0.000    3.556 
#    0.000    3.333    0.000    0.000    0.000    0.000 
#    0.000    0.000    0.000    0.000    0.000    0.000 
#
# Total GULP energy -223096.105904 kJ/mol
# GULP energy per Si atom -12394.228106 kJ/mol
# Density = 2.140343 g / cm^3
# Si number density = 21.452260 Si / 1000 Ang^3
#
#
#
# Elastic Constant Matrix: (Units=GPa)
#
#
# Indices 1 2 3 4 5 6 
#
# 1 198.6437 20.2479 70.7956 0.0000 0.0000 0.0000
# 2 20.2479 50.1324 -3.5825 0.0000 0.0000 0.0000
# 3 70.7956 -3.5825 159.4761 0.0000 0.0000 0.0000
# 4 0.0000 0.0000 0.0000 20.1927 0.0000 0.0000
# 5 0.0000 0.0000 0.0000 0.0000 27.6914 0.0000
# 6 0.0000 0.0000 0.0000 0.0000 0.0000 20.0670
#
#
#
# Elastic Compliance Matrix: (Units=1/GPa)
#
#
# Indices 1 2 3 4 5 6 
#
# 1 0.006342 -0.002767 -0.002877 0.000000 0.000000 0.000000
# 2 -0.002767 0.021187 0.001704 0.000000 0.000000 0.000000
# 3 -0.002877 0.001704 0.007586 0.000000 0.000000 0.000000
# 4 0.000000 0.000000 0.000000 0.049523 0.000000 0.000000
# 5 0.000000 0.000000 0.000000 0.000000 0.036112 0.000000
# 6 0.000000 0.000000 0.000000 0.000000 0.000000 0.049833
#
#
# Mechanical properties :
#
#
# Convention : Reuss Voigt Hill
#
# Bulk Modulus (GPa) = 36.71855 64.79713 50.75784
# Shear Modulus (GPa) = 26.66090 34.97631 30.81861
#
# Velocity S-wave (km/s) = 3.52916 4.04223 3.79438
# Velocity P-wave (km/s) = 5.81035 7.21506 6.55047
#
# Compressibility (1/GPa) = 0.02723419
#
# Stress axis : x y z
#
# Youngs Moduli (GPa) = 157.68735 47.19982 131.81892
#
# Poissons Ratio (x) = 0.13060 0.37929
# Poissons Ratio (y) = 0.43631 -0.22465
# Poissons Ratio (z) = 0.45373 -0.08044
#
# Static dielectric constant tensor:
#      x y z
#    x 4.717890 0.000000 0.000000 
#    y 0.000000 3.627950 0.000000 
#    z 0.000000 0.000000 4.045360 
# 
# 
# High freq. dielectric constant tensor:
#      x y z
#    x 1.866270 0.000000 0.000000 
#    y 0.000000 1.824600 0.000000 
#    z 0.000000 0.000000 1.855530 
# 
# From -- ./inp_files/4160.got.cif
#   From: 2010.03.12/outbox.cif.g09.slc.cpg/sg40_3_cif.got.tgz:4160.got - 2010.04.14 01:38:03.
