data_PCOD8183019
_publ_section_title
;
Structure prediction by ZEFSAII (Michael W. Deem and Ramdas Pophale) SiO2 
 PCOD8183019
Probable space group: A M A 2
;
_chemical_formula_sum "Si O2"
_cell_formula_units_Z 64
_cell_length_a 8.917473
_cell_length_b 22.187307
_cell_length_c 15.571822
_cell_angle_alpha 90.000000
_cell_angle_beta 90.000000
_cell_angle_gamma 90.000000
_cell_volume 3080.958343
_symmetry_space_group_name_H-M "A M A 2"
_symmetry_group_IT_number 40
_symmetry_cell_setting 'orthorhombic'
loop_
_space_group_symop_operation_xyz
x,y,z
-x,-y,z
1/2-x,y,z
1/2+x,-y,z
x,1/2+y,1/2+z
-x,1/2-y,1/2+z
1/2-x,1/2+y,1/2+z
1/2+x,1/2-y,1/2+z
loop_
_atom_site_type_symbol
_atom_site_label
_atom_site_fract_x
_atom_site_fract_y
_atom_site_fract_z
Si Si1 0.422734 0.435610 0.322940
Si Si2 0.424837 0.689598 0.070873
Si Si3 0.577139 0.063771 0.012752
Si Si4 0.927315 0.321790 0.261480
Si Si5 0.572396 0.940293 0.505323
Si Si6 0.080038 0.895296 0.342655
Si Si7 0.417917 0.261797 0.913053
Si Si8 0.428106 0.066188 0.176669
O O1 0.500000 0.500000 0.312475
O O2 0.250000 0.443991 0.297943
O O3 0.438576 0.406539 0.418890
O O4 0.500123 0.387916 0.260441
O O5 0.250000 0.694027 0.053571
O O6 0.467135 0.707792 0.168711
O O7 0.477385 0.620355 0.055267
O O8 0.496820 0.737428 0.004376
O O9 0.750000 0.056497 0.040128
O O10 0.487151 0.098435 0.088455
O O11 0.500000 0.000000 0.002389
O O12 0.750000 0.329082 0.269641
O O13 0.991445 0.281620 0.340335
O O14 0.750000 0.947597 0.502519
O O15 0.506249 0.937983 0.409155
O O16 0.500000 0.000000 0.549946
O O17 0.250000 0.919230 0.329903
O O18 0.080731 0.827750 0.374683
O O19 0.988604 0.894345 0.254486
O O20 0.250000 0.239713 0.932203
O O21 0.250000 0.062913 0.177871
O O22 0.500000 0.000000 0.182647
#
# Coordination Sequence:
#
# PCOD8183019 Si02
#       8
#     8   8   8   8   8   8   8   8
#     4  10  21  37  59  87 117 152 189 233 286 344
#     4   9  20  38  60  84 116 153 191 238 290 343
#     4   9  17  31  49  71 103 141 181 224 274 328
#     4  10  21  40  63  88 118 153 192 238 292 348
#     4  10  19  32  51  78 110 146 186 230 282 342
#     4  10  19  33  51  73 105 146 189 236 286 340
#     4   9  20  39  61  82 111 150 192 240 291 339
#     4  11  20  30  47  73 106 145 188 235 286 340
#
# _framework density 20.772756999999999
#
# number of rings (size 3 to 8) (size 9 to 14) (size 15 to 20)
#    0.000    2.250    0.000    3.750    0.000    4.000 
#    2.250    1.250    0.000    0.000    0.000    0.000 
#    0.000    0.000    0.000    0.000    0.000    0.000 
#
# Total GULP energy -396623.805742 kJ/mol
# GULP energy per Si atom -12394.493929 kJ/mol
# Density = 2.072548 g / cm^3
# Si number density = 20.772757 Si / 1000 Ang^3
#
#
#
# Elastic Constant Matrix: (Units=GPa)
#
#
# Indices 1 2 3 4 5 6 
#
# 1 107.3226 24.6233 50.9198 0.0000 0.0000 0.0000
# 2 24.6233 58.5021 39.0808 0.0000 0.0000 0.0000
# 3 50.9198 39.0808 128.7080 0.0000 0.0000 0.0000
# 4 0.0000 0.0000 0.0000 24.5507 0.0000 0.0000
# 5 0.0000 0.0000 0.0000 0.0000 31.3947 0.0000
# 6 0.0000 0.0000 0.0000 0.0000 0.0000 19.1224
#
#
#
# Elastic Compliance Matrix: (Units=1/GPa)
#
#
# Indices 1 2 3 4 5 6 
#
# 1 0.011713 -0.002301 -0.003935 0.000000 0.000000 0.000000
# 2 -0.002301 0.021895 -0.005738 0.000000 0.000000 0.000000
# 3 -0.003935 -0.005738 0.011069 0.000000 0.000000 0.000000
# 4 0.000000 0.000000 0.000000 0.040732 0.000000 0.000000
# 5 0.000000 0.000000 0.000000 0.000000 0.031852 0.000000
# 6 0.000000 0.000000 0.000000 0.000000 0.000000 0.052295
#
#
# Mechanical properties :
#
#
# Convention : Reuss Voigt Hill
#
# Bulk Modulus (GPa) = 48.24347 58.19784 53.22066
# Shear Modulus (GPa) = 24.94853 27.00750 25.97801
#
# Velocity S-wave (km/s) = 3.46934 3.60966 3.54019
# Velocity P-wave (km/s) = 6.27082 6.74167 6.51050
#
# Compressibility (1/GPa) = 0.02072819
#
# Stress axis : x y z
#
# Youngs Moduli (GPa) = 85.37759 45.67268 90.34597
#
# Poissons Ratio (x) = 0.10510 0.35552
# Poissons Ratio (y) = 0.19646 0.51839
# Poissons Ratio (z) = 0.33597 0.26206
#
# Static dielectric constant tensor:
#      x y z
#    x 3.812110 0.000000 0.000000 
#    y 0.000000 3.488690 0.000000 
#    z 0.000000 0.000000 4.295150 
# 
# 
# High freq. dielectric constant tensor:
#      x y z
#    x 1.813560 0.000000 0.000000 
#    y 0.000000 1.785220 0.000000 
#    z 0.000000 0.000000 1.822470 
# 
# From -- ./inp_files/15668.got.cif
#   From: 2010.03.12/outbox.cif.g09.slc.cpg/sg40_8_cif.got.tgz:15668.got - 2010.04.14 01:38:03.
