data_PCOD8183727
_publ_section_title
;
Structure prediction by ZEFSAII (Michael W. Deem and Ramdas Pophale) SiO2 
 PCOD8183727
Probable space group: A M A 2
;
_chemical_formula_sum "Si O2"
_cell_formula_units_Z 64
_cell_length_a 8.723458
_cell_length_b 23.190885
_cell_length_c 18.826593
_cell_angle_alpha 90.000000
_cell_angle_beta 90.000000
_cell_angle_gamma 90.000000
_cell_volume 3808.708461
_symmetry_space_group_name_H-M "A M A 2"
_symmetry_group_IT_number 40
_symmetry_cell_setting 'orthorhombic'
loop_
_space_group_symop_operation_xyz
x,y,z
-x,-y,z
1/2-x,y,z
1/2+x,-y,z
x,1/2+y,1/2+z
-x,1/2-y,1/2+z
1/2-x,1/2+y,1/2+z
1/2+x,1/2-y,1/2+z
loop_
_atom_site_type_symbol
_atom_site_label
_atom_site_fract_x
_atom_site_fract_y
_atom_site_fract_z
Si Si1 0.069657 0.438186 0.417630
Si Si2 0.572578 0.666141 0.041883
Si Si3 0.570646 0.060650 0.638044
Si Si4 0.072234 0.160030 0.000703
Si Si5 0.930594 0.384095 0.277050
Si Si6 0.926556 0.271990 0.637886
Si Si7 0.571399 0.750831 0.780002
Si Si8 0.428998 0.232332 0.423790
O O1 0.250000 0.443670 0.412040
O O2 0.000000 0.500000 0.434274
O O3 0.024546 0.396635 0.482801
O O4 0.006968 0.413221 0.344500
O O5 0.750000 0.675789 0.022372
O O6 0.539596 0.602706 0.071589
O O7 0.522502 0.712161 0.101516
O O8 0.472956 0.676481 0.970976
O O9 0.750000 0.055233 0.654542
O O10 0.487689 0.083491 0.707653
O O11 0.500000 0.000000 0.615149
O O12 0.250000 0.148154 0.984777
O O13 0.044239 0.175672 0.083126
O O14 0.022259 0.212355 0.950435
O O15 0.750000 0.391639 0.283259
O O16 0.979280 0.317433 0.273448
O O17 0.750000 0.268887 0.661221
O O18 0.029628 0.281978 0.707202
O O19 0.750000 0.744181 0.795656
O O20 0.476789 0.720306 0.842801
O O21 0.250000 0.245070 0.429651
#
# Coordination Sequence:
#
# PCOD8183727 Si02
#       8
#     8   8   8   8   8   8   8   8
#     4  12  24  37  54  74 101 139 179 218 255 302
#     4   9  19  35  52  71 100 135 169 211 259 304
#     4  11  22  36  53  73 102 139 178 218 257 303
#     4  10  20  36  53  74 103 134 169 212 258 305
#     4  11  22  35  50  72 104 141 179 217 251 297
#     4   9  18  33  53  74 101 132 168 210 257 307
#     4  11  21  32  51  76 106 138 171 211 255 306
#     4  11  21  32  52  76 102 133 170 213 257 307
#
# _framework density 16.803597
#
# number of rings (size 3 to 8) (size 9 to 14) (size 15 to 20)
#    0.000    1.500    2.500    4.875    0.000    4.500 
#    0.000    0.000    0.000    0.000    0.000    0.875 
#    0.000    2.000    0.000    0.000    0.000    0.000 
#
# Total GULP energy -396938.513546 kJ/mol
# GULP energy per Si atom -12404.328548 kJ/mol
# Density = 1.676535 g / cm^3
# Si number density = 16.803597 Si / 1000 Ang^3
#
#
#
# Elastic Constant Matrix: (Units=GPa)
#
#
# Indices 1 2 3 4 5 6 
#
# 1 87.1851 40.9138 43.3518 0.0000 0.0000 0.0000
# 2 40.9138 77.0128 48.4954 0.0000 0.0000 0.0000
# 3 43.3518 48.4954 106.2421 0.0000 0.0000 0.0000
# 4 0.0000 0.0000 0.0000 20.5154 0.0000 0.0000
# 5 0.0000 0.0000 0.0000 0.0000 30.9749 0.0000
# 6 0.0000 0.0000 0.0000 0.0000 0.0000 19.7551
#
#
#
# Elastic Compliance Matrix: (Units=1/GPa)
#
#
# Indices 1 2 3 4 5 6 
#
# 1 0.016296 -0.006274 -0.003786 0.000000 0.000000 0.000000
# 2 -0.006274 0.020638 -0.006860 0.000000 0.000000 0.000000
# 3 -0.003786 -0.006860 0.014089 0.000000 0.000000 0.000000
# 4 0.000000 0.000000 0.000000 0.048744 0.000000 0.000000
# 5 0.000000 0.000000 0.000000 0.000000 0.032284 0.000000
# 6 0.000000 0.000000 0.000000 0.000000 0.000000 0.050620
#
#
# Mechanical properties :
#
#
# Convention : Reuss Voigt Hill
#
# Bulk Modulus (GPa) = 58.19713 59.55136 58.87424
# Shear Modulus (GPa) = 22.49833 23.42770 22.96301
#
# Velocity S-wave (km/s) = 3.66307 3.73796 3.70070
# Velocity P-wave (km/s) = 7.25256 7.35842 7.30568
#
# Compressibility (1/GPa) = 0.01718298
#
# Stress axis : x y z
#
# Youngs Moduli (GPa) = 61.36299 48.45478 70.97778
#
# Poissons Ratio (x) = 0.30398 0.26873
# Poissons Ratio (y) = 0.38496 0.48694
# Poissons Ratio (z) = 0.23233 0.33242
#
# Static dielectric constant tensor:
#      x y z
#    x 3.229290 0.000000 0.000000 
#    y 0.000000 3.124420 0.000000 
#    z 0.000000 0.000000 3.192720 
# 
# 
# High freq. dielectric constant tensor:
#      x y z
#    x 1.662240 0.000000 0.000000 
#    y 0.000000 1.620710 0.000000 
#    z 0.000000 0.000000 1.643540 
# 
# From -- ./inp_files/19594.got.cif
#   From: 2010.03.12/outbox.cif.g09.slc.cpg/sg40_10_cif.got.tgz:19594.got - 2010.04.14 01:38:03.
