data_PCOD8183194
_publ_section_title
;
Structure prediction by ZEFSAII (Michael W. Deem and Ramdas Pophale) SiO2 
 PCOD8183194
Probable space group: A M A 2
;
_chemical_formula_sum "Si O2"
_cell_formula_units_Z 48
_cell_length_a 8.522708
_cell_length_b 29.954714
_cell_length_c 10.055848
_cell_angle_alpha 90.000000
_cell_angle_beta 90.000000
_cell_angle_gamma 90.000000
_cell_volume 2567.210537
_symmetry_space_group_name_H-M "A M A 2"
_symmetry_group_IT_number 40
_symmetry_cell_setting 'orthorhombic'
loop_
_space_group_symop_operation_xyz
x,y,z
-x,-y,z
1/2-x,y,z
1/2+x,-y,z
x,1/2+y,1/2+z
-x,1/2-y,1/2+z
1/2-x,1/2+y,1/2+z
1/2+x,1/2-y,1/2+z
loop_
_atom_site_type_symbol
_atom_site_label
_atom_site_fract_x
_atom_site_fract_y
_atom_site_fract_z
Si Si1 0.067052 0.952698 0.062490
Si Si2 0.566315 0.710998 0.355882
Si Si3 0.065248 0.118205 0.557647
Si Si4 0.935816 0.451658 0.846677
Si Si5 0.564700 0.282311 0.076251
Si Si6 0.432891 0.614981 0.357804
O O1 0.250000 0.958138 0.088849
O O2 0.986868 0.937308 0.199392
O O3 0.000000 0.000000 0.013079
O O4 0.036501 0.915909 0.951538
O O5 0.750000 0.700330 0.362875
O O6 0.521974 0.731036 0.212429
O O7 0.515634 0.747397 0.464261
O O8 0.469303 0.666498 0.388015
O O9 0.250000 0.117186 0.541945
O O10 0.991461 0.084106 0.450683
O O11 0.005877 0.168587 0.530190
O O12 0.018095 0.103422 0.706598
O O13 0.750000 0.452871 0.854032
O O14 0.000000 0.500000 0.885964
O O15 0.750000 0.282804 0.103664
O O16 0.250000 0.605920 0.383974
#
# Coordination Sequence:
#
# PCOD8183194 Si02
#       6
#     8   8   8   8   8   8
#     4  11  22  37  55  79 108 139 177 218 261 312
#     4  10  20  34  54  81 108 137 178 223 265 315
#     4   8  17  34  55  76 101 136 176 216 261 314
#     4  10  19  34  54  77 105 138 175 216 264 314
#     4   9  19  36  54  75 106 140 176 219 266 316
#     4  10  20  37  57  78 107 142 176 216 267 317
#
# _framework density 18.697337000000001
#
# number of rings (size 3 to 8) (size 9 to 14) (size 15 to 20)
#    0.000    2.333    0.000    5.000    0.000    3.333 
#    0.000   11.667    0.000    0.000    0.000    0.000 
#    0.000    0.000    0.000    0.000    0.000    0.000 
#
# Total GULP energy -297625.624182 kJ/mol
# GULP energy per Si atom -12401.067674 kJ/mol
# Density = 1.865478 g / cm^3
# Si number density = 18.697337 Si / 1000 Ang^3
#
#
#
# Elastic Constant Matrix: (Units=GPa)
#
#
# Indices 1 2 3 4 5 6 
#
# 1 53.8396 19.1643 21.0595 0.0000 0.0000 0.0000
# 2 19.1643 102.0193 86.7675 0.0000 0.0000 0.0000
# 3 21.0595 86.7675 125.1619 0.0000 0.0000 0.0000
# 4 0.0000 0.0000 0.0000 43.2900 0.0000 0.0000
# 5 0.0000 0.0000 0.0000 0.0000 25.5106 0.0000
# 6 0.0000 0.0000 0.0000 0.0000 0.0000 29.3249
#
#
#
# Elastic Compliance Matrix: (Units=1/GPa)
#
#
# Indices 1 2 3 4 5 6 
#
# 1 0.020081 -0.002189 -0.001861 0.000000 0.000000 0.000000
# 2 -0.002189 0.024123 -0.016355 0.000000 0.000000 0.000000
# 3 -0.001861 -0.016355 0.019641 0.000000 0.000000 0.000000
# 4 0.000000 0.000000 0.000000 0.023100 0.000000 0.000000
# 5 0.000000 0.000000 0.000000 0.000000 0.039199 0.000000
# 6 0.000000 0.000000 0.000000 0.000000 0.000000 0.034101
#
#
# Mechanical properties :
#
#
# Convention : Reuss Voigt Hill
#
# Bulk Modulus (GPa) = 43.41355 59.44482 51.42919
# Shear Modulus (GPa) = 23.95403 29.89371 26.92387
#
# Velocity S-wave (km/s) = 3.58319 4.00286 3.79883
# Velocity P-wave (km/s) = 6.35520 7.29562 6.84159
#
# Compressibility (1/GPa) = 0.02303428
#
# Stress axis : x y z
#
# Youngs Moduli (GPa) = 49.79845 41.45412 50.91505
#
# Poissons Ratio (x) = 0.09076 0.09475
# Poissons Ratio (y) = 0.10903 0.83270
# Poissons Ratio (z) = 0.09267 0.67797
#
# Static dielectric constant tensor:
#      x y z
#    x 3.329440 0.000000 0.000000 
#    y 0.000000 3.607190 0.000000 
#    z 0.000000 0.000000 3.550620 
# 
# 
# High freq. dielectric constant tensor:
#      x y z
#    x 1.720710 0.000000 0.000000 
#    y 0.000000 1.727940 0.000000 
#    z 0.000000 0.000000 1.729480 
# 
# From -- ./inp_files/10269.got.cif
#   From: 2010.03.12/outbox.cif.g09.slc.cpg/sg40_6_cif.got.tgz:10269.got - 2010.04.14 01:38:03.
