data_PCOD8183489
_publ_section_title
;
Structure prediction by ZEFSAII (Michael W. Deem and Ramdas Pophale) SiO2 
 PCOD8183489
Probable space group: A M A 2
;
_chemical_formula_sum "Si O2"
_cell_formula_units_Z 64
_cell_length_a 8.417822
_cell_length_b 30.121652
_cell_length_c 14.654809
_cell_angle_alpha 90.000000
_cell_angle_beta 90.000000
_cell_angle_gamma 90.000000
_cell_volume 3715.854390
_symmetry_space_group_name_H-M "A M A 2"
_symmetry_group_IT_number 40
_symmetry_cell_setting 'orthorhombic'
loop_
_space_group_symop_operation_xyz
x,y,z
-x,-y,z
1/2-x,y,z
1/2+x,-y,z
x,1/2+y,1/2+z
-x,1/2-y,1/2+z
1/2-x,1/2+y,1/2+z
1/2+x,1/2-y,1/2+z
loop_
_atom_site_type_symbol
_atom_site_label
_atom_site_fract_x
_atom_site_fract_y
_atom_site_fract_z
Si Si1 0.439289 0.700122 0.389880
Si Si2 0.928972 0.816260 0.193769
Si Si3 0.934630 0.634374 0.526832
Si Si4 0.937139 0.951968 0.100261
Si Si5 0.559771 0.787420 0.493351
Si Si6 0.431738 0.724211 0.194468
Si Si7 0.432202 0.630754 0.873891
Si Si8 0.064592 0.953278 0.300229
O O1 0.250000 0.696269 0.393214
O O2 0.521053 0.655921 0.429777
O O3 0.488924 0.744395 0.444089
O O4 0.504609 0.701675 0.285275
O O5 0.750000 0.797063 0.196451
O O6 0.956563 0.851351 0.272679
O O7 0.956676 0.840210 0.098856
O O8 0.052568 0.776820 0.206533
O O9 0.750000 0.641342 0.548641
O O10 0.978810 0.582530 0.531335
O O11 0.750000 0.949034 0.087189
O O12 0.978722 0.941272 0.205224
O O13 0.000000 0.000000 0.071393
O O14 0.750000 0.782947 0.488998
O O15 0.492433 0.790286 0.597270
O O16 0.501227 0.832691 0.444709
O O17 0.250000 0.710840 0.189860
O O18 0.250000 0.620241 0.896568
O O19 0.529057 0.584459 0.876422
O O20 0.250000 0.957193 0.280476
O O21 0.000000 0.000000 0.338686
#
# Coordination Sequence:
#
# PCOD8183489 Si02
#       8
#     8   8   8   8   8   8   8   8
#     4  11  22  34  50  75 103 135 175 217 256 303
#     4  11  20  30  49  75 103 137 173 215 256 299
#     4  12  23  35  51  73 102 141 179 212 255 305
#     4  11  21  35  53  76 105 135 169 209 255 307
#     4  10  20  35  52  72 100 138 175 213 257 307
#     4  10  21  35  51  72 103 138 175 216 258 305
#     4  10  20  33  50  73 104 139 177 212 254 305
#     4  11  21  33  51  74 104 137 171 210 256 307
#
# _framework density 17.223495
#
# number of rings (size 3 to 8) (size 9 to 14) (size 15 to 20)
#    0.000    1.250    3.750    4.875    0.000    1.500 
#    0.000    0.000    0.000    0.000    0.000    0.875 
#    0.000    4.000    0.000    0.000    0.000    0.000 
#
# Total GULP energy -396746.072051 kJ/mol
# GULP energy per Si atom -12398.314752 kJ/mol
# Density = 1.718429 g / cm^3
# Si number density = 17.223495 Si / 1000 Ang^3
#
#
#
# Elastic Constant Matrix: (Units=GPa)
#
#
# Indices 1 2 3 4 5 6 
#
# 1 50.1625 25.6788 29.5930 0.0000 0.0000 0.0000
# 2 25.6788 121.1099 43.1832 0.0000 0.0000 0.0000
# 3 29.5930 43.1832 85.5918 0.0000 0.0000 0.0000
# 4 0.0000 0.0000 0.0000 20.9236 0.0000 0.0000
# 5 0.0000 0.0000 0.0000 0.0000 17.8530 0.0000
# 6 0.0000 0.0000 0.0000 0.0000 0.0000 29.2548
#
#
#
# Elastic Compliance Matrix: (Units=1/GPa)
#
#
# Indices 1 2 3 4 5 6 
#
# 1 0.025795 -0.002791 -0.007510 0.000000 0.000000 0.000000
# 2 -0.002791 0.010370 -0.004267 0.000000 0.000000 0.000000
# 3 -0.007510 -0.004267 0.016433 0.000000 0.000000 0.000000
# 4 0.000000 0.000000 0.000000 0.047793 0.000000 0.000000
# 5 0.000000 0.000000 0.000000 0.000000 0.056013 0.000000
# 6 0.000000 0.000000 0.000000 0.000000 0.000000 0.034182
#
#
# Mechanical properties :
#
#
# Convention : Reuss Voigt Hill
#
# Bulk Modulus (GPa) = 42.62425 50.41935 46.52180
# Shear Modulus (GPa) = 21.97385 24.16688 23.07037
#
# Velocity S-wave (km/s) = 3.57572 3.74991 3.66385
# Velocity P-wave (km/s) = 6.46909 6.93442 6.70579
#
# Compressibility (1/GPa) = 0.02346082
#
# Stress axis : x y z
#
# Youngs Moduli (GPa) = 38.76772 96.42975 60.85430
#
# Poissons Ratio (x) = 0.26918 0.45702
# Poissons Ratio (y) = 0.10822 0.25966
# Poissons Ratio (z) = 0.29115 0.41146
#
# Static dielectric constant tensor:
#      x y z
#    x 3.218120 0.000000 0.000000 
#    y 0.000000 3.392270 0.000000 
#    z 0.000000 0.000000 3.342750 
# 
# 
# High freq. dielectric constant tensor:
#      x y z
#    x 1.670310 0.000000 0.000000 
#    y 0.000000 1.657780 0.000000 
#    z 0.000000 0.000000 1.639020 
# 
# From -- ./inp_files/15905.got.cif
#   From: 2010.03.12/outbox.cif.g09.slc.cpg/sg40_8_cif.got.tgz:15905.got - 2010.04.14 01:38:03.
