data_PCOD8183201
_publ_section_title
;
Structure prediction by ZEFSAII (Michael W. Deem and Ramdas Pophale) SiO2 
 PCOD8183201
Probable space group: A M A 2
;
_chemical_formula_sum "Si O2"
_cell_formula_units_Z 64
_cell_length_a 9.066433
_cell_length_b 33.199188
_cell_length_c 11.477956
_cell_angle_alpha 90.000000
_cell_angle_beta 90.000000
_cell_angle_gamma 90.000000
_cell_volume 3454.844252
_symmetry_space_group_name_H-M "A M A 2"
_symmetry_group_IT_number 40
_symmetry_cell_setting 'orthorhombic'
loop_
_space_group_symop_operation_xyz
x,y,z
-x,-y,z
1/2-x,y,z
1/2+x,-y,z
x,1/2+y,1/2+z
-x,1/2-y,1/2+z
1/2-x,1/2+y,1/2+z
1/2+x,1/2-y,1/2+z
loop_
_atom_site_type_symbol
_atom_site_label
_atom_site_fract_x
_atom_site_fract_y
_atom_site_fract_z
Si Si1 0.919726 0.328482 0.918390
Si Si2 0.577350 0.603770 0.796543
Si Si3 0.920268 0.690155 0.145254
Si Si4 0.578043 0.456564 0.199767
Si Si5 0.923470 0.117869 0.819176
Si Si6 0.083125 0.219359 0.190285
Si Si7 0.919036 0.458784 0.938428
Si Si8 0.423592 0.849533 0.068118
O O1 0.750000 0.343198 0.920839
O O2 0.948146 0.295430 0.820278
O O3 0.027877 0.365587 0.896514
O O4 0.965920 0.310077 0.040017
O O5 0.750000 0.596193 0.803820
O O6 0.527674 0.619401 0.669674
O O7 0.492892 0.563324 0.829131
O O8 0.750000 0.686251 0.104854
O O9 0.961680 0.654773 0.234138
O O10 0.952214 0.733551 0.200939
O O11 0.500000 0.500000 0.217628
O O12 0.750000 0.462110 0.231524
O O13 0.507029 0.422969 0.283818
O O14 0.561912 0.439247 0.067477
O O15 0.750000 0.108429 0.819807
O O16 0.979570 0.131858 0.946725
O O17 0.250000 0.211497 0.151766
O O18 0.988488 0.194788 0.094729
O O19 0.750000 0.465142 0.906273
O O20 0.000000 0.500000 0.949954
O O21 0.250000 0.843609 0.065754
#
# Coordination Sequence:
#
# PCOD8183201 Si02
#       8
#     8   8   8   8   8   8   8   8
#     4  10  20  34  53  76 103 136 176 220 267 320
#     4  10  19  34  55  78 106 139 178 221 267 321
#     4  10  21  35  53  78 108 141 179 225 275 327
#     4  10  21  37  58  84 114 144 181 225 276 331
#     4  10  21  37  57  80 110 147 187 229 276 330
#     4   9  20  36  53  76 106 141 180 225 276 325
#     4  10  20  34  55  84 114 142 176 221 273 327
#     4   9  20  37  57  78 105 146 188 226 272 327
#
# _framework density 18.524713999999999
#
# number of rings (size 3 to 8) (size 9 to 14) (size 15 to 20)
#    0.000    2.250    0.000    2.250    1.750    6.000 
#    0.000    0.625    0.000    0.000    0.000    0.000 
#    0.000    0.000    0.000    0.000    0.000    0.000 
#
# Total GULP energy -396707.570166 kJ/mol
# GULP energy per Si atom -12397.111568 kJ/mol
# Density = 1.848255 g / cm^3
# Si number density = 18.524714 Si / 1000 Ang^3
#
#
#
# Elastic Constant Matrix: (Units=GPa)
#
#
# Indices 1 2 3 4 5 6 
#
# 1 78.8868 44.5938 46.5544 0.0000 0.0000 0.0000
# 2 44.5938 93.0918 52.7872 0.0000 0.0000 0.0000
# 3 46.5544 52.7872 100.6450 0.0000 0.0000 0.0000
# 4 0.0000 0.0000 0.0000 25.6118 0.0000 0.0000
# 5 0.0000 0.0000 0.0000 0.0000 27.9876 0.0000
# 6 0.0000 0.0000 0.0000 0.0000 0.0000 34.8658
#
#
#
# Elastic Compliance Matrix: (Units=1/GPa)
#
#
# Indices 1 2 3 4 5 6 
#
# 1 0.019559 -0.006033 -0.005883 0.000000 0.000000 0.000000
# 2 -0.006033 0.017150 -0.006204 0.000000 0.000000 0.000000
# 3 -0.005883 -0.006204 0.015911 0.000000 0.000000 0.000000
# 4 0.000000 0.000000 0.000000 0.039045 0.000000 0.000000
# 5 0.000000 0.000000 0.000000 0.000000 0.035730 0.000000
# 6 0.000000 0.000000 0.000000 0.000000 0.000000 0.028681
#
#
# Mechanical properties :
#
#
# Convention : Reuss Voigt Hill
#
# Bulk Modulus (GPa) = 61.05259 62.27715 61.66487
# Shear Modulus (GPa) = 25.28104 26.27225 25.77664
#
# Velocity S-wave (km/s) = 3.69822 3.77002 3.73429
# Velocity P-wave (km/s) = 7.15994 7.25549 7.20787
#
# Compressibility (1/GPa) = 0.01637932
#
# Stress axis : x y z
#
# Youngs Moduli (GPa) = 51.12850 58.30742 62.84939
#
# Poissons Ratio (x) = 0.35180 0.36971
# Poissons Ratio (y) = 0.30848 0.38994
# Poissons Ratio (z) = 0.30076 0.36176
#
# Static dielectric constant tensor:
#      x y z
#    x 3.422680 0.000000 0.000000 
#    y 0.000000 3.389570 0.000000 
#    z 0.000000 0.000000 3.488530 
# 
# 
# High freq. dielectric constant tensor:
#      x y z
#    x 1.722430 0.000000 0.000000 
#    y 0.000000 1.720410 0.000000 
#    z 0.000000 0.000000 1.712960 
# 
# From -- ./inp_files/10582.got.cif
#   From: 2010.03.12/outbox.cif.g09.slc.cpg/sg40_6_cif.got.tgz:10582.got - 2010.04.14 01:38:03.
