data_PCOD8183773
_publ_section_title
;
Structure prediction by ZEFSAII (Michael W. Deem and Ramdas Pophale) SiO2 
 PCOD8183773
Probable space group: A M A 2
;
_chemical_formula_sum "Si O2"
_cell_formula_units_Z 64
_cell_length_a 9.047188
_cell_length_b 17.657385
_cell_length_c 20.303689
_cell_angle_alpha 90.000000
_cell_angle_beta 90.000000
_cell_angle_gamma 90.000000
_cell_volume 3243.507855
_symmetry_space_group_name_H-M "A M A 2"
_symmetry_group_IT_number 40
_symmetry_cell_setting 'orthorhombic'
loop_
_space_group_symop_operation_xyz
x,y,z
-x,-y,z
1/2-x,y,z
1/2+x,-y,z
x,1/2+y,1/2+z
-x,1/2-y,1/2+z
1/2-x,1/2+y,1/2+z
1/2+x,1/2-y,1/2+z
loop_
_atom_site_type_symbol
_atom_site_label
_atom_site_fract_x
_atom_site_fract_y
_atom_site_fract_z
Si Si1 0.576973 0.079651 0.243330
Si Si2 0.078605 0.421729 0.994854
Si Si3 0.923191 0.078120 0.991271
Si Si4 0.420687 0.161131 0.875416
Si Si5 0.078294 0.333297 0.126436
Si Si6 0.578662 0.175764 0.117554
Si Si7 0.574299 0.168828 0.369770
Si Si8 0.420432 0.077556 0.740529
O O1 0.750000 0.066279 0.251317
O O2 0.536974 0.114706 0.172937
O O3 0.517687 0.135384 0.300576
O O4 0.500000 0.000000 0.251322
O O5 0.250000 0.439742 0.986212
O O6 0.048817 0.363523 0.053460
O O7 0.000000 0.500000 0.010419
O O8 0.013521 0.383748 0.928672
O O9 0.750000 0.062931 0.984516
O O10 0.958591 0.139983 0.046986
O O11 0.000000 0.000000 0.011526
O O12 0.984405 0.107177 0.921984
O O13 0.250000 0.156949 0.897940
O O14 0.485806 0.246050 0.879332
O O15 0.439056 0.135143 0.800539
O O16 0.250000 0.334892 0.145209
O O17 0.021522 0.248114 0.129716
O O18 0.991281 0.386434 0.176166
O O19 0.750000 0.199596 0.123135
O O20 0.750000 0.172611 0.371071
O O21 0.250000 0.060372 0.725323
O O22 0.500000 0.000000 0.759385
#
# Coordination Sequence:
#
# PCOD8183773 Si02
#       8
#     8   8   8   8   8   8   8   8
#     4  10  20  36  58  83 112 147 186 227 276 332
#     4  10  21  36  55  81 111 144 183 226 274 329
#     4  11  23  38  58  85 117 152 191 238 289 344
#     4  10  21  39  62  84 111 150 191 236 289 343
#     4  11  23  38  59  85 113 149 192 238 287 341
#     4  10  22  39  58  83 116 152 190 234 284 337
#     4   9  18  35  58  82 110 145 185 228 276 331
#     4  11  23  39  60  85 115 151 191 237 290 347
#
# _framework density 19.731722999999999
#
# number of rings (size 3 to 8) (size 9 to 14) (size 15 to 20)
#    0.000    1.750    0.000    4.125    0.000    8.500 
#    0.000    1.250    0.000    0.000    0.000    0.000 
#    0.000    0.000    0.000    0.000    0.000    0.000 
#
# Total GULP energy -396976.350216 kJ/mol
# GULP energy per Si atom -12405.510944 kJ/mol
# Density = 1.968681 g / cm^3
# Si number density = 19.731723 Si / 1000 Ang^3
#
#
#
# Elastic Constant Matrix: (Units=GPa)
#
#
# Indices 1 2 3 4 5 6 
#
# 1 75.0395 43.3247 36.2727 0.0000 0.0000 0.0000
# 2 43.3247 110.4896 12.1182 0.0000 0.0000 0.0000
# 3 36.2727 12.1182 85.7002 0.0000 0.0000 0.0000
# 4 0.0000 0.0000 0.0000 33.4283 0.0000 0.0000
# 5 0.0000 0.0000 0.0000 0.0000 22.1851 0.0000
# 6 0.0000 0.0000 0.0000 0.0000 0.0000 36.9255
#
#
#
# Elastic Compliance Matrix: (Units=1/GPa)
#
#
# Indices 1 2 3 4 5 6 
#
# 1 0.021610 -0.007588 -0.008073 0.000000 0.000000 0.000000
# 2 -0.007588 0.011858 0.001535 0.000000 0.000000 0.000000
# 3 -0.008073 0.001535 0.014869 0.000000 0.000000 0.000000
# 4 0.000000 0.000000 0.000000 0.029915 0.000000 0.000000
# 5 0.000000 0.000000 0.000000 0.000000 0.045075 0.000000
# 6 0.000000 0.000000 0.000000 0.000000 0.000000 0.027082
#
#
# Mechanical properties :
#
#
# Convention : Reuss Voigt Hill
#
# Bulk Modulus (GPa) = 49.79320 50.51785 50.15552
# Shear Modulus (GPa) = 26.97520 30.47536 28.72528
#
# Velocity S-wave (km/s) = 3.70144 3.93426 3.81962
# Velocity P-wave (km/s) = 6.59980 6.80410 6.70273
#
# Compressibility (1/GPa) = 0.02008306
#
# Stress axis : x y z
#
# Youngs Moduli (GPa) = 46.27500 84.33349 67.25566
#
# Poissons Ratio (x) = 0.63993 0.54299
# Poissons Ratio (y) = 0.35114 -0.10324
# Poissons Ratio (z) = 0.37360 -0.12945
#
# Static dielectric constant tensor:
#      x y z
#    x 3.518390 0.000000 0.000000 
#    y 0.000000 3.699700 0.000000 
#    z 0.000000 0.000000 3.749350 
# 
# 
# High freq. dielectric constant tensor:
#      x y z
#    x 1.755110 0.000000 0.000000 
#    y 0.000000 1.783590 0.000000 
#    z 0.000000 0.000000 1.785070 
# 
# From -- ./inp_files/22448.got.cif
#   From: 2010.03.12/outbox.cif.g09.slc.cpg/sg40_12_cif.got.tgz:22448.got - 2010.04.14 01:38:03.
