data_PCOD8183432
_publ_section_title
;
Structure prediction by ZEFSAII (Michael W. Deem and Ramdas Pophale) SiO2 
 PCOD8183432
Probable space group: A M A 2
;
_chemical_formula_sum "Si O2"
_cell_formula_units_Z 64
_cell_length_a 17.154690
_cell_length_b 11.831327
_cell_length_c 15.195866
_cell_angle_alpha 90.000000
_cell_angle_beta 90.000000
_cell_angle_gamma 90.000000
_cell_volume 3084.194706
_symmetry_space_group_name_H-M "A M A 2"
_symmetry_group_IT_number 40
_symmetry_cell_setting 'orthorhombic'
loop_
_space_group_symop_operation_xyz
x,y,z
-x,-y,z
1/2-x,y,z
1/2+x,-y,z
x,1/2+y,1/2+z
-x,1/2-y,1/2+z
1/2-x,1/2+y,1/2+z
1/2+x,1/2-y,1/2+z
loop_
_atom_site_type_symbol
_atom_site_label
_atom_site_fract_x
_atom_site_fract_y
_atom_site_fract_z
Si Si1 0.842012 0.454047 0.856170
Si Si2 0.659635 0.310514 0.252025
Si Si3 0.159110 0.438644 0.210852
Si Si4 0.159626 0.874913 0.511160
Si Si5 0.161029 0.976212 0.991877
Si Si6 0.341104 0.921373 0.182302
Si Si7 0.574493 0.814738 0.922874
Si Si8 0.101689 0.298710 0.370542
O O1 0.750000 0.435563 0.849317
O O2 0.875923 0.515507 0.768256
O O3 0.883049 0.333675 0.863616
O O4 0.863434 0.526485 0.942635
O O5 0.750000 0.315586 0.277206
O O6 0.629761 0.432655 0.221828
O O7 0.642893 0.213659 0.179991
O O8 0.613578 0.265200 0.335798
O O9 0.250000 0.425268 0.235135
O O10 0.143203 0.413681 0.109693
O O11 0.110167 0.355586 0.273948
O O12 0.250000 0.840237 0.497787
O O13 0.103246 0.767213 0.500653
O O14 0.250000 0.020134 0.993835
O O15 0.125432 0.968463 0.090483
O O16 0.160328 0.856722 0.940245
O O17 0.105937 0.059360 0.937868
O O18 0.250000 0.944091 0.183848
O O19 0.482790 0.818612 0.911738
#
# Coordination Sequence:
#
# PCOD8183432 Si02
#       8
#     8   8   8   8   8   8   8   8
#     4  10  21  41  66  93 126 165 210 266 317 378
#     4  10  19  39  67  92 121 165 215 264 313 375
#     4  10  22  40  68  97 125 168 220 272 319 376
#     4  10  22  42  69  97 124 167 224 269 312 379
#     4  11  23  41  67  93 121 167 219 271 315 376
#     4   9  20  38  66  99 124 158 215 267 315 369
#     4  12  24  42  62  91 130 172 210 260 326 387
#     4  12  26  41  58  94 136 169 208 265 332 388
#
# _framework density 20.750961
#
# number of rings (size 3 to 8) (size 9 to 14) (size 15 to 20)
#    0.000    1.500    2.500    2.625    3.500    0.500 
#    2.250    2.500    0.000    0.000    0.000    0.000 
#    0.000    0.000    0.000    0.000    0.000    0.000 
#
# Total GULP energy -396782.406185 kJ/mol
# GULP energy per Si atom -12399.450193 kJ/mol
# Density = 2.070373 g / cm^3
# Si number density = 20.750961 Si / 1000 Ang^3
#
#
#
# Elastic Constant Matrix: (Units=GPa)
#
#
# Indices 1 2 3 4 5 6 
#
# 1 62.1989 34.6412 30.4120 0.0000 0.0000 0.0000
# 2 34.6412 117.5185 41.8436 0.0000 0.0000 0.0000
# 3 30.4120 41.8436 137.6222 0.0000 0.0000 0.0000
# 4 0.0000 0.0000 0.0000 28.4375 0.0000 0.0000
# 5 0.0000 0.0000 0.0000 0.0000 10.4289 0.0000
# 6 0.0000 0.0000 0.0000 0.0000 0.0000 -1.1272
#
#
#
# Elastic Compliance Matrix: (Units=1/GPa)
#
#
# Indices 1 2 3 4 5 6 
#
# 1 0.020274 -0.004913 -0.002986 0.000000 0.000000 0.000000
# 2 -0.004913 0.010733 -0.002178 0.000000 0.000000 0.000000
# 3 -0.002986 -0.002178 0.008588 0.000000 0.000000 0.000000
# 4 0.000000 0.000000 0.000000 0.035165 0.000000 0.000000
# 5 0.000000 0.000000 0.000000 0.000000 0.095887 0.000000
# 6 0.000000 0.000000 0.000000 0.000000 0.000000 -0.887170
#
#
# Mechanical properties :
#
#
# Convention : Reuss Voigt Hill
#
# Bulk Modulus (GPa) = 51.43715 59.01482 55.22598
# Shear Modulus (GPa) = -7.24755 21.57737 7.16491
#
# Velocity S-wave (km/s) = -1.87089 3.22813 1.86019
# Velocity P-wave (km/s) = 4.49163 6.51120 5.59332
#
# Compressibility (1/GPa) = 0.01944120
#
# Stress axis : x y z
#
# Youngs Moduli (GPa) = 49.32473 93.17209 116.43722
#
# Poissons Ratio (x) = 0.45774 0.34773
# Poissons Ratio (y) = 0.24232 0.25356
# Poissons Ratio (z) = 0.14730 0.20290
#
# Static dielectric constant tensor:
#      x y z
#    x 3.448590 0.000000 0.000000 
#    y 0.000000 3.815860 0.000000 
#    z 0.000000 0.000000 4.000120 
# 
# 
# High freq. dielectric constant tensor:
#      x y z
#    x 1.780960 0.000000 0.000000 
#    y 0.000000 1.822780 0.000000 
#    z 0.000000 0.000000 1.821470 
# 
# From -- ./inp_files/17842.got.cif
#   From: 2010.03.12/outbox.cif.g09.slc.cpg/sg40_9_cif.got.tgz:17842.got - 2010.04.14 01:38:03.
