data_PCOD8183027
_publ_section_title
;
Structure prediction by ZEFSAII (Michael W. Deem and Ramdas Pophale) SiO2 
 PCOD8183027
Probable space group: A M A 2
;
_chemical_formula_sum "Si O2"
_cell_formula_units_Z 56
_cell_length_a 8.944934
_cell_length_b 23.858293
_cell_length_c 13.641479
_cell_angle_alpha 90.000000
_cell_angle_beta 90.000000
_cell_angle_gamma 90.000000
_cell_volume 2911.239714
_symmetry_space_group_name_H-M "A M A 2"
_symmetry_group_IT_number 40
_symmetry_cell_setting 'orthorhombic'
loop_
_space_group_symop_operation_xyz
x,y,z
-x,-y,z
1/2-x,y,z
1/2+x,-y,z
x,1/2+y,1/2+z
-x,1/2-y,1/2+z
1/2-x,1/2+y,1/2+z
1/2+x,1/2-y,1/2+z
loop_
_atom_site_type_symbol
_atom_site_label
_atom_site_fract_x
_atom_site_fract_y
_atom_site_fract_z
Si Si1 0.075435 0.377538 0.072850
Si Si2 0.425357 0.941762 0.977075
Si Si3 0.921501 0.838806 0.067538
Si Si4 0.573437 0.558100 0.255809
Si Si5 0.572232 0.727967 0.958173
Si Si6 0.077110 0.664776 0.792099
Si Si7 0.074373 0.441187 0.880502
O O1 0.250000 0.369422 0.084631
O O2 0.010377 0.395504 0.179083
O O3 0.009927 0.318233 0.035857
O O4 0.039230 0.425718 0.993281
O O5 0.250000 0.949647 0.987749
O O6 0.472001 0.924869 0.866109
O O7 0.500000 0.000000 0.008739
O O8 0.479021 0.893213 0.048986
O O9 0.750000 0.854282 0.045736
O O10 0.941962 0.818629 0.178814
O O11 0.975611 0.788854 0.996431
O O12 0.500000 0.500000 0.225661
O O13 0.750000 0.550852 0.245524
O O14 0.750000 0.722406 0.945440
O O15 0.495015 0.715730 0.853902
O O16 0.250000 0.658021 0.821150
O O17 0.993477 0.606318 0.810504
O O18 0.250000 0.444825 0.859964
O O19 0.000000 0.500000 0.853657
#
# Coordination Sequence:
#
# PCOD8183027 Si02
#       7
#     8   8   8   8   8   8   8
#     4   8  15  29  50  75 105 139 174 211 259 314
#     4  10  21  36  56  80 108 140 178 223 267 314
#     4  10  22  39  59  80 106 141 177 215 266 319
#     4   9  17  30  49  75 105 138 174 214 259 309
#     4   9  19  37  57  78 107 141 174 215 264 315
#     4  10  21  37  56  80 108 139 177 221 265 316
#     4  10  19  32  52  78 109 146 183 223 269 317
#
# _framework density 19.235790999999999
#
# number of rings (size 3 to 8) (size 9 to 14) (size 15 to 20)
#    0.000    2.571    0.000    2.571    0.000    4.000 
#    0.000    5.714    0.000    1.714    0.000    0.000 
#    0.000    0.000    0.000    0.000    0.000    0.000 
#
# Total GULP energy -347172.626038 kJ/mol
# GULP energy per Si atom -12399.022359 kJ/mol
# Density = 1.919201 g / cm^3
# Si number density = 19.235791 Si / 1000 Ang^3
#
#
#
# Elastic Constant Matrix: (Units=GPa)
#
#
# Indices 1 2 3 4 5 6 
#
# 1 68.8464 50.4245 34.4111 0.0000 0.0000 0.0000
# 2 50.4245 119.8330 51.6180 0.0000 0.0000 0.0000
# 3 34.4111 51.6180 86.7131 0.0000 0.0000 0.0000
# 4 0.0000 0.0000 0.0000 28.1362 0.0000 0.0000
# 5 0.0000 0.0000 0.0000 0.0000 26.0725 0.0000
# 6 0.0000 0.0000 0.0000 0.0000 0.0000 28.5643
#
#
#
# Elastic Compliance Matrix: (Units=1/GPa)
#
#
# Indices 1 2 3 4 5 6 
#
# 1 0.022158 -0.007445 -0.004361 0.000000 0.000000 0.000000
# 2 -0.007445 0.013724 -0.005215 0.000000 0.000000 0.000000
# 3 -0.004361 -0.005215 0.016367 0.000000 0.000000 0.000000
# 4 0.000000 0.000000 0.000000 0.035541 0.000000 0.000000
# 5 0.000000 0.000000 0.000000 0.000000 0.038355 0.000000
# 6 0.000000 0.000000 0.000000 0.000000 0.000000 0.035009
#
#
# Mechanical properties :
#
#
# Convention : Reuss Voigt Hill
#
# Bulk Modulus (GPa) = 54.92540 60.92217 57.92378
# Shear Modulus (GPa) = 24.84272 25.81720 25.32996
#
# Velocity S-wave (km/s) = 3.59762 3.66750 3.63273
# Velocity P-wave (km/s) = 6.77295 7.04799 6.91184
#
# Compressibility (1/GPa) = 0.01820651
#
# Stress axis : x y z
#
# Youngs Moduli (GPa) = 45.13047 72.86380 61.09713
#
# Poissons Ratio (x) = 0.54249 0.26645
# Poissons Ratio (y) = 0.33601 0.31863
# Poissons Ratio (z) = 0.19682 0.37999
#
# Static dielectric constant tensor:
#      x y z
#    x 3.378340 0.000000 0.000000 
#    y 0.000000 3.531300 0.000000 
#    z 0.000000 0.000000 3.633120 
# 
# 
# High freq. dielectric constant tensor:
#      x y z
#    x 1.735860 0.000000 0.000000 
#    y 0.000000 1.744180 0.000000 
#    z 0.000000 0.000000 1.748840 
# 
# From -- ./inp_files/15309.got.cif
#   From: 2010.03.12/outbox.cif.g09.slc.cpg/sg40_8_cif.got.tgz:15309.got - 2010.04.14 01:38:03.
