data_PCOD8183104
_publ_section_title
;
Structure prediction by ZEFSAII (Michael W. Deem and Ramdas Pophale) SiO2 
 PCOD8183104
Probable space group: A M A 2
;
_chemical_formula_sum "Si O2"
_cell_formula_units_Z 48
_cell_length_a 17.616323
_cell_length_b 8.560497
_cell_length_c 16.330742
_cell_angle_alpha 90.000000
_cell_angle_beta 90.000000
_cell_angle_gamma 90.000000
_cell_volume 2462.749058
_symmetry_space_group_name_H-M "A M A 2"
_symmetry_group_IT_number 40
_symmetry_cell_setting 'orthorhombic'
loop_
_space_group_symop_operation_xyz
x,y,z
-x,-y,z
1/2-x,y,z
1/2+x,-y,z
x,1/2+y,1/2+z
-x,1/2-y,1/2+z
1/2-x,1/2+y,1/2+z
1/2+x,1/2-y,1/2+z
loop_
_atom_site_type_symbol
_atom_site_label
_atom_site_fract_x
_atom_site_fract_y
_atom_site_fract_z
Si Si1 0.572375 0.888000 0.803520
Si Si2 0.338096 0.219659 0.372760
Si Si3 0.339662 0.745965 0.540066
Si Si4 0.077210 0.415653 0.892826
Si Si5 0.089693 0.475826 0.466532
Si Si6 0.162711 0.903515 0.707778
O O1 0.557442 0.703024 0.816660
O O2 0.619343 0.936624 0.884461
O O3 0.500000 0.000000 0.801644
O O4 0.620532 0.928924 0.721675
O O5 0.250000 0.234427 0.395088
O O6 0.386419 0.295717 0.449028
O O7 0.357079 0.295808 0.285351
O O8 0.360420 0.039382 0.363092
O O9 0.250000 0.766753 0.525056
O O10 0.389843 0.831452 0.472319
O O11 0.363111 0.561107 0.539254
O O12 0.365856 0.816440 0.626811
O O13 0.000000 0.500000 0.918601
O O14 0.000000 0.500000 0.481763
O O15 0.250000 0.943555 0.699576
#
# Coordination Sequence:
#
# PCOD8183104 Si02
#       6
#     8   8   8   8   8   8
#     4   9  18  34  55  75 100 138 182 225 273 325
#     4  10  19  33  53  78 105 137 176 222 272 328
#     4  10  20  35  54  78 107 142 180 223 274 331
#     4  11  21  34  54  80 108 138 181 234 278 331
#     4   9  17  33  55  77 104 141 182 220 264 326
#     4   9  19  35  54  76 106 140 179 222 270 331
#
# _framework density 19.490414999999999
#
# number of rings (size 3 to 8) (size 9 to 14) (size 15 to 20)
#    0.000    2.333    0.000    5.000    0.000    5.333 
#    0.000    4.167    0.000    4.000    0.000    0.000 
#    0.000    0.000    0.000    0.000    0.000    0.000 
#
# Total GULP energy -297316.802840 kJ/mol
# GULP energy per Si atom -12388.200118 kJ/mol
# Density = 1.944605 g / cm^3
# Si number density = 19.490415 Si / 1000 Ang^3
#
#
#
# Elastic Constant Matrix: (Units=GPa)
#
#
# Indices 1 2 3 4 5 6 
#
# 1 89.4725 56.4303 51.4713 0.0000 0.0000 0.0000
# 2 56.4303 132.2202 53.5534 0.0000 0.0000 0.0000
# 3 51.4713 53.5534 91.5111 0.0000 0.0000 0.0000
# 4 0.0000 0.0000 0.0000 25.0891 0.0000 0.0000
# 5 0.0000 0.0000 0.0000 0.0000 22.0665 0.0000
# 6 0.0000 0.0000 0.0000 0.0000 0.0000 35.7464
#
#
#
# Elastic Compliance Matrix: (Units=1/GPa)
#
#
# Indices 1 2 3 4 5 6 
#
# 1 0.018636 -0.004860 -0.007638 0.000000 0.000000 0.000000
# 2 -0.004860 0.011180 -0.003809 0.000000 0.000000 0.000000
# 3 -0.007638 -0.003809 0.017453 0.000000 0.000000 0.000000
# 4 0.000000 0.000000 0.000000 0.039858 0.000000 0.000000
# 5 0.000000 0.000000 0.000000 0.000000 0.045318 0.000000
# 6 0.000000 0.000000 0.000000 0.000000 0.000000 0.027975
#
#
# Mechanical properties :
#
#
# Convention : Reuss Voigt Hill
#
# Bulk Modulus (GPa) = 68.23724 70.67931 69.45827
# Shear Modulus (GPa) = 25.26305 26.69696 25.98001
#
# Velocity S-wave (km/s) = 3.60415 3.70503 3.65494
# Velocity P-wave (km/s) = 7.23924 7.39225 7.31614
#
# Compressibility (1/GPa) = 0.01465475
#
# Stress axis : x y z
#
# Youngs Moduli (GPa) = 53.66085 89.44372 57.29768
#
# Poissons Ratio (x) = 0.43470 0.43762
# Poissons Ratio (y) = 0.26079 0.21826
# Poissons Ratio (z) = 0.40984 0.34071
#
# Static dielectric constant tensor:
#      x y z
#    x 3.537720 0.000000 0.000000 
#    y 0.000000 3.968510 0.000000 
#    z 0.000000 0.000000 3.585390 
# 
# 
# High freq. dielectric constant tensor:
#      x y z
#    x 1.767360 0.000000 0.000000 
#    y 0.000000 1.760280 0.000000 
#    z 0.000000 0.000000 1.723450 
# 
# From -- ./inp_files/17641.got.cif
#   From: 2010.03.12/outbox.cif.g09.slc.cpg/sg40_9_cif.got.tgz:17641.got - 2010.04.14 01:38:03.
