data_PCOD8183857
_publ_section_title
;
Structure prediction by ZEFSAII (Michael W. Deem and Ramdas Pophale) SiO2 
 PCOD8183857
Probable space group: A M A 2
;
_chemical_formula_sum "Si O2"
_cell_formula_units_Z 64
_cell_length_a 15.037772
_cell_length_b 9.195600
_cell_length_c 23.143965
_cell_angle_alpha 90.000000
_cell_angle_beta 90.000000
_cell_angle_gamma 90.000000
_cell_volume 3200.378405
_symmetry_space_group_name_H-M "A M A 2"
_symmetry_group_IT_number 40
_symmetry_cell_setting 'orthorhombic'
loop_
_space_group_symop_operation_xyz
x,y,z
-x,-y,z
1/2-x,y,z
1/2+x,-y,z
x,1/2+y,1/2+z
-x,1/2-y,1/2+z
1/2-x,1/2+y,1/2+z
1/2+x,1/2-y,1/2+z
loop_
_atom_site_type_symbol
_atom_site_label
_atom_site_fract_x
_atom_site_fract_y
_atom_site_fract_z
Si Si1 0.479084 0.335132 0.827860
Si Si2 0.347283 0.287290 0.932467
Si Si3 0.081061 0.902043 0.541649
Si Si4 0.351914 0.130139 0.766517
Si Si5 0.538061 0.147721 0.075341
Si Si6 0.400187 0.973115 0.957586
Si Si7 0.349727 0.351196 0.342996
Si Si8 0.851243 0.385510 0.136058
O O1 0.500000 0.500000 0.812462
O O2 0.427987 0.318574 0.888831
O O3 0.416196 0.265899 0.778911
O O4 0.576246 0.263709 0.825514
O O5 0.250000 0.311896 0.903128
O O6 0.349263 0.125469 0.958288
O O7 0.352841 0.395808 0.987280
O O8 0.047435 0.739808 0.555314
O O9 0.125489 0.974041 0.597845
O O10 0.000000 0.000000 0.520612
O O11 0.250000 0.182295 0.772168
O O12 0.371509 0.071356 0.702122
O O13 0.372929 0.004310 0.812551
O O14 0.594123 0.240974 0.120440
O O15 0.500000 0.000000 0.104544
O O16 0.598807 0.104516 0.020101
O O17 0.351146 0.868956 0.912142
O O18 0.500000 0.000000 0.935197
O O19 0.250000 0.299207 0.324728
O O20 0.750000 0.342881 0.126428
#
# Coordination Sequence:
#
# PCOD8183857 Si02
#       8
#     8   8   8   8   8   8   8   8
#     4  12  25  40  61  93 128 160 196 257 322 376
#     4  12  22  36  60  91 127 167 206 249 307 373
#     4  10  20  37  59  85 123 167 205 250 302 363
#     4  10  22  44  68  88 118 164 214 256 301 366
#     4  10  20  37  59  85 122 163 205 250 304 365
#     4  11  18  36  61  88 125 162 204 252 302 358
#     4  11  22  39  66  92 118 160 211 256 301 366
#     4  10  23  41  62  91 123 158 206 259 306 362
#
# _framework density 19.997634999999999
#
# number of rings (size 3 to 8) (size 9 to 14) (size 15 to 20)
#    0.000    1.250    5.000    1.875    0.000    6.500 
#    0.000    0.000    0.000    3.000    0.000    0.000 
#    0.000    0.000    0.000    0.000    0.000    0.000 
#
# Total GULP energy -396725.266651 kJ/mol
# GULP energy per Si atom -12397.664583 kJ/mol
# Density = 1.995212 g / cm^3
# Si number density = 19.997635 Si / 1000 Ang^3
#
#
#
# Elastic Constant Matrix: (Units=GPa)
#
#
# Indices 1 2 3 4 5 6 
#
# 1 120.6196 40.3954 28.0749 0.0000 0.0000 0.0000
# 2 40.3954 95.2552 16.4863 0.0000 0.0000 0.0000
# 3 28.0749 16.4863 86.3431 0.0000 0.0000 0.0000
# 4 0.0000 0.0000 0.0000 29.4884 0.0000 0.0000
# 5 0.0000 0.0000 0.0000 0.0000 26.6333 0.0000
# 6 0.0000 0.0000 0.0000 0.0000 0.0000 20.8256
#
#
#
# Elastic Compliance Matrix: (Units=1/GPa)
#
#
# Indices 1 2 3 4 5 6 
#
# 1 0.010187 -0.003875 -0.002572 0.000000 0.000000 0.000000
# 2 -0.003875 0.012331 -0.001095 0.000000 0.000000 0.000000
# 3 -0.002572 -0.001095 0.012627 0.000000 0.000000 0.000000
# 4 0.000000 0.000000 0.000000 0.033912 0.000000 0.000000
# 5 0.000000 0.000000 0.000000 0.000000 0.037547 0.000000
# 6 0.000000 0.000000 0.000000 0.000000 0.000000 0.048018
#
#
# Mechanical properties :
#
#
# Convention : Reuss Voigt Hill
#
# Bulk Modulus (GPa) = 49.84734 52.45899 51.15316
# Shear Modulus (GPa) = 28.34597 29.87356 29.10977
#
# Velocity S-wave (km/s) = 3.76901 3.86923 3.81945
# Velocity P-wave (km/s) = 6.62732 6.80080 6.71462
#
# Compressibility (1/GPa) = 0.02006125
#
# Stress axis : x y z
#
# Youngs Moduli (GPa) = 98.16471 81.09803 79.19448
#
# Poissons Ratio (x) = 0.31424 0.20373
# Poissons Ratio (y) = 0.38037 0.08668
# Poissons Ratio (z) = 0.25253 0.08876
#
# Static dielectric constant tensor:
#      x y z
#    x 3.787780 0.000000 0.000000 
#    y 0.000000 3.592250 0.000000 
#    z 0.000000 0.000000 3.568870 
# 
# 
# High freq. dielectric constant tensor:
#      x y z
#    x 1.788750 0.000000 0.000000 
#    y 0.000000 1.770980 0.000000 
#    z 0.000000 0.000000 1.769740 
# 
# From -- ./inp_files/24795.got.cif
#   From: 2010.03.12/outbox.cif.g09.slc.cpg/sg40_13_cif.got.tgz:24795.got - 2010.04.14 01:38:03.
