data_PCOD8183606
_publ_section_title
;
Structure prediction by ZEFSAII (Michael W. Deem and Ramdas Pophale) SiO2 
 PCOD8183606
Probable space group: A M A 2
;
_chemical_formula_sum "Si O2"
_cell_formula_units_Z 64
_cell_length_a 8.904726
_cell_length_b 24.601258
_cell_length_c 15.079853
_cell_angle_alpha 90.000000
_cell_angle_beta 90.000000
_cell_angle_gamma 90.000000
_cell_volume 3303.505120
_symmetry_space_group_name_H-M "A M A 2"
_symmetry_group_IT_number 40
_symmetry_cell_setting 'orthorhombic'
loop_
_space_group_symop_operation_xyz
x,y,z
-x,-y,z
1/2-x,y,z
1/2+x,-y,z
x,1/2+y,1/2+z
-x,1/2-y,1/2+z
1/2-x,1/2+y,1/2+z
1/2+x,1/2-y,1/2+z
loop_
_atom_site_type_symbol
_atom_site_label
_atom_site_fract_x
_atom_site_fract_y
_atom_site_fract_z
Si Si1 0.074346 0.102865 0.799900
Si Si2 0.077971 0.863204 0.133974
Si Si3 0.922895 0.358561 0.001595
Si Si4 0.571026 0.057974 0.977375
Si Si5 0.424877 0.167209 0.302243
Si Si6 0.079222 0.263692 0.517286
Si Si7 0.422242 0.224033 0.838420
Si Si8 0.572008 0.056520 0.624798
O O1 0.250000 0.087779 0.804592
O O2 0.051082 0.167393 0.787427
O O3 0.993832 0.082583 0.887845
O O4 0.999540 0.072731 0.718021
O O5 0.250000 0.875351 0.154552
O O6 0.989589 0.871832 0.225720
O O7 0.019319 0.904014 0.058702
O O8 0.052315 0.801045 0.102687
O O9 0.750000 0.376617 0.015507
O O10 0.033823 0.399620 0.049708
O O11 0.966805 0.357561 0.897817
O O12 0.949847 0.298848 0.043411
O O13 0.750000 0.054361 0.969280
O O14 0.500000 0.000000 0.996812
O O15 0.250000 0.170909 0.289702
O O16 0.486338 0.228252 0.291150
O O17 0.250000 0.270177 0.481651
O O18 0.970160 0.283874 0.440119
O O19 0.250000 0.241458 0.835677
O O20 0.750000 0.051141 0.634588
O O21 0.500000 0.000000 0.593572
#
# Coordination Sequence:
#
# PCOD8183606 Si02
#       8
#     8   8   8   8   8   8   8   8
#     4  11  23  39  60  88 122 160 199 243 295 353
#     4  10  21  37  59  88 122 162 202 245 296 351
#     4   9  20  40  62  86 119 156 196 246 302 352
#     4  11  23  40  62  87 121 161 203 249 297 352
#     4  10  22  38  60  88 123 161 197 246 299 355
#     4   9  18  35  58  85 120 157 194 238 292 350
#     4  10  20  34  56  86 121 159 197 238 290 351
#     4  12  26  43  64  88 116 153 200 251 299 358
#
# _framework density 19.373360000000002
#
# number of rings (size 3 to 8) (size 9 to 14) (size 15 to 20)
#    0.000    1.750    1.250    3.750    1.750    5.500 
#    0.000    0.625    0.000    1.500    0.000    0.000 
#    0.000    0.000    0.000    0.000    0.000    0.000 
#
# Total GULP energy -396880.546384 kJ/mol
# GULP energy per Si atom -12402.517074 kJ/mol
# Density = 1.932927 g / cm^3
# Si number density = 19.373360 Si / 1000 Ang^3
#
#
#
# Elastic Constant Matrix: (Units=GPa)
#
#
# Indices 1 2 3 4 5 6 
#
# 1 98.6600 56.2594 56.4534 0.0000 0.0000 0.0000
# 2 56.2594 106.4767 58.2208 0.0000 0.0000 0.0000
# 3 56.4534 58.2208 111.6388 0.0000 0.0000 0.0000
# 4 0.0000 0.0000 0.0000 27.3775 0.0000 0.0000
# 5 0.0000 0.0000 0.0000 0.0000 37.0059 0.0000
# 6 0.0000 0.0000 0.0000 0.0000 0.0000 27.8941
#
#
#
# Elastic Compliance Matrix: (Units=1/GPa)
#
#
# Indices 1 2 3 4 5 6 
#
# 1 0.016484 -0.005808 -0.005307 0.000000 0.000000 0.000000
# 2 -0.005808 0.015185 -0.004982 0.000000 0.000000 0.000000
# 3 -0.005307 -0.004982 0.014239 0.000000 0.000000 0.000000
# 4 0.000000 0.000000 0.000000 0.036526 0.000000 0.000000
# 5 0.000000 0.000000 0.000000 0.000000 0.027023 0.000000
# 6 0.000000 0.000000 0.000000 0.000000 0.000000 0.035850
#
#
# Mechanical properties :
#
#
# Convention : Reuss Voigt Hill
#
# Bulk Modulus (GPa) = 72.91578 73.18251 73.04914
# Shear Modulus (GPa) = 27.46161 28.17829 27.81995
#
# Velocity S-wave (km/s) = 3.76905 3.81791 3.79356
# Velocity P-wave (km/s) = 7.52727 7.56915 7.54824
#
# Compressibility (1/GPa) = 0.01371445
#
# Stress axis : x y z
#
# Youngs Moduli (GPa) = 60.66339 65.85587 70.22914
#
# Poissons Ratio (x) = 0.38250 0.37269
# Poissons Ratio (y) = 0.35234 0.34987
# Poissons Ratio (z) = 0.32193 0.32809
#
# Static dielectric constant tensor:
#      x y z
#    x 3.583040 0.000000 0.000000 
#    y 0.000000 3.621380 0.000000 
#    z 0.000000 0.000000 3.584490 
# 
# 
# High freq. dielectric constant tensor:
#      x y z
#    x 1.759940 0.000000 0.000000 
#    y 0.000000 1.750640 0.000000 
#    z 0.000000 0.000000 1.753310 
# 
# From -- ./inp_files/15560.got.cif
#   From: 2010.03.12/outbox.cif.g09.slc.cpg/sg40_8_cif.got.tgz:15560.got - 2010.04.14 01:38:03.
