data_PCOD8183283
_publ_section_title
;
Structure prediction by ZEFSAII (Michael W. Deem and Ramdas Pophale) SiO2 
 PCOD8183283
Probable space group: A M A 2
;
_chemical_formula_sum "Si O2"
_cell_formula_units_Z 64
_cell_length_a 8.606223
_cell_length_b 20.707812
_cell_length_c 19.591110
_cell_angle_alpha 90.000000
_cell_angle_beta 90.000000
_cell_angle_gamma 90.000000
_cell_volume 3491.450198
_symmetry_space_group_name_H-M "A M A 2"
_symmetry_group_IT_number 40
_symmetry_cell_setting 'orthorhombic'
loop_
_space_group_symop_operation_xyz
x,y,z
-x,-y,z
1/2-x,y,z
1/2+x,-y,z
x,1/2+y,1/2+z
-x,1/2-y,1/2+z
1/2-x,1/2+y,1/2+z
1/2+x,1/2-y,1/2+z
loop_
_atom_site_type_symbol
_atom_site_label
_atom_site_fract_x
_atom_site_fract_y
_atom_site_fract_z
Si Si1 0.931729 0.618662 0.845850
Si Si2 0.932243 0.736800 0.489856
Si Si3 0.432802 0.566103 0.710697
Si Si4 0.430684 0.305712 0.197779
Si Si5 0.067375 0.817759 0.128208
Si Si6 0.567513 0.566287 0.122961
Si Si7 0.433300 0.117815 0.488958
Si Si8 0.429405 0.256062 0.340928
O O1 0.750000 0.610468 0.857106
O O2 0.986267 0.574657 0.783653
O O3 0.019156 0.594213 0.913677
O O4 0.969442 0.692693 0.827169
O O5 0.750000 0.741608 0.499496
O O6 0.993274 0.689825 0.549668
O O7 0.998378 0.809284 0.499020
O O8 0.976652 0.711253 0.413762
O O9 0.500000 0.500000 0.678562
O O10 0.250000 0.562059 0.720663
O O11 0.470790 0.624153 0.659659
O O12 0.250000 0.293990 0.179344
O O13 0.533680 0.248852 0.166880
O O14 0.492404 0.373612 0.168512
O O15 0.455014 0.306841 0.279908
O O16 0.250000 0.833191 0.133662
O O17 0.500000 0.500000 0.153930
O O18 0.750000 0.562196 0.126080
O O19 0.513076 0.572931 0.045006
O O20 0.250000 0.112842 0.497780
O O21 0.250000 0.233028 0.344832
#
# Coordination Sequence:
#
# PCOD8183283 Si02
#       8
#     8   8   8   8   8   8   8   8
#     4  11  21  34  53  82 113 146 183 225 270 328
#     4   8  16  30  53  82 110 140 177 220 271 327
#     4  12  25  41  57  79 110 148 187 230 276 331
#     4  10  20  34  56  82 110 145 187 234 279 326
#     4  11  20  34  57  85 112 144 183 226 278 332
#     4  11  23  37  53  79 111 149 191 234 281 331
#     4  10  19  35  55  78 109 150 187 226 271 325
#     4   9  17  33  55  81 110 144 183 227 276 325
#
# _framework density 18.330492
#
# number of rings (size 3 to 8) (size 9 to 14) (size 15 to 20)
#    0.000    1.750    2.500    4.125    0.000    1.000 
#    0.000    3.125    0.000    0.750    0.000    1.750 
#    0.000    0.000    0.000    0.000    0.000    0.000 
#
# Total GULP energy -396784.870509 kJ/mol
# GULP energy per Si atom -12399.527203 kJ/mol
# Density = 1.828877 g / cm^3
# Si number density = 18.330492 Si / 1000 Ang^3
#
#
#
# Elastic Constant Matrix: (Units=GPa)
#
#
# Indices 1 2 3 4 5 6 
#
# 1 52.4588 23.0597 12.8807 0.0000 0.0000 0.0000
# 2 23.0597 102.6488 48.6722 0.0000 0.0000 0.0000
# 3 12.8807 48.6722 106.5056 0.0000 0.0000 0.0000
# 4 0.0000 0.0000 0.0000 19.0788 0.0000 0.0000
# 5 0.0000 0.0000 0.0000 0.0000 22.0563 0.0000
# 6 0.0000 0.0000 0.0000 0.0000 0.0000 26.0465
#
#
#
# Elastic Compliance Matrix: (Units=1/GPa)
#
#
# Indices 1 2 3 4 5 6 
#
# 1 0.021172 -0.004522 -0.000494 0.000000 0.000000 0.000000
# 2 -0.004522 0.013403 -0.005578 0.000000 0.000000 0.000000
# 3 -0.000494 -0.005578 0.011998 0.000000 0.000000 0.000000
# 4 0.000000 0.000000 0.000000 0.052414 0.000000 0.000000
# 5 0.000000 0.000000 0.000000 0.000000 0.045338 0.000000
# 6 0.000000 0.000000 0.000000 0.000000 0.000000 0.038393
#
#
# Mechanical properties :
#
#
# Convention : Reuss Voigt Hill
#
# Bulk Modulus (GPa) = 39.39421 47.87094 43.63257
# Shear Modulus (GPa) = 23.54412 25.23636 24.39024
#
# Velocity S-wave (km/s) = 3.58777 3.71447 3.65167
# Velocity P-wave (km/s) = 6.22098 6.67597 6.45249
#
# Compressibility (1/GPa) = 0.02538444
#
# Stress axis : x y z
#
# Youngs Moduli (GPa) = 47.23304 74.61193 83.34693
#
# Poissons Ratio (x) = 0.33739 0.04117
# Poissons Ratio (y) = 0.21358 0.46491
# Poissons Ratio (z) = 0.02333 0.41619
#
# Static dielectric constant tensor:
#      x y z
#    x 3.288140 0.000000 0.000000 
#    y 0.000000 3.404000 0.000000 
#    z 0.000000 0.000000 3.734490 
# 
# 
# High freq. dielectric constant tensor:
#      x y z
#    x 1.708700 0.000000 0.000000 
#    y 0.000000 1.683790 0.000000 
#    z 0.000000 0.000000 1.716310 
# 
# From -- ./inp_files/22381.got.cif
#   From: 2010.03.12/outbox.cif.g09.slc.cpg/sg40_12_cif.got.tgz:22381.got - 2010.04.14 01:38:03.
