data_PCOD8183383
_publ_section_title
;
Structure prediction by ZEFSAII (Michael W. Deem and Ramdas Pophale) SiO2 
 PCOD8183383
Probable space group: A M A 2
;
_chemical_formula_sum "Si O2"
_cell_formula_units_Z 32
_cell_length_a 9.858508
_cell_length_b 9.704824
_cell_length_c 16.558061
_cell_angle_alpha 90.000000
_cell_angle_beta 90.000000
_cell_angle_gamma 90.000000
_cell_volume 1584.193894
_symmetry_space_group_name_H-M "A M A 2"
_symmetry_group_IT_number 40
_symmetry_cell_setting 'orthorhombic'
loop_
_space_group_symop_operation_xyz
x,y,z
-x,-y,z
1/2-x,y,z
1/2+x,-y,z
x,1/2+y,1/2+z
-x,1/2-y,1/2+z
1/2-x,1/2+y,1/2+z
1/2+x,1/2-y,1/2+z
loop_
_atom_site_type_symbol
_atom_site_label
_atom_site_fract_x
_atom_site_fract_y
_atom_site_fract_z
Si Si1 0.500000 0.000000 0.042230
Si Si2 0.250000 0.104125 0.795935
Si Si3 0.750000 0.876203 0.487040
Si Si4 0.750000 0.174370 0.437832
Si Si5 0.522555 0.202479 0.567615
Si Si6 0.000000 0.500000 0.197082
Si Si7 0.750000 0.078101 0.938589
O O1 0.496123 0.138432 0.097000
O O2 0.625299 0.011115 0.983274
O O3 0.250000 0.243200 0.852298
O O4 0.110518 0.092041 0.745264
O O5 0.250000 0.965668 0.846834
O O6 0.618415 0.872627 0.544377
O O7 0.750000 0.741953 0.431493
O O8 0.750000 0.008074 0.427112
O O9 0.617229 0.211257 0.489198
O O10 0.580627 0.112694 0.641708
#
# Coordination Sequence:
#
# PCOD8183383 Si02
#       7
#     4   4   4   4   8   4   4
#     4  10  19  36  64  93 116 158 226 262 297 360
#     4  12  26  40  64  94 141 170 208 271 340 382
#     4  10  21  36  67  95 119 156 232 267 298 361
#     4  12  21  40  64  98 122 173 225 264 305 391
#     4  11  21  40  67  94 127 170 220 265 310 397
#     4  12  25  42  62  99 138 174 202 270 351 376
#     4  10  20  36  59  93 124 157 207 272 307 372
#
# _framework density 20.199549000000001
#
# number of rings (size 3 to 8) (size 9 to 14) (size 15 to 20)
#    0.000    1.000    5.000    2.250    3.500    0.000 
#    0.000    2.500    0.000    0.000    0.000    0.000 
#    0.000    0.000    0.000    0.000    0.000    0.000 
#
# Total GULP energy -198238.767265 kJ/mol
# GULP energy per Si atom -12389.922954 kJ/mol
# Density = 2.015357 g / cm^3
# Si number density = 20.199549 Si / 1000 Ang^3
#
#
#
# Elastic Constant Matrix: (Units=GPa)
#
#
# Indices 1 2 3 4 5 6 
#
# 1 123.9457 33.7992 26.5144 0.0000 0.0000 0.0000
# 2 33.7992 178.3987 72.1969 0.0000 0.0000 0.0000
# 3 26.5144 72.1969 85.7608 0.0000 0.0000 0.0000
# 4 0.0000 0.0000 0.0000 42.6588 0.0000 0.0000
# 5 0.0000 0.0000 0.0000 0.0000 24.4191 0.0000
# 6 0.0000 0.0000 0.0000 0.0000 0.0000 29.2077
#
#
#
# Elastic Compliance Matrix: (Units=1/GPa)
#
#
# Indices 1 2 3 4 5 6 
#
# 1 0.008724 -0.000851 -0.001980 0.000000 0.000000 0.000000
# 2 -0.000851 0.008585 -0.006964 0.000000 0.000000 0.000000
# 3 -0.001980 -0.006964 0.018135 0.000000 0.000000 0.000000
# 4 0.000000 0.000000 0.000000 0.023442 0.000000 0.000000
# 5 0.000000 0.000000 0.000000 0.000000 0.040952 0.000000
# 6 0.000000 0.000000 0.000000 0.000000 0.000000 0.034238
#
#
# Mechanical properties :
#
#
# Convention : Reuss Voigt Hill
#
# Bulk Modulus (GPa) = 63.08148 72.56956 67.82552
# Shear Modulus (GPa) = 31.45629 36.29676 33.87653
#
# Velocity S-wave (km/s) = 3.95052 4.24360 4.09968
# Velocity P-wave (km/s) = 7.21843 7.74694 7.48735
#
# Compressibility (1/GPa) = 0.01585251
#
# Stress axis : x y z
#
# Youngs Moduli (GPa) = 114.62815 116.48226 55.14144
#
# Poissons Ratio (x) = 0.09917 0.10920
# Poissons Ratio (y) = 0.09759 0.38400
# Poissons Ratio (z) = 0.22701 0.81118
#
# Static dielectric constant tensor:
#      x y z
#    x 3.795950 0.000000 0.000000 
#    y 0.000000 4.142180 0.000000 
#    z 0.000000 0.000000 3.345270 
# 
# 
# High freq. dielectric constant tensor:
#      x y z
#    x 1.803750 0.000000 0.000000 
#    y 0.000000 1.815990 0.000000 
#    z 0.000000 0.000000 1.745020 
# 
# From -- ./inp_files/14700.got.cif
#   From: 2010.03.12/outbox.cif.g09.slc.cpg/sg40_8_cif.got.tgz:14700.got - 2010.04.14 01:38:03.
