data_PCOD8183211
_publ_section_title
;
Structure prediction by ZEFSAII (Michael W. Deem and Ramdas Pophale) SiO2 
 PCOD8183211
Probable space group: A M A 2
;
_chemical_formula_sum "Si O2"
_cell_formula_units_Z 64
_cell_length_a 9.116515
_cell_length_b 16.074716
_cell_length_c 22.026362
_cell_angle_alpha 90.000000
_cell_angle_beta 90.000000
_cell_angle_gamma 90.000000
_cell_volume 3227.861799
_symmetry_space_group_name_H-M "A M A 2"
_symmetry_group_IT_number 40
_symmetry_cell_setting 'orthorhombic'
loop_
_space_group_symop_operation_xyz
x,y,z
-x,-y,z
1/2-x,y,z
1/2+x,-y,z
x,1/2+y,1/2+z
-x,1/2-y,1/2+z
1/2-x,1/2+y,1/2+z
1/2+x,1/2-y,1/2+z
loop_
_atom_site_type_symbol
_atom_site_label
_atom_site_fract_x
_atom_site_fract_y
_atom_site_fract_z
Si Si1 0.911298 0.924138 0.547660
Si Si2 0.576943 0.787720 0.136559
Si Si3 0.924392 0.264065 0.394319
Si Si4 0.074781 0.759331 0.017269
Si Si5 0.579907 0.417832 0.310910
Si Si6 0.416628 0.419892 0.711736
Si Si7 0.585654 0.868649 0.676768
Si Si8 0.414642 0.918553 0.355719
O O1 0.750000 0.932136 0.520521
O O2 0.976730 0.836312 0.525789
O O3 0.909626 0.933395 0.621005
O O4 0.000000 0.000000 0.518460
O O5 0.750000 0.800090 0.129712
O O6 0.510698 0.843186 0.189374
O O7 0.540220 0.695715 0.159071
O O8 0.497509 0.810122 0.072846
O O9 0.750000 0.264164 0.403993
O O10 0.970460 0.332056 0.343511
O O11 0.980395 0.170844 0.377062
O O12 0.007537 0.293340 0.454989
O O13 0.250000 0.769715 0.019260
O O14 0.500000 0.500000 0.337290
O O15 0.750000 0.432379 0.322629
O O16 0.542003 0.412001 0.239567
O O17 0.500000 0.500000 0.685924
O O18 0.250000 0.417834 0.687022
O O19 0.418181 0.418008 0.783707
O O20 0.750000 0.827484 0.682827
O O21 0.250000 0.927101 0.380191
O O22 0.500000 0.000000 0.380975
#
# Coordination Sequence:
#
# PCOD8183211 Si02
#       8
#     8   8   8   8   8   8   8   8
#     4   9  18  31  50  76 106 137 170 209 260 319
#     4  11  21  34  55  82 108 139 179 224 274 330
#     4  10  21  38  57  79 109 148 189 231 277 327
#     4  10  22  39  55  74 102 140 184 230 274 322
#     4  10  21  37  58  83 113 147 186 230 280 332
#     4  10  19  34  55  81 113 145 177 219 270 327
#     4   9  18  34  54  79 112 146 175 212 266 328
#     4   9  19  35  57  84 116 150 183 221 270 327
#
# _framework density 19.827366999999999
#
# number of rings (size 3 to 8) (size 9 to 14) (size 15 to 20)
#    0.000    2.250    0.000    3.750    0.000    7.000 
#    0.000    4.375    0.000    1.500    0.000    0.000 
#    0.000    0.000    0.000    0.000    0.000    0.000 
#
# Total GULP energy -396662.040381 kJ/mol
# GULP energy per Si atom -12395.688762 kJ/mol
# Density = 1.978224 g / cm^3
# Si number density = 19.827367 Si / 1000 Ang^3
#
#
#
# Elastic Constant Matrix: (Units=GPa)
#
#
# Indices 1 2 3 4 5 6 
#
# 1 91.1515 32.7652 25.1029 0.0000 0.0000 0.0000
# 2 32.7652 76.8025 16.9909 0.0000 0.0000 0.0000
# 3 25.1029 16.9909 54.3109 0.0000 0.0000 0.0000
# 4 0.0000 0.0000 0.0000 12.0943 0.0000 0.0000
# 5 0.0000 0.0000 0.0000 0.0000 27.7669 0.0000
# 6 0.0000 0.0000 0.0000 0.0000 0.0000 36.2043
#
#
#
# Elastic Compliance Matrix: (Units=1/GPa)
#
#
# Indices 1 2 3 4 5 6 
#
# 1 0.014111 -0.004917 -0.004984 0.000000 0.000000 0.000000
# 2 -0.004917 0.015702 -0.002639 0.000000 0.000000 0.000000
# 3 -0.004984 -0.002639 0.021542 0.000000 0.000000 0.000000
# 4 0.000000 0.000000 0.000000 0.082684 0.000000 0.000000
# 5 0.000000 0.000000 0.000000 0.000000 0.036014 0.000000
# 6 0.000000 0.000000 0.000000 0.000000 0.000000 0.027621
#
#
# Mechanical properties :
#
#
# Convention : Reuss Voigt Hill
#
# Bulk Modulus (GPa) = 38.06109 41.33144 39.69626
# Shear Modulus (GPa) = 21.59709 25.04016 23.31863
#
# Velocity S-wave (km/s) = 3.30397 3.55760 3.43313
# Velocity P-wave (km/s) = 5.81316 6.14542 5.98160
#
# Compressibility (1/GPa) = 0.02627355
#
# Stress axis : x y z
#
# Youngs Moduli (GPa) = 70.86737 63.68541 46.42136
#
# Poissons Ratio (x) = 0.31317 0.23135
# Poissons Ratio (y) = 0.34848 0.12253
# Poissons Ratio (z) = 0.35319 0.16810
#
# Static dielectric constant tensor:
#      x y z
#    x 4.032550 0.000000 0.000000 
#    y 0.000000 3.791640 0.000000 
#    z 0.000000 0.000000 3.549000 
# 
# 
# High freq. dielectric constant tensor:
#      x y z
#    x 1.769750 0.000000 0.000000 
#    y 0.000000 1.760060 0.000000 
#    z 0.000000 0.000000 1.768350 
# 
# From -- ./inp_files/22362.got.cif
#   From: 2010.03.12/outbox.cif.g09.slc.cpg/sg40_12_cif.got.tgz:22362.got - 2010.04.14 01:38:03.
