data_PCOD8183123
_publ_section_title
;
Structure prediction by ZEFSAII (Michael W. Deem and Ramdas Pophale) SiO2 
 PCOD8183123
Probable space group: A M A 2
;
_chemical_formula_sum "Si O2"
_cell_formula_units_Z 48
_cell_length_a 8.670374
_cell_length_b 9.477816
_cell_length_c 30.999040
_cell_angle_alpha 90.000000
_cell_angle_beta 90.000000
_cell_angle_gamma 90.000000
_cell_volume 2547.383603
_symmetry_space_group_name_H-M "A M A 2"
_symmetry_group_IT_number 40
_symmetry_cell_setting 'orthorhombic'
loop_
_space_group_symop_operation_xyz
x,y,z
-x,-y,z
1/2-x,y,z
1/2+x,-y,z
x,1/2+y,1/2+z
-x,1/2-y,1/2+z
1/2-x,1/2+y,1/2+z
1/2+x,1/2-y,1/2+z
loop_
_atom_site_type_symbol
_atom_site_label
_atom_site_fract_x
_atom_site_fract_y
_atom_site_fract_z
Si Si1 0.428147 0.652444 0.935110
Si Si2 0.431725 0.650951 0.601475
Si Si3 0.429856 0.154639 0.529993
Si Si4 0.932066 0.656417 0.849538
Si Si5 0.567842 0.344946 0.270639
Si Si6 0.932769 0.652529 0.691891
O O1 0.500000 0.500000 0.939598
O O2 0.250000 0.639421 0.922756
O O3 0.514356 0.728278 0.895034
O O4 0.449896 0.724937 0.982102
O O5 0.500000 0.500000 0.589372
O O6 0.250000 0.638647 0.606752
O O7 0.473471 0.755221 0.563320
O O8 0.502783 0.707167 0.646224
O O9 0.250000 0.149576 0.542809
O O10 0.500000 0.000000 0.531045
O O11 0.750000 0.644766 0.848066
O O12 0.994366 0.756501 0.811501
O O13 0.000000 0.500000 0.843966
O O14 0.500000 0.500000 0.271296
O O15 0.750000 0.356969 0.272242
O O16 0.513199 0.264700 0.227543
O O17 0.750000 0.639269 0.689359
O O18 0.000000 0.500000 0.704026
#
# Coordination Sequence:
#
# PCOD8183123 Si02
#       6
#     8   8   8   8   8   8
#     4   9  17  30  51  78 106 138 176 218 261 307
#     4  11  22  37  57  81 109 142 179 221 269 318
#     4  10  20  35  55  81 111 143 181 222 267 318
#     4  10  19  33  54  80 106 137 178 219 260 309
#     4  10  23  38  54  78 108 140 174 215 263 316
#     4  10  20  37  58  80 105 136 178 221 262 314
#
# _framework density 18.842860999999999
#
# number of rings (size 3 to 8) (size 9 to 14) (size 15 to 20)
#    0.000    2.000    0.000    6.000    0.000    5.333 
#    0.000    2.500    0.000    2.000    0.000    0.000 
#    0.000    0.000    0.000    0.000    0.000    0.000 
#
# Total GULP energy -297525.871859 kJ/mol
# GULP energy per Si atom -12396.911327 kJ/mol
# Density = 1.879997 g / cm^3
# Si number density = 18.842861 Si / 1000 Ang^3
#
#
#
# Elastic Constant Matrix: (Units=GPa)
#
#
# Indices 1 2 3 4 5 6 
#
# 1 93.9598 32.5998 46.6751 0.0000 0.0000 0.0000
# 2 32.5998 89.9421 78.8876 0.0000 0.0000 0.0000
# 3 46.6751 78.8876 162.6389 0.0000 0.0000 0.0000
# 4 0.0000 0.0000 0.0000 49.2346 0.0000 0.0000
# 5 0.0000 0.0000 0.0000 0.0000 30.1423 0.0000
# 6 0.0000 0.0000 0.0000 0.0000 0.0000 30.6397
#
#
#
# Elastic Compliance Matrix: (Units=1/GPa)
#
#
# Indices 1 2 3 4 5 6 
#
# 1 0.012715 -0.002451 -0.002460 0.000000 0.000000 0.000000
# 2 -0.002451 0.019823 -0.008912 0.000000 0.000000 0.000000
# 3 -0.002460 -0.008912 0.011177 0.000000 0.000000 0.000000
# 4 0.000000 0.000000 0.000000 0.020311 0.000000 0.000000
# 5 0.000000 0.000000 0.000000 0.000000 0.033176 0.000000
# 6 0.000000 0.000000 0.000000 0.000000 0.000000 0.032637
#
#
# Mechanical properties :
#
#
# Convention : Reuss Voigt Hill
#
# Bulk Modulus (GPa) = 62.22822 73.65176 67.93999
# Shear Modulus (GPa) = 30.70453 34.56188 32.63321
#
# Velocity S-wave (km/s) = 4.04109 4.28742 4.16608
# Velocity P-wave (km/s) = 7.40746 7.98007 7.69909
#
# Compressibility (1/GPa) = 0.01606988
#
# Stress axis : x y z
#
# Youngs Moduli (GPa) = 78.64509 50.44648 89.46671
#
# Poissons Ratio (x) = 0.12363 0.22013
# Poissons Ratio (y) = 0.19273 0.79731
# Poissons Ratio (z) = 0.19350 0.44957
#
# Static dielectric constant tensor:
#      x y z
#    x 3.525670 0.000000 0.000000 
#    y 0.000000 3.221860 0.000000 
#    z 0.000000 0.000000 4.126080 
# 
# 
# High freq. dielectric constant tensor:
#      x y z
#    x 1.746240 0.000000 0.000000 
#    y 0.000000 1.700040 0.000000 
#    z 0.000000 0.000000 1.755830 
# 
# From -- ./inp_files/26122.got.cif
#   From: 2010.03.12/outbox.cif.g09.slc.cpg/sg40_14_cif.got.tgz:26122.got - 2010.04.14 01:38:03.
