data_PCOD8183591
_publ_section_title
;
Structure prediction by ZEFSAII (Michael W. Deem and Ramdas Pophale) SiO2 
 PCOD8183591
Probable space group: A M A 2
;
_chemical_formula_sum "Si O2"
_cell_formula_units_Z 56
_cell_length_a 8.936126
_cell_length_b 14.079113
_cell_length_c 22.490351
_cell_angle_alpha 90.000000
_cell_angle_beta 90.000000
_cell_angle_gamma 90.000000
_cell_volume 2829.572407
_symmetry_space_group_name_H-M "A M A 2"
_symmetry_group_IT_number 40
_symmetry_cell_setting 'orthorhombic'
loop_
_space_group_symop_operation_xyz
x,y,z
-x,-y,z
1/2-x,y,z
1/2+x,-y,z
x,1/2+y,1/2+z
-x,1/2-y,1/2+z
1/2-x,1/2+y,1/2+z
1/2+x,1/2-y,1/2+z
loop_
_atom_site_type_symbol
_atom_site_label
_atom_site_fract_x
_atom_site_fract_y
_atom_site_fract_z
Si Si1 0.075126 0.289784 0.832240
Si Si2 0.927581 0.094387 0.803434
Si Si3 0.916066 0.857684 0.220231
Si Si4 0.425784 0.908953 0.104902
Si Si5 0.586531 0.145874 0.675554
Si Si6 0.075098 0.200670 0.563402
Si Si7 0.576213 0.601584 0.953639
O O1 0.250000 0.277302 0.818218
O O2 0.044284 0.339348 0.894603
O O3 0.999001 0.186437 0.834250
O O4 0.002270 0.358526 0.782919
O O5 0.750000 0.097302 0.813787
O O6 0.969057 0.088289 0.733169
O O7 0.000000 0.000000 0.832820
O O8 0.750000 0.903179 0.227747
O O9 0.897503 0.752001 0.197799
O O10 0.012998 0.913928 0.172149
O O11 0.250000 0.921911 0.106141
O O12 0.470319 0.811039 0.072310
O O13 0.500000 0.000000 0.071189
O O14 0.750000 0.109826 0.653711
O O15 0.469622 0.138351 0.621392
O O16 0.250000 0.188147 0.553021
O O17 0.987207 0.163332 0.507214
O O18 0.500000 0.500000 0.949512
O O19 0.750000 0.584586 0.964689
#
# Coordination Sequence:
#
# PCOD8183591 Si02
#       7
#     8   8   8   8   8   8   8
#     4  10  21  38  58  82 113 149 189 234 281 332
#     4  10  20  34  56  86 118 153 188 228 278 333
#     4   9  17  31  53  80 111 147 182 223 273 324
#     4  10  20  34  55  85 118 152 187 227 276 333
#     4   8  16  31  51  77 110 146 182 220 268 321
#     4  10  21  37  58  83 113 148 187 233 281 328
#     4  11  25  43  63  83 106 141 185 233 283 333
#
# _framework density 19.790977000000002
#
# number of rings (size 3 to 8) (size 9 to 14) (size 15 to 20)
#    0.000    2.286    0.000    3.429    0.000    9.143 
#    0.000    3.571    0.000    1.714    0.000    0.000 
#    0.000    0.000    0.000    0.000    0.000    0.000 
#
# Total GULP energy -347114.347579 kJ/mol
# GULP energy per Si atom -12396.940985 kJ/mol
# Density = 1.974593 g / cm^3
# Si number density = 19.790977 Si / 1000 Ang^3
#
#
#
# Elastic Constant Matrix: (Units=GPa)
#
#
# Indices 1 2 3 4 5 6 
#
# 1 136.9043 69.7867 73.1214 0.0000 0.0000 0.0000
# 2 69.7867 116.5161 46.2909 0.0000 0.0000 0.0000
# 3 73.1214 46.2909 107.2474 0.0000 0.0000 0.0000
# 4 0.0000 0.0000 0.0000 17.2980 0.0000 0.0000
# 5 0.0000 0.0000 0.0000 0.0000 31.0274 0.0000
# 6 0.0000 0.0000 0.0000 0.0000 0.0000 31.5426
#
#
#
# Elastic Compliance Matrix: (Units=1/GPa)
#
#
# Indices 1 2 3 4 5 6 
#
# 1 0.013906 -0.005506 -0.007104 0.000000 0.000000 0.000000
# 2 -0.005506 0.012539 -0.001658 0.000000 0.000000 0.000000
# 3 -0.007104 -0.001658 0.014884 0.000000 0.000000 0.000000
# 4 0.000000 0.000000 0.000000 0.057810 0.000000 0.000000
# 5 0.000000 0.000000 0.000000 0.000000 0.032230 0.000000
# 6 0.000000 0.000000 0.000000 0.000000 0.000000 0.031703
#
#
# Mechanical properties :
#
#
# Convention : Reuss Voigt Hill
#
# Bulk Modulus (GPa) = 78.17834 82.11843 80.14839
# Shear Modulus (GPa) = 25.52690 27.40485 26.46587
#
# Velocity S-wave (km/s) = 3.59531 3.72521 3.66084
# Velocity P-wave (km/s) = 7.53809 7.75151 7.64554
#
# Compressibility (1/GPa) = 0.01279127
#
# Stress axis : x y z
#
# Youngs Moduli (GPa) = 71.91384 79.75005 67.18829
#
# Poissons Ratio (x) = 0.43912 0.47732
# Poissons Ratio (y) = 0.39597 0.11141
# Poissons Ratio (z) = 0.51089 0.13223
#
# Static dielectric constant tensor:
#      x y z
#    x 3.792320 0.000000 0.000000 
#    y 0.000000 3.851750 0.000000 
#    z 0.000000 0.000000 3.527330 
# 
# 
# High freq. dielectric constant tensor:
#      x y z
#    x 1.786530 0.000000 0.000000 
#    y 0.000000 1.776550 0.000000 
#    z 0.000000 0.000000 1.747930 
# 
# From -- ./inp_files/22127.got.cif
#   From: 2010.03.12/outbox.cif.g09.slc.cpg/sg40_12_cif.got.tgz:22127.got - 2010.04.14 01:38:03.
