data_PCOD8183674
_publ_section_title
;
Structure prediction by ZEFSAII (Michael W. Deem and Ramdas Pophale) SiO2 
 PCOD8183674
Probable space group: A M A 2
;
_chemical_formula_sum "Si O2"
_cell_formula_units_Z 48
_cell_length_a 9.126599
_cell_length_b 23.217077
_cell_length_c 11.722906
_cell_angle_alpha 90.000000
_cell_angle_beta 90.000000
_cell_angle_gamma 90.000000
_cell_volume 2484.001155
_symmetry_space_group_name_H-M "A M A 2"
_symmetry_group_IT_number 40
_symmetry_cell_setting 'orthorhombic'
loop_
_space_group_symop_operation_xyz
x,y,z
-x,-y,z
1/2-x,y,z
1/2+x,-y,z
x,1/2+y,1/2+z
-x,1/2-y,1/2+z
1/2-x,1/2+y,1/2+z
1/2+x,1/2-y,1/2+z
loop_
_atom_site_type_symbol
_atom_site_label
_atom_site_fract_x
_atom_site_fract_y
_atom_site_fract_z
Si Si1 0.588059 0.053174 0.042920
Si Si2 0.078060 0.061745 0.457472
Si Si3 0.576244 0.722666 0.594050
Si Si4 0.089350 0.344514 0.376561
Si Si5 0.422621 0.149395 0.646598
Si Si6 0.922319 0.374337 0.724824
O O1 0.750000 0.036283 0.088979
O O2 0.492896 0.077505 0.145868
O O3 0.500000 0.000000 0.991990
O O4 0.605717 0.095222 0.938162
O O5 0.250000 0.048926 0.465652
O O6 0.019097 0.096631 0.568636
O O7 0.044541 0.105019 0.353076
O O8 0.000000 0.000000 0.446094
O O9 0.750000 0.712492 0.609549
O O10 0.526233 0.700960 0.468821
O O11 0.528471 0.788944 0.596877
O O12 0.495868 0.687538 0.695817
O O13 0.250000 0.324461 0.331963
O O14 0.979698 0.354577 0.274106
O O15 0.250000 0.145971 0.650744
O O16 0.750000 0.369189 0.701550
#
# Coordination Sequence:
#
# PCOD8183674 Si02
#       6
#     8   8   8   8   8   8
#     4  10  20  35  56  82 114 148 185 233 285 332
#     4  10  23  40  58  83 117 157 194 237 286 339
#     4   9  20  38  59  83 115 148 185 238 295 343
#     4   9  20  37  56  80 110 145 184 231 284 338
#     4  10  22  39  58  81 113 152 190 234 288 343
#     4  10  20  35  59  87 114 148 191 236 286 342
#
# _framework density 19.323663
#
# number of rings (size 3 to 8) (size 9 to 14) (size 15 to 20)
#    0.000    2.333    0.000    2.500    2.333    8.000 
#    0.000    3.333    0.000    0.000    0.000    0.000 
#    0.000    0.000    0.000    0.000    0.000    0.000 
#
# Total GULP energy -297506.155026 kJ/mol
# GULP energy per Si atom -12396.089793 kJ/mol
# Density = 1.927968 g / cm^3
# Si number density = 19.323663 Si / 1000 Ang^3
#
#
#
# Elastic Constant Matrix: (Units=GPa)
#
#
# Indices 1 2 3 4 5 6 
#
# 1 61.2858 45.7569 35.0635 0.0000 0.0000 0.0000
# 2 45.7569 98.4179 41.3975 0.0000 0.0000 0.0000
# 3 35.0635 41.3975 107.2548 0.0000 0.0000 0.0000
# 4 0.0000 0.0000 0.0000 2.1361 0.0000 0.0000
# 5 0.0000 0.0000 0.0000 0.0000 31.2667 0.0000
# 6 0.0000 0.0000 0.0000 0.0000 0.0000 29.0642
#
#
#
# Elastic Compliance Matrix: (Units=1/GPa)
#
#
# Indices 1 2 3 4 5 6 
#
# 1 0.026862 -0.010500 -0.004729 0.000000 0.000000 0.000000
# 2 -0.010500 0.016234 -0.002833 0.000000 0.000000 0.000000
# 3 -0.004729 -0.002833 0.011963 0.000000 0.000000 0.000000
# 4 0.000000 0.000000 0.000000 0.468140 0.000000 0.000000
# 5 0.000000 0.000000 0.000000 0.000000 0.031983 0.000000
# 6 0.000000 0.000000 0.000000 0.000000 0.000000 0.034407
#
#
# Mechanical properties :
#
#
# Convention : Reuss Voigt Hill
#
# Bulk Modulus (GPa) = 52.81212 56.82157 54.81685
# Shear Modulus (GPa) = 7.91109 22.14278 15.02693
#
# Velocity S-wave (km/s) = 2.02556 3.38877 2.79165
# Velocity P-wave (km/s) = 5.73237 6.69184 6.23060
#
# Compressibility (1/GPa) = 0.01893505
#
# Stress axis : x y z
#
# Youngs Moduli (GPa) = 37.22769 61.59889 83.58946
#
# Poissons Ratio (x) = 0.64676 0.39530
# Poissons Ratio (y) = 0.39087 0.23685
# Poissons Ratio (z) = 0.17605 0.17454
#
# Static dielectric constant tensor:
#      x y z
#    x 3.705060 0.000000 0.000000 
#    y 0.000000 3.800690 0.000000 
#    z 0.000000 0.000000 3.543490 
# 
# 
# High freq. dielectric constant tensor:
#      x y z
#    x 1.750370 0.000000 0.000000 
#    y 0.000000 1.760420 0.000000 
#    z 0.000000 0.000000 1.746380 
# 
# From -- ./inp_files/10237.got.cif
#   From: 2010.03.12/outbox.cif.g09.slc.cpg/sg40_6_cif.got.tgz:10237.got - 2010.04.14 01:38:03.
