data_PCOD8183867
_publ_section_title
;
Structure prediction by ZEFSAII (Michael W. Deem and Ramdas Pophale) SiO2 
 PCOD8183867
Probable space group: A M A 2
;
_chemical_formula_sum "Si O2"
_cell_formula_units_Z 48
_cell_length_a 8.730457
_cell_length_b 9.122186
_cell_length_c 30.106698
_cell_angle_alpha 90.000000
_cell_angle_beta 90.000000
_cell_angle_gamma 90.000000
_cell_volume 2397.723098
_symmetry_space_group_name_H-M "A M A 2"
_symmetry_group_IT_number 40
_symmetry_cell_setting 'orthorhombic'
loop_
_space_group_symop_operation_xyz
x,y,z
-x,-y,z
1/2-x,y,z
1/2+x,-y,z
x,1/2+y,1/2+z
-x,1/2-y,1/2+z
1/2-x,1/2+y,1/2+z
1/2+x,1/2-y,1/2+z
loop_
_atom_site_type_symbol
_atom_site_label
_atom_site_fract_x
_atom_site_fract_y
_atom_site_fract_z
Si Si1 0.431002 0.153755 0.768070
Si Si2 0.428255 0.841832 0.607583
Si Si3 0.569287 0.159154 0.449874
Si Si4 0.073252 0.153411 0.194609
Si Si5 0.568391 0.159534 0.028788
Si Si6 0.428898 0.150723 0.868261
O O1 0.250000 0.144321 0.763995
O O2 0.491770 0.285576 0.738365
O O3 0.486290 0.186559 0.818471
O O4 0.500000 0.000000 0.751284
O O5 0.250000 0.850824 0.594211
O O6 0.452516 0.762484 0.654116
O O7 0.521319 0.759251 0.569864
O O8 0.500000 0.000000 0.613139
O O9 0.750000 0.151860 0.457645
O O10 0.496973 0.273172 0.483826
O O11 0.526173 0.215229 0.400502
O O12 0.500000 0.000000 0.457633
O O13 0.250000 0.130317 0.205721
O O14 0.000000 0.000000 0.180920
O O15 0.750000 0.149239 0.025679
O O16 0.500000 0.000000 0.036475
O O17 0.250000 0.124475 0.868385
O O18 0.500000 0.000000 0.886331
#
# Coordination Sequence:
#
# PCOD8183867 Si02
#       6
#     8   8   8   8   8   8
#     4  10  20  37  60  87 119 155 197 243 293 348
#     4  11  24  42  64  90 120 155 195 239 290 346
#     4  11  23  40  60  86 120 157 198 242 292 346
#     4  11  24  40  60  87 119 156 197 242 293 348
#     4  12  25  42  64  90 120 154 194 240 292 348
#     4   9  20  37  59  86 116 153 196 242 292 348
#
# _framework density 20.018992999999998
#
# number of rings (size 3 to 8) (size 9 to 14) (size 15 to 20)
#    0.000    1.333    0.000    5.500    0.000    9.333 
#    0.000    1.667    0.000    0.000    0.000    0.000 
#    0.000    0.000    0.000    0.000    0.000    0.000 
#
# Total GULP energy -297734.925373 kJ/mol
# GULP energy per Si atom -12405.621891 kJ/mol
# Density = 1.997343 g / cm^3
# Si number density = 20.018993 Si / 1000 Ang^3
#
#
#
# Elastic Constant Matrix: (Units=GPa)
#
#
# Indices 1 2 3 4 5 6 
#
# 1 119.0927 54.9952 50.5114 0.0000 0.0000 0.0000
# 2 54.9952 129.9980 41.7068 0.0000 0.0000 0.0000
# 3 50.5114 41.7068 92.3360 0.0000 0.0000 0.0000
# 4 0.0000 0.0000 0.0000 51.0912 0.0000 0.0000
# 5 0.0000 0.0000 0.0000 0.0000 30.9212 0.0000
# 6 0.0000 0.0000 0.0000 0.0000 0.0000 37.3616
#
#
#
# Elastic Compliance Matrix: (Units=1/GPa)
#
#
# Indices 1 2 3 4 5 6 
#
# 1 0.012174 -0.003524 -0.005068 0.000000 0.000000 0.000000
# 2 -0.003524 0.010016 -0.002596 0.000000 0.000000 0.000000
# 3 -0.005068 -0.002596 0.014775 0.000000 0.000000 0.000000
# 4 0.000000 0.000000 0.000000 0.019573 0.000000 0.000000
# 5 0.000000 0.000000 0.000000 0.000000 0.032340 0.000000
# 6 0.000000 0.000000 0.000000 0.000000 0.000000 0.026765
#
#
# Mechanical properties :
#
#
# Convention : Reuss Voigt Hill
#
# Bulk Modulus (GPa) = 68.54696 70.65038 69.59867
# Shear Modulus (GPa) = 34.99381 36.82236 35.90809
#
# Velocity S-wave (km/s) = 4.18548 4.29344 4.23981
# Velocity P-wave (km/s) = 7.59427 7.74251 7.66875
#
# Compressibility (1/GPa) = 0.01458854
#
# Stress axis : x y z
#
# Youngs Moduli (GPa) = 82.14517 99.83736 67.68225
#
# Poissons Ratio (x) = 0.35184 0.34299
# Poissons Ratio (y) = 0.28949 0.17573
# Poissons Ratio (z) = 0.41628 0.25921
#
# Static dielectric constant tensor:
#      x y z
#    x 3.788260 0.000000 0.000000 
#    y 0.000000 3.685210 0.000000 
#    z 0.000000 0.000000 3.946420 
# 
# 
# High freq. dielectric constant tensor:
#      x y z
#    x 1.794980 0.000000 0.000000 
#    y 0.000000 1.789120 0.000000 
#    z 0.000000 0.000000 1.795240 
# 
# From -- ./inp_files/26114.got.cif
#   From: 2010.03.12/outbox.cif.g09.slc.cpg/sg40_14_cif.got.tgz:26114.got - 2010.04.14 01:38:03.
