data_PCOD8183758
_publ_section_title
;
Structure prediction by ZEFSAII (Michael W. Deem and Ramdas Pophale) SiO2 
 PCOD8183758
Probable space group: A M A 2
;
_chemical_formula_sum "Si O2"
_cell_formula_units_Z 64
_cell_length_a 8.856855
_cell_length_b 25.002948
_cell_length_c 15.182983
_cell_angle_alpha 90.000000
_cell_angle_beta 90.000000
_cell_angle_gamma 90.000000
_cell_volume 3362.233400
_symmetry_space_group_name_H-M "A M A 2"
_symmetry_group_IT_number 40
_symmetry_cell_setting 'orthorhombic'
loop_
_space_group_symop_operation_xyz
x,y,z
-x,-y,z
1/2-x,y,z
1/2+x,-y,z
x,1/2+y,1/2+z
-x,1/2-y,1/2+z
1/2-x,1/2+y,1/2+z
1/2+x,1/2-y,1/2+z
loop_
_atom_site_type_symbol
_atom_site_label
_atom_site_fract_x
_atom_site_fract_y
_atom_site_fract_z
Si Si1 0.571279 0.355333 0.723850
Si Si2 0.428822 0.057088 0.705010
Si Si3 0.573171 0.331301 0.530781
Si Si4 0.928597 0.858311 0.843981
Si Si5 0.079228 0.723685 0.052210
Si Si6 0.077372 0.246914 0.753773
Si Si7 0.570844 0.056656 0.346087
Si Si8 0.428436 0.604668 0.017562
O O1 0.750000 0.364336 0.732049
O O2 0.510696 0.355724 0.622278
O O3 0.528391 0.298505 0.766942
O O4 0.484409 0.401985 0.772953
O O5 0.250000 0.052597 0.711518
O O6 0.496148 0.095506 0.781783
O O7 0.478165 0.079764 0.610529
O O8 0.500000 0.000000 0.721565
O O9 0.750000 0.327779 0.540417
O O10 0.526401 0.367899 0.446731
O O11 0.519504 0.271064 0.512146
O O12 0.750000 0.858035 0.830460
O O13 0.986800 0.799355 0.817235
O O14 0.250000 0.734299 0.023008
O O15 0.065495 0.721943 0.157049
O O16 0.023407 0.666831 0.014517
O O17 0.250000 0.263283 0.775440
O O18 0.750000 0.052563 0.344343
O O19 0.518075 0.073509 0.442880
O O20 0.500000 0.000000 0.320924
O O21 0.250000 0.598143 0.002029
#
# Coordination Sequence:
#
# PCOD8183758 Si02
#       8
#     8   8   8   8   8   8   8   8
#     4  10  21  38  57  82 116 149 187 237 287 333
#     4  10  20  36  57  80 112 153 190 229 276 332
#     4   9  19  34  55  82 115 152 188 231 278 332
#     4   9  17  33  56  81 112 150 191 229 275 331
#     4   9  17  31  52  80 115 152 186 223 271 329
#     4   9  16  31  55  82 112 151 190 224 272 334
#     4  12  26  43  62  83 108 145 192 241 290 345
#     4  10  20  36  57  84 118 152 185 226 281 338
#
# _framework density 19.034966000000001
#
# number of rings (size 3 to 8) (size 9 to 14) (size 15 to 20)
#    0.000    2.250    1.250    1.875    1.750    2.500 
#    0.000    1.875    0.000    1.500    0.000    0.000 
#    0.000    0.000    0.000    0.000    0.000    0.000 
#
# Total GULP energy -396751.954577 kJ/mol
# GULP energy per Si atom -12398.498581 kJ/mol
# Density = 1.899164 g / cm^3
# Si number density = 19.034966 Si / 1000 Ang^3
#
#
#
# Elastic Constant Matrix: (Units=GPa)
#
#
# Indices 1 2 3 4 5 6 
#
# 1 52.0383 38.1100 38.6978 0.0000 0.0000 0.0000
# 2 38.1100 132.7129 82.1548 0.0000 0.0000 0.0000
# 3 38.6978 82.1548 124.0152 0.0000 0.0000 0.0000
# 4 0.0000 0.0000 0.0000 29.5028 0.0000 0.0000
# 5 0.0000 0.0000 0.0000 0.0000 10.2403 0.0000
# 6 0.0000 0.0000 0.0000 0.0000 0.0000 33.1079
#
#
#
# Elastic Compliance Matrix: (Units=1/GPa)
#
#
# Indices 1 2 3 4 5 6 
#
# 1 0.026333 -0.004196 -0.005437 0.000000 0.000000 0.000000
# 2 -0.004196 0.013442 -0.007595 0.000000 0.000000 0.000000
# 3 -0.005437 -0.007595 0.014792 0.000000 0.000000 0.000000
# 4 0.000000 0.000000 0.000000 0.033895 0.000000 0.000000
# 5 0.000000 0.000000 0.000000 0.000000 0.097654 0.000000
# 6 0.000000 0.000000 0.000000 0.000000 0.000000 0.030204
#
#
# Mechanical properties :
#
#
# Convention : Reuss Voigt Hill
#
# Bulk Modulus (GPa) = 49.72806 69.63240 59.68023
# Shear Modulus (GPa) = 19.41902 24.55713 21.98808
#
# Velocity S-wave (km/s) = 3.19749 3.59570 3.40242
# Velocity P-wave (km/s) = 6.30977 7.34163 6.84517
#
# Compressibility (1/GPa) = 0.02010937
#
# Stress axis : x y z
#
# Youngs Moduli (GPa) = 37.97539 74.39503 67.60515
#
# Poissons Ratio (x) = 0.31215 0.36759
# Poissons Ratio (y) = 0.15934 0.51348
# Poissons Ratio (z) = 0.20649 0.56505
#
# Static dielectric constant tensor:
#      x y z
#    x 3.339260 0.000000 0.000000 
#    y 0.000000 3.512850 0.000000 
#    z 0.000000 0.000000 3.723010 
# 
# 
# High freq. dielectric constant tensor:
#      x y z
#    x 1.719650 0.000000 0.000000 
#    y 0.000000 1.735340 0.000000 
#    z 0.000000 0.000000 1.748170 
# 
# From -- ./inp_files/15615.got.cif
#   From: 2010.03.12/outbox.cif.g09.slc.cpg/sg40_8_cif.got.tgz:15615.got - 2010.04.14 01:38:03.
