data_PCOD8183520
_publ_section_title
;
Structure prediction by ZEFSAII (Michael W. Deem and Ramdas Pophale) SiO2 
 PCOD8183520
Probable space group: A M A 2
;
_chemical_formula_sum "Si O2"
_cell_formula_units_Z 56
_cell_length_a 14.581106
_cell_length_b 12.427765
_cell_length_c 16.857948
_cell_angle_alpha 90.000000
_cell_angle_beta 90.000000
_cell_angle_gamma 90.000000
_cell_volume 3054.838177
_symmetry_space_group_name_H-M "A M A 2"
_symmetry_group_IT_number 40
_symmetry_cell_setting 'orthorhombic'
loop_
_space_group_symop_operation_xyz
x,y,z
-x,-y,z
1/2-x,y,z
1/2+x,-y,z
x,1/2+y,1/2+z
-x,1/2-y,1/2+z
1/2-x,1/2+y,1/2+z
1/2+x,1/2-y,1/2+z
loop_
_atom_site_type_symbol
_atom_site_label
_atom_site_fract_x
_atom_site_fract_y
_atom_site_fract_z
Si Si1 0.011574 0.234361 0.411900
Si Si2 0.996617 0.374536 0.074668
Si Si3 0.988554 0.875193 0.249152
Si Si4 0.643130 0.280270 0.626112
Si Si5 0.407955 0.430274 0.494266
Si Si6 0.652500 0.858672 0.951228
Si Si7 0.142219 0.792168 0.139818
O O1 0.995831 0.145593 0.480324
O O2 0.042497 0.178884 0.331513
O O3 0.083441 0.324497 0.439961
O O4 0.917895 0.299492 0.393790
O O5 0.903049 0.317931 0.105930
O O6 0.000000 0.500000 0.092640
O O7 0.085530 0.330154 0.121900
O O8 0.902658 0.857630 0.190923
O O9 0.084576 0.825831 0.217707
O O10 0.000000 0.000000 0.265479
O O11 0.750000 0.258515 0.645338
O O12 0.626907 0.338233 0.542804
O O13 0.500000 0.500000 0.509320
O O14 0.342838 0.511289 0.445046
O O15 0.366946 0.391029 0.577903
O O16 0.750000 0.809106 0.928169
O O17 0.250000 0.772909 0.159541
#
# Coordination Sequence:
#
# PCOD8183520 Si02
#       7
#     8   8   8   8   8   8   8
#     4   9  19  32  48  73 105 135 165 201 247 302
#     4   9  18  35  56  75  99 134 173 210 248 295
#     4  11  21  34  52  75 106 137 163 201 256 310
#     4   9  19  35  55  78 100 128 172 217 253 294
#     4   9  16  31  53  75  98 130 171 213 253 289
#     4   9  16  30  54  76  95 126 170 215 252 288
#     4  10  20  33  53  80 104 128 167 215 255 296
#
# _framework density 18.331576999999999
#
# number of rings (size 3 to 8) (size 9 to 14) (size 15 to 20)
#    0.000    2.571    0.000    4.714    0.000    2.857 
#    0.000   12.143    0.000    5.143    0.000    0.000 
#    0.000    0.000    0.000    0.000    0.000    0.000 
#
# Total GULP energy -346962.790929 kJ/mol
# GULP energy per Si atom -12391.528247 kJ/mol
# Density = 1.828985 g / cm^3
# Si number density = 18.331577 Si / 1000 Ang^3
#
#
#
# Elastic Constant Matrix: (Units=GPa)
#
#
# Indices 1 2 3 4 5 6 
#
# 1 105.7747 23.0831 18.8239 0.0000 0.0000 0.0000
# 2 23.0831 111.8681 16.1231 0.0000 0.0000 0.0000
# 3 18.8239 16.1231 51.9804 0.0000 0.0000 0.0000
# 4 0.0000 0.0000 0.0000 18.5509 0.0000 0.0000
# 5 0.0000 0.0000 0.0000 0.0000 8.8485 0.0000
# 6 0.0000 0.0000 0.0000 0.0000 0.0000 12.9856
#
#
#
# Elastic Compliance Matrix: (Units=1/GPa)
#
#
# Indices 1 2 3 4 5 6 
#
# 1 0.010398 -0.001678 -0.003245 0.000000 0.000000 0.000000
# 2 -0.001678 0.009628 -0.002379 0.000000 0.000000 0.000000
# 3 -0.003245 -0.002379 0.021151 0.000000 0.000000 0.000000
# 4 0.000000 0.000000 0.000000 0.053906 0.000000 0.000000
# 5 0.000000 0.000000 0.000000 0.000000 0.113014 0.000000
# 6 0.000000 0.000000 0.000000 0.000000 0.000000 0.077008
#
#
# Mechanical properties :
#
#
# Convention : Reuss Voigt Hill
#
# Bulk Modulus (GPa) = 37.63127 42.85370 40.24249
# Shear Modulus (GPa) = 16.20401 22.18320 19.19361
#
# Velocity S-wave (km/s) = 2.97634 3.48244 3.23929
# Velocity P-wave (km/s) = 5.69071 6.29266 5.99924
#
# Compressibility (1/GPa) = 0.02657365
#
# Stress axis : x y z
#
# Youngs Moduli (GPa) = 96.17526 103.86207 47.27914
#
# Poissons Ratio (x) = 0.17426 0.15342
# Poissons Ratio (y) = 0.16136 0.11247
# Poissons Ratio (z) = 0.31208 0.24707
#
# Static dielectric constant tensor:
#      x y z
#    x 3.458570 0.000000 0.000000 
#    y 0.000000 3.355150 0.000000 
#    z 0.000000 0.000000 3.090610 
# 
# 
# High freq. dielectric constant tensor:
#      x y z
#    x 1.707370 0.000000 0.000000 
#    y 0.000000 1.710990 0.000000 
#    z 0.000000 0.000000 1.683810 
# 
# From -- ./inp_files/17087.got.cif
#   From: 2010.03.12/outbox.cif.g09.slc.cpg/sg40_9_cif.got.tgz:17087.got - 2010.04.14 01:38:03.
