data_PCOD8183526
_publ_section_title
;
Structure prediction by ZEFSAII (Michael W. Deem and Ramdas Pophale) SiO2 
 PCOD8183526
Probable space group: A M A 2
;
_chemical_formula_sum "Si O2"
_cell_formula_units_Z 56
_cell_length_a 9.108194
_cell_length_b 19.059060
_cell_length_c 17.218014
_cell_angle_alpha 90.000000
_cell_angle_beta 90.000000
_cell_angle_gamma 90.000000
_cell_volume 2988.937310
_symmetry_space_group_name_H-M "A M A 2"
_symmetry_group_IT_number 40
_symmetry_cell_setting 'orthorhombic'
loop_
_space_group_symop_operation_xyz
x,y,z
-x,-y,z
1/2-x,y,z
1/2+x,-y,z
x,1/2+y,1/2+z
-x,1/2-y,1/2+z
1/2-x,1/2+y,1/2+z
1/2+x,1/2-y,1/2+z
loop_
_atom_site_type_symbol
_atom_site_label
_atom_site_fract_x
_atom_site_fract_y
_atom_site_fract_z
Si Si1 0.083583 0.786096 0.516480
Si Si2 0.422794 0.301352 0.775564
Si Si3 0.909823 0.063137 0.539848
Si Si4 0.583041 0.344929 0.620982
Si Si5 0.578576 0.706695 0.385372
Si Si6 0.591585 0.562406 0.857700
Si Si7 0.075283 0.926497 0.985426
O O1 0.250000 0.797776 0.481853
O O2 0.021872 0.859316 0.552209
O O3 0.090205 0.731989 0.585708
O O4 0.973076 0.760353 0.451222
O O5 0.250000 0.288649 0.762993
O O6 0.493402 0.334764 0.699314
O O7 0.494722 0.227749 0.805240
O O8 0.464510 0.358999 0.841253
O O9 0.750000 0.060333 0.578895
O O10 0.900033 0.049307 0.448647
O O11 0.000000 0.000000 0.579905
O O12 0.750000 0.372488 0.635204
O O13 0.497608 0.398842 0.564983
O O14 0.750000 0.716460 0.370880
O O15 0.542360 0.627579 0.414363
O O16 0.500000 0.500000 0.817700
O O17 0.750000 0.555579 0.818017
O O18 0.250000 0.935161 0.997737
O O19 0.000000 0.000000 0.962445
#
# Coordination Sequence:
#
# PCOD8183526 Si02
#       7
#     8   8   8   8   8   8   8
#     4   9  17  33  52  71 100 134 169 210 261 314
#     4  11  21  35  52  74 108 145 180 219 266 322
#     4   9  16  28  45  69  96 125 160 197 241 291
#     4  10  21  35  54  78 105 140 178 220 271 325
#     4  10  20  33  54  81 105 133 178 227 268 316
#     4   9  18  30  45  67  97 131 163 198 240 291
#     4  10  21  38  59  84 111 142 182 229 279 335
#
# _framework density 18.735755999999999
#
# number of rings (size 3 to 8) (size 9 to 14) (size 15 to 20)
#    0.000    2.286    1.429    1.714    0.000    4.571 
#    0.000    1.429    0.000    0.857    0.000    2.000 
#    0.000    0.000    0.000    0.000    0.000    0.000 
#
# Total GULP energy -346945.088108 kJ/mol
# GULP energy per Si atom -12390.896004 kJ/mol
# Density = 1.869311 g / cm^3
# Si number density = 18.735756 Si / 1000 Ang^3
#
#
#
# Elastic Constant Matrix: (Units=GPa)
#
#
# Indices 1 2 3 4 5 6 
#
# 1 110.4811 55.7965 28.6574 0.0000 0.0000 0.0000
# 2 55.7965 130.6577 12.6034 0.0000 0.0000 0.0000
# 3 28.6574 12.6034 34.4622 0.0000 0.0000 0.0000
# 4 0.0000 0.0000 0.0000 16.5228 0.0000 0.0000
# 5 0.0000 0.0000 0.0000 0.0000 21.6141 0.0000
# 6 0.0000 0.0000 0.0000 0.0000 0.0000 31.7657
#
#
#
# Elastic Compliance Matrix: (Units=1/GPa)
#
#
# Indices 1 2 3 4 5 6 
#
# 1 0.014213 -0.005110 -0.009950 0.000000 0.000000 0.000000
# 2 -0.005110 0.009770 0.000676 0.000000 0.000000 0.000000
# 3 -0.009950 0.000676 0.037044 0.000000 0.000000 0.000000
# 4 0.000000 0.000000 0.000000 0.060522 0.000000 0.000000
# 5 0.000000 0.000000 0.000000 0.000000 0.046266 0.000000
# 6 0.000000 0.000000 0.000000 0.000000 0.000000 0.031480
#
#
# Mechanical properties :
#
#
# Convention : Reuss Voigt Hill
#
# Bulk Modulus (GPa) = 30.99859 52.19060 41.59460
# Shear Modulus (GPa) = 20.93649 25.88346 23.40997
#
# Velocity S-wave (km/s) = 3.34647 3.72089 3.53863
# Velocity P-wave (km/s) = 5.61364 6.81004 6.24057
#
# Compressibility (1/GPa) = 0.03225953
#
# Stress axis : x y z
#
# Youngs Moduli (GPa) = 70.35912 102.34942 26.99476
#
# Poissons Ratio (x) = 0.52297 0.26860
# Poissons Ratio (y) = 0.35951 -0.01824
# Poissons Ratio (z) = 0.70008 -0.06917
#
# Static dielectric constant tensor:
#      x y z
#    x 3.759390 0.000000 0.000000 
#    y 0.000000 3.719040 0.000000 
#    z 0.000000 0.000000 3.085750 
# 
# 
# High freq. dielectric constant tensor:
#      x y z
#    x 1.735280 0.000000 0.000000 
#    y 0.000000 1.735520 0.000000 
#    z 0.000000 0.000000 1.683410 
# 
# From -- ./inp_files/19473.got.cif
#   From: 2010.03.12/outbox.cif.g09.slc.cpg/sg40_10_cif.got.tgz:19473.got - 2010.04.14 01:38:03.
