data_PCOD8183059
_publ_section_title
;
Structure prediction by ZEFSAII (Michael W. Deem and Ramdas Pophale) SiO2 
 PCOD8183059
Probable space group: A M A 2
;
_chemical_formula_sum "Si O2"
_cell_formula_units_Z 52
_cell_length_a 10.121265
_cell_length_b 19.280679
_cell_length_c 13.109778
_cell_angle_alpha 90.000000
_cell_angle_beta 90.000000
_cell_angle_gamma 90.000000
_cell_volume 2558.305813
_symmetry_space_group_name_H-M "A M A 2"
_symmetry_group_IT_number 40
_symmetry_cell_setting 'orthorhombic'
loop_
_space_group_symop_operation_xyz
x,y,z
-x,-y,z
1/2-x,y,z
1/2+x,-y,z
x,1/2+y,1/2+z
-x,1/2-y,1/2+z
1/2-x,1/2+y,1/2+z
1/2+x,1/2-y,1/2+z
loop_
_atom_site_type_symbol
_atom_site_label
_atom_site_fract_x
_atom_site_fract_y
_atom_site_fract_z
Si Si1 0.105381 0.594850 0.974960
Si Si2 0.408492 0.062020 0.246239
Si Si3 0.972834 0.221581 0.570819
Si Si4 0.894293 0.792217 0.877511
Si Si5 0.394930 0.368227 0.252880
Si Si6 0.500000 0.000000 0.638966
Si Si7 0.603329 0.181369 0.211844
O O1 0.250000 0.627349 0.968749
O O2 0.069592 0.560439 0.867505
O O3 0.010576 0.658204 0.998499
O O4 0.104340 0.537390 0.064296
O O5 0.250000 0.057548 0.217775
O O6 0.478443 0.130040 0.199188
O O7 0.500000 0.000000 0.201788
O O8 0.897999 0.276459 0.498511
O O9 0.887938 0.189819 0.663671
O O10 0.096508 0.261806 0.621211
O O11 0.750000 0.823869 0.851958
O O12 0.914258 0.719635 0.819539
O O13 0.002503 0.848312 0.842020
O O14 0.250000 0.371383 0.303033
O O15 0.428504 0.443877 0.209552
O O16 0.750000 0.145864 0.207123
#
# Coordination Sequence:
#
# PCOD8183059 Si02
#       7
#     8   8   8   8   8   4   8
#     4  10  19  32  54  84 116 150 186 229 285 344
#     4  11  22  37  57  84 117 153 191 236 285 347
#     4  10  20  37  58  88 115 152 193 238 288 344
#     4  10  21  37  58  84 120 157 192 236 290 343
#     4  10  22  36  58  88 118 152 194 238 285 344
#     4  10  20  36  54  82 118 152 186 236 290 346
#     4  10  21  37  58  86 119 155 192 242 292 344
#
# _framework density 20.325952999999998
#
# number of rings (size 3 to 8) (size 9 to 14) (size 15 to 20)
#    0.000    1.846    2.308    1.846    0.000    8.615 
#    0.000    0.000    1.692    0.000    0.000    0.000 
#    0.000    0.000    0.000    0.000    0.000    0.000 
#
# Total GULP energy -322147.962686 kJ/mol
# GULP energy per Si atom -12390.306257 kJ/mol
# Density = 2.027969 g / cm^3
# Si number density = 20.325953 Si / 1000 Ang^3
#
#
#
# Elastic Constant Matrix: (Units=GPa)
#
#
# Indices 1 2 3 4 5 6 
#
# 1 143.7117 51.1741 21.6426 0.0000 0.0000 0.0000
# 2 51.1741 84.4742 25.9879 0.0000 0.0000 0.0000
# 3 21.6426 25.9879 58.5415 0.0000 0.0000 0.0000
# 4 0.0000 0.0000 0.0000 26.0123 0.0000 0.0000
# 5 0.0000 0.0000 0.0000 0.0000 18.1015 0.0000
# 6 0.0000 0.0000 0.0000 0.0000 0.0000 23.6618
#
#
#
# Elastic Compliance Matrix: (Units=1/GPa)
#
#
# Indices 1 2 3 4 5 6 
#
# 1 0.008927 -0.005087 -0.001042 0.000000 0.000000 0.000000
# 2 -0.005087 0.016610 -0.005493 0.000000 0.000000 0.000000
# 3 -0.001042 -0.005493 0.019905 0.000000 0.000000 0.000000
# 4 0.000000 0.000000 0.000000 0.038443 0.000000 0.000000
# 5 0.000000 0.000000 0.000000 0.000000 0.055244 0.000000
# 6 0.000000 0.000000 0.000000 0.000000 0.000000 0.042262
#
#
# Mechanical properties :
#
#
# Convention : Reuss Voigt Hill
#
# Bulk Modulus (GPa) = 45.04865 53.81517 49.43191
# Shear Modulus (GPa) = 23.58110 26.08331 24.83221
#
# Velocity S-wave (km/s) = 3.40979 3.58614 3.49907
# Velocity P-wave (km/s) = 6.14113 6.60914 6.37943
#
# Compressibility (1/GPa) = 0.02219822
#
# Stress axis : x y z
#
# Youngs Moduli (GPa) = 112.02218 60.20631 50.23776
#
# Poissons Ratio (x) = 0.30629 0.05234
# Poissons Ratio (y) = 0.56989 0.27594
# Poissons Ratio (z) = 0.11671 0.33069
#
# Static dielectric constant tensor:
#      x y z
#    x 3.628480 0.000000 0.000000 
#    y 0.000000 3.507120 0.000000 
#    z 0.000000 0.000000 3.471990 
# 
# 
# High freq. dielectric constant tensor:
#      x y z
#    x 1.796340 0.000000 0.000000 
#    y 0.000000 1.780500 0.000000 
#    z 0.000000 0.000000 1.771610 
# 
# From -- ./inp_files/15224.got.cif
#   From: 2010.03.12/outbox.cif.g09.slc.cpg/sg40_8_cif.got.tgz:15224.got - 2010.04.14 01:38:03.
