data_PCOD8183245
_publ_section_title
;
Structure prediction by ZEFSAII (Michael W. Deem and Ramdas Pophale) SiO2 
 PCOD8183245
Probable space group: A M A 2
;
_chemical_formula_sum "Si O2"
_cell_formula_units_Z 64
_cell_length_a 9.096060
_cell_length_b 28.117210
_cell_length_c 12.517665
_cell_angle_alpha 90.000000
_cell_angle_beta 90.000000
_cell_angle_gamma 90.000000
_cell_volume 3201.465792
_symmetry_space_group_name_H-M "A M A 2"
_symmetry_group_IT_number 40
_symmetry_cell_setting 'orthorhombic'
loop_
_space_group_symop_operation_xyz
x,y,z
-x,-y,z
1/2-x,y,z
1/2+x,-y,z
x,1/2+y,1/2+z
-x,1/2-y,1/2+z
1/2-x,1/2+y,1/2+z
1/2+x,1/2-y,1/2+z
loop_
_atom_site_type_symbol
_atom_site_label
_atom_site_fract_x
_atom_site_fract_y
_atom_site_fract_z
Si Si1 0.413056 0.166777 0.543950
Si Si2 0.574200 0.948764 0.038923
Si Si3 0.924210 0.119023 0.867385
Si Si4 0.081842 0.455897 0.197069
Si Si5 0.421452 0.593972 0.767266
Si Si6 0.078833 0.205833 0.773235
Si Si7 0.585690 0.299325 0.817639
Si Si8 0.580395 0.578187 0.972270
O O1 0.250000 0.142845 0.554198
O O2 0.456651 0.193015 0.651643
O O3 0.409876 0.203655 0.446095
O O4 0.538343 0.129609 0.516123
O O5 0.750000 0.952400 0.022668
O O6 0.532472 0.930485 0.157034
O O7 0.500000 0.000000 0.019171
O O8 0.505926 0.909625 0.960489
O O9 0.750000 0.121464 0.890822
O O10 0.962535 0.092977 0.755311
O O11 0.989409 0.172059 0.855456
O O12 0.250000 0.465950 0.218469
O O13 0.000000 0.500000 0.252370
O O14 0.043227 0.456290 0.071258
O O15 0.250000 0.590969 0.787770
O O16 0.470530 0.649314 0.773531
O O17 0.494058 0.564246 0.864635
O O18 0.250000 0.201575 0.801796
O O19 0.028634 0.260056 0.780281
O O20 0.750000 0.289167 0.772444
O O21 0.750000 0.577558 0.942682
#
# Coordination Sequence:
#
# PCOD8183245 Si02
#       8
#     8   8   8   8   8   8   8   8
#     4   9  19  36  56  78 111 153 192 237 297 357
#     4  11  24  43  65  91 124 165 213 261 313 373
#     4  11  23  41  61  85 119 158 203 253 307 364
#     4  10  22  36  54  83 115 147 186 234 289 348
#     4   9  21  41  62  85 119 159 201 249 304 362
#     4  11  22  36  58  88 118 155 203 252 307 371
#     4   9  19  37  58  83 115 156 200 249 307 363
#     4  10  19  34  57  85 113 145 190 239 292 354
#
# _framework density 19.990843000000002
#
# number of rings (size 3 to 8) (size 9 to 14) (size 15 to 20)
#    0.000    2.000    1.250    2.625    0.000    8.000 
#    0.000    5.000    0.000    0.000    0.000    0.000 
#    0.000    0.000    0.000    0.000    0.000    0.000 
#
# Total GULP energy -396686.987501 kJ/mol
# GULP energy per Si atom -12396.468359 kJ/mol
# Density = 1.994534 g / cm^3
# Si number density = 19.990843 Si / 1000 Ang^3
#
#
#
# Elastic Constant Matrix: (Units=GPa)
#
#
# Indices 1 2 3 4 5 6 
#
# 1 60.3978 23.9953 40.8570 0.0000 0.0000 0.0000
# 2 23.9953 57.9303 8.5462 0.0000 0.0000 0.0000
# 3 40.8570 8.5462 74.9485 0.0000 0.0000 0.0000
# 4 0.0000 0.0000 0.0000 16.3528 0.0000 0.0000
# 5 0.0000 0.0000 0.0000 0.0000 30.4225 0.0000
# 6 0.0000 0.0000 0.0000 0.0000 0.0000 33.5215
#
#
#
# Elastic Compliance Matrix: (Units=1/GPa)
#
#
# Indices 1 2 3 4 5 6 
#
# 1 0.031685 -0.010757 -0.016046 0.000000 0.000000 0.000000
# 2 -0.010757 0.021209 0.003446 0.000000 0.000000 0.000000
# 3 -0.016046 0.003446 0.021697 0.000000 0.000000 0.000000
# 4 0.000000 0.000000 0.000000 0.061152 0.000000 0.000000
# 5 0.000000 0.000000 0.000000 0.000000 0.032870 0.000000
# 6 0.000000 0.000000 0.000000 0.000000 0.000000 0.029832
#
#
# Mechanical properties :
#
#
# Convention : Reuss Voigt Hill
#
# Bulk Modulus (GPa) = 35.87266 37.78596 36.82931
# Shear Modulus (GPa) = 19.65006 24.05124 21.85065
#
# Velocity S-wave (km/s) = 3.13861 3.47235 3.30969
# Velocity P-wave (km/s) = 5.57835 5.91769 5.75052
#
# Compressibility (1/GPa) = 0.02787639
#
# Stress axis : x y z
#
# Youngs Moduli (GPa) = 31.56060 47.14869 46.08974
#
# Poissons Ratio (x) = 0.50718 0.73956
# Poissons Ratio (y) = 0.33950 -0.15881
# Poissons Ratio (z) = 0.50642 -0.16245
#
# Static dielectric constant tensor:
#      x y z
#    x 3.636490 0.000000 0.000000 
#    y 0.000000 3.485600 0.000000 
#    z 0.000000 0.000000 4.010510 
# 
# 
# High freq. dielectric constant tensor:
#      x y z
#    x 1.783390 0.000000 0.000000 
#    y 0.000000 1.770100 0.000000 
#    z 0.000000 0.000000 1.785140 
# 
# From -- ./inp_files/10641.got.cif
#   From: 2010.03.12/outbox.cif.g09.slc.cpg/sg40_6_cif.got.tgz:10641.got - 2010.04.14 01:38:03.
