data_PCOD8183482
_publ_section_title
;
Structure prediction by ZEFSAII (Michael W. Deem and Ramdas Pophale) SiO2 
 PCOD8183482
Probable space group: A M A 2
;
_chemical_formula_sum "Si O2"
_cell_formula_units_Z 48
_cell_length_a 17.655271
_cell_length_b 8.972701
_cell_length_c 15.724755
_cell_angle_alpha 90.000000
_cell_angle_beta 90.000000
_cell_angle_gamma 90.000000
_cell_volume 2491.044419
_symmetry_space_group_name_H-M "A M A 2"
_symmetry_group_IT_number 40
_symmetry_cell_setting 'orthorhombic'
loop_
_space_group_symop_operation_xyz
x,y,z
-x,-y,z
1/2-x,y,z
1/2+x,-y,z
x,1/2+y,1/2+z
-x,1/2-y,1/2+z
1/2-x,1/2+y,1/2+z
1/2+x,1/2-y,1/2+z
loop_
_atom_site_type_symbol
_atom_site_label
_atom_site_fract_x
_atom_site_fract_y
_atom_site_fract_z
Si Si1 0.834887 0.020715 0.104790
Si Si2 0.441918 0.687740 0.510407
Si Si3 0.111687 0.296085 0.462070
Si Si4 0.161223 0.798744 0.269856
Si Si5 0.416601 0.027419 0.836186
Si Si6 0.584661 0.029972 0.422083
O O1 0.750000 0.955373 0.121023
O O2 0.863992 0.116653 0.184594
O O3 0.895654 0.887308 0.088287
O O4 0.826495 0.131339 0.023812
O O5 0.532526 0.663457 0.511715
O O6 0.413630 0.620099 0.422590
O O7 0.421436 0.863354 0.505217
O O8 0.116846 0.366601 0.366005
O O9 0.125252 0.120952 0.452332
O O10 0.250000 0.782839 0.276808
O O11 0.129177 0.627977 0.268582
O O12 0.132673 0.896981 0.347801
O O13 0.500000 0.000000 0.798068
O O14 0.500000 0.000000 0.386659
#
# Coordination Sequence:
#
# PCOD8183482 Si02
#       6
#     8   8   8   8   8   8
#     4  10  20  33  49  72 103 138 172 208 257 316
#     4   8  16  32  53  73  97 131 171 213 254 305
#     4   9  17  32  53  76  98 127 172 218 259 307
#     4  10  21  35  51  76 109 140 173 216 265 319
#     4   8  15  31  53  74  98 134 178 218 258 310
#     4   9  18  33  54  79 103 130 173 223 262 309
#
# _framework density 19.269026
#
# number of rings (size 3 to 8) (size 9 to 14) (size 15 to 20)
#    0.000    3.000    0.000    2.500    0.000    8.000 
#    0.000    4.167    0.000    4.000    0.000    0.000 
#    0.000    0.000    0.000    0.000    0.000    0.000 
#
# Total GULP energy -297338.323273 kJ/mol
# GULP energy per Si atom -12389.096803 kJ/mol
# Density = 1.922517 g / cm^3
# Si number density = 19.269026 Si / 1000 Ang^3
#
#
#
# Elastic Constant Matrix: (Units=GPa)
#
#
# Indices 1 2 3 4 5 6 
#
# 1 74.2035 40.2630 36.6529 0.0000 0.0000 0.0000
# 2 40.2630 126.9130 35.2444 0.0000 0.0000 0.0000
# 3 36.6529 35.2444 65.5330 0.0000 0.0000 0.0000
# 4 0.0000 0.0000 0.0000 19.8989 0.0000 0.0000
# 5 0.0000 0.0000 0.0000 0.0000 14.8253 0.0000
# 6 0.0000 0.0000 0.0000 0.0000 0.0000 30.7657
#
#
#
# Elastic Compliance Matrix: (Units=1/GPa)
#
#
# Indices 1 2 3 4 5 6 
#
# 1 0.020084 -0.003823 -0.009177 0.000000 0.000000 0.000000
# 2 -0.003823 0.009991 -0.003235 0.000000 0.000000 0.000000
# 3 -0.009177 -0.003235 0.022132 0.000000 0.000000 0.000000
# 4 0.000000 0.000000 0.000000 0.050254 0.000000 0.000000
# 5 0.000000 0.000000 0.000000 0.000000 0.067452 0.000000
# 6 0.000000 0.000000 0.000000 0.000000 0.000000 0.032504
#
#
# Mechanical properties :
#
#
# Convention : Reuss Voigt Hill
#
# Bulk Modulus (GPa) = 50.66686 54.55225 52.60955
# Shear Modulus (GPa) = 20.70698 23.39727 22.05213
#
# Velocity S-wave (km/s) = 3.28170 3.48838 3.38662
# Velocity P-wave (km/s) = 6.38052 6.67813 6.53102
#
# Compressibility (1/GPa) = 0.01973677
#
# Stress axis : x y z
#
# Youngs Moduli (GPa) = 49.79139 100.09408 45.18378
#
# Poissons Ratio (x) = 0.38267 0.41464
# Poissons Ratio (y) = 0.19036 0.14616
# Poissons Ratio (z) = 0.45693 0.32378
#
# Static dielectric constant tensor:
#      x y z
#    x 3.441550 0.000000 0.000000 
#    y 0.000000 4.120780 0.000000 
#    z 0.000000 0.000000 3.221140 
# 
# 
# High freq. dielectric constant tensor:
#      x y z
#    x 1.739770 0.000000 0.000000 
#    y 0.000000 1.761380 0.000000 
#    z 0.000000 0.000000 1.707160 
# 
# From -- ./inp_files/17632.got.cif
#   From: 2010.03.12/outbox.cif.g09.slc.cpg/sg40_9_cif.got.tgz:17632.got - 2010.04.14 01:38:03.
