data_PCOD8183517
_publ_section_title
;
Structure prediction by ZEFSAII (Michael W. Deem and Ramdas Pophale) SiO2 
 PCOD8183517
Probable space group: A M A 2
;
_chemical_formula_sum "Si O2"
_cell_formula_units_Z 64
_cell_length_a 9.042263
_cell_length_b 16.054784
_cell_length_c 22.608078
_cell_angle_alpha 90.000000
_cell_angle_beta 90.000000
_cell_angle_gamma 90.000000
_cell_volume 3282.050389
_symmetry_space_group_name_H-M "A M A 2"
_symmetry_group_IT_number 40
_symmetry_cell_setting 'orthorhombic'
loop_
_space_group_symop_operation_xyz
x,y,z
-x,-y,z
1/2-x,y,z
1/2+x,-y,z
x,1/2+y,1/2+z
-x,1/2-y,1/2+z
1/2-x,1/2+y,1/2+z
1/2+x,1/2-y,1/2+z
loop_
_atom_site_type_symbol
_atom_site_label
_atom_site_fract_x
_atom_site_fract_y
_atom_site_fract_z
Si Si1 0.078448 0.754640 0.232830
Si Si2 0.573455 0.414777 0.931006
Si Si3 0.912024 0.196166 0.102317
Si Si4 0.086715 0.118610 0.560503
Si Si5 0.424866 0.241134 0.349130
Si Si6 0.426653 0.587587 0.388498
Si Si7 0.419500 0.579746 0.523161
Si Si8 0.424760 0.578429 0.185966
O O1 0.250000 0.764225 0.250484
O O2 0.045511 0.801426 0.171409
O O3 0.034883 0.658075 0.224629
O O4 0.974470 0.791365 0.284243
O O5 0.500000 0.500000 0.905461
O O6 0.750000 0.423639 0.928566
O O7 0.525901 0.332338 0.894153
O O8 0.508466 0.401903 0.997884
O O9 0.750000 0.152891 0.095377
O O10 0.899844 0.284184 0.071249
O O11 0.043455 0.152850 0.067793
O O12 0.250000 0.079730 0.555646
O O13 0.006244 0.082311 0.619038
O O14 0.250000 0.256220 0.352357
O O15 0.507724 0.329475 0.358335
O O16 0.500000 0.500000 0.365895
O O17 0.250000 0.583599 0.377327
O O18 0.470973 0.600185 0.456854
O O19 0.500000 0.500000 0.549060
O O20 0.250000 0.559606 0.523982
O O21 0.500000 0.500000 0.218464
O O22 0.250000 0.569080 0.181922
#
# Coordination Sequence:
#
# PCOD8183517 Si02
#       8
#     8   8   8   8   8   8   8   8
#     4   9  20  37  54  73 101 140 182 221 265 318
#     4  10  21  36  55  80 108 140 179 223 271 322
#     4   9  17  33  56  77 102 139 176 214 267 325
#     4   8  15  30  52  77 105 134 165 204 255 318
#     4  11  23  38  57  80 108 146 190 235 279 322
#     4  10  21  37  58  85 116 148 182 223 275 336
#     4  10  20  33  52  80 110 137 169 214 268 327
#     4   9  17  30  50  76 104 134 165 200 249 308
#
# _framework density 19.500005999999999
#
# number of rings (size 3 to 8) (size 9 to 14) (size 15 to 20)
#    0.000    2.500    0.000    3.750    0.000    5.000 
#    0.000    4.375    0.000    1.500    0.000    0.000 
#    0.000    0.000    0.000    0.000    0.000    0.000 
#
# Total GULP energy -396501.302164 kJ/mol
# GULP energy per Si atom -12390.665693 kJ/mol
# Density = 1.945562 g / cm^3
# Si number density = 19.500006 Si / 1000 Ang^3
#
#
#
# Elastic Constant Matrix: (Units=GPa)
#
#
# Indices 1 2 3 4 5 6 
#
# 1 43.9119 24.6892 29.7789 0.0000 0.0000 0.0000
# 2 24.6892 69.1921 31.2281 0.0000 0.0000 0.0000
# 3 29.7789 31.2281 85.3521 0.0000 0.0000 0.0000
# 4 0.0000 0.0000 0.0000 8.0817 0.0000 0.0000
# 5 0.0000 0.0000 0.0000 0.0000 36.0650 0.0000
# 6 0.0000 0.0000 0.0000 0.0000 0.0000 34.4467
#
#
#
# Elastic Compliance Matrix: (Units=1/GPa)
#
#
# Indices 1 2 3 4 5 6 
#
# 1 0.033081 -0.007899 -0.008652 0.000000 0.000000 0.000000
# 2 -0.007899 0.019197 -0.004268 0.000000 0.000000 0.000000
# 3 -0.008652 -0.004268 0.016296 0.000000 0.000000 0.000000
# 4 0.000000 0.000000 0.000000 0.123737 0.000000 0.000000
# 5 0.000000 0.000000 0.000000 0.000000 0.027728 0.000000
# 6 0.000000 0.000000 0.000000 0.000000 0.000000 0.029030
#
#
# Mechanical properties :
#
#
# Convention : Reuss Voigt Hill
#
# Bulk Modulus (GPa) = 37.12343 41.09427 39.10885
# Shear Modulus (GPa) = 16.68409 23.23600 19.96005
#
# Velocity S-wave (km/s) = 2.92823 3.45569 3.20283
# Velocity P-wave (km/s) = 5.52374 6.08622 5.81179
#
# Compressibility (1/GPa) = 0.02693717
#
# Stress axis : x y z
#
# Youngs Moduli (GPa) = 30.22843 52.09058 61.36399
#
# Poissons Ratio (x) = 0.41148 0.53091
# Poissons Ratio (y) = 0.23879 0.26189
# Poissons Ratio (z) = 0.26153 0.22231
#
# Static dielectric constant tensor:
#      x y z
#    x 3.174830 0.000000 0.000000 
#    y 0.000000 3.801470 0.000000 
#    z 0.000000 0.000000 3.665770 
# 
# 
# High freq. dielectric constant tensor:
#      x y z
#    x 1.742650 0.000000 0.000000 
#    y 0.000000 1.751090 0.000000 
#    z 0.000000 0.000000 1.762380 
# 
# From -- ./inp_files/24343.got.cif
#   From: 2010.03.12/outbox.cif.g09.slc.cpg/sg40_13_cif.got.tgz:24343.got - 2010.04.14 01:38:03.
