data_PCOD8183141
_publ_section_title
;
Structure prediction by ZEFSAII (Michael W. Deem and Ramdas Pophale) SiO2 
 PCOD8183141
Probable space group: A M A 2
;
_chemical_formula_sum "Si O2"
_cell_formula_units_Z 64
_cell_length_a 16.043837
_cell_length_b 9.176331
_cell_length_c 21.011750
_cell_angle_alpha 90.000000
_cell_angle_beta 90.000000
_cell_angle_gamma 90.000000
_cell_volume 3093.424612
_symmetry_space_group_name_H-M "A M A 2"
_symmetry_group_IT_number 40
_symmetry_cell_setting 'orthorhombic'
loop_
_space_group_symop_operation_xyz
x,y,z
-x,-y,z
1/2-x,y,z
1/2+x,-y,z
x,1/2+y,1/2+z
-x,1/2-y,1/2+z
1/2-x,1/2+y,1/2+z
1/2+x,1/2-y,1/2+z
loop_
_atom_site_type_symbol
_atom_site_label
_atom_site_fract_x
_atom_site_fract_y
_atom_site_fract_z
Si Si1 0.343061 0.847010 0.885300
Si Si2 0.091302 0.012237 0.997545
Si Si3 0.844043 0.748606 0.914015
Si Si4 0.157205 0.882734 0.120889
Si Si5 0.654959 0.467507 0.848361
Si Si6 0.656756 0.936882 0.787224
Si Si7 0.531546 0.345024 0.177819
Si Si8 0.079307 0.091973 0.213334
O O1 0.250000 0.903896 0.903453
O O2 0.347409 0.674667 0.891607
O O3 0.408112 0.911160 0.935060
O O4 0.361184 0.897083 0.811570
O O5 0.110935 0.178167 0.975067
O O6 0.000000 0.000000 0.028067
O O7 0.153367 0.949430 0.050148
O O8 0.750000 0.719070 0.935972
O O9 0.885228 0.595483 0.891640
O O10 0.848964 0.850245 0.852846
O O11 0.250000 0.817054 0.130133
O O12 0.089725 0.751632 0.130967
O O13 0.149767 0.022344 0.168120
O O14 0.750000 0.508847 0.828643
O O15 0.601799 0.436400 0.786014
O O16 0.750000 0.922603 0.756961
O O17 0.587082 0.879248 0.739845
O O18 0.500000 0.500000 0.147813
O O19 0.446453 0.259356 0.197704
O O20 0.000000 0.000000 0.194755
#
# Coordination Sequence:
#
# PCOD8183141 Si02
#       8
#     8   8   8   8   8   8   8   8
#     4   9  19  34  53  80 115 152 186 223 275 342
#     4  11  22  38  59  81 106 141 190 240 287 340
#     4   9  18  33  55  82 111 147 192 234 274 333
#     4  11  23  43  65  80 107 155 203 241 292 360
#     4  10  19  33  54  83 118 149 183 229 281 336
#     4   9  17  32  54  81 117 160 197 225 272 344
#     4  11  22  36  57  89 125 153 192 249 301 348
#     4  10  21  35  56  86 118 153 193 239 292 345
#
# _framework density 20.689043999999999
#
# number of rings (size 3 to 8) (size 9 to 14) (size 15 to 20)
#    0.000    2.000    0.000    6.000    0.000    6.000 
#    0.000    4.375    0.000    0.000    0.000    0.000 
#    0.000    0.000    0.000    0.000    0.000    0.000 
#
# Total GULP energy -396514.245845 kJ/mol
# GULP energy per Si atom -12391.070183 kJ/mol
# Density = 2.064195 g / cm^3
# Si number density = 20.689044 Si / 1000 Ang^3
#
#
#
# Elastic Constant Matrix: (Units=GPa)
#
#
# Indices 1 2 3 4 5 6 
#
# 1 76.4826 34.0026 23.3788 0.0000 0.0000 0.0000
# 2 34.0026 145.4141 38.7311 0.0000 0.0000 0.0000
# 3 23.3788 38.7311 76.2517 0.0000 0.0000 0.0000
# 4 0.0000 0.0000 0.0000 24.9248 0.0000 0.0000
# 5 0.0000 0.0000 0.0000 0.0000 26.8605 0.0000
# 6 0.0000 0.0000 0.0000 0.0000 0.0000 26.5942
#
#
#
# Elastic Compliance Matrix: (Units=1/GPa)
#
#
# Indices 1 2 3 4 5 6 
#
# 1 0.015286 -0.002690 -0.003320 0.000000 0.000000 0.000000
# 2 -0.002690 0.008426 -0.003455 0.000000 0.000000 0.000000
# 3 -0.003320 -0.003455 0.015888 0.000000 0.000000 0.000000
# 4 0.000000 0.000000 0.000000 0.040121 0.000000 0.000000
# 5 0.000000 0.000000 0.000000 0.000000 0.037229 0.000000
# 6 0.000000 0.000000 0.000000 0.000000 0.000000 0.037602
#
#
# Mechanical properties :
#
#
# Convention : Reuss Voigt Hill
#
# Bulk Modulus (GPa) = 48.38286 54.48593 51.43439
# Shear Modulus (GPa) = 27.72047 29.14496 28.43272
#
# Velocity S-wave (km/s) = 3.66438 3.75736 3.71116
# Velocity P-wave (km/s) = 6.42963 6.72432 6.57862
#
# Compressibility (1/GPa) = 0.02066848
#
# Stress axis : x y z
#
# Youngs Moduli (GPa) = 65.42072 118.67727 62.94252
#
# Poissons Ratio (x) = 0.31923 0.20899
# Poissons Ratio (y) = 0.17598 0.21748
# Poissons Ratio (z) = 0.21721 0.41006
#
# Static dielectric constant tensor:
#      x y z
#    x 3.838280 0.000000 0.000000 
#    y 0.000000 4.190730 0.000000 
#    z 0.000000 0.000000 3.377430 
# 
# 
# High freq. dielectric constant tensor:
#      x y z
#    x 1.806260 0.000000 0.000000 
#    y 0.000000 1.815920 0.000000 
#    z 0.000000 0.000000 1.779720 
# 
# From -- ./inp_files/24821.got.cif
#   From: 2010.03.12/outbox.cif.g09.slc.cpg/sg40_13_cif.got.tgz:24821.got - 2010.04.14 01:38:03.
