data_PCOD8183463
_publ_section_title
;
Structure prediction by ZEFSAII (Michael W. Deem and Ramdas Pophale) SiO2 
 PCOD8183463
Probable space group: A M A 2
;
_chemical_formula_sum "Si O2"
_cell_formula_units_Z 64
_cell_length_a 8.670068
_cell_length_b 14.585735
_cell_length_c 27.378764
_cell_angle_alpha 90.000000
_cell_angle_beta 90.000000
_cell_angle_gamma 90.000000
_cell_volume 3462.299721
_symmetry_space_group_name_H-M "A M A 2"
_symmetry_group_IT_number 40
_symmetry_cell_setting 'orthorhombic'
loop_
_space_group_symop_operation_xyz
x,y,z
-x,-y,z
1/2-x,y,z
1/2+x,-y,z
x,1/2+y,1/2+z
-x,1/2-y,1/2+z
1/2-x,1/2+y,1/2+z
1/2+x,1/2-y,1/2+z
loop_
_atom_site_type_symbol
_atom_site_label
_atom_site_fract_x
_atom_site_fract_y
_atom_site_fract_z
Si Si1 0.431938 0.596858 0.819920
Si Si2 0.928342 0.214514 0.403441
Si Si3 0.929602 0.403392 0.097610
Si Si4 0.431924 0.403737 0.259585
Si Si5 0.929510 0.903562 0.483782
Si Si6 0.932316 0.597555 0.715689
Si Si7 0.427954 0.593895 0.363372
Si Si8 0.431815 0.270489 0.173644
O O1 0.500000 0.500000 0.837352
O O2 0.250000 0.588540 0.813306
O O3 0.471115 0.671513 0.860338
O O4 0.503769 0.627379 0.768513
O O5 0.750000 0.188394 0.395769
O O6 0.951964 0.324512 0.402282
O O7 0.987135 0.178884 0.455521
O O8 0.750000 0.403743 0.110471
O O9 0.000000 0.500000 0.114849
O O10 0.014178 0.320915 0.124761
O O11 0.960724 0.387378 0.040604
O O12 0.500000 0.500000 0.241632
O O13 0.250000 0.411818 0.262104
O O14 0.494356 0.376341 0.312604
O O15 0.484865 0.327952 0.220863
O O16 0.750000 0.904062 0.470734
O O17 0.000000 0.000000 0.466268
O O18 0.750000 0.590562 0.718050
O O19 0.000000 0.500000 0.699406
O O20 0.985040 0.672203 0.675968
O O21 0.500000 0.500000 0.384620
O O22 0.250000 0.575184 0.352450
O O23 0.250000 0.255937 0.171932
#
# Coordination Sequence:
#
# PCOD8183463 Si02
#       8
#     8   8   8   8   8   8   8   8
#     4  11  21  34  52  76 108 143 178 217 261 311
#     4  11  22  35  53  78 105 137 177 218 264 316
#     4  10  21  37  57  82 110 140 173 213 264 318
#     4  10  20  32  49  74 106 140 174 212 254 304
#     4  10  21  37  57  81 109 139 171 212 262 316
#     4  11  22  37  55  76 106 142 180 222 265 311
#     4  10  21  35  52  73 101 137 175 215 257 302
#     4  11  22  35  54  80 107 140 180 219 263 314
#
# _framework density 18.484822999999999
#
# number of rings (size 3 to 8) (size 9 to 14) (size 15 to 20)
#    0.000    1.500    0.000    7.500    0.000    8.500 
#    0.000    0.000    0.000    0.750    0.000    1.750 
#    0.000    0.000    0.000    0.000    0.000    0.000 
#
# Total GULP energy -396958.100413 kJ/mol
# GULP energy per Si atom -12404.940638 kJ/mol
# Density = 1.844275 g / cm^3
# Si number density = 18.484823 Si / 1000 Ang^3
#
#
#
# Elastic Constant Matrix: (Units=GPa)
#
#
# Indices 1 2 3 4 5 6 
#
# 1 125.7444 53.0667 38.8102 0.0000 0.0000 0.0000
# 2 53.0667 120.2027 57.3738 0.0000 0.0000 0.0000
# 3 38.8102 57.3738 64.1722 0.0000 0.0000 0.0000
# 4 0.0000 0.0000 0.0000 15.4379 0.0000 0.0000
# 5 0.0000 0.0000 0.0000 0.0000 27.6558 0.0000
# 6 0.0000 0.0000 0.0000 0.0000 0.0000 31.4614
#
#
#
# Elastic Compliance Matrix: (Units=1/GPa)
#
#
# Indices 1 2 3 4 5 6 
#
# 1 0.010269 -0.002737 -0.003763 0.000000 0.000000 0.000000
# 2 -0.002737 0.015242 -0.011972 0.000000 0.000000 0.000000
# 3 -0.003763 -0.011972 0.028562 0.000000 0.000000 0.000000
# 4 0.000000 0.000000 0.000000 0.064776 0.000000 0.000000
# 5 0.000000 0.000000 0.000000 0.000000 0.036159 0.000000
# 6 0.000000 0.000000 0.000000 0.000000 0.000000 0.031785
#
#
# Mechanical properties :
#
#
# Convention : Reuss Voigt Hill
#
# Bulk Modulus (GPa) = 58.38063 67.62452 63.00258
# Shear Modulus (GPa) = 21.79144 25.63558 23.71351
#
# Velocity S-wave (km/s) = 3.43721 3.72808 3.58559
# Velocity P-wave (km/s) = 6.88507 7.42931 7.16236
#
# Compressibility (1/GPa) = 0.01712897
#
# Stress axis : x y z
#
# Youngs Moduli (GPa) = 97.37640 65.60826 35.01097
#
# Poissons Ratio (x) = 0.17960 0.13176
# Poissons Ratio (y) = 0.26656 0.41914
# Poissons Ratio (z) = 0.36646 0.78544
#
# Static dielectric constant tensor:
#      x y z
#    x 3.561310 0.000000 0.000000 
#    y 0.000000 3.508470 0.000000 
#    z 0.000000 0.000000 3.208230 
# 
# 
# High freq. dielectric constant tensor:
#      x y z
#    x 1.738920 0.000000 0.000000 
#    y 0.000000 1.719810 0.000000 
#    z 0.000000 0.000000 1.692100 
# 
# From -- ./inp_files/24306.got.cif
#   From: 2010.03.12/outbox.cif.g09.slc.cpg/sg40_13_cif.got.tgz:24306.got - 2010.04.14 01:38:03.
