data_PCOD8183504
_publ_section_title
;
Structure prediction by ZEFSAII (Michael W. Deem and Ramdas Pophale) SiO2 
 PCOD8183504
Probable space group: A M A 2
;
_chemical_formula_sum "Si O2"
_cell_formula_units_Z 64
_cell_length_a 8.988054
_cell_length_b 32.959261
_cell_length_c 11.749633
_cell_angle_alpha 90.000000
_cell_angle_beta 90.000000
_cell_angle_gamma 90.000000
_cell_volume 3480.706788
_symmetry_space_group_name_H-M "A M A 2"
_symmetry_group_IT_number 40
_symmetry_cell_setting 'orthorhombic'
loop_
_space_group_symop_operation_xyz
x,y,z
-x,-y,z
1/2-x,y,z
1/2+x,-y,z
x,1/2+y,1/2+z
-x,1/2-y,1/2+z
1/2-x,1/2+y,1/2+z
1/2+x,1/2-y,1/2+z
loop_
_atom_site_type_symbol
_atom_site_label
_atom_site_fract_x
_atom_site_fract_y
_atom_site_fract_z
Si Si1 0.577357 0.458821 0.132560
Si Si2 0.074998 0.853028 0.256342
Si Si3 0.426789 0.543247 0.390667
Si Si4 0.925500 0.281194 0.882924
Si Si5 0.587217 0.599126 0.971595
Si Si6 0.426261 0.309207 0.340923
Si Si7 0.414029 0.316550 0.088729
Si Si8 0.426752 0.380205 0.504445
O O1 0.500000 0.500000 0.098389
O O2 0.750000 0.466509 0.127597
O O3 0.531134 0.445028 0.260164
O O4 0.534246 0.427605 0.034524
O O5 0.250000 0.844498 0.264853
O O6 0.029378 0.888340 0.345921
O O7 0.996441 0.810582 0.287690
O O8 0.027151 0.868404 0.132542
O O9 0.500000 0.500000 0.422790
O O10 0.250000 0.540174 0.408594
O O11 0.493442 0.577856 0.471845
O O12 0.750000 0.284068 0.868780
O O13 0.986176 0.235561 0.869191
O O14 0.970835 0.292761 0.010380
O O15 0.750000 0.577483 0.963934
O O16 0.607354 0.638504 0.046529
O O17 0.250000 0.310181 0.350535
O O18 0.482540 0.318947 0.214430
O O19 0.488873 0.343664 0.425667
O O20 0.250000 0.295214 0.089226
O O21 0.250000 0.386222 0.492393
#
# Coordination Sequence:
#
# PCOD8183504 Si02
#       8
#     8   8   8   8   8   8   8   8
#     4  10  20  33  53  81 110 138 169 213 266 320
#     4   9  20  37  56  76 104 146 185 220 270 328
#     4  10  21  37  57  84 115 143 178 222 275 329
#     4  10  20  33  51  77 106 138 179 226 271 317
#     4   9  17  32  53  75 100 133 174 215 260 315
#     4   9  19  33  52  78 106 138 177 223 273 324
#     4   9  18  34  52  71  99 136 173 211 263 320
#     4  10  20  37  59  80 106 144 189 230 272 327
#
# _framework density 18.387070000000001
#
# number of rings (size 3 to 8) (size 9 to 14) (size 15 to 20)
#    0.000    2.500    0.000    2.625    1.750    5.000 
#    0.000    3.125    0.000    0.000    0.000    0.000 
#    0.000    0.000    0.000    0.000    0.000    0.000 
#
# Total GULP energy -396694.113869 kJ/mol
# GULP energy per Si atom -12396.691058 kJ/mol
# Density = 1.834522 g / cm^3
# Si number density = 18.387070 Si / 1000 Ang^3
#
#
#
# Elastic Constant Matrix: (Units=GPa)
#
#
# Indices 1 2 3 4 5 6 
#
# 1 55.2496 41.2115 37.6036 0.0000 0.0000 0.0000
# 2 41.2115 108.2047 83.5263 0.0000 0.0000 0.0000
# 3 37.6036 83.5263 154.3296 0.0000 0.0000 0.0000
# 4 0.0000 0.0000 0.0000 -1.1424 0.0000 0.0000
# 5 0.0000 0.0000 0.0000 0.0000 24.4276 0.0000
# 6 0.0000 0.0000 0.0000 0.0000 0.0000 31.7805
#
#
#
# Elastic Compliance Matrix: (Units=1/GPa)
#
#
# Indices 1 2 3 4 5 6 
#
# 1 0.025523 -0.008451 -0.001645 0.000000 0.000000 0.000000
# 2 -0.008451 0.018672 -0.008046 0.000000 0.000000 0.000000
# 3 -0.001645 -0.008046 0.011235 0.000000 0.000000 0.000000
# 4 0.000000 0.000000 0.000000 -0.875317 0.000000 0.000000
# 5 0.000000 0.000000 0.000000 0.000000 0.040937 0.000000
# 6 0.000000 0.000000 0.000000 0.000000 0.000000 0.031466
#
#
# Mechanical properties :
#
#
# Convention : Reuss Voigt Hill
#
# Bulk Modulus (GPa) = 52.23223 71.38519 61.80871
# Shear Modulus (GPa) = -7.09403 21.37596 7.14097
#
# Velocity S-wave (km/s) = -1.96635 3.41332 1.97285
# Velocity P-wave (km/s) = 4.82839 7.37850 6.23520
#
# Compressibility (1/GPa) = 0.01914527
#
# Stress axis : x y z
#
# Youngs Moduli (GPa) = 39.18026 53.55725 89.00535
#
# Poissons Ratio (x) = 0.45261 0.14642
# Poissons Ratio (y) = 0.33111 0.71616
# Poissons Ratio (z) = 0.06445 0.43094
#
# Static dielectric constant tensor:
#      x y z
#    x 4.277520 0.000000 0.000000 
#    y 0.000000 22.410430 0.000000 
#    z 0.000000 0.000000 3.606880 
# 
# 
# High freq. dielectric constant tensor:
#      x y z
#    x 1.700480 0.000000 0.000000 
#    y 0.000000 1.708560 0.000000 
#    z 0.000000 0.000000 1.716760 
# 
# From -- ./inp_files/10566.got.cif
#   From: 2010.03.12/outbox.cif.g09.slc.cpg/sg40_6_cif.got.tgz:10566.got - 2010.04.14 01:38:03.
