data_PCOD8183396
_publ_section_title
;
Structure prediction by ZEFSAII (Michael W. Deem and Ramdas Pophale) SiO2 
 PCOD8183396
Probable space group: A M A 2
;
_chemical_formula_sum "Si O2"
_cell_formula_units_Z 48
_cell_length_a 15.261508
_cell_length_b 9.492705
_cell_length_c 15.785816
_cell_angle_alpha 90.000000
_cell_angle_beta 90.000000
_cell_angle_gamma 90.000000
_cell_volume 2286.938416
_symmetry_space_group_name_H-M "A M A 2"
_symmetry_group_IT_number 40
_symmetry_cell_setting 'orthorhombic'
loop_
_space_group_symop_operation_xyz
x,y,z
-x,-y,z
1/2-x,y,z
1/2+x,-y,z
x,1/2+y,1/2+z
-x,1/2-y,1/2+z
1/2-x,1/2+y,1/2+z
1/2+x,1/2-y,1/2+z
loop_
_atom_site_type_symbol
_atom_site_label
_atom_site_fract_x
_atom_site_fract_y
_atom_site_fract_z
Si Si1 0.622755 0.902711 0.475640
Si Si2 0.845925 0.700489 0.612715
Si Si3 0.014319 0.835439 0.252973
Si Si4 0.346928 0.787591 0.825036
Si Si5 0.068282 0.807232 0.440996
Si Si6 0.351632 0.510765 0.463867
O O1 0.668377 0.844534 0.559945
O O2 0.665201 0.841353 0.390219
O O3 0.523507 0.848692 0.481149
O O4 0.635171 0.071543 0.472422
O O5 0.750000 0.666792 0.654197
O O6 0.922033 0.724301 0.680880
O O7 0.873578 0.577206 0.547900
O O8 0.064724 0.810035 0.339921
O O9 0.920538 0.751925 0.254452
O O10 0.000000 0.000000 0.237604
O O11 0.250000 0.812480 0.783362
O O12 0.378657 0.924222 0.879110
O O13 0.094416 0.653745 0.472658
O O14 0.250000 0.548037 0.458138
#
# Coordination Sequence:
#
# PCOD8183396 Si02
#       6
#     8   8   8   8   8   8
#     4   9  18  36  60  88 119 160 202 249 302 358
#     4  10  23  40  60  89 124 161 203 252 316 373
#     4  11  22  38  59  94 121 161 203 252 318 366
#     4   9  18  37  62  89 120 158 205 252 300 363
#     4  10  19  37  61  93 119 156 212 249 299 370
#     4   9  20  37  63  94 121 160 209 259 310 363
#
# _framework density 20.988759999999999
#
# number of rings (size 3 to 8) (size 9 to 14) (size 15 to 20)
#    0.000    2.333    3.333    1.500    2.333    8.000 
#    0.000    3.333    0.000    0.000    0.000    0.000 
#    0.000    0.000    0.000    0.000    0.000    0.000 
#
# Total GULP energy -297421.295741 kJ/mol
# GULP energy per Si atom -12392.553989 kJ/mol
# Density = 2.094099 g / cm^3
# Si number density = 20.988760 Si / 1000 Ang^3
#
#
#
# Elastic Constant Matrix: (Units=GPa)
#
#
# Indices 1 2 3 4 5 6 
#
# 1 119.1755 49.0849 56.6421 0.0000 0.0000 0.0000
# 2 49.0849 136.1072 21.0309 0.0000 0.0000 0.0000
# 3 56.6421 21.0309 72.0064 0.0000 0.0000 0.0000
# 4 0.0000 0.0000 0.0000 16.5964 0.0000 0.0000
# 5 0.0000 0.0000 0.0000 0.0000 -6.0434 0.0000
# 6 0.0000 0.0000 0.0000 0.0000 0.0000 24.0485
#
#
#
# Elastic Compliance Matrix: (Units=1/GPa)
#
#
# Indices 1 2 3 4 5 6 
#
# 1 0.015044 -0.003767 -0.010734 0.000000 0.000000 0.000000
# 2 -0.003767 0.008638 0.000440 0.000000 0.000000 0.000000
# 3 -0.010734 0.000440 0.022203 0.000000 0.000000 0.000000
# 4 0.000000 0.000000 0.000000 0.060254 0.000000 0.000000
# 5 0.000000 0.000000 0.000000 0.000000 -0.165469 0.000000
# 6 0.000000 0.000000 0.000000 0.000000 0.000000 0.041583
#
#
# Mechanical properties :
#
#
# Convention : Reuss Voigt Hill
#
# Bulk Modulus (GPa) = 56.29539 64.53387 60.41463
# Shear Modulus (GPa) = 306.86448 20.28904 163.57676
#
# Velocity S-wave (km/s) = 12.10461 3.11249 8.83768
# Velocity P-wave (km/s) = 14.90778 6.61290 11.53197
#
# Compressibility (1/GPa) = 0.01776344
#
# Stress axis : x y z
#
# Youngs Moduli (GPa) = 66.47134 115.77343 45.03977
#
# Poissons Ratio (x) = 0.43610 0.48345
# Poissons Ratio (y) = 0.25039 -0.01983
# Poissons Ratio (z) = 0.71350 -0.05098
#
# Static dielectric constant tensor:
#      x y z
#    x 4.108230 0.000000 0.000000 
#    y 0.000000 3.900530 0.000000 
#    z 0.000000 0.000000 3.466540 
# 
# 
# High freq. dielectric constant tensor:
#      x y z
#    x 1.832540 0.000000 0.000000 
#    y 0.000000 1.818120 0.000000 
#    z 0.000000 0.000000 1.783690 
# 
# From -- ./inp_files/20534.got.cif
#   From: 2010.03.12/outbox.cif.g09.slc.cpg/sg40_11_cif.got.tgz:20534.got - 2010.04.14 01:38:03.
