data_PCOD8183500
_publ_section_title
;
Structure prediction by ZEFSAII (Michael W. Deem and Ramdas Pophale) SiO2 
 PCOD8183500
Probable space group: A M A 2
;
_chemical_formula_sum "Si O2"
_cell_formula_units_Z 64
_cell_length_a 8.589409
_cell_length_b 30.182252
_cell_length_c 14.252261
_cell_angle_alpha 90.000000
_cell_angle_beta 90.000000
_cell_angle_gamma 90.000000
_cell_volume 3694.865983
_symmetry_space_group_name_H-M "A M A 2"
_symmetry_group_IT_number 40
_symmetry_cell_setting 'orthorhombic'
loop_
_space_group_symop_operation_xyz
x,y,z
-x,-y,z
1/2-x,y,z
1/2+x,-y,z
x,1/2+y,1/2+z
-x,1/2-y,1/2+z
1/2-x,1/2+y,1/2+z
1/2+x,1/2-y,1/2+z
loop_
_atom_site_type_symbol
_atom_site_label
_atom_site_fract_x
_atom_site_fract_y
_atom_site_fract_z
Si Si1 0.569285 0.817316 0.694490
Si Si2 0.567770 0.215835 0.403734
Si Si3 0.067216 0.194985 0.003438
Si Si4 0.567899 0.633841 0.363121
Si Si5 0.928266 0.774155 0.204393
Si Si6 0.434163 0.365192 0.027269
Si Si7 0.933816 0.453331 0.283890
Si Si8 0.933056 0.953453 0.566266
O O1 0.750000 0.805241 0.687184
O O2 0.531926 0.833159 0.798682
O O3 0.466027 0.775053 0.668699
O O4 0.521899 0.856344 0.624900
O O5 0.750000 0.217102 0.417788
O O6 0.499743 0.259996 0.453837
O O7 0.530752 0.212943 0.293742
O O8 0.504104 0.170693 0.451710
O O9 0.250000 0.190260 0.982351
O O10 0.036062 0.194839 0.115236
O O11 0.973539 0.151873 0.966820
O O12 0.750000 0.637865 0.341671
O O13 0.514010 0.583572 0.348771
O O14 0.750000 0.777092 0.235525
O O15 0.250000 0.362968 0.040612
O O16 0.487725 0.415112 0.002290
O O17 0.750000 0.451265 0.298313
O O18 0.979407 0.446387 0.175221
O O19 0.000000 0.500000 0.319959
O O20 0.750000 0.952702 0.551060
O O21 0.000000 0.000000 0.529878
#
# Coordination Sequence:
#
# PCOD8183500 Si02
#       8
#     8   8   8   8   8   8   8   8
#     4  12  22  32  49  73 105 141 176 217 260 306
#     4  10  21  36  53  75 106 139 174 216 264 310
#     4  10  21  37  53  74 105 139 175 218 262 307
#     4  12  23  34  52  77 104 140 181 216 257 312
#     4  11  22  37  54  74 102 138 180 222 261 304
#     4  11  21  35  53  75 105 141 178 217 259 310
#     4  10  20  34  52  76 107 140 172 213 260 308
#     4  10  20  33  51  76 106 140 174 213 259 310
#
# _framework density 17.321331000000001
#
# number of rings (size 3 to 8) (size 9 to 14) (size 15 to 20)
#    0.000    1.250    3.750    3.750    0.000    3.000 
#    0.000    0.000    0.000    0.000    0.000    0.875 
#    0.000    2.000    0.000    0.000    0.000    0.000 
#
# Total GULP energy -396846.164472 kJ/mol
# GULP energy per Si atom -12401.442640 kJ/mol
# Density = 1.728191 g / cm^3
# Si number density = 17.321331 Si / 1000 Ang^3
#
#
#
# Elastic Constant Matrix: (Units=GPa)
#
#
# Indices 1 2 3 4 5 6 
#
# 1 46.1495 26.4774 23.4070 0.0000 0.0000 0.0000
# 2 26.4774 113.7049 29.7186 0.0000 0.0000 0.0000
# 3 23.4070 29.7186 53.1225 0.0000 0.0000 0.0000
# 4 0.0000 0.0000 0.0000 27.4727 0.0000 0.0000
# 5 0.0000 0.0000 0.0000 0.0000 21.5092 0.0000
# 6 0.0000 0.0000 0.0000 0.0000 0.0000 30.1271
#
#
#
# Elastic Compliance Matrix: (Units=1/GPa)
#
#
# Indices 1 2 3 4 5 6 
#
# 1 0.029420 -0.004056 -0.010694 0.000000 0.000000 0.000000
# 2 -0.004056 0.010860 -0.004288 0.000000 0.000000 0.000000
# 3 -0.010694 -0.004288 0.025936 0.000000 0.000000 0.000000
# 4 0.000000 0.000000 0.000000 0.036400 0.000000 0.000000
# 5 0.000000 0.000000 0.000000 0.000000 0.046492 0.000000
# 6 0.000000 0.000000 0.000000 0.000000 0.000000 0.033193
#
#
# Mechanical properties :
#
#
# Convention : Reuss Voigt Hill
#
# Bulk Modulus (GPa) = 35.53810 41.35366 38.44588
# Shear Modulus (GPa) = 21.76227 24.71338 23.23782
#
# Velocity S-wave (km/s) = 3.54840 3.78135 3.66672
# Velocity P-wave (km/s) = 6.11144 6.55675 6.33801
#
# Compressibility (1/GPa) = 0.02813881
#
# Stress axis : x y z
#
# Youngs Moduli (GPa) = 33.99097 92.08159 38.55697
#
# Poissons Ratio (x) = 0.37344 0.41233
# Poissons Ratio (y) = 0.13785 0.16535
# Poissons Ratio (z) = 0.36350 0.39489
#
# Static dielectric constant tensor:
#      x y z
#    x 3.168620 0.000000 0.000000 
#    y 0.000000 3.327230 0.000000 
#    z 0.000000 0.000000 3.004820 
# 
# 
# High freq. dielectric constant tensor:
#      x y z
#    x 1.677570 0.000000 0.000000 
#    y 0.000000 1.664980 0.000000 
#    z 0.000000 0.000000 1.635790 
# 
# From -- ./inp_files/10605.got.cif
#   From: 2010.03.12/outbox.cif.g09.slc.cpg/sg40_6_cif.got.tgz:10605.got - 2010.04.14 01:38:03.
