data_PCOD8183294
_publ_section_title
;
Structure prediction by ZEFSAII (Michael W. Deem and Ramdas Pophale) SiO2 
 PCOD8183294
Probable space group: A M A 2
;
_chemical_formula_sum "Si O2"
_cell_formula_units_Z 48
_cell_length_a 15.469690
_cell_length_b 12.622767
_cell_length_c 12.778801
_cell_angle_alpha 90.000000
_cell_angle_beta 90.000000
_cell_angle_gamma 90.000000
_cell_volume 2495.320208
_symmetry_space_group_name_H-M "A M A 2"
_symmetry_group_IT_number 40
_symmetry_cell_setting 'orthorhombic'
loop_
_space_group_symop_operation_xyz
x,y,z
-x,-y,z
1/2-x,y,z
1/2+x,-y,z
x,1/2+y,1/2+z
-x,1/2-y,1/2+z
1/2-x,1/2+y,1/2+z
1/2+x,1/2-y,1/2+z
loop_
_atom_site_type_symbol
_atom_site_label
_atom_site_fract_x
_atom_site_fract_y
_atom_site_fract_z
Si Si1 0.250000 0.844455 0.098300
Si Si2 0.096661 0.006584 0.750144
Si Si3 0.750000 0.764425 0.982867
Si Si4 0.750000 0.502285 0.405317
Si Si5 0.250000 0.419499 0.824527
Si Si6 0.413587 0.740985 0.178781
Si Si7 0.581175 0.167695 0.575157
Si Si8 0.068227 0.416975 0.854918
O O1 0.250000 0.919282 0.199667
O O2 0.338243 0.776295 0.099254
O O3 0.250000 0.912588 0.995437
O O4 0.106146 0.928225 0.651731
O O5 0.164656 0.974982 0.838143
O O6 0.115585 0.125358 0.714745
O O7 0.000000 0.000000 0.797792
O O8 0.750000 0.886949 0.955645
O O9 0.750000 0.699699 0.874165
O O10 0.665614 0.737574 0.051914
O O11 0.162194 0.476052 0.864158
O O12 0.507148 0.742091 0.123906
O O13 0.420583 0.817541 0.278532
O O14 0.539426 0.120554 0.469332
O O15 0.000000 0.500000 0.808670
#
# Coordination Sequence:
#
# PCOD8183294 Si02
#       8
#     4   8   4   4   4   8   8   8
#     4  10  22  36  54  82 114 150 186 222 281 350
#     4  10  21  39  61  84 111 150 195 239 281 338
#     4  10  21  38  61  84 115 156 188 230 290 348
#     4  12  23  35  58  87 120 149 183 236 294 348
#     4   8  18  37  55  73 107 151 189 216 267 342
#     4  10  21  38  59  82 114 152 191 236 287 341
#     4  10  21  38  61  85 109 146 197 238 277 337
#     4  10  19  35  57  82 111 147 187 232 283 338
#
# _framework density 19.236007000000001
#
# number of rings (size 3 to 8) (size 9 to 14) (size 15 to 20)
#    0.000    2.000    0.000    5.500    0.000    6.667 
#    0.000    3.333    0.000    6.000    0.000    0.000 
#    0.000    0.000    0.000    0.000    0.000    0.000 
#
# Total GULP energy -297541.723250 kJ/mol
# GULP energy per Si atom -12397.571802 kJ/mol
# Density = 1.919223 g / cm^3
# Si number density = 19.236007 Si / 1000 Ang^3
#
#
#
# Elastic Constant Matrix: (Units=GPa)
#
#
# Indices 1 2 3 4 5 6 
#
# 1 155.7663 61.9712 71.6797 0.0000 0.0000 0.0000
# 2 61.9712 104.7766 58.5516 0.0000 0.0000 0.0000
# 3 71.6797 58.5516 126.1058 0.0000 0.0000 0.0000
# 4 0.0000 0.0000 0.0000 31.0228 0.0000 0.0000
# 5 0.0000 0.0000 0.0000 0.0000 31.4421 0.0000
# 6 0.0000 0.0000 0.0000 0.0000 0.0000 25.1412
#
#
#
# Elastic Compliance Matrix: (Units=1/GPa)
#
#
# Indices 1 2 3 4 5 6 
#
# 1 0.009577 -0.003541 -0.003800 0.000000 0.000000 0.000000
# 2 -0.003541 0.014198 -0.004579 0.000000 0.000000 0.000000
# 3 -0.003800 -0.004579 0.012216 0.000000 0.000000 0.000000
# 4 0.000000 0.000000 0.000000 0.032234 0.000000 0.000000
# 5 0.000000 0.000000 0.000000 0.000000 0.031804 0.000000
# 6 0.000000 0.000000 0.000000 0.000000 0.000000 0.039775
#
#
# Mechanical properties :
#
#
# Convention : Reuss Voigt Hill
#
# Bulk Modulus (GPa) = 82.30067 85.67263 83.98665
# Shear Modulus (GPa) = 29.81611 30.48431 30.15021
#
# Velocity S-wave (km/s) = 3.94129 3.98521 3.96332
# Velocity P-wave (km/s) = 7.97429 8.11235 8.04362
#
# Compressibility (1/GPa) = 0.01215057
#
# Stress axis : x y z
#
# Youngs Moduli (GPa) = 104.41446 70.43468 81.86224
#
# Poissons Ratio (x) = 0.24943 0.31104
# Poissons Ratio (y) = 0.36976 0.37486
# Poissons Ratio (z) = 0.39673 0.32253
#
# Static dielectric constant tensor:
#      x y z
#    x 3.973360 0.000000 0.000000 
#    y 0.000000 3.287610 0.000000 
#    z 0.000000 0.000000 3.451080 
# 
# 
# High freq. dielectric constant tensor:
#      x y z
#    x 1.774300 0.000000 0.000000 
#    y 0.000000 1.727550 0.000000 
#    z 0.000000 0.000000 1.745830 
# 
# From -- ./inp_files/12944.got.cif
#   From: 2010.03.12/outbox.cif.g09.slc.cpg/sg40_7_cif.got.tgz:12944.got - 2010.04.14 01:38:03.
