data_PCOD8183331
_publ_section_title
;
Structure prediction by ZEFSAII (Michael W. Deem and Ramdas Pophale) SiO2 
 PCOD8183331
Probable space group: A M A 2
;
_chemical_formula_sum "Si O2"
_cell_formula_units_Z 64
_cell_length_a 8.722269
_cell_length_b 30.843017
_cell_length_c 11.989109
_cell_angle_alpha 90.000000
_cell_angle_beta 90.000000
_cell_angle_gamma 90.000000
_cell_volume 3225.323184
_symmetry_space_group_name_H-M "A M A 2"
_symmetry_group_IT_number 40
_symmetry_cell_setting 'orthorhombic'
loop_
_space_group_symop_operation_xyz
x,y,z
-x,-y,z
1/2-x,y,z
1/2+x,-y,z
x,1/2+y,1/2+z
-x,1/2-y,1/2+z
1/2-x,1/2+y,1/2+z
1/2+x,1/2-y,1/2+z
loop_
_atom_site_type_symbol
_atom_site_label
_atom_site_fract_x
_atom_site_fract_y
_atom_site_fract_z
Si Si1 0.568582 0.375306 0.997110
Si Si2 0.424823 0.067919 0.852121
Si Si3 0.429641 0.955739 0.628028
Si Si4 0.568045 0.798570 0.090328
Si Si5 0.925121 0.329676 0.351225
Si Si6 0.431784 0.544948 0.598891
Si Si7 0.929864 0.701716 0.132646
Si Si8 0.067431 0.125161 0.243892
O O1 0.750000 0.379476 0.003688
O O2 0.507329 0.376467 0.870443
O O3 0.498400 0.414932 0.064456
O O4 0.519864 0.329940 0.050384
O O5 0.250000 0.052568 0.832404
O O6 0.532138 0.046585 0.759190
O O7 0.435445 0.119146 0.843625
O O8 0.487076 0.052953 0.972293
O O9 0.250000 0.956151 0.609562
O O10 0.500000 0.000000 0.577731
O O11 0.750000 0.800277 0.094293
O O12 0.508202 0.750167 0.111394
O O13 0.502914 0.831360 0.184449
O O14 0.510417 0.814159 0.969882
O O15 0.750000 0.314236 0.331864
O O16 0.036210 0.309072 0.260354
O O17 0.500000 0.500000 0.644031
O O18 0.250000 0.543618 0.604138
O O19 0.495286 0.583221 0.677760
O O20 0.750000 0.697301 0.109101
O O21 0.250000 0.125399 0.241006
#
# Coordination Sequence:
#
# PCOD8183331 Si02
#       8
#     8   8   8   8   8   8   8   8
#     4  11  23  40  62  85 116 157 201 241 290 351
#     4  10  19  35  61  89 119 154 193 236 288 350
#     4  12  25  41  62  87 120 154 195 243 294 348
#     4   9  19  37  60  87 118 155 196 242 296 350
#     4  10  19  36  63  87 115 157 199 238 291 353
#     4  10  20  36  59  87 116 149 191 236 290 347
#     4  11  23  37  58  89 123 154 195 248 297 345
#     4   9  19  38  61  83 111 154 199 239 287 350
#
# _framework density 19.842972
#
# number of rings (size 3 to 8) (size 9 to 14) (size 15 to 20)
#    0.000    1.750    2.500    2.250    1.750    2.000 
#    0.000    3.125    0.000    3.000    0.000    0.000 
#    0.000    0.000    0.000    0.000    0.000    0.000 
#
# Total GULP energy -396890.610809 kJ/mol
# GULP energy per Si atom -12402.831588 kJ/mol
# Density = 1.979781 g / cm^3
# Si number density = 19.842972 Si / 1000 Ang^3
#
#
#
# Elastic Constant Matrix: (Units=GPa)
#
#
# Indices 1 2 3 4 5 6 
#
# 1 59.5182 33.8921 29.2702 0.0000 0.0000 0.0000
# 2 33.8921 152.2125 65.8695 0.0000 0.0000 0.0000
# 3 29.2702 65.8695 139.9370 0.0000 0.0000 0.0000
# 4 0.0000 0.0000 0.0000 42.4287 0.0000 0.0000
# 5 0.0000 0.0000 0.0000 0.0000 -0.8562 0.0000
# 6 0.0000 0.0000 0.0000 0.0000 0.0000 -8.7127
#
#
#
# Elastic Compliance Matrix: (Units=1/GPa)
#
#
# Indices 1 2 3 4 5 6 
#
# 1 0.019977 -0.003315 -0.002618 0.000000 0.000000 0.000000
# 2 -0.003315 0.008800 -0.003449 0.000000 0.000000 0.000000
# 3 -0.002618 -0.003449 0.009317 0.000000 0.000000 0.000000
# 4 0.000000 0.000000 0.000000 0.023569 0.000000 0.000000
# 5 0.000000 0.000000 0.000000 0.000000 -1.167947 0.000000
# 6 0.000000 0.000000 0.000000 0.000000 0.000000 -0.114775
#
#
# Mechanical properties :
#
#
# Convention : Reuss Voigt Hill
#
# Bulk Modulus (GPa) = 51.73286 67.74792 59.74039
# Shear Modulus (GPa) = -4.18112 21.41436 8.61662
#
# Velocity S-wave (km/s) = -1.45316 3.28867 2.08610
# Velocity P-wave (km/s) = 4.82827 6.97399 5.99786
#
# Compressibility (1/GPa) = 0.01933007
#
# Stress axis : x y z
#
# Youngs Moduli (GPa) = 50.05783 113.63010 107.32877
#
# Poissons Ratio (x) = 0.37670 0.28099
# Poissons Ratio (y) = 0.16595 0.37018
# Poissons Ratio (z) = 0.13105 0.39191
#
# Static dielectric constant tensor:
#      x y z
#    x 3.304210 0.000000 0.000000 
#    y 0.000000 3.837830 0.000000 
#    z 0.000000 0.000000 3.872360 
# 
# 
# High freq. dielectric constant tensor:
#      x y z
#    x 1.744300 0.000000 0.000000 
#    y 0.000000 1.791160 0.000000 
#    z 0.000000 0.000000 1.780100 
# 
# From -- ./inp_files/10701.got.cif
#   From: 2010.03.12/outbox.cif.g09.slc.cpg/sg40_6_cif.got.tgz:10701.got - 2010.04.14 01:38:03.
