data_PCOD8183220
_publ_section_title
;
Structure prediction by ZEFSAII (Michael W. Deem and Ramdas Pophale) SiO2 
 PCOD8183220
Probable space group: A M A 2
;
_chemical_formula_sum "Si O2"
_cell_formula_units_Z 64
_cell_length_a 8.847082
_cell_length_b 18.595659
_cell_length_c 20.756846
_cell_angle_alpha 90.000000
_cell_angle_beta 90.000000
_cell_angle_gamma 90.000000
_cell_volume 3414.860676
_symmetry_space_group_name_H-M "A M A 2"
_symmetry_group_IT_number 40
_symmetry_cell_setting 'orthorhombic'
loop_
_space_group_symop_operation_xyz
x,y,z
-x,-y,z
1/2-x,y,z
1/2+x,-y,z
x,1/2+y,1/2+z
-x,1/2-y,1/2+z
1/2-x,1/2+y,1/2+z
1/2+x,1/2-y,1/2+z
loop_
_atom_site_type_symbol
_atom_site_label
_atom_site_fract_x
_atom_site_fract_y
_atom_site_fract_z
Si Si1 0.070131 0.424138 0.045520
Si Si2 0.924340 0.150698 0.795757
Si Si3 0.929041 0.575954 0.562697
Si Si4 0.423701 0.309811 0.943194
Si Si5 0.422055 0.797085 0.302840
Si Si6 0.428409 0.147413 0.666732
Si Si7 0.426973 0.343999 0.436715
Si Si8 0.076186 0.811582 0.163907
O O1 0.250000 0.429889 0.044986
O O2 0.000000 0.500000 0.025965
O O3 0.013857 0.401764 0.115835
O O4 0.006955 0.367021 0.993067
O O5 0.750000 0.135523 0.779639
O O6 0.970048 0.120971 0.867044
O O7 0.952910 0.235470 0.801727
O O8 0.026075 0.118303 0.738124
O O9 0.750000 0.569682 0.569837
O O10 0.978163 0.599626 0.491058
O O11 0.999675 0.634033 0.613141
O O12 0.000000 0.500000 0.579689
O O13 0.250000 0.299123 0.960435
O O14 0.443887 0.340645 0.869683
O O15 0.497683 0.232321 0.951105
O O16 0.250000 0.764424 0.300573
O O17 0.446407 0.842791 0.237042
O O18 0.250000 0.139521 0.657627
O O19 0.486971 0.229895 0.658950
O O20 0.250000 0.328883 0.439836
O O21 0.250000 0.806788 0.144892
#
# Coordination Sequence:
#
# PCOD8183220 Si02
#       8
#     8   8   8   8   8   8   8   8
#     4  11  23  37  51  72 102 136 170 210 255 303
#     4   9  16  28  48  76 104 128 158 205 253 295
#     4  10  20  34  48  68  98 133 169 204 241 286
#     4   9  18  32  53  78 102 128 166 211 251 292
#     4   8  14  28  49  74 101 130 163 202 247 296
#     4  10  19  34  56  78  98 128 165 205 253 307
#     4   9  18  32  52  75 102 134 168 206 251 299
#     4   8  15  29  52  75  97 127 164 201 242 292
#
# _framework density 18.741613000000001
#
# number of rings (size 3 to 8) (size 9 to 14) (size 15 to 20)
#    0.000    2.750    0.000    2.625    0.000    3.000 
#    0.000    4.375    0.000    1.500    0.000    0.000 
#    0.000    0.000    0.000    0.000    0.000    0.000 
#
# Total GULP energy -396507.985757 kJ/mol
# GULP energy per Si atom -12390.874555 kJ/mol
# Density = 1.869896 g / cm^3
# Si number density = 18.741613 Si / 1000 Ang^3
#
#
#
# Elastic Constant Matrix: (Units=GPa)
#
#
# Indices 1 2 3 4 5 6 
#
# 1 37.8906 10.9674 16.1532 0.0000 0.0000 0.0000
# 2 10.9674 45.0413 11.1432 0.0000 0.0000 0.0000
# 3 16.1532 11.1432 95.6722 0.0000 0.0000 0.0000
# 4 0.0000 0.0000 0.0000 9.2731 0.0000 0.0000
# 5 0.0000 0.0000 0.0000 0.0000 22.3057 0.0000
# 6 0.0000 0.0000 0.0000 0.0000 0.0000 24.6230
#
#
#
# Elastic Compliance Matrix: (Units=1/GPa)
#
#
# Indices 1 2 3 4 5 6 
#
# 1 0.030052 -0.006242 -0.004347 0.000000 0.000000 0.000000
# 2 -0.006242 0.024157 -0.001760 0.000000 0.000000 0.000000
# 3 -0.004347 -0.001760 0.011391 0.000000 0.000000 0.000000
# 4 0.000000 0.000000 0.000000 0.107838 0.000000 0.000000
# 5 0.000000 0.000000 0.000000 0.000000 0.044832 0.000000
# 6 0.000000 0.000000 0.000000 0.000000 0.000000 0.040612
#
#
# Mechanical properties :
#
#
# Convention : Reuss Voigt Hill
#
# Bulk Modulus (GPa) = 24.44826 28.34795 26.39811
# Shear Modulus (GPa) = 16.82289 20.59637 18.70963
#
# Velocity S-wave (km/s) = 2.99928 3.31866 3.16301
# Velocity P-wave (km/s) = 5.00675 5.46289 5.23978
#
# Compressibility (1/GPa) = 0.04090271
#
# Stress axis : x y z
#
# Youngs Moduli (GPa) = 33.27602 41.39564 87.78677
#
# Poissons Ratio (x) = 0.25839 0.38160
# Poissons Ratio (y) = 0.20771 0.15448
# Poissons Ratio (z) = 0.14465 0.07285
#
# Static dielectric constant tensor:
#      x y z
#    x 3.269920 0.000000 0.000000 
#    y 0.000000 3.144650 0.000000 
#    z 0.000000 0.000000 4.037320 
# 
# 
# High freq. dielectric constant tensor:
#      x y z
#    x 1.713760 0.000000 0.000000 
#    y 0.000000 1.682100 0.000000 
#    z 0.000000 0.000000 1.754410 
# 
# From -- ./inp_files/22398.got.cif
#   From: 2010.03.12/outbox.cif.g09.slc.cpg/sg40_12_cif.got.tgz:22398.got - 2010.04.14 01:38:03.
