data_PCOD8183243
_publ_section_title
;
Structure prediction by ZEFSAII (Michael W. Deem and Ramdas Pophale) SiO2 
 PCOD8183243
Probable space group: A M A 2
;
_chemical_formula_sum "Si O2"
_cell_formula_units_Z 64
_cell_length_a 17.318570
_cell_length_b 16.284162
_cell_length_c 12.192008
_cell_angle_alpha 90.000000
_cell_angle_beta 90.000000
_cell_angle_gamma 90.000000
_cell_volume 3438.370583
_symmetry_space_group_name_H-M "A M A 2"
_symmetry_group_IT_number 40
_symmetry_cell_setting 'orthorhombic'
loop_
_space_group_symop_operation_xyz
x,y,z
-x,-y,z
1/2-x,y,z
1/2+x,-y,z
x,1/2+y,1/2+z
-x,1/2-y,1/2+z
1/2-x,1/2+y,1/2+z
1/2+x,1/2-y,1/2+z
loop_
_atom_site_type_symbol
_atom_site_label
_atom_site_fract_x
_atom_site_fract_y
_atom_site_fract_z
Si Si1 0.339731 0.513262 0.976790
Si Si2 0.341287 0.695824 0.568744
Si Si3 0.095121 0.152773 0.621291
Si Si4 0.158914 0.632069 0.796303
Si Si5 0.916349 0.129839 0.597995
Si Si6 0.660417 0.078144 0.821632
Si Si7 0.159664 0.271018 0.460733
Si Si8 0.660297 0.389776 0.345130
O O1 0.250000 0.488433 0.973598
O O2 0.369763 0.549722 0.859450
O O3 0.349530 0.583569 0.068968
O O4 0.388773 0.432871 0.004094
O O5 0.250000 0.711698 0.576848
O O6 0.370359 0.639706 0.671201
O O7 0.384101 0.781758 0.568844
O O8 0.365541 0.649044 0.459481
O O9 0.114863 0.242646 0.570765
O O10 0.110347 0.154250 0.751163
O O11 0.007951 0.129431 0.595790
O O12 0.250000 0.629049 0.798703
O O13 0.131451 0.712948 0.861252
O O14 0.888936 0.100804 0.716366
O O15 0.750000 0.091085 0.790587
O O16 0.638405 0.136089 0.925198
O O17 0.641443 0.985811 0.855406
O O18 0.250000 0.261802 0.484612
O O19 0.750000 0.374267 0.320641
#
# Coordination Sequence:
#
# PCOD8183243 Si02
#       8
#     8   8   8   8   8   8   8   8
#     4  10  19  34  57  84 109 141 187 236 274 322
#     4  10  20  37  57  81 111 149 189 229 282 339
#     4  11  22  34  52  85 118 148 180 226 298 335
#     4   8  15  30  54  80 104 135 181 228 272 319
#     4  12  22  33  55  86 114 146 185 234 281 335
#     4  10  19  34  59  85 106 143 195 235 268 328
#     4   9  17  33  58  82 105 141 190 234 267 323
#     4  10  21  37  58  83 116 149 184 235 288 338
#
# _framework density 18.613468999999998
#
# number of rings (size 3 to 8) (size 9 to 14) (size 15 to 20)
#    0.000    2.000    2.500    3.375    0.000    1.000 
#    0.000    1.250    0.000    4.500    9.750    0.000 
#    0.000    0.000    0.000    0.000    0.000    0.000 
#
# Total GULP energy -396769.271329 kJ/mol
# GULP energy per Si atom -12399.039729 kJ/mol
# Density = 1.857110 g / cm^3
# Si number density = 18.613469 Si / 1000 Ang^3
#
#
#
# Elastic Constant Matrix: (Units=GPa)
#
#
# Indices 1 2 3 4 5 6 
#
# 1 55.4631 34.0002 37.6768 0.0000 0.0000 0.0000
# 2 34.0002 110.6680 79.1426 0.0000 0.0000 0.0000
# 3 37.6768 79.1426 145.2941 0.0000 0.0000 0.0000
# 4 0.0000 0.0000 0.0000 35.7144 0.0000 0.0000
# 5 0.0000 0.0000 0.0000 0.0000 17.1598 0.0000
# 6 0.0000 0.0000 0.0000 0.0000 0.0000 -10.1435
#
#
#
# Elastic Compliance Matrix: (Units=1/GPa)
#
#
# Indices 1 2 3 4 5 6 
#
# 1 0.023253 -0.004639 -0.003503 0.000000 0.000000 0.000000
# 2 -0.004639 0.015727 -0.007364 0.000000 0.000000 0.000000
# 3 -0.003503 -0.007364 0.011802 0.000000 0.000000 0.000000
# 4 0.000000 0.000000 0.000000 0.028000 0.000000 0.000000
# 5 0.000000 0.000000 0.000000 0.000000 0.058276 0.000000
# 6 0.000000 0.000000 0.000000 0.000000 0.000000 -0.098586
#
#
# Mechanical properties :
#
#
# Convention : Reuss Voigt Hill
#
# Bulk Modulus (GPa) = 50.57853 68.11828 59.34841
# Shear Modulus (GPa) = 65.72431 19.25319 42.48875
#
# Velocity S-wave (km/s) = 5.94867 3.21965 4.78293
# Velocity P-wave (km/s) = 8.62638 7.10614 7.90290
#
# Compressibility (1/GPa) = 0.01977123
#
# Stress axis : x y z
#
# Youngs Moduli (GPa) = 43.00431 63.58330 84.73034
#
# Poissons Ratio (x) = 0.29496 0.29682
# Poissons Ratio (y) = 0.19949 0.62394
# Poissons Ratio (z) = 0.15065 0.46822
#
# Static dielectric constant tensor:
#      x y z
#    x 3.149640 0.000000 0.000000 
#    y 0.000000 3.641750 0.000000 
#    z 0.000000 0.000000 3.693370 
# 
# 
# High freq. dielectric constant tensor:
#      x y z
#    x 1.701570 0.000000 0.000000 
#    y 0.000000 1.717750 0.000000 
#    z 0.000000 0.000000 1.717970 
# 
# From -- ./inp_files/13100.got.cif
#   From: 2010.03.12/outbox.cif.g09.slc.cpg/sg40_7_cif.got.tgz:13100.got - 2010.04.14 01:38:03.
