data_PCOD8183042
_publ_section_title
;
Structure prediction by ZEFSAII (Michael W. Deem and Ramdas Pophale) SiO2 
 PCOD8183042
Probable space group: A M A 2
;
_chemical_formula_sum "Si O2"
_cell_formula_units_Z 64
_cell_length_a 8.962404
_cell_length_b 33.270216
_cell_length_c 11.699458
_cell_angle_alpha 90.000000
_cell_angle_beta 90.000000
_cell_angle_gamma 90.000000
_cell_volume 3488.557454
_symmetry_space_group_name_H-M "A M A 2"
_symmetry_group_IT_number 40
_symmetry_cell_setting 'orthorhombic'
loop_
_space_group_symop_operation_xyz
x,y,z
-x,-y,z
1/2-x,y,z
1/2+x,-y,z
x,1/2+y,1/2+z
-x,1/2-y,1/2+z
1/2-x,1/2+y,1/2+z
1/2+x,1/2-y,1/2+z
loop_
_atom_site_type_symbol
_atom_site_label
_atom_site_fract_x
_atom_site_fract_y
_atom_site_fract_z
Si Si1 0.423213 0.541030 0.550150
Si Si2 0.426804 0.624508 0.931723
Si Si3 0.574207 0.456953 0.807095
Si Si4 0.577336 0.145268 0.666532
Si Si5 0.573856 0.224932 0.806838
Si Si6 0.072505 0.809095 0.271927
Si Si7 0.578732 0.099963 0.893672
Si Si8 0.575882 0.678734 0.523486
O O1 0.500000 0.500000 0.525038
O O2 0.250000 0.534577 0.546708
O O3 0.470400 0.556373 0.677363
O O4 0.469618 0.566432 0.440183
O O5 0.250000 0.628039 0.920991
O O6 0.479292 0.580015 0.888604
O O7 0.499284 0.660112 0.859266
O O8 0.474469 0.632072 0.061891
O O9 0.500000 0.500000 0.840822
O O10 0.750000 0.463607 0.819244
O O11 0.750000 0.145655 0.628553
O O12 0.534748 0.189319 0.716521
O O13 0.550380 0.111093 0.762075
O O14 0.750000 0.234614 0.799504
O O15 0.472263 0.263248 0.789444
O O16 0.524568 0.212647 0.934685
O O17 0.250000 0.813626 0.281477
O O18 0.002270 0.818328 0.147590
O O19 0.750000 0.087386 0.912765
O O20 0.531868 0.136591 0.972431
O O21 0.750000 0.683138 0.540297
#
# Coordination Sequence:
#
# PCOD8183042 Si02
#       8
#     8   8   8   8   8   8   8   8
#     4  10  19  32  53  82 113 140 174 221 272 329
#     4  11  23  38  56  81 113 149 188 231 281 333
#     4   9  20  37  57  83 113 146 183 228 282 334
#     4   9  20  38  58  79 108 146 188 229 275 330
#     4   9  19  37  56  76 106 142 178 225 280 325
#     4  11  22  34  53  82 109 139 183 226 271 330
#     4   9  17  34  57  77 102 139 177 218 269 323
#     4   8  17  34  54  74 100 135 173 214 266 324
#
# _framework density 18.345690999999999
#
# number of rings (size 3 to 8) (size 9 to 14) (size 15 to 20)
#    0.000    2.500    0.000    3.375    1.750    2.500 
#    0.000    3.750    0.000    1.500    0.000    0.000 
#    0.000    0.000    0.000    0.000    0.000    0.000 
#
# Total GULP energy -396519.771145 kJ/mol
# GULP energy per Si atom -12391.242848 kJ/mol
# Density = 1.830394 g / cm^3
# Si number density = 18.345691 Si / 1000 Ang^3
#
#
#
# Elastic Constant Matrix: (Units=GPa)
#
#
# Indices 1 2 3 4 5 6 
#
# 1 51.5381 39.5753 35.8361 0.0000 0.0000 0.0000
# 2 39.5753 96.4541 60.1536 0.0000 0.0000 0.0000
# 3 35.8361 60.1536 121.7406 0.0000 0.0000 0.0000
# 4 0.0000 0.0000 0.0000 24.4939 0.0000 0.0000
# 5 0.0000 0.0000 0.0000 0.0000 42.9963 0.0000
# 6 0.0000 0.0000 0.0000 0.0000 0.0000 33.6072
#
#
#
# Elastic Compliance Matrix: (Units=1/GPa)
#
#
# Indices 1 2 3 4 5 6 
#
# 1 0.029566 -0.009689 -0.003916 0.000000 0.000000 0.000000
# 2 -0.009689 0.018161 -0.006121 0.000000 0.000000 0.000000
# 3 -0.003916 -0.006121 0.012391 0.000000 0.000000 0.000000
# 4 0.000000 0.000000 0.000000 0.040826 0.000000 0.000000
# 5 0.000000 0.000000 0.000000 0.000000 0.023258 0.000000
# 6 0.000000 0.000000 0.000000 0.000000 0.000000 0.029756
#
#
# Mechanical properties :
#
#
# Convention : Reuss Voigt Hill
#
# Bulk Modulus (GPa) = 48.38865 60.09589 54.24227
# Shear Modulus (GPa) = 24.96279 29.16399 27.06339
#
# Velocity S-wave (km/s) = 3.69275 3.99142 3.84499
# Velocity P-wave (km/s) = 6.67946 7.35326 7.02445
#
# Compressibility (1/GPa) = 0.02066600
#
# Stress axis : x y z
#
# Youngs Moduli (GPa) = 33.82286 55.06447 80.70081
#
# Poissons Ratio (x) = 0.53351 0.31600
# Poissons Ratio (y) = 0.32770 0.49399
# Poissons Ratio (z) = 0.13244 0.33707
#
# Static dielectric constant tensor:
#      x y z
#    x 3.204510 0.000000 0.000000 
#    y 0.000000 3.362370 0.000000 
#    z 0.000000 0.000000 3.678340 
# 
# 
# High freq. dielectric constant tensor:
#      x y z
#    x 1.700070 0.000000 0.000000 
#    y 0.000000 1.713080 0.000000 
#    z 0.000000 0.000000 1.717400 
# 
# From -- ./inp_files/10597.got.cif
#   From: 2010.03.12/outbox.cif.g09.slc.cpg/sg40_6_cif.got.tgz:10597.got - 2010.04.14 01:38:03.
