data_PCOD8183360
_publ_section_title
;
Structure prediction by ZEFSAII (Michael W. Deem and Ramdas Pophale) SiO2 
 PCOD8183360
Probable space group: A M A 2
;
_chemical_formula_sum "Si O2"
_cell_formula_units_Z 56
_cell_length_a 9.028847
_cell_length_b 18.272543
_cell_length_c 17.307184
_cell_angle_alpha 90.000000
_cell_angle_beta 90.000000
_cell_angle_gamma 90.000000
_cell_volume 2855.339131
_symmetry_space_group_name_H-M "A M A 2"
_symmetry_group_IT_number 40
_symmetry_cell_setting 'orthorhombic'
loop_
_space_group_symop_operation_xyz
x,y,z
-x,-y,z
1/2-x,y,z
1/2+x,-y,z
x,1/2+y,1/2+z
-x,1/2-y,1/2+z
1/2-x,1/2+y,1/2+z
1/2+x,1/2-y,1/2+z
loop_
_atom_site_type_symbol
_atom_site_label
_atom_site_fract_x
_atom_site_fract_y
_atom_site_fract_z
Si Si1 0.074661 0.180924 0.844200
Si Si2 0.920398 0.670986 0.608675
Si Si3 0.574989 0.921914 0.979603
Si Si4 0.426300 0.837123 0.403937
Si Si5 0.582120 0.073287 0.257455
Si Si6 0.923501 0.422824 0.036612
Si Si7 0.576770 0.322139 0.172386
O O1 0.250000 0.185411 0.838073
O O2 0.027597 0.112016 0.896919
O O3 0.017376 0.255696 0.883256
O O4 0.005340 0.170815 0.758125
O O5 0.750000 0.670546 0.579714
O O6 0.936389 0.630673 0.689627
O O7 0.983702 0.752526 0.624191
O O8 0.023406 0.633407 0.545644
O O9 0.750000 0.932068 0.986517
O O10 0.500000 0.000000 0.990539
O O11 0.250000 0.839505 0.415933
O O12 0.479645 0.890959 0.335777
O O13 0.508752 0.861670 0.480985
O O14 0.750000 0.050803 0.270657
O O15 0.500000 0.000000 0.234403
O O16 0.750000 0.430939 0.020000
O O17 0.954807 0.396029 0.124249
O O18 0.000000 0.500000 0.022374
O O19 0.750000 0.307770 0.182845
#
# Coordination Sequence:
#
# PCOD8183360 Si02
#       7
#     8   8   8   8   8   8   8
#     4   9  18  36  61  85 110 145 188 231 280 334
#     4  10  19  36  60  83 110 144 185 230 279 336
#     4  11  23  37  56  83 115 150 188 231 278 330
#     4  10  19  36  60  83 110 144 185 230 279 336
#     4  10  20  32  52  80 109 144 180 218 269 328
#     4  11  23  37  56  83 115 150 188 231 278 330
#     4   9  18  36  61  85 110 145 188 231 280 334
#
# _framework density 19.612380000000002
#
# number of rings (size 3 to 8) (size 9 to 14) (size 15 to 20)
#    0.000    2.000    1.429    2.571    0.000    4.000 
#    0.000    1.429    0.000    6.000    0.000    0.000 
#    0.000    0.000    0.000    0.000    0.000    0.000 
#
# Total GULP energy -347203.448795 kJ/mol
# GULP energy per Si atom -12400.123171 kJ/mol
# Density = 1.956774 g / cm^3
# Si number density = 19.612380 Si / 1000 Ang^3
#
#
#
# Elastic Constant Matrix: (Units=GPa)
#
#
# Indices 1 2 3 4 5 6 
#
# 1 53.1724 20.5748 34.8499 0.0000 0.0000 0.0000
# 2 20.5748 57.6906 35.4267 0.0000 0.0000 0.0000
# 3 34.8499 35.4267 121.4797 0.0000 0.0000 0.0000
# 4 0.0000 0.0000 0.0000 137.6503 0.0000 0.0000
# 5 0.0000 0.0000 0.0000 0.0000 22.2346 0.0000
# 6 0.0000 0.0000 0.0000 0.0000 0.0000 11.2164
#
#
#
# Elastic Compliance Matrix: (Units=1/GPa)
#
#
# Indices 1 2 3 4 5 6 
#
# 1 0.024458 -0.005377 -0.005449 0.000000 0.000000 0.000000
# 2 -0.005377 0.022297 -0.004960 0.000000 0.000000 0.000000
# 3 -0.005449 -0.004960 0.011241 0.000000 0.000000 0.000000
# 4 0.000000 0.000000 0.000000 0.007265 0.000000 0.000000
# 5 0.000000 0.000000 0.000000 0.000000 0.044975 0.000000
# 6 0.000000 0.000000 0.000000 0.000000 0.000000 0.089155
#
#
# Mechanical properties :
#
#
# Convention : Reuss Voigt Hill
#
# Bulk Modulus (GPa) = 37.84136 46.00505 41.92321
# Shear Modulus (GPa) = 20.85317 43.65300 32.25308
#
# Velocity S-wave (km/s) = 3.26431 4.72294 4.05968
# Velocity P-wave (km/s) = 5.79173 7.29724 6.58763
#
# Compressibility (1/GPa) = 0.02642611
#
# Stress axis : x y z
#
# Youngs Moduli (GPa) = 40.88577 44.84841 88.95736
#
# Poissons Ratio (x) = 0.24115 0.48468
# Poissons Ratio (y) = 0.21984 0.44122
# Poissons Ratio (z) = 0.22277 0.22245
#
# Static dielectric constant tensor:
#      x y z
#    x 3.296380 0.000000 0.000000 
#    y 0.000000 3.599510 0.000000 
#    z 0.000000 0.000000 3.812330 
# 
# 
# High freq. dielectric constant tensor:
#      x y z
#    x 1.730440 0.000000 0.000000 
#    y 0.000000 1.773560 0.000000 
#    z 0.000000 0.000000 1.778180 
# 
# From -- ./inp_files/15311.got.cif
#   From: 2010.03.12/outbox.cif.g09.slc.cpg/sg40_8_cif.got.tgz:15311.got - 2010.04.14 01:38:03.
