data_PCOD8183010
_publ_section_title
;
Structure prediction by ZEFSAII (Michael W. Deem and Ramdas Pophale) SiO2 
 PCOD8183010
Probable space group: A M A 2
;
_chemical_formula_sum "Si O2"
_cell_formula_units_Z 64
_cell_length_a 23.106632
_cell_length_b 24.877290
_cell_length_c 6.630292
_cell_angle_alpha 90.000000
_cell_angle_beta 90.000000
_cell_angle_gamma 90.000000
_cell_volume 3811.293304
_symmetry_space_group_name_H-M "A M A 2"
_symmetry_group_IT_number 40
_symmetry_cell_setting 'orthorhombic'
loop_
_space_group_symop_operation_xyz
x,y,z
-x,-y,z
1/2-x,y,z
1/2+x,-y,z
x,1/2+y,1/2+z
-x,1/2-y,1/2+z
1/2-x,1/2+y,1/2+z
1/2+x,1/2-y,1/2+z
loop_
_atom_site_type_symbol
_atom_site_label
_atom_site_fract_x
_atom_site_fract_y
_atom_site_fract_z
Si Si1 0.187434 0.437695 0.647170
Si Si2 0.684001 0.162394 0.429123
Si Si3 0.365091 0.917302 0.749028
Si Si4 0.016019 0.188863 0.597842
Si Si5 0.479360 0.585787 0.839342
Si Si6 0.092005 0.981934 0.403219
Si Si7 0.921839 0.718091 0.784629
Si Si8 0.032451 0.366686 0.480103
O O1 0.250000 0.463123 0.701476
O O2 0.184941 0.431161 0.406638
O O3 0.136051 0.476395 0.717802
O O4 0.182538 0.379316 0.746686
O O5 0.750000 0.181433 0.474047
O O6 0.654946 0.135010 0.624673
O O7 0.644197 0.213771 0.367001
O O8 0.373348 0.969883 0.609007
O O9 0.424600 0.907198 0.868513
O O10 0.037704 0.137435 0.472767
O O11 0.069222 0.229719 0.642135
O O12 0.965657 0.219566 0.475230
O O13 0.994832 0.172887 0.818878
O O14 0.430912 0.542154 0.889758
O O15 0.542103 0.563031 0.898785
O O16 0.482109 0.600012 0.599942
O O17 0.933480 0.665081 0.653582
#
# Coordination Sequence:
#
# PCOD8183010 Si02
#       8
#     8   8   8   8   8   8   8   8
#     4  10  19  32  51  76 103 136 173 209 257 308
#     4  10  20  32  49  77 111 137 168 216 260 312
#     4  11  17  32  53  75 105 138 170 207 257 312
#     4  11  20  32  51  76 103 137 170 213 255 310
#     4  10  21  34  48  75 106 135 170 208 259 314
#     4  10  20  34  50  73 106 136 168 212 258 308
#     4  11  20  32  52  76 105 137 173 207 260 314
#     4  11  18  32  51  74 106 134 165 210 256 306
#
# _framework density 16.792200999999999
#
# number of rings (size 3 to 8) (size 9 to 14) (size 15 to 20)
#    0.000    1.500    6.250    1.875    0.000    1.500 
#    0.000    0.000    0.000    0.750    0.000    0.875 
#    0.000    0.000    0.000    0.000    0.000    0.000 
#
# Total GULP energy -396677.448825 kJ/mol
# GULP energy per Si atom -12396.170276 kJ/mol
# Density = 1.675398 g / cm^3
# Si number density = 16.792201 Si / 1000 Ang^3
#
#
#
# Elastic Constant Matrix: (Units=GPa)
#
#
# Indices 1 2 3 4 5 6 
#
# 1 104.4395 49.7813 35.4169 0.0000 0.0000 0.0000
# 2 49.7813 84.1119 31.8334 0.0000 0.0000 0.0000
# 3 35.4169 31.8334 101.1133 0.0000 0.0000 0.0000
# 4 0.0000 0.0000 0.0000 17.4740 0.0000 0.0000
# 5 0.0000 0.0000 0.0000 0.0000 18.0142 0.0000
# 6 0.0000 0.0000 0.0000 0.0000 0.0000 22.2790
#
#
#
# Elastic Compliance Matrix: (Units=1/GPa)
#
#
# Indices 1 2 3 4 5 6 
#
# 1 0.013910 -0.007253 -0.002589 0.000000 0.000000 0.000000
# 2 -0.007253 0.017279 -0.002899 0.000000 0.000000 0.000000
# 3 -0.002589 -0.002899 0.011710 0.000000 0.000000 0.000000
# 4 0.000000 0.000000 0.000000 0.057228 0.000000 0.000000
# 5 0.000000 0.000000 0.000000 0.000000 0.055512 0.000000
# 6 0.000000 0.000000 0.000000 0.000000 0.000000 0.044885
#
#
# Mechanical properties :
#
#
# Convention : Reuss Voigt Hill
#
# Bulk Modulus (GPa) = 57.41801 58.19198 57.80500
# Shear Modulus (GPa) = 21.56935 23.06232 22.31584
#
# Velocity S-wave (km/s) = 3.58786 3.70995 3.64942
# Velocity P-wave (km/s) = 7.17155 7.28568 7.22884
#
# Compressibility (1/GPa) = 0.01741614
#
# Stress axis : x y z
#
# Youngs Moduli (GPa) = 71.89144 57.87453 85.40072
#
# Poissons Ratio (x) = 0.41975 0.22109
# Poissons Ratio (y) = 0.52141 0.24761
# Poissons Ratio (z) = 0.18611 0.16780
#
# Static dielectric constant tensor:
#      x y z
#    x 3.122810 0.000000 0.000000 
#    y 0.000000 2.895630 0.000000 
#    z 0.000000 0.000000 3.430090 
# 
# 
# High freq. dielectric constant tensor:
#      x y z
#    x 1.626070 0.000000 0.000000 
#    y 0.000000 1.613100 0.000000 
#    z 0.000000 0.000000 1.667200 
# 
# From -- ./inp_files/2891.got.cif
#   From: 2010.03.12/outbox.cif.g09.slc.cpg/sg40_2_cif.got.tgz:2891.got - 2010.04.14 01:38:03.
