data_PCOD8183939
_publ_section_title
;
Structure prediction by ZEFSAII (Michael W. Deem and Ramdas Pophale) SiO2 
 PCOD8183939
Probable space group: A M A 2
;
_chemical_formula_sum "Si O2"
_cell_formula_units_Z 48
_cell_length_a 8.780645
_cell_length_b 30.592221
_cell_length_c 8.995128
_cell_angle_alpha 90.000000
_cell_angle_beta 90.000000
_cell_angle_gamma 90.000000
_cell_volume 2416.266177
_symmetry_space_group_name_H-M "A M A 2"
_symmetry_group_IT_number 40
_symmetry_cell_setting 'orthorhombic'
loop_
_space_group_symop_operation_xyz
x,y,z
-x,-y,z
1/2-x,y,z
1/2+x,-y,z
x,1/2+y,1/2+z
-x,1/2-y,1/2+z
1/2-x,1/2+y,1/2+z
1/2+x,1/2-y,1/2+z
loop_
_atom_site_type_symbol
_atom_site_label
_atom_site_fract_x
_atom_site_fract_y
_atom_site_fract_z
Si Si1 0.070297 0.545088 0.915540
Si Si2 0.428092 0.374057 0.414669
Si Si3 0.073704 0.705880 0.253715
Si Si4 0.570248 0.454750 0.252984
Si Si5 0.575519 0.285380 0.909804
Si Si6 0.073109 0.627824 0.728433
O O1 0.250000 0.540866 0.910898
O O2 0.014060 0.584191 0.810426
O O3 0.000000 0.500000 0.855131
O O4 0.015378 0.554575 0.084101
O O5 0.250000 0.382575 0.403659
O O6 0.470717 0.332952 0.314277
O O7 0.515115 0.416754 0.360203
O O8 0.473857 0.363833 0.583189
O O9 0.250000 0.693809 0.278864
O O10 0.036870 0.750640 0.337213
O O11 0.034756 0.711898 0.082048
O O12 0.500000 0.500000 0.311206
O O13 0.750000 0.458041 0.263051
O O14 0.750000 0.270528 0.885245
O O15 0.545008 0.332459 0.839902
O O16 0.250000 0.623898 0.684076
#
# Coordination Sequence:
#
# PCOD8183939 Si02
#       6
#     8   8   8   8   8   8
#     4   9  19  36  60  87 115 149 190 235 285 342
#     4  12  25  39  57  85 118 154 197 240 284 339
#     4  11  23  40  62  87 117 152 189 235 289 343
#     4  10  20  38  62  88 117 151 192 238 290 344
#     4  10  22  40  62  88 116 149 192 238 287 345
#     4  10  21  39  60  83 116 155 192 236 289 341
#
# _framework density 19.865361
#
# number of rings (size 3 to 8) (size 9 to 14) (size 15 to 20)
#    0.000    1.667    0.000    4.500    0.000    9.333 
#    0.000    3.333    0.000    0.000    0.000    0.000 
#    0.000    0.000    0.000    0.000    0.000    0.000 
#
# Total GULP energy -297751.064083 kJ/mol
# GULP energy per Si atom -12406.294337 kJ/mol
# Density = 1.982015 g / cm^3
# Si number density = 19.865361 Si / 1000 Ang^3
#
#
#
# Elastic Constant Matrix: (Units=GPa)
#
#
# Indices 1 2 3 4 5 6 
#
# 1 63.0042 31.9220 35.4629 0.0000 0.0000 0.0000
# 2 31.9220 123.2690 50.9365 0.0000 0.0000 0.0000
# 3 35.4629 50.9365 113.7172 0.0000 0.0000 0.0000
# 4 0.0000 0.0000 0.0000 34.0495 0.0000 0.0000
# 5 0.0000 0.0000 0.0000 0.0000 24.0912 0.0000
# 6 0.0000 0.0000 0.0000 0.0000 0.0000 37.5929
#
#
#
# Elastic Compliance Matrix: (Units=1/GPa)
#
#
# Indices 1 2 3 4 5 6 
#
# 1 0.020249 -0.003233 -0.004867 0.000000 0.000000 0.000000
# 2 -0.003233 0.010471 -0.003682 0.000000 0.000000 0.000000
# 3 -0.004867 -0.003682 0.011961 0.000000 0.000000 0.000000
# 4 0.000000 0.000000 0.000000 0.029369 0.000000 0.000000
# 5 0.000000 0.000000 0.000000 0.000000 0.041509 0.000000
# 6 0.000000 0.000000 0.000000 0.000000 0.000000 0.026601
#
#
# Mechanical properties :
#
#
# Convention : Reuss Voigt Hill
#
# Bulk Modulus (GPa) = 52.30721 59.62591 55.96656
# Shear Modulus (GPa) = 29.39529 31.25800 30.32665
#
# Velocity S-wave (km/s) = 3.85089 3.97103 3.91142
# Velocity P-wave (km/s) = 6.79415 7.14882 6.97374
#
# Compressibility (1/GPa) = 0.01911782
#
# Stress axis : x y z
#
# Youngs Moduli (GPa) = 49.38465 95.50207 83.60706
#
# Poissons Ratio (x) = 0.30874 0.40689
# Poissons Ratio (y) = 0.15965 0.30784
# Poissons Ratio (z) = 0.24034 0.35164
#
# Static dielectric constant tensor:
#      x y z
#    x 3.611080 0.000000 0.000000 
#    y 0.000000 5.330380 0.000000 
#    z 0.000000 0.000000 3.697160 
# 
# 
# High freq. dielectric constant tensor:
#      x y z
#    x 1.771970 0.000000 0.000000 
#    y 0.000000 1.789440 0.000000 
#    z 0.000000 0.000000 1.781330 
# 
# From -- ./inp_files/4568.got.cif
#   From: 2010.03.12/outbox.cif.g09.slc.cpg/sg40_3_cif.got.tgz:4568.got - 2010.04.14 01:38:03.
