data_PCOD8183968
_publ_section_title
;
Structure prediction by ZEFSAII (Michael W. Deem and Ramdas Pophale) SiO2 
 PCOD8183968
Probable space group: A M A 2
;
_chemical_formula_sum "Si O2"
_cell_formula_units_Z 64
_cell_length_a 15.315530
_cell_length_b 17.814527
_cell_length_c 11.751505
_cell_angle_alpha 90.000000
_cell_angle_beta 90.000000
_cell_angle_gamma 90.000000
_cell_volume 3206.267964
_symmetry_space_group_name_H-M "A M A 2"
_symmetry_group_IT_number 40
_symmetry_cell_setting 'orthorhombic'
loop_
_space_group_symop_operation_xyz
x,y,z
-x,-y,z
1/2-x,y,z
1/2+x,-y,z
x,1/2+y,1/2+z
-x,1/2-y,1/2+z
1/2-x,1/2+y,1/2+z
1/2+x,1/2-y,1/2+z
loop_
_atom_site_type_symbol
_atom_site_label
_atom_site_fract_x
_atom_site_fract_y
_atom_site_fract_z
Si Si1 0.849883 0.676121 0.118020
Si Si2 0.988820 0.586861 0.753083
Si Si3 0.994955 0.910821 0.003598
Si Si4 0.995008 0.411072 0.005551
Si Si5 0.847732 0.804041 0.546148
Si Si6 0.648900 0.676150 0.382904
Si Si7 0.649987 0.305065 0.451719
Si Si8 0.848245 0.698051 0.756389
O O1 0.750000 0.648381 0.100573
O O2 0.876224 0.675233 0.250150
O O3 0.912622 0.621186 0.046906
O O4 0.859331 0.761155 0.071533
O O5 0.024493 0.618566 0.633223
O O6 0.029938 0.609778 0.874305
O O7 0.889294 0.615280 0.757020
O O8 0.000000 0.500000 0.740357
O O9 0.084899 0.879144 0.951611
O O10 0.909624 0.879044 0.940398
O O11 0.000000 0.000000 0.991321
O O12 0.000000 0.500000 0.026861
O O13 0.915040 0.371648 0.071965
O O14 0.750000 0.837862 0.554651
O O15 0.863155 0.762000 0.425840
O O16 0.861969 0.738304 0.636866
O O17 0.750000 0.650768 0.402697
O O18 0.750000 0.329545 0.428345
O O19 0.611856 0.250298 0.354672
O O20 0.750000 0.682169 0.788705
#
# Coordination Sequence:
#
# PCOD8183968 Si02
#       8
#     8   8   8   8   8   8   8   8
#     4  10  22  39  62  89 116 153 199 242 295 353
#     4  10  22  38  58  93 118 151 202 237 297 356
#     4  11  24  39  60  86 122 160 194 241 300 352
#     4  11  24  39  60  86 122 160 194 241 300 352
#     4  10  22  39  61  89 116 153 202 250 291 346
#     4  10  22  39  62  89 116 153 199 242 295 353
#     4  10  22  39  61  89 116 153 202 250 291 346
#     4  10  20  38  65  89 114 153 204 249 290 342
#
# _framework density 19.960899999999999
#
# number of rings (size 3 to 8) (size 9 to 14) (size 15 to 20)
#    0.000    1.750    2.500    0.750    3.500    1.500 
#    0.000    3.750    0.000    0.000    0.000    0.000 
#    0.000    0.000    0.000    0.000    0.000    0.000 
#
# Total GULP energy -396443.923763 kJ/mol
# GULP energy per Si atom -12388.872618 kJ/mol
# Density = 1.991547 g / cm^3
# Si number density = 19.960900 Si / 1000 Ang^3
#
#
#
# Elastic Constant Matrix: (Units=GPa)
#
#
# Indices 1 2 3 4 5 6 
#
# 1 113.0643 73.0426 24.9455 0.0000 0.0000 0.0000
# 2 73.0426 110.3178 24.2613 0.0000 0.0000 0.0000
# 3 24.9455 24.2613 89.2108 0.0000 0.0000 0.0000
# 4 0.0000 0.0000 0.0000 11.6715 0.0000 0.0000
# 5 0.0000 0.0000 0.0000 0.0000 22.9566 0.0000
# 6 0.0000 0.0000 0.0000 0.0000 0.0000 26.2927
#
#
#
# Elastic Compliance Matrix: (Units=1/GPa)
#
#
# Indices 1 2 3 4 5 6 
#
# 1 0.015683 -0.010019 -0.001661 0.000000 0.000000 0.000000
# 2 -0.010019 0.016042 -0.001561 0.000000 0.000000 0.000000
# 3 -0.001661 -0.001561 0.012098 0.000000 0.000000 0.000000
# 4 0.000000 0.000000 0.000000 0.085679 0.000000 0.000000
# 5 0.000000 0.000000 0.000000 0.000000 0.043561 0.000000
# 6 0.000000 0.000000 0.000000 0.000000 0.000000 0.038033
#
#
# Mechanical properties :
#
#
# Convention : Reuss Voigt Hill
#
# Bulk Modulus (GPa) = 57.66382 61.89908 59.78145
# Shear Modulus (GPa) = 20.54582 24.87372 22.70977
#
# Velocity S-wave (km/s) = 3.21176 3.53388 3.37666
# Velocity P-wave (km/s) = 6.53490 6.90858 6.72434
#
# Compressibility (1/GPa) = 0.01734190
#
# Stress axis : x y z
#
# Youngs Moduli (GPa) = 63.76152 62.33763 82.65592
#
# Poissons Ratio (x) = 0.62456 0.13727
# Poissons Ratio (y) = 0.63882 0.12903
# Poissons Ratio (z) = 0.10589 0.09731
#
# Static dielectric constant tensor:
#      x y z
#    x 3.621320 0.000000 0.000000 
#    y 0.000000 3.386370 0.000000 
#    z 0.000000 0.000000 4.108120 
# 
# 
# High freq. dielectric constant tensor:
#      x y z
#    x 1.777650 0.000000 0.000000 
#    y 0.000000 1.757540 0.000000 
#    z 0.000000 0.000000 1.796950 
# 
# From -- ./inp_files/12490.got.cif
#   From: 2010.03.12/outbox.cif.g09.slc.cpg/sg40_7_cif.got.tgz:12490.got - 2010.04.14 01:38:03.
