data_PCOD8183470
_publ_section_title
;
Structure prediction by ZEFSAII (Michael W. Deem and Ramdas Pophale) SiO2 
 PCOD8183470
Probable space group: A M A 2
;
_chemical_formula_sum "Si O2"
_cell_formula_units_Z 56
_cell_length_a 9.027617
_cell_length_b 20.495377
_cell_length_c 14.753679
_cell_angle_alpha 90.000000
_cell_angle_beta 90.000000
_cell_angle_gamma 90.000000
_cell_volume 2729.790809
_symmetry_space_group_name_H-M "A M A 2"
_symmetry_group_IT_number 40
_symmetry_cell_setting 'orthorhombic'
loop_
_space_group_symop_operation_xyz
x,y,z
-x,-y,z
1/2-x,y,z
1/2+x,-y,z
x,1/2+y,1/2+z
-x,1/2-y,1/2+z
1/2-x,1/2+y,1/2+z
1/2+x,1/2-y,1/2+z
loop_
_atom_site_type_symbol
_atom_site_label
_atom_site_fract_x
_atom_site_fract_y
_atom_site_fract_z
Si Si1 0.926378 0.202748 0.819600
Si Si2 0.923496 0.568814 0.412028
Si Si3 0.927460 0.190760 0.450035
Si Si4 0.086692 0.863940 0.093659
Si Si5 0.914477 0.438963 0.913002
Si Si6 0.581492 0.282446 0.127163
Si Si7 0.907194 0.443152 0.705903
O O1 0.750000 0.217144 0.817834
O O2 0.957487 0.126049 0.838864
O O3 0.999863 0.248479 0.896658
O O4 0.999929 0.218703 0.723280
O O5 0.750000 0.555212 0.415587
O O6 0.981663 0.598281 0.507231
O O7 0.000000 0.500000 0.386229
O O8 0.750000 0.197654 0.447142
O O9 0.980857 0.123746 0.405304
O O10 0.984012 0.179149 0.553472
O O11 0.250000 0.890819 0.112661
O O12 0.089126 0.787424 0.078632
O O13 0.989856 0.875690 0.183849
O O14 0.750000 0.427061 0.957686
O O15 0.885816 0.458828 0.810161
O O16 0.000000 0.500000 0.961217
O O17 0.750000 0.309828 0.138138
O O18 0.750000 0.440208 0.656580
O O19 0.000000 0.500000 0.656875
#
# Coordination Sequence:
#
# PCOD8183470 Si02
#       7
#     8   8   8   8   8   8   8
#     4  11  23  43  65  92 130 170 215 270 328 386
#     4  10  22  40  61  87 124 168 211 265 324 383
#     4  12  24  40  64  94 125 165 212 259 317 386
#     4  10  20  36  56  83 118 156 196 251 317 376
#     4  10  21  38  59  85 121 162 204 256 316 376
#     4  11  23  41  64  92 124 160 209 266 324 385
#     4  10  20  32  50  79 114 153 193 237 293 360
#
# _framework density 20.514392000000001
#
# number of rings (size 3 to 8) (size 9 to 14) (size 15 to 20)
#    0.000    1.429    1.429    4.286    0.000    8.000 
#    0.000    0.714    0.000    1.714    0.000    0.000 
#    0.000    0.000    0.000    0.000    0.000    0.000 
#
# Total GULP energy -346905.655695 kJ/mol
# GULP energy per Si atom -12389.487703 kJ/mol
# Density = 2.046770 g / cm^3
# Si number density = 20.514392 Si / 1000 Ang^3
#
#
#
# Elastic Constant Matrix: (Units=GPa)
#
#
# Indices 1 2 3 4 5 6 
#
# 1 157.9045 50.4687 46.9330 0.0000 0.0000 0.0000
# 2 50.4687 110.7285 21.7495 0.0000 0.0000 0.0000
# 3 46.9330 21.7495 85.6485 0.0000 0.0000 0.0000
# 4 0.0000 0.0000 0.0000 26.1531 0.0000 0.0000
# 5 0.0000 0.0000 0.0000 0.0000 26.8892 0.0000
# 6 0.0000 0.0000 0.0000 0.0000 0.0000 33.4042
#
#
#
# Elastic Compliance Matrix: (Units=1/GPa)
#
#
# Indices 1 2 3 4 5 6 
#
# 1 0.008470 -0.003104 -0.003853 0.000000 0.000000 0.000000
# 2 -0.003104 0.010643 -0.001002 0.000000 0.000000 0.000000
# 3 -0.003853 -0.001002 0.014042 0.000000 0.000000 0.000000
# 4 0.000000 0.000000 0.000000 0.038236 0.000000 0.000000
# 5 0.000000 0.000000 0.000000 0.000000 0.037190 0.000000
# 6 0.000000 0.000000 0.000000 0.000000 0.000000 0.029936
#
#
# Mechanical properties :
#
#
# Convention : Reuss Voigt Hill
#
# Bulk Modulus (GPa) = 58.01602 65.84266 61.92934
# Shear Modulus (GPa) = 31.21488 32.96463 32.08975
#
# Velocity S-wave (km/s) = 3.90501 4.01297 3.95936
# Velocity P-wave (km/s) = 6.97669 7.32376 7.15233
#
# Compressibility (1/GPa) = 0.01723662
#
# Stress axis : x y z
#
# Youngs Moduli (GPa) = 118.06032 93.96261 71.21734
#
# Poissons Ratio (x) = 0.29164 0.27442
# Poissons Ratio (y) = 0.36643 0.07134
# Poissons Ratio (z) = 0.45492 0.09413
#
# Static dielectric constant tensor:
#      x y z
#    x 4.175340 0.000000 0.000000 
#    y 0.000000 3.687910 0.000000 
#    z 0.000000 0.000000 3.449350 
# 
# 
# High freq. dielectric constant tensor:
#      x y z
#    x 1.817530 0.000000 0.000000 
#    y 0.000000 1.800500 0.000000 
#    z 0.000000 0.000000 1.780390 
# 
# From -- ./inp_files/15266.got.cif
#   From: 2010.03.12/outbox.cif.g09.slc.cpg/sg40_8_cif.got.tgz:15266.got - 2010.04.14 01:38:03.
