data_PCOD8183058
_publ_section_title
;
Structure prediction by ZEFSAII (Michael W. Deem and Ramdas Pophale) SiO2 
 PCOD8183058
Probable space group: A M A 2
;
_chemical_formula_sum "Si O2"
_cell_formula_units_Z 64
_cell_length_a 8.738108
_cell_length_b 32.981502
_cell_length_c 11.769574
_cell_angle_alpha 90.000000
_cell_angle_beta 90.000000
_cell_angle_gamma 90.000000
_cell_volume 3391.943283
_symmetry_space_group_name_H-M "A M A 2"
_symmetry_group_IT_number 40
_symmetry_cell_setting 'orthorhombic'
loop_
_space_group_symop_operation_xyz
x,y,z
-x,-y,z
1/2-x,y,z
1/2+x,-y,z
x,1/2+y,1/2+z
-x,1/2-y,1/2+z
1/2-x,1/2+y,1/2+z
1/2+x,1/2-y,1/2+z
loop_
_atom_site_type_symbol
_atom_site_label
_atom_site_fract_x
_atom_site_fract_y
_atom_site_fract_z
Si Si1 0.927164 0.044265 0.978400
Si Si2 0.930640 0.124190 0.102791
Si Si3 0.931253 0.399206 0.056965
Si Si4 0.927058 0.042679 0.725571
Si Si5 0.073123 0.222137 0.478102
Si Si6 0.931128 0.808020 0.942674
Si Si7 0.925853 0.825292 0.697255
Si Si8 0.430450 0.355390 0.859178
O O1 0.750000 0.036988 0.002139
O O2 0.951470 0.062562 0.850486
O O3 0.991900 0.079788 0.061811
O O4 0.000000 0.000000 0.001642
O O5 0.750000 0.125749 0.086323
O O6 0.978898 0.132231 0.232366
O O7 0.000602 0.160695 0.031274
O O8 0.750000 0.396289 0.037919
O O9 0.999945 0.364656 0.139697
O O10 0.978158 0.440021 0.119618
O O11 0.013524 0.393228 0.936050
O O12 0.750000 0.041162 0.691017
O O13 0.000000 0.000000 0.746319
O O14 0.250000 0.229685 0.446675
O O15 0.054684 0.211943 0.611179
O O16 0.974262 0.262070 0.467298
O O17 0.012536 0.186223 0.396809
O O18 0.750000 0.811883 0.945172
O O19 0.003339 0.816875 0.818232
O O20 0.750000 0.835168 0.719442
O O21 0.250000 0.349103 0.870672
#
# Coordination Sequence:
#
# PCOD8183058 Si02
#       8
#     8   8   8   8   8   8   8   8
#     4   9  19  36  58  85 116 150 187 231 285 340
#     4  10  22  39  57  81 114 152 189 234 287 338
#     4  10  19  35  57  79 106 142 182 226 277 330
#     4  10  19  32  54  84 115 144 179 226 278 337
#     4  10  21  38  56  77 108 145 183 229 285 334
#     4  11  22  35  55  83 109 140 184 229 277 337
#     4   8  18  35  53  73 102 137 172 217 272 326
#     4  10  21  38  58  78 108 150 191 232 280 336
#
# _framework density 18.86824
#
# number of rings (size 3 to 8) (size 9 to 14) (size 15 to 20)
#    0.000    2.250    0.000    3.375    1.750    2.000 
#    0.000    6.875    0.000    1.500    0.000    0.000 
#    0.000    0.000    0.000    0.000    0.000    0.000 
#
# Total GULP energy -396601.917763 kJ/mol
# GULP energy per Si atom -12393.809930 kJ/mol
# Density = 1.882529 g / cm^3
# Si number density = 18.868240 Si / 1000 Ang^3
#
#
#
# Elastic Constant Matrix: (Units=GPa)
#
#
# Indices 1 2 3 4 5 6 
#
# 1 30.5625 14.3143 41.8388 0.0000 0.0000 0.0000
# 2 14.3143 76.6341 55.3324 0.0000 0.0000 0.0000
# 3 41.8388 55.3324 149.1973 0.0000 0.0000 0.0000
# 4 0.0000 0.0000 0.0000 25.9368 0.0000 0.0000
# 5 0.0000 0.0000 0.0000 0.0000 24.7237 0.0000
# 6 0.0000 0.0000 0.0000 0.0000 0.0000 33.7202
#
#
#
# Elastic Compliance Matrix: (Units=1/GPa)
#
#
# Indices 1 2 3 4 5 6 
#
# 1 0.053180 0.001139 -0.015336 0.000000 0.000000 0.000000
# 2 0.001139 0.017846 -0.006938 0.000000 0.000000 0.000000
# 3 -0.015336 -0.006938 0.013576 0.000000 0.000000 0.000000
# 4 0.000000 0.000000 0.000000 0.038555 0.000000 0.000000
# 5 0.000000 0.000000 0.000000 0.000000 0.040447 0.000000
# 6 0.000000 0.000000 0.000000 0.000000 0.000000 0.029656
#
#
# Mechanical properties :
#
#
# Convention : Reuss Voigt Hill
#
# Bulk Modulus (GPa) = 23.62188 53.26279 38.44234
# Shear Modulus (GPa) = 20.02890 26.53670 23.28280
#
# Velocity S-wave (km/s) = 3.26162 3.75430 3.51660
# Velocity P-wave (km/s) = 5.17018 6.86171 6.07511
#
# Compressibility (1/GPa) = 0.04233363
#
# Stress axis : x y z
#
# Youngs Moduli (GPa) = 18.80400 56.03638 73.65885
#
# Poissons Ratio (x) = -0.06385 1.12961
# Poissons Ratio (y) = -0.02143 0.51104
# Poissons Ratio (z) = 0.28837 0.38877
#
# Static dielectric constant tensor:
#      x y z
#    x 3.390420 0.000000 0.000000 
#    y 0.000000 3.447280 0.000000 
#    z 0.000000 0.000000 3.752530 
# 
# 
# High freq. dielectric constant tensor:
#      x y z
#    x 1.728860 0.000000 0.000000 
#    y 0.000000 1.730410 0.000000 
#    z 0.000000 0.000000 1.738670 
# 
# From -- ./inp_files/10596.got.cif
#   From: 2010.03.12/outbox.cif.g09.slc.cpg/sg40_6_cif.got.tgz:10596.got - 2010.04.14 01:38:03.
