data_PCOD8183375
_publ_section_title
;
Structure prediction by ZEFSAII (Michael W. Deem and Ramdas Pophale) SiO2 
 PCOD8183375
Probable space group: A M A 2
;
_chemical_formula_sum "Si O2"
_cell_formula_units_Z 56
_cell_length_a 16.475219
_cell_length_b 13.151830
_cell_length_c 11.268985
_cell_angle_alpha 90.000000
_cell_angle_beta 90.000000
_cell_angle_gamma 90.000000
_cell_volume 2441.755551
_symmetry_space_group_name_H-M "A M A 2"
_symmetry_group_IT_number 40
_symmetry_cell_setting 'orthorhombic'
loop_
_space_group_symop_operation_xyz
x,y,z
-x,-y,z
1/2-x,y,z
1/2+x,-y,z
x,1/2+y,1/2+z
-x,1/2-y,1/2+z
1/2-x,1/2+y,1/2+z
1/2+x,1/2-y,1/2+z
loop_
_atom_site_type_symbol
_atom_site_label
_atom_site_fract_x
_atom_site_fract_y
_atom_site_fract_z
Si Si1 0.340700 0.079052 0.776520
Si Si2 0.157256 0.162071 0.196622
Si Si3 0.655197 0.459519 0.025827
Si Si4 0.900541 0.251945 0.931187
Si Si5 0.457361 0.603702 0.487450
Si Si6 0.591737 0.532256 0.809720
Si Si7 0.337705 0.800959 0.168966
O O1 0.250000 0.059531 0.825522
O O2 0.360772 0.007078 0.662500
O O3 0.402517 0.058880 0.881596
O O4 0.348748 0.188896 0.717632
O O5 0.250000 0.182745 0.155942
O O6 0.132314 0.247278 0.295577
O O7 0.151415 0.051111 0.253733
O O8 0.097140 0.162306 0.084150
O O9 0.750000 0.426962 0.011411
O O10 0.595758 0.368352 0.978689
O O11 0.629198 0.554052 0.941531
O O12 0.985517 0.191687 0.934342
O O13 0.843481 0.193375 0.025847
O O14 0.500000 0.500000 0.539362
O O15 0.500000 0.500000 0.816321
O O16 0.592297 0.632933 0.729834
O O17 0.250000 0.844907 0.205063
#
# Coordination Sequence:
#
# PCOD8183375 Si02
#       7
#     8   8   8   8   8   8   8
#     4   9  21  41  62  83 121 173 219 261 326 398
#     4  11  23  42  64  92 133 175 218 266 327 400
#     4   9  19  38  62  88 123 173 220 264 328 393
#     4  10  21  36  64  92 125 161 216 268 330 384
#     4  12  26  41  63  97 132 170 217 273 338 390
#     4  11  21  32  59  97 133 161 212 275 328 381
#     4  10  19  36  62  90 123 166 216 263 323 393
#
# _framework density 22.93432
#
# number of rings (size 3 to 8) (size 9 to 14) (size 15 to 20)
#    0.000    1.714    0.000    6.857    8.000    0.571 
#    0.000    5.000    0.000    1.714    0.000    0.000 
#    0.000    0.000    0.000    0.000    0.000    0.000 
#
# Total GULP energy -346942.017817 kJ/mol
# GULP energy per Si atom -12390.786351 kJ/mol
# Density = 2.288212 g / cm^3
# Si number density = 22.934320 Si / 1000 Ang^3
#
#
#
# Elastic Constant Matrix: (Units=GPa)
#
#
# Indices 1 2 3 4 5 6 
#
# 1 113.7572 26.6977 55.1826 0.0000 0.0000 0.0000
# 2 26.6977 35.5046 33.8174 0.0000 0.0000 0.0000
# 3 55.1826 33.8174 141.5675 0.0000 0.0000 0.0000
# 4 0.0000 0.0000 0.0000 32.5265 0.0000 0.0000
# 5 0.0000 0.0000 0.0000 0.0000 37.0507 0.0000
# 6 0.0000 0.0000 0.0000 0.0000 0.0000 22.9859
#
#
#
# Elastic Compliance Matrix: (Units=1/GPa)
#
#
# Indices 1 2 3 4 5 6 
#
# 1 0.011684 -0.005758 -0.003179 0.000000 0.000000 0.000000
# 2 -0.005758 0.039299 -0.007143 0.000000 0.000000 0.000000
# 3 -0.003179 -0.007143 0.010009 0.000000 0.000000 0.000000
# 4 0.000000 0.000000 0.000000 0.030744 0.000000 0.000000
# 5 0.000000 0.000000 0.000000 0.000000 0.026990 0.000000
# 6 0.000000 0.000000 0.000000 0.000000 0.000000 0.043505
#
#
# Mechanical properties :
#
#
# Convention : Reuss Voigt Hill
#
# Bulk Modulus (GPa) = 34.68379 58.02497 46.35438
# Shear Modulus (GPa) = 24.50953 30.18805 27.34879
#
# Velocity S-wave (km/s) = 3.27262 3.63200 3.45698
# Velocity P-wave (km/s) = 5.42549 6.55316 6.01581
#
# Compressibility (1/GPa) = 0.02883191
#
# Stress axis : x y z
#
# Youngs Moduli (GPa) = 85.58655 25.44606 99.90725
#
# Poissons Ratio (x) = 0.14652 0.31760
# Poissons Ratio (y) = 0.49280 0.71366
# Poissons Ratio (z) = 0.27208 0.18177
#
# Static dielectric constant tensor:
#      x y z
#    x 4.097460 0.000000 0.000000 
#    y 0.000000 3.877440 0.000000 
#    z 0.000000 0.000000 4.633460 
# 
# 
# High freq. dielectric constant tensor:
#      x y z
#    x 1.907310 0.000000 0.000000 
#    y 0.000000 1.866630 0.000000 
#    z 0.000000 0.000000 1.921340 
# 
# From -- ./inp_files/12240.got.cif
#   From: 2010.03.12/outbox.cif.g09.slc.cpg/sg40_7_cif.got.tgz:12240.got - 2010.04.14 01:38:03.
