data_PCOD8183057
_publ_section_title
;
Structure prediction by ZEFSAII (Michael W. Deem and Ramdas Pophale) SiO2 
 PCOD8183057
Probable space group: A M A 2
;
_chemical_formula_sum "Si O2"
_cell_formula_units_Z 64
_cell_length_a 8.586075
_cell_length_b 33.318870
_cell_length_c 11.615866
_cell_angle_alpha 90.000000
_cell_angle_beta 90.000000
_cell_angle_gamma 90.000000
_cell_volume 3323.047393
_symmetry_space_group_name_H-M "A M A 2"
_symmetry_group_IT_number 40
_symmetry_cell_setting 'orthorhombic'
loop_
_space_group_symop_operation_xyz
x,y,z
-x,-y,z
1/2-x,y,z
1/2+x,-y,z
x,1/2+y,1/2+z
-x,1/2-y,1/2+z
1/2-x,1/2+y,1/2+z
1/2+x,1/2-y,1/2+z
loop_
_atom_site_type_symbol
_atom_site_label
_atom_site_fract_x
_atom_site_fract_y
_atom_site_fract_z
Si Si1 0.063980 0.043241 0.608890
Si Si2 0.932793 0.379551 0.471450
Si Si3 0.576923 0.674297 0.058462
Si Si4 0.070721 0.811352 0.818038
Si Si5 0.935705 0.847402 0.218881
Si Si6 0.072355 0.606529 0.934535
Si Si7 0.574601 0.727501 0.842638
Si Si8 0.565542 0.544156 0.354408
O O1 0.250000 0.044435 0.617685
O O2 0.997682 0.068531 0.500111
O O3 0.996576 0.058958 0.730210
O O4 0.000000 0.000000 0.582377
O O5 0.750000 0.387727 0.474197
O O6 0.991761 0.362310 0.594203
O O7 0.970213 0.346321 0.376127
O O8 0.015438 0.422237 0.446986
O O9 0.750000 0.654412 0.056315
O O10 0.534338 0.689820 0.183487
O O11 0.445108 0.642881 0.023635
O O12 0.572757 0.711099 0.971501
O O13 0.250000 0.820081 0.846968
O O14 0.025515 0.767358 0.859314
O O15 0.750000 0.843965 0.226848
O O16 0.001959 0.880274 0.311813
O O17 0.004097 0.803671 0.249410
O O18 0.250000 0.596482 0.911652
O O19 0.750000 0.737589 0.802562
O O20 0.500000 0.500000 0.387081
O O21 0.750000 0.540805 0.350406
#
# Coordination Sequence:
#
# PCOD8183057 Si02
#       8
#     8   8   8   8   8   8   8   8
#     4  10  19  32  54  84 115 144 179 225 278 337
#     4  11  23  39  59  84 115 152 194 239 287 340
#     4   9  20  36  53  74 103 137 174 220 273 327
#     4  11  23  37  55  81 112 146 186 232 283 337
#     4   9  20  39  59  78 109 151 189 232 284 338
#     4   9  18  34  56  79 104 138 180 222 269 328
#     4  10  21  37  56  80 108 142 185 231 283 338
#     4  11  22  38  60  86 118 152 190 235 288 343
#
# _framework density 19.259429999999998
#
# number of rings (size 3 to 8) (size 9 to 14) (size 15 to 20)
#    0.000    2.000    0.000    4.125    1.750    5.500 
#    0.000    0.625    0.000    1.500    0.000    0.000 
#    0.000    0.000    0.000    0.000    0.000    0.000 
#
# Total GULP energy -396666.090932 kJ/mol
# GULP energy per Si atom -12395.815342 kJ/mol
# Density = 1.921559 g / cm^3
# Si number density = 19.259430 Si / 1000 Ang^3
#
#
#
# Elastic Constant Matrix: (Units=GPa)
#
#
# Indices 1 2 3 4 5 6 
#
# 1 63.9025 21.9803 33.2830 0.0000 0.0000 0.0000
# 2 21.9803 101.9282 54.7812 0.0000 0.0000 0.0000
# 3 33.2830 54.7812 97.3734 0.0000 0.0000 0.0000
# 4 0.0000 0.0000 0.0000 28.3163 0.0000 0.0000
# 5 0.0000 0.0000 0.0000 0.0000 23.3915 0.0000
# 6 0.0000 0.0000 0.0000 0.0000 0.0000 33.2641
#
#
#
# Elastic Compliance Matrix: (Units=1/GPa)
#
#
# Indices 1 2 3 4 5 6 
#
# 1 0.019092 -0.000874 -0.006034 0.000000 0.000000 0.000000
# 2 -0.000874 0.014103 -0.007635 0.000000 0.000000 0.000000
# 3 -0.006034 -0.007635 0.016628 0.000000 0.000000 0.000000
# 4 0.000000 0.000000 0.000000 0.035315 0.000000 0.000000
# 5 0.000000 0.000000 0.000000 0.000000 0.042751 0.000000
# 6 0.000000 0.000000 0.000000 0.000000 0.000000 0.030062
#
#
# Mechanical properties :
#
#
# Convention : Reuss Voigt Hill
#
# Bulk Modulus (GPa) = 48.22569 53.69924 50.96246
# Shear Modulus (GPa) = 25.77976 27.20503 26.49240
#
# Velocity S-wave (km/s) = 3.66259 3.76248 3.71287
# Velocity P-wave (km/s) = 6.55595 6.84234 6.70067
#
# Compressibility (1/GPa) = 0.02073584
#
# Stress axis : x y z
#
# Youngs Moduli (GPa) = 52.37705 70.90722 60.14018
#
# Poissons Ratio (x) = 0.06198 0.36289
# Poissons Ratio (y) = 0.04578 0.45919
# Poissons Ratio (z) = 0.31605 0.54140
#
# Static dielectric constant tensor:
#      x y z
#    x 3.591510 0.000000 0.000000 
#    y 0.000000 3.548920 0.000000 
#    z 0.000000 0.000000 3.704050 
# 
# 
# High freq. dielectric constant tensor:
#      x y z
#    x 1.750870 0.000000 0.000000 
#    y 0.000000 1.749130 0.000000 
#    z 0.000000 0.000000 1.749070 
# 
# From -- ./inp_files/10568.got.cif
#   From: 2010.03.12/outbox.cif.g09.slc.cpg/sg40_6_cif.got.tgz:10568.got - 2010.04.14 01:38:03.
