data_PCOD8183519
_publ_section_title
;
Structure prediction by ZEFSAII (Michael W. Deem and Ramdas Pophale) SiO2 
 PCOD8183519
Probable space group: A M A 2
;
_chemical_formula_sum "Si O2"
_cell_formula_units_Z 64
_cell_length_a 8.695238
_cell_length_b 19.561512
_cell_length_c 20.524586
_cell_angle_alpha 90.000000
_cell_angle_beta 90.000000
_cell_angle_gamma 90.000000
_cell_volume 3491.067933
_symmetry_space_group_name_H-M "A M A 2"
_symmetry_group_IT_number 40
_symmetry_cell_setting 'orthorhombic'
loop_
_space_group_symop_operation_xyz
x,y,z
-x,-y,z
1/2-x,y,z
1/2+x,-y,z
x,1/2+y,1/2+z
-x,1/2-y,1/2+z
1/2-x,1/2+y,1/2+z
1/2+x,1/2-y,1/2+z
loop_
_atom_site_type_symbol
_atom_site_label
_atom_site_fract_x
_atom_site_fract_y
_atom_site_fract_z
Si Si1 0.427272 0.294185 0.474430
Si Si2 0.569089 0.207132 0.586715
Si Si3 0.070152 0.569515 0.278102
Si Si4 0.067815 0.429470 0.663985
Si Si5 0.574439 0.701801 0.327791
Si Si6 0.433234 0.071601 0.022031
Si Si7 0.431294 0.203577 0.210514
Si Si8 0.568539 0.929482 0.630214
O O1 0.250000 0.297019 0.496730
O O2 0.520283 0.243325 0.520271
O O3 0.443351 0.267700 0.400279
O O4 0.500370 0.369460 0.476337
O O5 0.750000 0.197282 0.587903
O O6 0.514804 0.251702 0.648602
O O7 0.491111 0.133147 0.587216
O O8 0.250000 0.560791 0.279350
O O9 0.010080 0.581258 0.204345
O O10 0.000000 0.500000 0.307486
O O11 0.023579 0.633057 0.322379
O O12 0.250000 0.435794 0.655079
O O13 0.000000 0.500000 0.693113
O O14 0.988056 0.413836 0.595205
O O15 0.023512 0.367678 0.711760
O O16 0.750000 0.682324 0.312122
O O17 0.517115 0.758114 0.276277
O O18 0.250000 0.070861 0.019566
O O19 0.500000 0.000000 0.996151
O O20 0.250000 0.188724 0.208274
O O21 0.750000 0.932897 0.625551
O O22 0.500000 0.000000 0.601934
#
# Coordination Sequence:
#
# PCOD8183519 Si02
#       8
#     8   8   8   8   8   8   8   8
#     4  11  23  38  56  80 111 148 188 228 276 329
#     4  11  21  35  59  84 112 146 183 230 279 328
#     4  10  20  33  53  79 111 148 186 227 269 324
#     4  11  21  34  56  84 114 144 181 227 276 328
#     4  10  22  39  57  78 110 149 186 229 274 325
#     4  11  21  35  54  78 110 148 187 228 272 324
#     4  10  20  36  58  83 111 144 185 227 276 326
#     4  10  20  34  55  84 115 145 184 230 278 328
#
# _framework density 18.332498000000001
#
# number of rings (size 3 to 8) (size 9 to 14) (size 15 to 20)
#    0.000    1.500    2.500    4.500    0.000    3.500 
#    0.000    0.000    0.000    0.750    0.000    3.500 
#    0.000    0.000    0.000    0.000    0.000    0.000 
#
# Total GULP energy -396946.255547 kJ/mol
# GULP energy per Si atom -12404.570486 kJ/mol
# Density = 1.829077 g / cm^3
# Si number density = 18.332498 Si / 1000 Ang^3
#
#
#
# Elastic Constant Matrix: (Units=GPa)
#
#
# Indices 1 2 3 4 5 6 
#
# 1 67.7512 26.1963 15.6014 0.0000 0.0000 0.0000
# 2 26.1963 121.4765 43.0012 0.0000 0.0000 0.0000
# 3 15.6014 43.0012 78.0791 0.0000 0.0000 0.0000
# 4 0.0000 0.0000 0.0000 37.9544 0.0000 0.0000
# 5 0.0000 0.0000 0.0000 0.0000 21.4192 0.0000
# 6 0.0000 0.0000 0.0000 0.0000 0.0000 36.8067
#
#
#
# Elastic Compliance Matrix: (Units=1/GPa)
#
#
# Indices 1 2 3 4 5 6 
#
# 1 0.016269 -0.002929 -0.001638 0.000000 0.000000 0.000000
# 2 -0.002929 0.010753 -0.005337 0.000000 0.000000 0.000000
# 3 -0.001638 -0.005337 0.016074 0.000000 0.000000 0.000000
# 4 0.000000 0.000000 0.000000 0.026347 0.000000 0.000000
# 5 0.000000 0.000000 0.000000 0.000000 0.046687 0.000000
# 6 0.000000 0.000000 0.000000 0.000000 0.000000 0.027169
#
#
# Mechanical properties :
#
#
# Convention : Reuss Voigt Hill
#
# Bulk Modulus (GPa) = 42.93799 48.54495 45.74147
# Shear Modulus (GPa) = 29.26208 31.40326 30.33267
#
# Velocity S-wave (km/s) = 3.99956 4.14331 4.07207
# Velocity P-wave (km/s) = 6.69338 7.03044 6.86398
#
# Compressibility (1/GPa) = 0.02328940
#
# Stress axis : x y z
#
# Youngs Moduli (GPa) = 61.46494 92.99930 62.21239
#
# Poissons Ratio (x) = 0.27237 0.10190
# Poissons Ratio (y) = 0.18001 0.33201
# Poissons Ratio (z) = 0.10068 0.49632
#
# Static dielectric constant tensor:
#      x y z
#    x 3.394840 0.000000 0.000000 
#    y 0.000000 3.468780 0.000000 
#    z 0.000000 0.000000 3.183330 
# 
# 
# High freq. dielectric constant tensor:
#      x y z
#    x 1.722760 0.000000 0.000000 
#    y 0.000000 1.714840 0.000000 
#    z 0.000000 0.000000 1.681430 
# 
# From -- ./inp_files/19638.got.cif
#   From: 2010.03.12/outbox.cif.g09.slc.cpg/sg40_10_cif.got.tgz:19638.got - 2010.04.14 01:38:03.
