data_PCOD8183317
_publ_section_title
;
Structure prediction by ZEFSAII (Michael W. Deem and Ramdas Pophale) SiO2 
 PCOD8183317
Probable space group: A M A 2
;
_chemical_formula_sum "Si O2"
_cell_formula_units_Z 64
_cell_length_a 9.182623
_cell_length_b 30.743090
_cell_length_c 11.933502
_cell_angle_alpha 90.000000
_cell_angle_beta 90.000000
_cell_angle_gamma 90.000000
_cell_volume 3368.853932
_symmetry_space_group_name_H-M "A M A 2"
_symmetry_group_IT_number 40
_symmetry_cell_setting 'orthorhombic'
loop_
_space_group_symop_operation_xyz
x,y,z
-x,-y,z
1/2-x,y,z
1/2+x,-y,z
x,1/2+y,1/2+z
-x,1/2-y,1/2+z
1/2-x,1/2+y,1/2+z
1/2+x,1/2-y,1/2+z
loop_
_atom_site_type_symbol
_atom_site_label
_atom_site_fract_x
_atom_site_fract_y
_atom_site_fract_z
Si Si1 0.916868 0.330419 0.738330
Si Si2 0.583358 0.432328 0.735471
Si Si3 0.422232 0.295714 0.528649
Si Si4 0.078450 0.958223 0.019826
Si Si5 0.922467 0.375744 0.138746
Si Si6 0.422839 0.699283 0.977455
Si Si7 0.578711 0.956484 0.485688
Si Si8 0.078741 0.874754 0.874363
O O1 0.750000 0.315244 0.727132
O O2 0.932546 0.381234 0.720059
O O3 0.982094 0.318152 0.859305
O O4 0.011129 0.305124 0.648593
O O5 0.750000 0.446867 0.713903
O O6 0.477414 0.455052 0.647248
O O7 0.530934 0.445777 0.858975
O O8 0.250000 0.297156 0.541516
O O9 0.479470 0.248294 0.493017
O O10 0.473661 0.330924 0.436838
O O11 0.250000 0.965532 0.020417
O O12 0.033783 0.915606 0.950736
O O13 0.000000 0.000000 0.963372
O O14 0.750000 0.374811 0.155230
O O15 0.996592 0.378699 0.258312
O O16 0.979341 0.332109 0.076672
O O17 0.970762 0.417131 0.065307
O O18 0.250000 0.697035 0.976316
O O19 0.750000 0.963595 0.493341
O O20 0.500000 0.000000 0.528018
O O21 0.250000 0.873971 0.851328
#
# Coordination Sequence:
#
# PCOD8183317 Si02
#       8
#     8   8   8   8   8   8   8   8
#     4  10  19  35  61  87 113 148 189 229 275 332
#     4  10  19  35  59  86 116 146 182 228 279 334
#     4  10  21  38  58  83 117 151 184 228 284 333
#     4  11  23  39  58  82 114 148 187 230 280 334
#     4  10  21  39  60  81 109 148 191 230 271 330
#     4   9  19  37  60  84 114 151 185 227 282 333
#     4  10  21  37  57  83 113 144 182 228 279 331
#     4  10  23  40  56  80 115 149 182 230 284 329
#
# _framework density 18.997558000000001
#
# number of rings (size 3 to 8) (size 9 to 14) (size 15 to 20)
#    0.000    2.000    2.500    0.750    1.750    4.000 
#    0.000    3.750    0.000    0.000    0.000    0.000 
#    0.000    0.000    0.000    0.000    0.000    0.000 
#
# Total GULP energy -396874.201831 kJ/mol
# GULP energy per Si atom -12402.318807 kJ/mol
# Density = 1.895432 g / cm^3
# Si number density = 18.997558 Si / 1000 Ang^3
#
#
#
# Elastic Constant Matrix: (Units=GPa)
#
#
# Indices 1 2 3 4 5 6 
#
# 1 38.8179 42.7835 41.2202 0.0000 0.0000 0.0000
# 2 42.7835 148.2123 64.8634 0.0000 0.0000 0.0000
# 3 41.2202 64.8634 136.1523 0.0000 0.0000 0.0000
# 4 0.0000 0.0000 0.0000 21.1375 0.0000 0.0000
# 5 0.0000 0.0000 0.0000 0.0000 32.1127 0.0000
# 6 0.0000 0.0000 0.0000 0.0000 0.0000 25.2114
#
#
#
# Elastic Compliance Matrix: (Units=1/GPa)
#
#
# Indices 1 2 3 4 5 6 
#
# 1 0.045931 -0.009062 -0.009588 0.000000 0.000000 0.000000
# 2 -0.009062 0.010312 -0.002169 0.000000 0.000000 0.000000
# 3 -0.009588 -0.002169 0.011281 0.000000 0.000000 0.000000
# 4 0.000000 0.000000 0.000000 0.047309 0.000000 0.000000
# 5 0.000000 0.000000 0.000000 0.000000 0.031140 0.000000
# 6 0.000000 0.000000 0.000000 0.000000 0.000000 0.039665
#
#
# Mechanical properties :
#
#
# Convention : Reuss Voigt Hill
#
# Bulk Modulus (GPa) = 38.63282 68.99073 53.81178
# Shear Modulus (GPa) = 21.19477 27.31335 24.25406
#
# Velocity S-wave (km/s) = 3.34377 3.79585 3.57696
# Velocity P-wave (km/s) = 5.94033 7.45693 6.74141
#
# Compressibility (1/GPa) = 0.02588473
#
# Stress axis : x y z
#
# Youngs Moduli (GPa) = 21.77162 96.97055 88.64458
#
# Poissons Ratio (x) = 0.87879 0.84995
# Poissons Ratio (y) = 0.19730 0.19229
# Poissons Ratio (z) = 0.20875 0.21035
#
# Static dielectric constant tensor:
#      x y z
#    x 3.253530 0.000000 0.000000 
#    y 0.000000 3.832000 0.000000 
#    z 0.000000 0.000000 3.468210 
# 
# 
# High freq. dielectric constant tensor:
#      x y z
#    x 1.715750 0.000000 0.000000 
#    y 0.000000 1.756880 0.000000 
#    z 0.000000 0.000000 1.741890 
# 
# From -- ./inp_files/10557.got.cif
#   From: 2010.03.12/outbox.cif.g09.slc.cpg/sg40_6_cif.got.tgz:10557.got - 2010.04.14 01:38:03.
