data_PCOD8183765
_publ_section_title
;
Structure prediction by ZEFSAII (Michael W. Deem and Ramdas Pophale) SiO2 
 PCOD8183765
Probable space group: A M A 2
;
_chemical_formula_sum "Si O2"
_cell_formula_units_Z 64
_cell_length_a 8.838875
_cell_length_b 24.673854
_cell_length_c 15.093493
_cell_angle_alpha 90.000000
_cell_angle_beta 90.000000
_cell_angle_gamma 90.000000
_cell_volume 3291.726474
_symmetry_space_group_name_H-M "A M A 2"
_symmetry_group_IT_number 40
_symmetry_cell_setting 'orthorhombic'
loop_
_space_group_symop_operation_xyz
x,y,z
-x,-y,z
1/2-x,y,z
1/2+x,-y,z
x,1/2+y,1/2+z
-x,1/2-y,1/2+z
1/2-x,1/2+y,1/2+z
1/2+x,1/2-y,1/2+z
loop_
_atom_site_type_symbol
_atom_site_label
_atom_site_fract_x
_atom_site_fract_y
_atom_site_fract_z
Si Si1 0.423469 0.138953 0.134020
Si Si2 0.076223 0.643231 0.250943
Si Si3 0.427783 0.719390 0.909952
Si Si4 0.925574 0.233698 0.223784
Si Si5 0.428315 0.387470 0.951383
Si Si6 0.927979 0.558314 0.767624
Si Si7 0.926231 0.056330 0.630338
Si Si8 0.076335 0.173072 0.945414
O O1 0.250000 0.131277 0.162930
O O2 0.476263 0.200318 0.153548
O O3 0.523976 0.095567 0.185347
O O4 0.443411 0.131879 0.027840
O O5 0.250000 0.626342 0.237612
O O6 0.045697 0.702651 0.210059
O O7 0.031350 0.642423 0.354905
O O8 0.970438 0.601405 0.201421
O O9 0.250000 0.717828 0.890850
O O10 0.522752 0.714873 0.820253
O O11 0.478409 0.667751 0.967757
O O12 0.470123 0.774639 0.960646
O O13 0.750000 0.218662 0.212855
O O14 0.250000 0.375038 0.951842
O O15 0.481647 0.415377 0.860009
O O16 0.476102 0.426757 0.031504
O O17 0.750000 0.551380 0.766014
O O18 0.000000 0.500000 0.755362
O O19 0.750000 0.047858 0.635521
O O20 0.000000 0.000000 0.657156
O O21 0.250000 0.193415 0.937403
#
# Coordination Sequence:
#
# PCOD8183765 Si02
#       8
#     8   8   8   8   8   8   8   8
#     4  11  22  37  60  90 120 156 203 248 295 356
#     4   9  20  40  62  84 116 156 196 243 301 354
#     4  11  21  33  56  88 120 157 201 240 285 353
#     4  10  20  36  57  84 122 160 193 238 297 351
#     4  10  22  39  58  84 120 160 194 239 301 355
#     4  11  23  40  62  85 119 161 200 246 297 356
#     4  11  24  41  62  87 116 153 200 250 299 354
#     4   9  21  40  60  84 122 161 194 246 304 353
#
# _framework density 19.442685000000001
#
# number of rings (size 3 to 8) (size 9 to 14) (size 15 to 20)
#    0.000    1.750    1.250    3.750    1.750    5.000 
#    0.000    0.625    0.000    0.000    0.000    0.000 
#    0.000    0.000    0.000    0.000    0.000    0.000 
#
# Total GULP energy -396901.531665 kJ/mol
# GULP energy per Si atom -12403.172865 kJ/mol
# Density = 1.939843 g / cm^3
# Si number density = 19.442685 Si / 1000 Ang^3
#
#
#
# Elastic Constant Matrix: (Units=GPa)
#
#
# Indices 1 2 3 4 5 6 
#
# 1 58.6703 41.5147 29.8106 0.0000 0.0000 0.0000
# 2 41.5147 111.8589 53.4362 0.0000 0.0000 0.0000
# 3 29.8106 53.4362 99.7516 0.0000 0.0000 0.0000
# 4 0.0000 0.0000 0.0000 23.9530 0.0000 0.0000
# 5 0.0000 0.0000 0.0000 0.0000 26.0597 0.0000
# 6 0.0000 0.0000 0.0000 0.0000 0.0000 35.6166
#
#
#
# Elastic Compliance Matrix: (Units=1/GPa)
#
#
# Indices 1 2 3 4 5 6 
#
# 1 0.023854 -0.007321 -0.003207 0.000000 0.000000 0.000000
# 2 -0.007321 0.014261 -0.005452 0.000000 0.000000 0.000000
# 3 -0.003207 -0.005452 0.013904 0.000000 0.000000 0.000000
# 4 0.000000 0.000000 0.000000 0.041748 0.000000 0.000000
# 5 0.000000 0.000000 0.000000 0.000000 0.038373 0.000000
# 6 0.000000 0.000000 0.000000 0.000000 0.000000 0.028077
#
#
# Mechanical properties :
#
#
# Convention : Reuss Voigt Hill
#
# Bulk Modulus (GPa) = 49.85135 57.75600 53.80367
# Shear Modulus (GPa) = 25.14278 26.82714 25.98496
#
# Velocity S-wave (km/s) = 3.59997 3.71860 3.65977
# Velocity P-wave (km/s) = 6.55558 6.94317 6.75215
#
# Compressibility (1/GPa) = 0.02005964
#
# Stress axis : x y z
#
# Youngs Moduli (GPa) = 41.92128 70.11959 71.92297
#
# Poissons Ratio (x) = 0.51336 0.23065
# Poissons Ratio (y) = 0.30691 0.39211
# Poissons Ratio (z) = 0.13444 0.38228
#
# Static dielectric constant tensor:
#      x y z
#    x 3.522040 0.000000 0.000000 
#    y 0.000000 3.471270 0.000000 
#    z 0.000000 0.000000 3.595800 
# 
# 
# High freq. dielectric constant tensor:
#      x y z
#    x 1.761230 0.000000 0.000000 
#    y 0.000000 1.746960 0.000000 
#    z 0.000000 0.000000 1.757960 
# 
# From -- ./inp_files/15700.got.cif
#   From: 2010.03.12/outbox.cif.g09.slc.cpg/sg40_8_cif.got.tgz:15700.got - 2010.04.14 01:38:03.
