data_PCOD8183390
_publ_section_title
;
Structure prediction by ZEFSAII (Michael W. Deem and Ramdas Pophale) SiO2 
 PCOD8183390
Probable space group: A M A 2
;
_chemical_formula_sum "Si O2"
_cell_formula_units_Z 64
_cell_length_a 8.792312
_cell_length_b 27.875211
_cell_length_c 12.684600
_cell_angle_alpha 90.000000
_cell_angle_beta 90.000000
_cell_angle_gamma 90.000000
_cell_volume 3108.837564
_symmetry_space_group_name_H-M "A M A 2"
_symmetry_group_IT_number 40
_symmetry_cell_setting 'orthorhombic'
loop_
_space_group_symop_operation_xyz
x,y,z
-x,-y,z
1/2-x,y,z
1/2+x,-y,z
x,1/2+y,1/2+z
-x,1/2-y,1/2+z
1/2-x,1/2+y,1/2+z
1/2+x,1/2-y,1/2+z
loop_
_atom_site_type_symbol
_atom_site_label
_atom_site_fract_x
_atom_site_fract_y
_atom_site_fract_z
Si Si1 0.930496 0.297246 0.095270
Si Si2 0.582599 0.074112 0.878033
Si Si3 0.931349 0.447496 0.801493
Si Si4 0.419826 0.317185 0.313055
Si Si5 0.070379 0.380392 0.978412
Si Si6 0.571408 0.546781 0.155989
Si Si7 0.069498 0.702717 0.522013
Si Si8 0.071553 0.596237 0.581641
O O1 0.750000 0.299067 0.087356
O O2 0.985584 0.318331 0.205965
O O3 0.001249 0.327433 0.997012
O O4 0.990052 0.242894 0.092824
O O5 0.750000 0.052233 0.897481
O O6 0.597821 0.129773 0.855257
O O7 0.503379 0.051158 0.774525
O O8 0.484962 0.064559 0.982667
O O9 0.750000 0.450910 0.808663
O O10 0.989532 0.428346 0.688170
O O11 0.000000 0.500000 0.824709
O O12 0.990470 0.408090 0.883447
O O13 0.250000 0.295171 0.295647
O O14 0.511803 0.288457 0.402591
O O15 0.250000 0.377252 0.956810
O O16 0.029642 0.407681 0.086331
O O17 0.500000 0.500000 0.101001
O O18 0.750000 0.540877 0.162671
O O19 0.250000 0.708370 0.524808
O O20 0.016940 0.651479 0.570626
O O21 0.250000 0.594792 0.580497
#
# Coordination Sequence:
#
# PCOD8183390 Si02
#       8
#     8   8   8   8   8   8   8   8
#     4  12  24  38  60  91 124 164 210 256 315 386
#     4   9  18  35  58  83 114 151 192 240 300 363
#     4  11  24  43  64  91 126 168 217 267 323 385
#     4  10  19  37  60  83 117 156 195 250 309 367
#     4  11  23  42  63  86 120 161 209 263 318 373
#     4  10  21  36  55  84 117 150 189 240 300 359
#     4  10  21  39  61  89 121 161 209 262 321 378
#     4   9  21  40  62  87 120 158 204 257 308 368
#
# _framework density 20.586472000000001
#
# number of rings (size 3 to 8) (size 9 to 14) (size 15 to 20)
#    0.000    1.750    1.250    3.000    0.000    6.000 
#    0.000    6.250    0.000    0.000    0.000    0.000 
#    0.000    0.000    0.000    0.000    0.000    0.000 
#
# Total GULP energy -396734.638969 kJ/mol
# GULP energy per Si atom -12397.957468 kJ/mol
# Density = 2.053962 g / cm^3
# Si number density = 20.586472 Si / 1000 Ang^3
#
#
#
# Elastic Constant Matrix: (Units=GPa)
#
#
# Indices 1 2 3 4 5 6 
#
# 1 73.7848 24.8416 31.4404 0.0000 0.0000 0.0000
# 2 24.8416 52.8830 15.6904 0.0000 0.0000 0.0000
# 3 31.4404 15.6904 100.1013 0.0000 0.0000 0.0000
# 4 0.0000 0.0000 0.0000 28.2435 0.0000 0.0000
# 5 0.0000 0.0000 0.0000 0.0000 32.9952 0.0000
# 6 0.0000 0.0000 0.0000 0.0000 0.0000 30.2232
#
#
#
# Elastic Compliance Matrix: (Units=1/GPa)
#
#
# Indices 1 2 3 4 5 6 
#
# 1 0.017843 -0.007046 -0.004500 0.000000 0.000000 0.000000
# 2 -0.007046 0.022615 -0.001332 0.000000 0.000000 0.000000
# 3 -0.004500 -0.001332 0.011612 0.000000 0.000000 0.000000
# 4 0.000000 0.000000 0.000000 0.035406 0.000000 0.000000
# 5 0.000000 0.000000 0.000000 0.000000 0.030307 0.000000
# 6 0.000000 0.000000 0.000000 0.000000 0.000000 0.033087
#
#
# Mechanical properties :
#
#
# Convention : Reuss Voigt Hill
#
# Bulk Modulus (GPa) = 38.00262 41.19044 39.59653
# Shear Modulus (GPa) = 26.96916 28.61215 27.79066
#
# Velocity S-wave (km/s) = 3.62338 3.73212 3.67815
# Velocity P-wave (km/s) = 6.00044 6.21478 6.10855
#
# Compressibility (1/GPa) = 0.02631398
#
# Stress axis : x y z
#
# Youngs Moduli (GPa) = 56.04557 44.21886 86.11888
#
# Poissons Ratio (x) = 0.31159 0.38750
# Poissons Ratio (y) = 0.39492 0.11467
# Poissons Ratio (z) = 0.25218 0.05888
#
# Static dielectric constant tensor:
#      x y z
#    x 3.790620 0.000000 0.000000 
#    y 0.000000 3.767490 0.000000 
#    z 0.000000 0.000000 4.030880 
# 
# 
# High freq. dielectric constant tensor:
#      x y z
#    x 1.805530 0.000000 0.000000 
#    y 0.000000 1.802160 0.000000 
#    z 0.000000 0.000000 1.809120 
# 
# From -- ./inp_files/10601.got.cif
#   From: 2010.03.12/outbox.cif.g09.slc.cpg/sg40_6_cif.got.tgz:10601.got - 2010.04.14 01:38:03.
