data_PCOD8183127
_publ_section_title
;
Structure prediction by ZEFSAII (Michael W. Deem and Ramdas Pophale) SiO2 
 PCOD8183127
Probable space group: A M A 2
;
_chemical_formula_sum "Si O2"
_cell_formula_units_Z 44
_cell_length_a 9.491954
_cell_length_b 18.970953
_cell_length_c 13.007913
_cell_angle_alpha 90.000000
_cell_angle_beta 90.000000
_cell_angle_gamma 90.000000
_cell_volume 2342.353277
_symmetry_space_group_name_H-M "A M A 2"
_symmetry_group_IT_number 40
_symmetry_cell_setting 'orthorhombic'
loop_
_space_group_symop_operation_xyz
x,y,z
-x,-y,z
1/2-x,y,z
1/2+x,-y,z
x,1/2+y,1/2+z
-x,1/2-y,1/2+z
1/2-x,1/2+y,1/2+z
1/2+x,1/2-y,1/2+z
loop_
_atom_site_type_symbol
_atom_site_label
_atom_site_fract_x
_atom_site_fract_y
_atom_site_fract_z
Si Si1 0.500000 0.000000 0.672660
Si Si2 0.907398 0.668989 0.473177
Si Si3 0.916291 0.778582 0.149561
Si Si4 0.907598 0.938874 0.869801
Si Si5 0.095582 0.181455 0.375492
Si Si6 0.090818 0.867749 0.547723
O O1 0.393210 0.042707 0.748042
O O2 0.579147 0.057189 0.603497
O O3 0.750000 0.635030 0.484601
O O4 0.888937 0.748413 0.440437
O O5 0.994958 0.667431 0.579180
O O6 0.001165 0.631344 0.385955
O O7 0.750000 0.791992 0.134903
O O8 0.966448 0.798156 0.264293
O O9 0.953422 0.696820 0.123398
O O10 0.750000 0.932098 0.916005
O O11 0.000000 0.000000 0.926794
O O12 0.250000 0.146054 0.363948
O O13 0.997471 0.129365 0.441503
O O14 0.250000 0.855889 0.512792
#
# Coordination Sequence:
#
# PCOD8183127 Si02
#       6
#     4   8   8   8   8   8
#     4  10  22  34  56  78 110 142 178 218 270 322
#     4  10  19  33  54  80 112 141 177 224 270 317
#     4   9  18  34  56  79 108 143 179 220 271 320
#     4  10  21  34  53  79 108 141 176 215 266 319
#     4   9  19  34  53  79 109 143 180 224 269 316
#     4  10  20  35  55  80 109 143 179 221 270 323
#
# _framework density 18.784528000000002
#
# number of rings (size 3 to 8) (size 9 to 14) (size 15 to 20)
#    0.545    1.818    0.000    2.727    0.000    4.364 
#    0.000    3.636    2.000    0.000    0.000    0.000 
#    0.000    0.000    0.000    0.000    0.000    0.000 
#
# Total GULP energy -272566.722113 kJ/mol
# GULP energy per Si atom -12389.396460 kJ/mol
# Density = 1.874177 g / cm^3
# Si number density = 18.784528 Si / 1000 Ang^3
#
#
#
# Elastic Constant Matrix: (Units=GPa)
#
#
# Indices 1 2 3 4 5 6 
#
# 1 113.9710 35.6648 48.4541 0.0000 0.0000 0.0000
# 2 35.6648 60.0730 33.5747 0.0000 0.0000 0.0000
# 3 48.4541 33.5747 129.0098 0.0000 0.0000 0.0000
# 4 0.0000 0.0000 0.0000 33.0545 0.0000 0.0000
# 5 0.0000 0.0000 0.0000 0.0000 27.4371 0.0000
# 6 0.0000 0.0000 0.0000 0.0000 0.0000 25.6217
#
#
#
# Elastic Compliance Matrix: (Units=1/GPa)
#
#
# Indices 1 2 3 4 5 6 
#
# 1 0.011707 -0.005258 -0.003029 0.000000 0.000000 0.000000
# 2 -0.005258 0.021841 -0.003709 0.000000 0.000000 0.000000
# 3 -0.003029 -0.003709 0.009854 0.000000 0.000000 0.000000
# 4 0.000000 0.000000 0.000000 0.030253 0.000000 0.000000
# 5 0.000000 0.000000 0.000000 0.000000 0.036447 0.000000
# 6 0.000000 0.000000 0.000000 0.000000 0.000000 0.039029
#
#
# Mechanical properties :
#
#
# Convention : Reuss Voigt Hill
#
# Bulk Modulus (GPa) = 51.51765 59.82679 55.67222
# Shear Modulus (GPa) = 27.84062 29.58000 28.71031
#
# Velocity S-wave (km/s) = 3.85399 3.97255 3.91372
# Velocity P-wave (km/s) = 6.87673 7.27734 7.07987
#
# Compressibility (1/GPa) = 0.01941082
#
# Stress axis : x y z
#
# Youngs Moduli (GPa) = 85.41850 45.78535 101.47896
#
# Poissons Ratio (x) = 0.24072 0.30735
# Poissons Ratio (y) = 0.44910 0.37643
# Poissons Ratio (z) = 0.25871 0.16984
#
# Static dielectric constant tensor:
#      x y z
#    x 3.677090 0.000000 0.000000 
#    y 0.000000 3.207340 0.000000 
#    z 0.000000 0.000000 3.346430 
# 
# 
# High freq. dielectric constant tensor:
#      x y z
#    x 1.734600 0.000000 0.000000 
#    y 0.000000 1.701940 0.000000 
#    z 0.000000 0.000000 1.713700 
# 
# From -- ./inp_files/14985.got.cif
#   From: 2010.03.12/outbox.cif.g09.slc.cpg/sg40_8_cif.got.tgz:14985.got - 2010.04.14 01:38:03.
