data_PCOD8183496
_publ_section_title
;
Structure prediction by ZEFSAII (Michael W. Deem and Ramdas Pophale) SiO2 
 PCOD8183496
Probable space group: A M A 2
;
_chemical_formula_sum "Si O2"
_cell_formula_units_Z 64
_cell_length_a 8.769009
_cell_length_b 20.094643
_cell_length_c 19.735313
_cell_angle_alpha 90.000000
_cell_angle_beta 90.000000
_cell_angle_gamma 90.000000
_cell_volume 3477.561582
_symmetry_space_group_name_H-M "A M A 2"
_symmetry_group_IT_number 40
_symmetry_cell_setting 'orthorhombic'
loop_
_space_group_symop_operation_xyz
x,y,z
-x,-y,z
1/2-x,y,z
1/2+x,-y,z
x,1/2+y,1/2+z
-x,1/2-y,1/2+z
1/2-x,1/2+y,1/2+z
1/2+x,1/2-y,1/2+z
loop_
_atom_site_type_symbol
_atom_site_label
_atom_site_fract_x
_atom_site_fract_y
_atom_site_fract_z
Si Si1 0.426779 0.672527 0.052200
Si Si2 0.572127 0.567857 0.300493
Si Si3 0.069150 0.931389 0.953567
Si Si4 0.427929 0.828736 0.207392
Si Si5 0.570112 0.570072 0.953121
Si Si6 0.077113 0.174917 0.709545
Si Si7 0.069763 0.070511 0.310048
Si Si8 0.431012 0.321069 0.555689
O O1 0.250000 0.663258 0.031521
O O2 0.450156 0.657593 0.131272
O O3 0.486404 0.747057 0.036437
O O4 0.532934 0.623564 0.010240
O O5 0.500000 0.500000 0.271328
O O6 0.750000 0.556589 0.300740
O O7 0.513166 0.581799 0.376876
O O8 0.533784 0.630417 0.254249
O O9 0.250000 0.934826 0.958984
O O10 0.003595 0.872384 0.000533
O O11 0.000000 0.000000 0.981285
O O12 0.250000 0.846537 0.216542
O O13 0.458169 0.751780 0.225200
O O14 0.530174 0.873707 0.255510
O O15 0.484826 0.842376 0.130714
O O16 0.500000 0.500000 0.976349
O O17 0.750000 0.562518 0.944585
O O18 0.498706 0.593152 0.881951
O O19 0.250000 0.158079 0.729835
O O20 0.250000 0.063043 0.316757
O O21 0.000000 0.000000 0.286985
O O22 0.250000 0.319153 0.556808
#
# Coordination Sequence:
#
# PCOD8183496 Si02
#       8
#     8   8   8   8   8   8   8   8
#     4   9  18  35  56  78 104 138 173 209 257 312
#     4  10  20  33  51  74 103 136 175 219 262 308
#     4   9  18  33  51  74 101 133 170 209 252 300
#     4   9  18  35  56  79 107 139 172 211 259 312
#     4  11  22  37  56  79 106 137 173 217 263 313
#     4   9  19  35  55  77 106 140 174 213 260 311
#     4  11  22  37  56  78 106 140 176 218 262 312
#     4   8  16  33  56  77 104 139 173 208 253 308
#
# _framework density 18.403701000000002
#
# number of rings (size 3 to 8) (size 9 to 14) (size 15 to 20)
#    0.000    2.500    0.000    4.875    0.000    3.500 
#    0.000    5.625    0.000    0.000    0.000    0.000 
#    0.000    0.000    0.000    0.000    0.000    0.000 
#
# Total GULP energy -396824.359114 kJ/mol
# GULP energy per Si atom -12400.761222 kJ/mol
# Density = 1.836181 g / cm^3
# Si number density = 18.403701 Si / 1000 Ang^3
#
#
#
# Elastic Constant Matrix: (Units=GPa)
#
#
# Indices 1 2 3 4 5 6 
#
# 1 86.1496 43.7588 39.4075 0.0000 0.0000 0.0000
# 2 43.7588 119.1108 78.0212 0.0000 0.0000 0.0000
# 3 39.4075 78.0212 93.0486 0.0000 0.0000 0.0000
# 4 0.0000 0.0000 0.0000 40.6948 0.0000 0.0000
# 5 0.0000 0.0000 0.0000 0.0000 24.6676 0.0000
# 6 0.0000 0.0000 0.0000 0.0000 0.0000 30.6081
#
#
#
# Elastic Compliance Matrix: (Units=1/GPa)
#
#
# Indices 1 2 3 4 5 6 
#
# 1 0.014854 -0.002965 -0.003805 0.000000 0.000000 0.000000
# 2 -0.002965 0.019217 -0.014858 0.000000 0.000000 0.000000
# 3 -0.003805 -0.014858 0.024817 0.000000 0.000000 0.000000
# 4 0.000000 0.000000 0.000000 0.024573 0.000000 0.000000
# 5 0.000000 0.000000 0.000000 0.000000 0.040539 0.000000
# 6 0.000000 0.000000 0.000000 0.000000 0.000000 0.032671
#
#
# Mechanical properties :
#
#
# Convention : Reuss Voigt Hill
#
# Bulk Modulus (GPa) = 63.96799 68.96488 66.46644
# Shear Modulus (GPa) = 24.37385 28.33553 26.35469
#
# Velocity S-wave (km/s) = 3.64318 3.92811 3.78833
# Velocity P-wave (km/s) = 7.24780 7.62418 7.43837
#
# Compressibility (1/GPa) = 0.01563282
#
# Stress axis : x y z
#
# Youngs Moduli (GPa) = 67.32124 52.03698 40.29497
#
# Poissons Ratio (x) = 0.15427 0.15333
# Poissons Ratio (y) = 0.19958 0.59870
# Poissons Ratio (z) = 0.25617 0.77316
#
# Static dielectric constant tensor:
#      x y z
#    x 3.192510 0.000000 0.000000 
#    y 0.000000 3.454520 0.000000 
#    z 0.000000 0.000000 3.439650 
# 
# 
# High freq. dielectric constant tensor:
#      x y z
#    x 1.701990 0.000000 0.000000 
#    y 0.000000 1.718900 0.000000 
#    z 0.000000 0.000000 1.713940 
# 
# From -- ./inp_files/19630.got.cif
#   From: 2010.03.12/outbox.cif.g09.slc.cpg/sg40_10_cif.got.tgz:19630.got - 2010.04.14 01:38:03.
