data_PCOD8183408
_publ_section_title
;
Structure prediction by ZEFSAII (Michael W. Deem and Ramdas Pophale) SiO2 
 PCOD8183408
Probable space group: A M A 2
;
_chemical_formula_sum "Si O2"
_cell_formula_units_Z 36
_cell_length_a 18.355791
_cell_length_b 11.437399
_cell_length_c 7.600680
_cell_angle_alpha 90.000000
_cell_angle_beta 90.000000
_cell_angle_gamma 90.000000
_cell_volume 1595.705804
_symmetry_space_group_name_H-M "A M A 2"
_symmetry_group_IT_number 40
_symmetry_cell_setting 'orthorhombic'
loop_
_space_group_symop_operation_xyz
x,y,z
-x,-y,z
1/2-x,y,z
1/2+x,-y,z
x,1/2+y,1/2+z
-x,1/2-y,1/2+z
1/2-x,1/2+y,1/2+z
1/2+x,1/2-y,1/2+z
loop_
_atom_site_type_symbol
_atom_site_label
_atom_site_fract_x
_atom_site_fract_y
_atom_site_fract_z
Si Si1 0.901133 0.193972 0.713400
Si Si2 0.369279 0.547590 0.191337
Si Si3 0.750000 0.295512 0.809703
Si Si4 0.750000 0.037020 0.426493
Si Si5 0.489815 0.128940 0.442984
Si Si6 0.750000 0.281877 0.232402
O O1 0.819800 0.244573 0.710199
O O2 0.956695 0.279782 0.808746
O O3 0.933002 0.177213 0.515645
O O4 0.898207 0.063696 0.806369
O O5 0.320234 0.642180 0.294067
O O6 0.322198 0.480306 0.041853
O O7 0.436247 0.617891 0.109774
O O8 0.750000 0.434665 0.779636
O O9 0.750000 0.266662 0.019584
O O10 0.750000 0.159405 0.327401
O O11 0.500000 0.000000 0.354993
#
# Coordination Sequence:
#
# PCOD8183408 Si02
#       6
#     8   8   4   4   8   4
#     4  11  21  43  68  92 130 174 211 272 321 386
#     4   9  20  40  63  86 130 172 209 261 330 380
#     4  10  20  42  64  94 127 168 211 267 325 384
#     4  10  19  37  65  92 126 172 217 263 323 386
#     4  10  22  41  63  92 131 174 213 261 332 385
#     4  10  19  37  69  96 125 170 220 262 324 386
#
# _framework density 22.560549000000002
#
# number of rings (size 3 to 8) (size 9 to 14) (size 15 to 20)
#    0.000    2.222    4.444    1.333    0.000    3.556 
#    0.000   16.667    0.000    0.000    0.000    0.000 
#    0.000    0.000    0.000    0.000    0.000    0.000 
#
# Total GULP energy -222997.605961 kJ/mol
# GULP energy per Si atom -12388.755887 kJ/mol
# Density = 2.250920 g / cm^3
# Si number density = 22.560549 Si / 1000 Ang^3
#
#
#
# Elastic Constant Matrix: (Units=GPa)
#
#
# Indices 1 2 3 4 5 6 
#
# 1 105.7725 34.7137 27.1760 0.0000 0.0000 0.0000
# 2 34.7137 181.6315 52.4112 0.0000 0.0000 0.0000
# 3 27.1760 52.4112 37.7123 0.0000 0.0000 0.0000
# 4 0.0000 0.0000 0.0000 40.5738 0.0000 0.0000
# 5 0.0000 0.0000 0.0000 0.0000 17.6557 0.0000
# 6 0.0000 0.0000 0.0000 0.0000 0.0000 46.7932
#
#
#
# Elastic Compliance Matrix: (Units=1/GPa)
#
#
# Indices 1 2 3 4 5 6 
#
# 1 0.011614 0.000326 -0.008822 0.000000 0.000000 0.000000
# 2 0.000326 0.009201 -0.013022 0.000000 0.000000 0.000000
# 3 -0.008822 -0.013022 0.050972 0.000000 0.000000 0.000000
# 4 0.000000 0.000000 0.000000 0.024646 0.000000 0.000000
# 5 0.000000 0.000000 0.000000 0.000000 0.056639 0.000000
# 6 0.000000 0.000000 0.000000 0.000000 0.000000 0.021371
#
#
# Mechanical properties :
#
#
# Convention : Reuss Voigt Hill
#
# Bulk Modulus (GPa) = 34.78283 61.52422 48.15352
# Shear Modulus (GPa) = 22.02037 35.05891 28.53964
#
# Velocity S-wave (km/s) = 3.12758 3.94635 3.56058
# Velocity P-wave (km/s) = 5.33792 6.93504 6.18822
#
# Compressibility (1/GPa) = 0.02874982
#
# Stress axis : x y z
#
# Youngs Moduli (GPa) = 86.10344 108.68424 19.61876
#
# Poissons Ratio (x) = -0.03544 0.17308
# Poissons Ratio (y) = -0.02808 0.25548
# Poissons Ratio (z) = 0.75963 1.41530
#
# Static dielectric constant tensor:
#      x y z
#    x 4.407210 0.000000 0.000000 
#    y 0.000000 4.605010 0.000000 
#    z 0.000000 0.000000 3.372560 
# 
# 
# High freq. dielectric constant tensor:
#      x y z
#    x 1.918230 0.000000 0.000000 
#    y 0.000000 1.920380 0.000000 
#    z 0.000000 0.000000 1.815470 
# 
# From -- ./inp_files/8052.got.cif
#   From: 2010.03.12/outbox.cif.g09.slc.cpg/sg40_5_cif.got.tgz:8052.got - 2010.04.14 01:38:03.
