data_PCOD8183855
_publ_section_title
;
Structure prediction by ZEFSAII (Michael W. Deem and Ramdas Pophale) SiO2 
 PCOD8183855
Probable space group: A M A 2
;
_chemical_formula_sum "Si O2"
_cell_formula_units_Z 64
_cell_length_a 19.217110
_cell_length_b 16.429956
_cell_length_c 10.232215
_cell_angle_alpha 90.000000
_cell_angle_beta 90.000000
_cell_angle_gamma 90.000000
_cell_volume 3230.681416
_symmetry_space_group_name_H-M "A M A 2"
_symmetry_group_IT_number 40
_symmetry_cell_setting 'orthorhombic'
loop_
_space_group_symop_operation_xyz
x,y,z
-x,-y,z
1/2-x,y,z
1/2+x,-y,z
x,1/2+y,1/2+z
-x,1/2-y,1/2+z
1/2-x,1/2+y,1/2+z
1/2+x,1/2-y,1/2+z
loop_
_atom_site_type_symbol
_atom_site_label
_atom_site_fract_x
_atom_site_fract_y
_atom_site_fract_z
Si Si1 0.920505 0.518251 0.577950
Si Si2 0.328875 0.009055 0.576141
Si Si3 0.671116 0.214823 0.458023
Si Si4 0.173392 0.428434 0.797378
Si Si5 0.445588 0.814854 0.959360
Si Si6 0.084845 0.867760 0.670028
Si Si7 0.068833 0.645931 0.105077
Si Si8 0.404413 0.635154 0.409267
O O1 0.876969 0.514856 0.711678
O O2 0.907859 0.609115 0.527001
O O3 0.893924 0.455310 0.467357
O O4 0.000000 0.500000 0.613217
O O5 0.250000 0.029448 0.628175
O O6 0.374277 0.087992 0.538041
O O7 0.322301 0.961120 0.443111
O O8 0.372042 0.952940 0.680581
O O9 0.750000 0.192303 0.489434
O O10 0.647554 0.164942 0.325595
O O11 0.626588 0.195520 0.584501
O O12 0.663379 0.311307 0.438924
O O13 0.250000 0.429731 0.731538
O O14 0.425248 0.820872 0.807094
O O15 0.528413 0.823235 0.975785
O O16 0.421857 0.732807 0.032623
O O17 0.010857 0.885242 0.597916
O O18 0.088757 0.639300 0.255589
#
# Coordination Sequence:
#
# PCOD8183855 Si02
#       8
#     8   8   8   8   8   8   8   8
#     4  10  21  37  58  84 116 152 194 245 300 353
#     4  10  22  40  59  87 121 159 203 249 304 369
#     4  10  20  37  59  85 119 157 198 243 303 365
#     4   9  20  38  57  81 116 153 193 244 294 355
#     4  10  21  38  58  89 117 149 198 254 296 357
#     4  10  20  38  62  87 120 157 200 246 310 360
#     4  11  21  37  63  87 120 154 202 251 303 361
#     4  10  21  37  57  86 117 155 196 245 303 363
#
# _framework density 19.810063
#
# number of rings (size 3 to 8) (size 9 to 14) (size 15 to 20)
#    0.000    2.000    1.250    3.000    0.000    6.000 
#    2.250    5.625    0.000    0.000    0.000    0.000 
#    0.000    0.000    0.000    0.000    0.000    0.000 
#
# Total GULP energy -396471.974413 kJ/mol
# GULP energy per Si atom -12389.749200 kJ/mol
# Density = 1.976497 g / cm^3
# Si number density = 19.810063 Si / 1000 Ang^3
#
#
#
# Elastic Constant Matrix: (Units=GPa)
#
#
# Indices 1 2 3 4 5 6 
#
# 1 105.9674 57.2035 42.4490 0.0000 0.0000 0.0000
# 2 57.2035 130.0422 41.5648 0.0000 0.0000 0.0000
# 3 42.4490 41.5648 82.6669 0.0000 0.0000 0.0000
# 4 0.0000 0.0000 0.0000 27.5601 0.0000 0.0000
# 5 0.0000 0.0000 0.0000 0.0000 15.9589 0.0000
# 6 0.0000 0.0000 0.0000 0.0000 0.0000 31.6791
#
#
#
# Elastic Compliance Matrix: (Units=1/GPa)
#
#
# Indices 1 2 3 4 5 6 
#
# 1 0.013814 -0.004539 -0.004812 0.000000 0.000000 0.000000
# 2 -0.004539 0.010654 -0.003026 0.000000 0.000000 0.000000
# 3 -0.004812 -0.003026 0.016089 0.000000 0.000000 0.000000
# 4 0.000000 0.000000 0.000000 0.036284 0.000000 0.000000
# 5 0.000000 0.000000 0.000000 0.000000 0.062661 0.000000
# 6 0.000000 0.000000 0.000000 0.000000 0.000000 0.031567
#
#
# Mechanical properties :
#
#
# Convention : Reuss Voigt Hill
#
# Bulk Modulus (GPa) = 63.27400 66.79010 65.03205
# Shear Modulus (GPa) = 24.86457 26.87023 25.86740
#
# Velocity S-wave (km/s) = 3.54665 3.68692 3.61747
# Velocity P-wave (km/s) = 6.98436 7.20506 7.09557
#
# Compressibility (1/GPa) = 0.01580428
#
# Stress axis : x y z
#
# Youngs Moduli (GPa) = 72.38787 93.86544 62.15490
#
# Poissons Ratio (x) = 0.42604 0.29906
# Poissons Ratio (y) = 0.32856 0.18807
# Poissons Ratio (z) = 0.34829 0.28403
#
# Static dielectric constant tensor:
#      x y z
#    x 4.202590 0.000000 0.000000 
#    y 0.000000 3.891190 0.000000 
#    z 0.000000 0.000000 3.427690 
# 
# 
# High freq. dielectric constant tensor:
#      x y z
#    x 1.770910 0.000000 0.000000 
#    y 0.000000 1.776290 0.000000 
#    z 0.000000 0.000000 1.759990 
# 
# From -- ./inp_files/13136.got.cif
#   From: 2010.03.12/outbox.cif.g09.slc.cpg/sg40_7_cif.got.tgz:13136.got - 2010.04.14 01:38:03.
