data_PCOD8183378
_publ_section_title
;
Structure prediction by ZEFSAII (Michael W. Deem and Ramdas Pophale) SiO2 
 PCOD8183378
Probable space group: A M A 2
;
_chemical_formula_sum "Si O2"
_cell_formula_units_Z 64
_cell_length_a 17.489512
_cell_length_b 12.177648
_cell_length_c 14.055410
_cell_angle_alpha 90.000000
_cell_angle_beta 90.000000
_cell_angle_gamma 90.000000
_cell_volume 2993.536975
_symmetry_space_group_name_H-M "A M A 2"
_symmetry_group_IT_number 40
_symmetry_cell_setting 'orthorhombic'
loop_
_space_group_symop_operation_xyz
x,y,z
-x,-y,z
1/2-x,y,z
1/2+x,-y,z
x,1/2+y,1/2+z
-x,1/2-y,1/2+z
1/2-x,1/2+y,1/2+z
1/2+x,1/2-y,1/2+z
loop_
_atom_site_type_symbol
_atom_site_label
_atom_site_fract_x
_atom_site_fract_y
_atom_site_fract_z
Si Si1 0.432924 0.414666 0.627540
Si Si2 0.424009 0.555414 0.168904
Si Si3 0.883631 0.258348 0.454171
Si Si4 0.337467 0.337716 0.151840
Si Si5 0.662709 0.239349 0.254965
Si Si6 0.162201 0.508558 0.467381
Si Si7 0.161997 0.789557 0.856512
Si Si8 0.956774 0.788827 0.499711
O O1 0.500000 0.500000 0.658811
O O2 0.389970 0.358641 0.715822
O O3 0.363981 0.471052 0.571171
O O4 0.469208 0.322022 0.560338
O O5 0.500000 0.500000 0.217585
O O6 0.368481 0.458910 0.137456
O O7 0.379467 0.643891 0.234154
O O8 0.449423 0.610045 0.070194
O O9 0.849581 0.234617 0.558342
O O10 0.830795 0.216397 0.367790
O O11 0.890324 0.389047 0.439194
O O12 0.965546 0.200500 0.439807
O O13 0.250000 0.352645 0.175486
O O14 0.370476 0.279079 0.248160
O O15 0.750000 0.240105 0.213322
O O16 0.250000 0.546138 0.473803
O O17 0.151034 0.416133 0.387096
O O18 0.250000 0.752340 0.866991
O O19 0.114371 0.712080 0.927418
#
# Coordination Sequence:
#
# PCOD8183378 Si02
#       8
#     8   8   8   8   8   8   8   8
#     4  10  20  40  64  94 123 160 209 261 318 376
#     4  11  23  42  65  95 127 168 217 265 321 382
#     4  12  23  39  62  90 130 167 210 261 320 378
#     4  11  23  41  64  91 127 167 213 263 316 378
#     4  11  25  43  65  95 130 172 215 263 325 386
#     4  10  19  36  63  90 121 159 205 256 314 381
#     4   9  21  39  64  96 126 162 211 260 315 382
#     4  10  22  39  64  94 125 164 208 260 320 379
#
# _framework density 21.379390999999998
#
# number of rings (size 3 to 8) (size 9 to 14) (size 15 to 20)
#    0.000    1.500    2.500    2.625    1.750    4.500 
#    2.250    0.000    0.000    1.500    0.000    0.000 
#    0.000    0.000    0.000    0.000    0.000    0.000 
#
# Total GULP energy -396635.719637 kJ/mol
# GULP energy per Si atom -12394.866239 kJ/mol
# Density = 2.133073 g / cm^3
# Si number density = 21.379391 Si / 1000 Ang^3
#
#
#
# Elastic Constant Matrix: (Units=GPa)
#
#
# Indices 1 2 3 4 5 6 
#
# 1 107.3511 27.9407 40.8975 0.0000 0.0000 0.0000
# 2 27.9407 52.5820 31.6147 0.0000 0.0000 0.0000
# 3 40.8975 31.6147 118.6545 0.0000 0.0000 0.0000
# 4 0.0000 0.0000 0.0000 13.3957 0.0000 0.0000
# 5 0.0000 0.0000 0.0000 0.0000 30.9613 0.0000
# 6 0.0000 0.0000 0.0000 0.0000 0.0000 37.1720
#
#
#
# Elastic Compliance Matrix: (Units=1/GPa)
#
#
# Indices 1 2 3 4 5 6 
#
# 1 0.011537 -0.004453 -0.002790 0.000000 0.000000 0.000000
# 2 -0.004453 0.024364 -0.004957 0.000000 0.000000 0.000000
# 3 -0.002790 -0.004957 0.010710 0.000000 0.000000 0.000000
# 4 0.000000 0.000000 0.000000 0.074651 0.000000 0.000000
# 5 0.000000 0.000000 0.000000 0.000000 0.032298 0.000000
# 6 0.000000 0.000000 0.000000 0.000000 0.000000 0.026902
#
#
# Mechanical properties :
#
#
# Convention : Reuss Voigt Hill
#
# Bulk Modulus (GPa) = 45.02108 53.27703 49.14906
# Shear Modulus (GPa) = 23.55526 28.18146 25.86836
#
# Velocity S-wave (km/s) = 3.32290 3.63459 3.48223
# Velocity P-wave (km/s) = 5.98549 6.52591 6.26153
#
# Compressibility (1/GPa) = 0.02221182
#
# Stress axis : x y z
#
# Youngs Moduli (GPa) = 86.67630 41.04346 93.36848
#
# Poissons Ratio (x) = 0.18277 0.26051
# Poissons Ratio (y) = 0.38597 0.46282
# Poissons Ratio (z) = 0.24184 0.20345
#
# Static dielectric constant tensor:
#      x y z
#    x 3.962340 0.000000 0.000000 
#    y 0.000000 3.742960 0.000000 
#    z 0.000000 0.000000 3.877050 
# 
# 
# High freq. dielectric constant tensor:
#      x y z
#    x 1.850280 0.000000 0.000000 
#    y 0.000000 1.822150 0.000000 
#    z 0.000000 0.000000 1.837480 
# 
# From -- ./inp_files/17887.got.cif
#   From: 2010.03.12/outbox.cif.g09.slc.cpg/sg40_9_cif.got.tgz:17887.got - 2010.04.14 01:38:03.
