data_PCOD8183869
_publ_section_title
;
Structure prediction by ZEFSAII (Michael W. Deem and Ramdas Pophale) SiO2 
 PCOD8183869
Probable space group: A M A 2
;
_chemical_formula_sum "Si O2"
_cell_formula_units_Z 64
_cell_length_a 8.713723
_cell_length_b 15.434328
_cell_length_c 23.670090
_cell_angle_alpha 90.000000
_cell_angle_beta 90.000000
_cell_angle_gamma 90.000000
_cell_volume 3183.401266
_symmetry_space_group_name_H-M "A M A 2"
_symmetry_group_IT_number 40
_symmetry_cell_setting 'orthorhombic'
loop_
_space_group_symop_operation_xyz
x,y,z
-x,-y,z
1/2-x,y,z
1/2+x,-y,z
x,1/2+y,1/2+z
-x,1/2-y,1/2+z
1/2-x,1/2+y,1/2+z
1/2+x,1/2-y,1/2+z
loop_
_atom_site_type_symbol
_atom_site_label
_atom_site_fract_x
_atom_site_fract_y
_atom_site_fract_z
Si Si1 0.932720 0.146970 0.133760
Si Si2 0.572759 0.747723 0.321099
Si Si3 0.432162 0.156757 0.641328
Si Si4 0.568224 0.912070 0.248773
Si Si5 0.571955 0.246637 0.952324
Si Si6 0.069305 0.090087 0.760143
Si Si7 0.568710 0.910846 0.523037
Si Si8 0.068468 0.089546 0.015982
O O1 0.750000 0.140889 0.134507
O O2 0.993110 0.245353 0.137585
O O3 0.000748 0.095044 0.186146
O O4 0.994725 0.105455 0.076814
O O5 0.750000 0.729099 0.307443
O O6 0.513379 0.831466 0.286982
O O7 0.545427 0.764878 0.386755
O O8 0.474914 0.664655 0.303739
O O9 0.250000 0.158545 0.642658
O O10 0.498030 0.112446 0.697932
O O11 0.491796 0.104178 0.586946
O O12 0.750000 0.917977 0.246645
O O13 0.500000 0.000000 0.276003
O O14 0.750000 0.228980 0.966893
O O15 0.511165 0.331541 0.984739
O O16 0.474286 0.164608 0.971996
O O17 0.250000 0.081199 0.758215
O O18 0.000000 0.000000 0.781678
O O19 0.750000 0.917312 0.520735
O O20 0.500000 0.000000 0.499289
O O21 0.250000 0.082918 0.021664
O O22 0.000000 0.000000 0.991653
#
# Coordination Sequence:
#
# PCOD8183869 Si02
#       8
#     8   8   8   8   8   8   8   8
#     4  11  20  38  64  90 122 160 199 245 302 362
#     4  10  23  42  63  87 117 158 207 255 300 350
#     4   9  18  34  59  88 118 155 192 234 293 352
#     4  11  23  39  60  91 125 160 202 250 302 360
#     4  10  22  43  65  85 118 161 203 252 303 350
#     4  11  22  38  61  90 122 158 197 244 301 360
#     4  10  20  37  60  88 120 154 192 238 292 353
#     4  12  25  41  63  93 123 157 199 247 303 365
#
# _framework density 20.104284
#
# number of rings (size 3 to 8) (size 9 to 14) (size 15 to 20)
#    0.000    1.500    2.500    3.000    0.000    2.500 
#    0.000    0.625    0.000    0.000    0.000    0.000 
#    0.000    0.000    0.000    0.000    0.000    0.000 
#
# Total GULP energy -396953.265220 kJ/mol
# GULP energy per Si atom -12404.789538 kJ/mol
# Density = 2.005853 g / cm^3
# Si number density = 20.104284 Si / 1000 Ang^3
#
#
#
# Elastic Constant Matrix: (Units=GPa)
#
#
# Indices 1 2 3 4 5 6 
#
# 1 64.7205 38.8122 17.8673 0.0000 0.0000 0.0000
# 2 38.8122 157.5046 30.5246 0.0000 0.0000 0.0000
# 3 17.8673 30.5246 81.6525 0.0000 0.0000 0.0000
# 4 0.0000 0.0000 0.0000 12.0996 0.0000 0.0000
# 5 0.0000 0.0000 0.0000 0.0000 26.0617 0.0000
# 6 0.0000 0.0000 0.0000 0.0000 0.0000 34.7112
#
#
#
# Elastic Compliance Matrix: (Units=1/GPa)
#
#
# Indices 1 2 3 4 5 6 
#
# 1 0.018607 -0.004093 -0.002542 0.000000 0.000000 0.000000
# 2 -0.004093 0.007745 -0.002000 0.000000 0.000000 0.000000
# 3 -0.002542 -0.002000 0.013551 0.000000 0.000000 0.000000
# 4 0.000000 0.000000 0.000000 0.082647 0.000000 0.000000
# 5 0.000000 0.000000 0.000000 0.000000 0.038371 0.000000
# 6 0.000000 0.000000 0.000000 0.000000 0.000000 0.028809
#
#
# Mechanical properties :
#
#
# Convention : Reuss Voigt Hill
#
# Bulk Modulus (GPa) = 44.17985 53.14286 48.66135
# Shear Modulus (GPa) = 23.30536 29.01939 26.16238
#
# Velocity S-wave (km/s) = 3.40843 3.80339 3.61131
# Velocity P-wave (km/s) = 6.12478 6.76599 6.45336
#
# Compressibility (1/GPa) = 0.02263475
#
# Stress axis : x y z
#
# Youngs Moduli (GPa) = 53.74330 129.11428 73.79633
#
# Poissons Ratio (x) = 0.52841 0.18757
# Poissons Ratio (y) = 0.21995 0.14758
# Poissons Ratio (z) = 0.13660 0.25821
#
# Static dielectric constant tensor:
#      x y z
#    x 3.464830 0.000000 0.000000 
#    y 0.000000 3.894990 0.000000 
#    z 0.000000 0.000000 3.655370 
# 
# 
# High freq. dielectric constant tensor:
#      x y z
#    x 1.771850 0.000000 0.000000 
#    y 0.000000 1.802470 0.000000 
#    z 0.000000 0.000000 1.781530 
# 
# From -- ./inp_files/24246.got.cif
#   From: 2010.03.12/outbox.cif.g09.slc.cpg/sg40_13_cif.got.tgz:24246.got - 2010.04.14 01:38:03.
