data_PCOD8183906
_publ_section_title
;
Structure prediction by ZEFSAII (Michael W. Deem and Ramdas Pophale) SiO2 
 PCOD8183906
Probable space group: A M A 2
;
_chemical_formula_sum "Si O2"
_cell_formula_units_Z 64
_cell_length_a 17.732488
_cell_length_b 15.276135
_cell_length_c 11.904283
_cell_angle_alpha 90.000000
_cell_angle_beta 90.000000
_cell_angle_gamma 90.000000
_cell_volume 3224.678374
_symmetry_space_group_name_H-M "A M A 2"
_symmetry_group_IT_number 40
_symmetry_cell_setting 'orthorhombic'
loop_
_space_group_symop_operation_xyz
x,y,z
-x,-y,z
1/2-x,y,z
1/2+x,-y,z
x,1/2+y,1/2+z
-x,1/2-y,1/2+z
1/2-x,1/2+y,1/2+z
1/2+x,1/2-y,1/2+z
loop_
_atom_site_type_symbol
_atom_site_label
_atom_site_fract_x
_atom_site_fract_y
_atom_site_fract_z
Si Si1 0.922891 0.051829 0.695340
Si Si2 0.913397 0.684280 0.778774
Si Si3 0.165440 0.011561 0.900656
Si Si4 0.838932 0.406820 0.789851
Si Si5 0.415996 0.472972 0.952303
Si Si6 0.425836 0.246889 0.193644
Si Si7 0.162393 0.709156 0.465616
Si Si8 0.161175 0.443660 0.625465
O O1 0.881236 0.052423 0.573840
O O2 0.928482 0.152690 0.734098
O O3 0.878429 0.995365 0.785707
O O4 0.000000 0.000000 0.686014
O O5 0.921728 0.608402 0.869785
O O6 0.870340 0.761033 0.844709
O O7 0.861516 0.648858 0.678125
O O8 0.989960 0.711229 0.715427
O O9 0.250000 0.984898 0.870780
O O10 0.161824 0.105498 0.959480
O O11 0.131737 0.947042 0.996897
O O12 0.750000 0.399139 0.788319
O O13 0.865758 0.446619 0.908100
O O14 0.871144 0.309482 0.773354
O O15 0.871320 0.472924 0.694783
O O16 0.500000 0.500000 0.975435
O O17 0.394206 0.239520 0.065692
O O18 0.250000 0.741889 0.484006
O O19 0.250000 0.453189 0.627905
#
# Coordination Sequence:
#
# PCOD8183906 Si02
#       8
#     8   8   8   8   8   8   8   8
#     4  11  25  43  60  88 130 171 210 259 322 397
#     4  11  22  37  64  95 126 167 215 265 328 390
#     4  10  22  42  63  87 123 162 209 263 321 387
#     4  10  20  37  63  94 124 158 209 272 323 383
#     4  10  20  40  60  86 130 166 208 260 322 395
#     4  12  23  39  65  97 127 166 219 278 325 387
#     4  11  23  43  66  95 132 172 221 271 327 403
#     4   9  19  37  61  92 125 159 205 264 324 391
#
# _framework density 19.84694
#
# number of rings (size 3 to 8) (size 9 to 14) (size 15 to 20)
#    0.000    1.500    3.750    1.500    0.000    4.000 
#    0.000    1.250    0.000    0.000    0.000    0.000 
#    0.000    0.000    0.000    0.000    0.000    0.000 
#
# Total GULP energy -396538.844395 kJ/mol
# GULP energy per Si atom -12391.838887 kJ/mol
# Density = 1.980177 g / cm^3
# Si number density = 19.846940 Si / 1000 Ang^3
#
#
#
# Elastic Constant Matrix: (Units=GPa)
#
#
# Indices 1 2 3 4 5 6 
#
# 1 73.0405 25.8180 51.5390 0.0000 0.0000 0.0000
# 2 25.8180 79.1231 31.1937 0.0000 0.0000 0.0000
# 3 51.5390 31.1937 113.6485 0.0000 0.0000 0.0000
# 4 0.0000 0.0000 0.0000 36.2129 0.0000 0.0000
# 5 0.0000 0.0000 0.0000 0.0000 -5.3431 0.0000
# 6 0.0000 0.0000 0.0000 0.0000 0.0000 25.3349
#
#
#
# Elastic Compliance Matrix: (Units=1/GPa)
#
#
# Indices 1 2 3 4 5 6 
#
# 1 0.020948 -0.003465 -0.008549 0.000000 0.000000 0.000000
# 2 -0.003465 0.014745 -0.002476 0.000000 0.000000 0.000000
# 3 -0.008549 -0.002476 0.013355 0.000000 0.000000 0.000000
# 4 0.000000 0.000000 0.000000 0.027614 0.000000 0.000000
# 5 0.000000 0.000000 0.000000 0.000000 -0.187156 0.000000
# 6 0.000000 0.000000 0.000000 0.000000 0.000000 0.039471
#
#
# Mechanical properties :
#
#
# Convention : Reuss Voigt Hill
#
# Bulk Modulus (GPa) = 49.82704 53.65705 51.74205
# Shear Modulus (GPa) = -141.43401 21.72502 -59.85449
#
# Velocity S-wave (km/s) = -8.45086 3.31211 -5.49759
# Velocity P-wave (km/s) = 8.37034 6.45917 3.76442
#
# Compressibility (1/GPa) = 0.02006942
#
# Stress axis : x y z
#
# Youngs Moduli (GPa) = 47.73719 67.81836 74.87603
#
# Poissons Ratio (x) = 0.23500 0.64009
# Poissons Ratio (y) = 0.16541 0.18538
# Poissons Ratio (z) = 0.40809 0.16790
#
# Static dielectric constant tensor:
#      x y z
#    x 3.595290 0.000000 0.000000 
#    y 0.000000 3.639310 0.000000 
#    z 0.000000 0.000000 3.885430 
# 
# 
# High freq. dielectric constant tensor:
#      x y z
#    x 1.767000 0.000000 0.000000 
#    y 0.000000 1.772640 0.000000 
#    z 0.000000 0.000000 1.781120 
# 
# From -- ./inp_files/13129.got.cif
#   From: 2010.03.12/outbox.cif.g09.slc.cpg/sg40_7_cif.got.tgz:13129.got - 2010.04.14 01:38:03.
