data_PCOD8183807
_publ_section_title
;
Structure prediction by ZEFSAII (Michael W. Deem and Ramdas Pophale) SiO2 
 PCOD8183807
Probable space group: A M A 2
;
_chemical_formula_sum "Si O2"
_cell_formula_units_Z 48
_cell_length_a 14.081545
_cell_length_b 17.850878
_cell_length_c 9.953096
_cell_angle_alpha 90.000000
_cell_angle_beta 90.000000
_cell_angle_gamma 90.000000
_cell_volume 2501.889257
_symmetry_space_group_name_H-M "A M A 2"
_symmetry_group_IT_number 40
_symmetry_cell_setting 'orthorhombic'
loop_
_space_group_symop_operation_xyz
x,y,z
-x,-y,z
1/2-x,y,z
1/2+x,-y,z
x,1/2+y,1/2+z
-x,1/2-y,1/2+z
1/2-x,1/2+y,1/2+z
1/2+x,1/2-y,1/2+z
loop_
_atom_site_type_symbol
_atom_site_label
_atom_site_fract_x
_atom_site_fract_y
_atom_site_fract_z
Si Si1 0.250000 0.377838 0.914680
Si Si2 0.250000 0.722137 0.499246
Si Si3 0.952936 0.920749 0.612758
Si Si4 0.545796 0.423527 0.600878
Si Si5 0.250000 0.046921 0.489667
Si Si6 0.956937 0.147848 0.354389
Si Si7 0.056758 0.683635 0.369416
Si Si8 0.250000 0.595028 0.683111
O O1 0.155163 0.366351 0.824887
O O2 0.250000 0.311494 0.026806
O O3 0.250000 0.457423 0.985752
O O4 0.165337 0.696727 0.404249
O O5 0.250000 0.684131 0.646860
O O6 0.843756 0.926980 0.567095
O O7 0.956890 0.867095 0.740051
O O8 0.018473 0.883230 0.500516
O O9 0.000000 0.000000 0.650921
O O10 0.500000 0.500000 0.551353
O O11 0.514889 0.400644 0.749219
O O12 0.511989 0.359263 0.497552
O O13 0.658422 0.439971 0.609656
O O14 0.250000 0.083002 0.341791
O O15 0.989766 0.234672 0.345173
#
# Coordination Sequence:
#
# PCOD8183807 Si02
#       8
#     4   4   8   8   4   8   8   4
#     4  10  20  36  60  88 120 148 192 242 282 350
#     4   8  19  38  58  84 115 166 184 224 301 348
#     4  12  23  38  59  90 118 156 194 243 296 341
#     4  11  21  38  61  87 113 154 192 237 291 337
#     4  12  21  36  58  90 119 148 194 250 279 344
#     4  11  21  39  62  87 113 158 196 234 288 342
#     4  10  22  38  59  85 123 151 193 238 287 350
#     4  10  20  36  60  84 116 148 196 240 278 348
#
# _framework density 19.185500999999999
#
# number of rings (size 3 to 8) (size 9 to 14) (size 15 to 20)
#    0.000    1.333    3.333    3.500    0.000    0.000 
#    0.000    0.000    0.000    4.000    0.000    0.000 
#    0.000    0.000    0.000    0.000    0.000    0.000 
#
# Total GULP energy -297522.166184 kJ/mol
# GULP energy per Si atom -12396.756924 kJ/mol
# Density = 1.914183 g / cm^3
# Si number density = 19.185501 Si / 1000 Ang^3
#
#
#
# Elastic Constant Matrix: (Units=GPa)
#
#
# Indices 1 2 3 4 5 6 
#
# 1 97.2836 30.2886 15.9725 0.0000 0.0000 0.0000
# 2 30.2886 131.1369 36.6758 0.0000 0.0000 0.0000
# 3 15.9725 36.6758 87.0865 0.0000 0.0000 0.0000
# 4 0.0000 0.0000 0.0000 36.3065 0.0000 0.0000
# 5 0.0000 0.0000 0.0000 0.0000 6.1142 0.0000
# 6 0.0000 0.0000 0.0000 0.0000 0.0000 25.4614
#
#
#
# Elastic Compliance Matrix: (Units=1/GPa)
#
#
# Indices 1 2 3 4 5 6 
#
# 1 0.011166 -0.002274 -0.001090 0.000000 0.000000 0.000000
# 2 -0.002274 0.009107 -0.003418 0.000000 0.000000 0.000000
# 3 -0.001090 -0.003418 0.013122 0.000000 0.000000 0.000000
# 4 0.000000 0.000000 0.000000 0.027543 0.000000 0.000000
# 5 0.000000 0.000000 0.000000 0.000000 0.163553 0.000000
# 6 0.000000 0.000000 0.000000 0.000000 0.000000 0.039275
#
#
# Mechanical properties :
#
#
# Convention : Reuss Voigt Hill
#
# Bulk Modulus (GPa) = 50.42791 53.48676 51.95734
# Shear Modulus (GPa) = 17.60924 29.08110 23.34517
#
# Velocity S-wave (km/s) = 3.03288 3.89753 3.49207
# Velocity P-wave (km/s) = 6.21336 6.94216 6.58785
#
# Compressibility (1/GPa) = 0.01983029
#
# Stress axis : x y z
#
# Youngs Moduli (GPa) = 89.55541 109.80735 76.20586
#
# Poissons Ratio (x) = 0.24972 0.08308
# Poissons Ratio (y) = 0.20366 0.26049
# Poissons Ratio (z) = 0.09764 0.37534
#
# Static dielectric constant tensor:
#      x y z
#    x 3.752080 0.000000 0.000000 
#    y 0.000000 3.868240 0.000000 
#    z 0.000000 0.000000 3.343680 
# 
# 
# High freq. dielectric constant tensor:
#      x y z
#    x 1.753360 0.000000 0.000000 
#    y 0.000000 1.762370 0.000000 
#    z 0.000000 0.000000 1.730420 
# 
# From -- ./inp_files/6525.got.cif
#   From: 2010.03.12/outbox.cif.g09.slc.cpg/sg40_4_cif.got.tgz:6525.got - 2010.04.14 01:38:03.
