data_PCOD8183061
_publ_section_title
;
Structure prediction by ZEFSAII (Michael W. Deem and Ramdas Pophale) SiO2 
 PCOD8183061
Probable space group: A M A 2
;
_chemical_formula_sum "Si O2"
_cell_formula_units_Z 64
_cell_length_a 8.868363
_cell_length_b 19.478284
_cell_length_c 20.448903
_cell_angle_alpha 90.000000
_cell_angle_beta 90.000000
_cell_angle_gamma 90.000000
_cell_volume 3532.353588
_symmetry_space_group_name_H-M "A M A 2"
_symmetry_group_IT_number 40
_symmetry_cell_setting 'orthorhombic'
loop_
_space_group_symop_operation_xyz
x,y,z
-x,-y,z
1/2-x,y,z
1/2+x,-y,z
x,1/2+y,1/2+z
-x,1/2-y,1/2+z
1/2-x,1/2+y,1/2+z
1/2+x,1/2-y,1/2+z
loop_
_atom_site_type_symbol
_atom_site_label
_atom_site_fract_x
_atom_site_fract_y
_atom_site_fract_z
Si Si1 0.072704 0.205067 0.913320
Si Si2 0.923783 0.786383 0.299865
Si Si3 0.571568 0.570020 0.363183
Si Si4 0.924978 0.431695 0.747115
Si Si5 0.426367 0.930995 0.108513
Si Si6 0.074614 0.288629 0.545791
Si Si7 0.073965 0.785363 0.665037
Si Si8 0.074993 0.431924 0.214380
O O1 0.250000 0.193997 0.911786
O O2 0.027490 0.258909 0.857606
O O3 0.989980 0.132742 0.905063
O O4 0.020867 0.235207 0.983076
O O5 0.750000 0.767055 0.314584
O O6 0.948009 0.868280 0.296292
O O7 0.973650 0.752018 0.231882
O O8 0.500000 0.500000 0.390872
O O9 0.750000 0.566947 0.371033
O O10 0.518512 0.581332 0.288353
O O11 0.750000 0.445733 0.734156
O O12 0.000000 0.500000 0.778198
O O13 0.000888 0.413579 0.678271
O O14 0.250000 0.942779 0.118744
O O15 0.459684 0.868533 0.059846
O O16 0.500000 0.000000 0.078537
O O17 0.250000 0.276072 0.532109
O O18 0.026548 0.242711 0.606849
O O19 0.250000 0.772211 0.650582
O O20 0.036020 0.866091 0.670628
O O21 0.250000 0.446562 0.216128
O O22 0.000000 0.500000 0.183816
#
# Coordination Sequence:
#
# PCOD8183061 Si02
#       8
#     8   8   8   8   8   8   8   8
#     4  12  25  38  56  81 111 151 192 235 281 335
#     4  10  20  37  59  82 112 149 184 229 282 331
#     4  10  19  35  55  80 114 151 189 229 275 330
#     4  10  19  32  55  83 113 146 179 224 278 328
#     4  10  20  33  52  78 109 146 185 225 268 321
#     4  11  24  39  55  79 112 149 188 235 281 331
#     4  10  19  36  59  83 111 146 185 227 279 332
#     4   9  18  32  54  82 112 144 178 224 274 324
#
# _framework density 18.118231999999999
#
# number of rings (size 3 to 8) (size 9 to 14) (size 15 to 20)
#    0.000    1.750    2.500    3.375    0.000    4.500 
#    0.000    1.250    0.000    0.750    0.000    5.250 
#    0.000    0.000    0.000    0.000    0.000    0.000 
#
# Total GULP energy -396890.327106 kJ/mol
# GULP energy per Si atom -12402.822722 kJ/mol
# Density = 1.807699 g / cm^3
# Si number density = 18.118232 Si / 1000 Ang^3
#
#
#
# Elastic Constant Matrix: (Units=GPa)
#
#
# Indices 1 2 3 4 5 6 
#
# 1 99.0069 47.3906 41.3537 0.0000 0.0000 0.0000
# 2 47.3906 100.6836 42.8102 0.0000 0.0000 0.0000
# 3 41.3537 42.8102 84.5247 0.0000 0.0000 0.0000
# 4 0.0000 0.0000 0.0000 19.0931 0.0000 0.0000
# 5 0.0000 0.0000 0.0000 0.0000 24.9993 0.0000
# 6 0.0000 0.0000 0.0000 0.0000 0.0000 32.5315
#
#
#
# Elastic Compliance Matrix: (Units=1/GPa)
#
#
# Indices 1 2 3 4 5 6 
#
# 1 0.014302 -0.004788 -0.004572 0.000000 0.000000 0.000000
# 2 -0.004788 0.014261 -0.004880 0.000000 0.000000 0.000000
# 3 -0.004572 -0.004880 0.016540 0.000000 0.000000 0.000000
# 4 0.000000 0.000000 0.000000 0.052375 0.000000 0.000000
# 5 0.000000 0.000000 0.000000 0.000000 0.040001 0.000000
# 6 0.000000 0.000000 0.000000 0.000000 0.000000 0.030739
#
#
# Mechanical properties :
#
#
# Convention : Reuss Voigt Hill
#
# Bulk Modulus (GPa) = 60.16305 60.81380 60.48843
# Shear Modulus (GPa) = 24.72324 25.50215 25.11270
#
# Velocity S-wave (km/s) = 3.69799 3.75579 3.72700
# Velocity P-wave (km/s) = 7.17714 7.24195 7.20962
#
# Compressibility (1/GPa) = 0.01662150
#
# Stress axis : x y z
#
# Youngs Moduli (GPa) = 69.92180 70.12290 60.46040
#
# Poissons Ratio (x) = 0.33571 0.27644
# Poissons Ratio (y) = 0.33475 0.29508
# Poissons Ratio (z) = 0.31971 0.34223
#
# Static dielectric constant tensor:
#      x y z
#    x 3.365370 0.000000 0.000000 
#    y 0.000000 3.486610 0.000000 
#    z 0.000000 0.000000 3.099770 
# 
# 
# High freq. dielectric constant tensor:
#      x y z
#    x 1.709530 0.000000 0.000000 
#    y 0.000000 1.707410 0.000000 
#    z 0.000000 0.000000 1.674520 
# 
# From -- ./inp_files/19652.got.cif
#   From: 2010.03.12/outbox.cif.g09.slc.cpg/sg40_10_cif.got.tgz:19652.got - 2010.04.14 01:38:03.
