data_PCOD8183931
_publ_section_title
;
Structure prediction by ZEFSAII (Michael W. Deem and Ramdas Pophale) SiO2 
 PCOD8183931
Probable space group: A M A 2
;
_chemical_formula_sum "Si O2"
_cell_formula_units_Z 64
_cell_length_a 17.103625
_cell_length_b 20.639585
_cell_length_c 9.185897
_cell_angle_alpha 90.000000
_cell_angle_beta 90.000000
_cell_angle_gamma 90.000000
_cell_volume 3242.729318
_symmetry_space_group_name_H-M "A M A 2"
_symmetry_group_IT_number 40
_symmetry_cell_setting 'orthorhombic'
loop_
_space_group_symop_operation_xyz
x,y,z
-x,-y,z
1/2-x,y,z
1/2+x,-y,z
x,1/2+y,1/2+z
-x,1/2-y,1/2+z
1/2-x,1/2+y,1/2+z
1/2+x,1/2-y,1/2+z
loop_
_atom_site_type_symbol
_atom_site_label
_atom_site_fract_x
_atom_site_fract_y
_atom_site_fract_z
Si Si1 0.002065 0.926957 0.422620
Si Si2 0.883539 0.117534 0.797213
Si Si3 0.439949 0.113798 0.704757
Si Si4 0.162428 0.022128 0.879979
Si Si5 0.919861 0.249484 0.322248
Si Si6 0.537881 0.689829 0.519711
Si Si7 0.661977 0.642477 0.977818
Si Si8 0.047433 0.563347 0.599083
O O1 0.093015 0.903369 0.412409
O O2 0.949251 0.883124 0.529613
O O3 0.956966 0.924473 0.270172
O O4 0.000000 0.000000 0.483029
O O5 0.841535 0.145274 0.653303
O O6 0.973129 0.102094 0.762223
O O7 0.840121 0.055157 0.860842
O O8 0.884048 0.172222 0.925917
O O9 0.387534 0.053291 0.750132
O O10 0.398557 0.179566 0.761933
O O11 0.250000 0.046516 0.863450
O O12 0.133974 0.047158 0.039060
O O13 0.943812 0.205738 0.185282
O O14 0.849484 0.214434 0.408736
O O15 0.991972 0.252560 0.436803
O O16 0.482680 0.626264 0.514546
O O17 0.750000 0.618630 0.934551
O O18 0.000000 0.500000 0.551335
#
# Coordination Sequence:
#
# PCOD8183931 Si02
#       8
#     8   8   8   8   8   8   8   8
#     4  10  21  38  65  93 122 160 211 260 311 372
#     4  10  20  38  63  89 118 156 208 262 306 379
#     4  10  20  38  61  86 123 159 210 244 294 367
#     4  12  22  37  62  92 121 159 203 260 331 371
#     4  11  22  36  60  91 118 165 205 254 294 372
#     4  11  20  37  63  87 120 153 219 254 297 360
#     4  11  23  41  61  94 131 162 204 259 326 372
#     4  11  20  39  61  88 120 160 204 263 309 369
#
# _framework density 19.736460000000001
#
# number of rings (size 3 to 8) (size 9 to 14) (size 15 to 20)
#    0.000    1.250    5.000    4.500    0.000    0.500 
#    0.000    6.875    0.000    0.000    0.000    0.000 
#    0.000    0.000    0.000    0.000    0.000    0.000 
#
# Total GULP energy -396567.895139 kJ/mol
# GULP energy per Si atom -12392.746723 kJ/mol
# Density = 1.969154 g / cm^3
# Si number density = 19.736460 Si / 1000 Ang^3
#
#
#
# Elastic Constant Matrix: (Units=GPa)
#
#
# Indices 1 2 3 4 5 6 
#
# 1 105.7546 28.5434 49.3267 0.0000 0.0000 0.0000
# 2 28.5434 74.7520 40.4913 0.0000 0.0000 0.0000
# 3 49.3267 40.4913 139.5014 0.0000 0.0000 0.0000
# 4 0.0000 0.0000 0.0000 39.8056 0.0000 0.0000
# 5 0.0000 0.0000 0.0000 0.0000 15.4053 0.0000
# 6 0.0000 0.0000 0.0000 0.0000 0.0000 21.7677
#
#
#
# Elastic Compliance Matrix: (Units=1/GPa)
#
#
# Indices 1 2 3 4 5 6 
#
# 1 0.011751 -0.002653 -0.003385 0.000000 0.000000 0.000000
# 2 -0.002653 0.016472 -0.003843 0.000000 0.000000 0.000000
# 3 -0.003385 -0.003843 0.009481 0.000000 0.000000 0.000000
# 4 0.000000 0.000000 0.000000 0.025122 0.000000 0.000000
# 5 0.000000 0.000000 0.000000 0.000000 0.064913 0.000000
# 6 0.000000 0.000000 0.000000 0.000000 0.000000 0.045940
#
#
# Mechanical properties :
#
#
# Convention : Reuss Voigt Hill
#
# Bulk Modulus (GPa) = 55.73711 61.85896 58.79804
# Shear Modulus (GPa) = 25.07255 28.83883 26.95569
#
# Velocity S-wave (km/s) = 3.56809 3.82671 3.69966
# Velocity P-wave (km/s) = 6.72882 7.13691 6.93586
#
# Compressibility (1/GPa) = 0.01794137
#
# Stress axis : x y z
#
# Youngs Moduli (GPa) = 85.10064 60.70754 105.47760
#
# Poissons Ratio (x) = 0.16109 0.35702
# Poissons Ratio (y) = 0.22581 0.40535
# Poissons Ratio (z) = 0.28805 0.23330
#
# Static dielectric constant tensor:
#      x y z
#    x 3.309470 0.000000 0.000000 
#    y 0.000000 3.765570 0.000000 
#    z 0.000000 0.000000 3.958980 
# 
# 
# High freq. dielectric constant tensor:
#      x y z
#    x 1.725310 0.000000 0.000000 
#    y 0.000000 1.772870 0.000000 
#    z 0.000000 0.000000 1.790170 
# 
# From -- ./inp_files/7801.got.cif
#   From: 2010.03.12/outbox.cif.g09.slc.cpg/sg40_4_cif.got.tgz:7801.got - 2010.04.14 01:38:03.
