data_PCOD8183232
_publ_section_title
;
Structure prediction by ZEFSAII (Michael W. Deem and Ramdas Pophale) SiO2 
 PCOD8183232
Probable space group: A M A 2
;
_chemical_formula_sum "Si O2"
_cell_formula_units_Z 64
_cell_length_a 8.584036
_cell_length_b 16.170231
_cell_length_c 22.463520
_cell_angle_alpha 90.000000
_cell_angle_beta 90.000000
_cell_angle_gamma 90.000000
_cell_volume 3118.067876
_symmetry_space_group_name_H-M "A M A 2"
_symmetry_group_IT_number 40
_symmetry_cell_setting 'orthorhombic'
loop_
_space_group_symop_operation_xyz
x,y,z
-x,-y,z
1/2-x,y,z
1/2+x,-y,z
x,1/2+y,1/2+z
-x,1/2-y,1/2+z
1/2-x,1/2+y,1/2+z
1/2+x,1/2-y,1/2+z
loop_
_atom_site_type_symbol
_atom_site_label
_atom_site_fract_x
_atom_site_fract_y
_atom_site_fract_z
Si Si1 0.566430 0.083020 0.310160
Si Si2 0.922946 0.080080 0.639540
Si Si3 0.436006 0.086940 0.894050
Si Si4 0.072942 0.871052 0.768206
Si Si5 0.066460 0.744348 0.598157
Si Si6 0.433352 0.765329 0.975539
Si Si7 0.935184 0.587921 0.944132
Si Si8 0.431225 0.788242 0.217083
O O1 0.750000 0.082125 0.311410
O O2 0.503426 0.096210 0.376697
O O3 0.500448 0.152609 0.267494
O O4 0.500000 0.000000 0.282370
O O5 0.750000 0.083060 0.614424
O O6 0.924267 0.068235 0.711235
O O7 0.000820 0.164004 0.614568
O O8 0.000000 0.000000 0.609864
O O9 0.250000 0.085602 0.893982
O O10 0.499983 0.088157 0.826691
O O11 0.500000 0.000000 0.922225
O O12 0.491350 0.168958 0.929525
O O13 0.250000 0.841004 0.781782
O O14 0.959349 0.799877 0.746193
O O15 0.250000 0.742329 0.585673
O O16 0.975431 0.705177 0.542271
O O17 0.026848 0.691632 0.657018
O O18 0.250000 0.764927 0.964201
O O19 0.500113 0.671581 0.974071
O O20 0.750000 0.587592 0.950754
O O21 0.000000 0.500000 0.970477
O O22 0.250000 0.801420 0.203714
#
# Coordination Sequence:
#
# PCOD8183232 Si02
#       8
#     8   8   8   8   8   8   8   8
#     4   9  19  33  53  81 113 144 180 226 280 338
#     4   9  19  33  53  81 114 147 182 224 276 335
#     4  12  25  42  63  89 120 156 197 247 301 358
#     4  10  20  35  56  86 119 153 190 232 284 346
#     4  10  22  40  57  78 109 148 193 242 289 343
#     4  12  25  42  63  87 115 155 203 252 302 356
#     4  10  20  37  60  90 125 161 198 241 292 351
#     4  10  19  34  56  84 114 148 189 236 288 345
#
# _framework density 20.525531999999998
#
# number of rings (size 3 to 8) (size 9 to 14) (size 15 to 20)
#    0.000    1.750    0.000    5.625    0.000    7.000 
#    0.000    1.875    0.000    1.500    0.000    0.000 
#    0.000    0.000    0.000    0.000    0.000    0.000 
#
# Total GULP energy -396550.141853 kJ/mol
# GULP energy per Si atom -12392.191933 kJ/mol
# Density = 2.047881 g / cm^3
# Si number density = 20.525532 Si / 1000 Ang^3
#
#
#
# Elastic Constant Matrix: (Units=GPa)
#
#
# Indices 1 2 3 4 5 6 
#
# 1 87.9350 24.5498 25.9935 0.0000 0.0000 0.0000
# 2 24.5498 65.4464 22.0881 0.0000 0.0000 0.0000
# 3 25.9935 22.0881 82.6810 0.0000 0.0000 0.0000
# 4 0.0000 0.0000 0.0000 13.9596 0.0000 0.0000
# 5 0.0000 0.0000 0.0000 0.0000 30.2345 0.0000
# 6 0.0000 0.0000 0.0000 0.0000 0.0000 34.2355
#
#
#
# Elastic Compliance Matrix: (Units=1/GPa)
#
#
# Indices 1 2 3 4 5 6 
#
# 1 0.013412 -0.003966 -0.003157 0.000000 0.000000 0.000000
# 2 -0.003966 0.017966 -0.003553 0.000000 0.000000 0.000000
# 3 -0.003157 -0.003553 0.014036 0.000000 0.000000 0.000000
# 4 0.000000 0.000000 0.000000 0.071635 0.000000 0.000000
# 5 0.000000 0.000000 0.000000 0.000000 0.033075 0.000000
# 6 0.000000 0.000000 0.000000 0.000000 0.000000 0.029209
#
#
# Mechanical properties :
#
#
# Convention : Reuss Voigt Hill
#
# Bulk Modulus (GPa) = 41.55654 42.36946 41.96300
# Shear Modulus (GPa) = 23.95698 26.58133 25.26916
#
# Velocity S-wave (km/s) = 3.42011 3.60257 3.51252
# Velocity P-wave (km/s) = 5.99053 6.16375 6.07775
#
# Compressibility (1/GPa) = 0.02406360
#
# Stress axis : x y z
#
# Youngs Moduli (GPa) = 74.55768 55.65958 71.24316
#
# Poissons Ratio (x) = 0.22072 0.22493
# Poissons Ratio (y) = 0.29567 0.25312
# Poissons Ratio (z) = 0.23540 0.19776
#
# Static dielectric constant tensor:
#      x y z
#    x 3.666860 0.000000 0.000000 
#    y 0.000000 3.818930 0.000000 
#    z 0.000000 0.000000 3.890970 
# 
# 
# High freq. dielectric constant tensor:
#      x y z
#    x 1.806050 0.000000 0.000000 
#    y 0.000000 1.791960 0.000000 
#    z 0.000000 0.000000 1.803980 
# 
# From -- ./inp_files/24281.got.cif
#   From: 2010.03.12/outbox.cif.g09.slc.cpg/sg40_13_cif.got.tgz:24281.got - 2010.04.14 01:38:03.
