data_PCOD8183365
_publ_section_title
;
Structure prediction by ZEFSAII (Michael W. Deem and Ramdas Pophale) SiO2 
 PCOD8183365
Probable space group: A M A 2
;
_chemical_formula_sum "Si O2"
_cell_formula_units_Z 64
_cell_length_a 8.651643
_cell_length_b 24.770943
_cell_length_c 15.186150
_cell_angle_alpha 90.000000
_cell_angle_beta 90.000000
_cell_angle_gamma 90.000000
_cell_volume 3254.534021
_symmetry_space_group_name_H-M "A M A 2"
_symmetry_group_IT_number 40
_symmetry_cell_setting 'orthorhombic'
loop_
_space_group_symop_operation_xyz
x,y,z
-x,-y,z
1/2-x,y,z
1/2+x,-y,z
x,1/2+y,1/2+z
-x,1/2-y,1/2+z
1/2-x,1/2+y,1/2+z
1/2+x,1/2-y,1/2+z
loop_
_atom_site_type_symbol
_atom_site_label
_atom_site_fract_x
_atom_site_fract_y
_atom_site_fract_z
Si Si1 0.432123 0.358419 0.679520
Si Si2 0.432042 0.056448 0.687935
Si Si3 0.566466 0.337084 0.501106
Si Si4 0.069507 0.856496 0.816551
Si Si5 0.924823 0.719020 0.978932
Si Si6 0.075038 0.254538 0.781882
Si Si7 0.566776 0.057961 0.326021
Si Si8 0.565120 0.602799 0.012701
O O1 0.250000 0.364553 0.665855
O O2 0.518397 0.370339 0.587473
O O3 0.475426 0.297449 0.708211
O O4 0.493643 0.400762 0.751449
O O5 0.250000 0.052280 0.681909
O O6 0.478976 0.102090 0.756094
O O7 0.497723 0.068102 0.591344
O O8 0.500000 0.000000 0.721953
O O9 0.750000 0.336840 0.486755
O O10 0.489849 0.364424 0.416019
O O11 0.498548 0.275608 0.509386
O O12 0.250000 0.868822 0.811361
O O13 0.038609 0.796378 0.779877
O O14 0.750000 0.720597 0.011988
O O15 0.934100 0.713581 0.873716
O O16 0.000566 0.664650 0.019317
O O17 0.250000 0.233627 0.766795
O O18 0.750000 0.055944 0.325511
O O19 0.506161 0.076733 0.421531
O O20 0.500000 0.000000 0.301919
O O21 0.750000 0.602929 0.016451
#
# Coordination Sequence:
#
# PCOD8183365 Si02
#       8
#     8   8   8   8   8   8   8   8
#     4  10  20  36  58  86 120 159 201 246 299 354
#     4  12  26  44  63  88 118 155 201 253 303 359
#     4  10  21  37  59  88 122 159 197 247 301 355
#     4  11  23  41  63  88 118 156 199 248 303 361
#     4   8  15  31  55  82 117 157 192 229 287 350
#     4   9  17  34  58  86 119 156 195 242 294 353
#     4  10  21  37  59  84 118 161 201 245 294 346
#     4  10  19  36  60  88 122 161 198 240 296 357
#
# _framework density 19.664873
#
# number of rings (size 3 to 8) (size 9 to 14) (size 15 to 20)
#    0.000    2.000    1.250    3.750    1.750    2.500 
#    0.000    3.125    0.000    1.500    0.000    0.000 
#    0.000    0.000    0.000    0.000    0.000    0.000 
#
# Total GULP energy -396781.128629 kJ/mol
# GULP energy per Si atom -12399.410270 kJ/mol
# Density = 1.962011 g / cm^3
# Si number density = 19.664873 Si / 1000 Ang^3
#
#
#
# Elastic Constant Matrix: (Units=GPa)
#
#
# Indices 1 2 3 4 5 6 
#
# 1 36.1106 18.5138 21.1502 0.0000 0.0000 0.0000
# 2 18.5138 89.3928 46.1002 0.0000 0.0000 0.0000
# 3 21.1502 46.1002 120.2625 0.0000 0.0000 0.0000
# 4 0.0000 0.0000 0.0000 31.9522 0.0000 0.0000
# 5 0.0000 0.0000 0.0000 0.0000 28.3395 0.0000
# 6 0.0000 0.0000 0.0000 0.0000 0.0000 27.2245
#
#
#
# Elastic Compliance Matrix: (Units=1/GPa)
#
#
# Indices 1 2 3 4 5 6 
#
# 1 0.032382 -0.004698 -0.003894 0.000000 0.000000 0.000000
# 2 -0.004698 0.014625 -0.004780 0.000000 0.000000 0.000000
# 3 -0.003894 -0.004780 0.010832 0.000000 0.000000 0.000000
# 4 0.000000 0.000000 0.000000 0.031297 0.000000 0.000000
# 5 0.000000 0.000000 0.000000 0.000000 0.035286 0.000000
# 6 0.000000 0.000000 0.000000 0.000000 0.000000 0.036732
#
#
# Mechanical properties :
#
#
# Convention : Reuss Voigt Hill
#
# Bulk Modulus (GPa) = 32.15971 46.36604 39.26288
# Shear Modulus (GPa) = 25.21900 28.16999 26.69449
#
# Velocity S-wave (km/s) = 3.58500 3.78895 3.68838
# Velocity P-wave (km/s) = 5.79014 6.53994 6.17643
#
# Compressibility (1/GPa) = 0.03109481
#
# Stress axis : x y z
#
# Youngs Moduli (GPa) = 30.88106 68.37793 92.31765
#
# Poissons Ratio (x) = 0.32127 0.35948
# Poissons Ratio (y) = 0.14509 0.44125
# Poissons Ratio (z) = 0.12025 0.32683
#
# Static dielectric constant tensor:
#      x y z
#    x 3.330820 0.000000 0.000000 
#    y 0.000000 3.609490 0.000000 
#    z 0.000000 0.000000 3.595460 
# 
# 
# High freq. dielectric constant tensor:
#      x y z
#    x 1.746880 0.000000 0.000000 
#    y 0.000000 1.763620 0.000000 
#    z 0.000000 0.000000 1.769370 
# 
# From -- ./inp_files/15614.got.cif
#   From: 2010.03.12/outbox.cif.g09.slc.cpg/sg40_8_cif.got.tgz:15614.got - 2010.04.14 01:38:03.
