data_PCOD8183354
_publ_section_title
;
Structure prediction by ZEFSAII (Michael W. Deem and Ramdas Pophale) SiO2 
 PCOD8183354
Probable space group: A M A 2
;
_chemical_formula_sum "Si O2"
_cell_formula_units_Z 56
_cell_length_a 19.449741
_cell_length_b 15.561693
_cell_length_c 9.586468
_cell_angle_alpha 90.000000
_cell_angle_beta 90.000000
_cell_angle_gamma 90.000000
_cell_volume 2901.544882
_symmetry_space_group_name_H-M "A M A 2"
_symmetry_group_IT_number 40
_symmetry_cell_setting 'orthorhombic'
loop_
_space_group_symop_operation_xyz
x,y,z
-x,-y,z
1/2-x,y,z
1/2+x,-y,z
x,1/2+y,1/2+z
-x,1/2-y,1/2+z
1/2-x,1/2+y,1/2+z
1/2+x,1/2-y,1/2+z
loop_
_atom_site_type_symbol
_atom_site_label
_atom_site_fract_x
_atom_site_fract_y
_atom_site_fract_z
Si Si1 0.077111 0.533296 0.368610
Si Si2 0.831421 0.937712 0.128280
Si Si3 0.028509 0.699585 0.244525
Si Si4 0.399399 0.403082 0.135353
Si Si5 0.434953 0.708048 0.949433
Si Si6 0.672731 0.252100 0.733092
Si Si7 0.923738 0.484168 0.875148
O O1 0.128977 0.524002 0.496569
O O2 0.077607 0.633197 0.324473
O O3 0.111669 0.479138 0.245351
O O4 0.000000 0.500000 0.406385
O O5 0.750000 0.956932 0.118874
O O6 0.847175 0.835950 0.142461
O O7 0.864395 0.986305 0.259883
O O8 0.968941 0.645599 0.170757
O O9 0.002896 0.769373 0.357246
O O10 0.063610 0.744754 0.108738
O O11 0.337819 0.333564 0.140686
O O12 0.404230 0.440664 0.981367
O O13 0.371811 0.755167 0.873778
O O14 0.424109 0.606198 0.956299
O O15 0.750000 0.259220 0.784825
O O16 0.000000 0.500000 0.811195
#
# Coordination Sequence:
#
# PCOD8183354 Si02
#       7
#     8   8   8   8   8   8   8
#     4  10  20  37  59  85 117 146 189 242 293 342
#     4  10  23  39  55  81 116 153 191 234 290 353
#     4  10  20  34  56  88 116 145 188 235 293 342
#     4  10  19  36  59  84 111 145 187 242 286 341
#     4  10  20  34  58  86 116 147 187 237 287 345
#     4   9  21  39  58  79 113 157 195 231 284 350
#     4  11  19  35  60  87 114 145 192 245 285 339
#
# _framework density 19.300063000000002
#
# number of rings (size 3 to 8) (size 9 to 14) (size 15 to 20)
#    0.000    2.000    2.857    0.857    6.000    1.143 
#    2.571    0.714    0.000    0.000    0.000    0.000 
#    0.000    0.000    0.000    0.000    0.000    0.000 
#
# Total GULP energy -347113.393278 kJ/mol
# GULP energy per Si atom -12396.906903 kJ/mol
# Density = 1.925614 g / cm^3
# Si number density = 19.300063 Si / 1000 Ang^3
#
#
#
# Elastic Constant Matrix: (Units=GPa)
#
#
# Indices 1 2 3 4 5 6 
#
# 1 86.9740 21.2395 45.6611 0.0000 0.0000 0.0000
# 2 21.2395 61.2497 24.3466 0.0000 0.0000 0.0000
# 3 45.6611 24.3466 110.0382 0.0000 0.0000 0.0000
# 4 0.0000 0.0000 0.0000 29.8503 0.0000 0.0000
# 5 0.0000 0.0000 0.0000 0.0000 19.5028 0.0000
# 6 0.0000 0.0000 0.0000 0.0000 0.0000 26.0302
#
#
#
# Elastic Compliance Matrix: (Units=1/GPa)
#
#
# Indices 1 2 3 4 5 6 
#
# 1 0.015196 -0.003029 -0.005635 0.000000 0.000000 0.000000
# 2 -0.003029 0.018505 -0.002837 0.000000 0.000000 0.000000
# 3 -0.005635 -0.002837 0.012054 0.000000 0.000000 0.000000
# 4 0.000000 0.000000 0.000000 0.033500 0.000000 0.000000
# 5 0.000000 0.000000 0.000000 0.000000 0.051275 0.000000
# 6 0.000000 0.000000 0.000000 0.000000 0.000000 0.038417
#
#
# Mechanical properties :
#
#
# Convention : Reuss Voigt Hill
#
# Bulk Modulus (GPa) = 43.95462 48.97293 46.46378
# Shear Modulus (GPa) = 25.05827 26.21098 25.63462
#
# Velocity S-wave (km/s) = 3.60717 3.68921 3.64842
# Velocity P-wave (km/s) = 6.33820 6.60126 6.47106
#
# Compressibility (1/GPa) = 0.02275073
#
# Stress axis : x y z
#
# Youngs Moduli (GPa) = 65.80636 54.03965 82.96024
#
# Poissons Ratio (x) = 0.16371 0.46752
# Poissons Ratio (y) = 0.19936 0.23538
# Poissons Ratio (z) = 0.37085 0.15332
#
# Static dielectric constant tensor:
#      x y z
#    x 3.413110 0.000000 0.000000 
#    y 0.000000 3.665640 0.000000 
#    z 0.000000 0.000000 3.571160 
# 
# 
# High freq. dielectric constant tensor:
#      x y z
#    x 1.726690 0.000000 0.000000 
#    y 0.000000 1.751600 0.000000 
#    z 0.000000 0.000000 1.749790 
# 
# From -- ./inp_files/8282.got.cif
#   From: 2010.03.12/outbox.cif.g09.slc.cpg/sg40_5_cif.got.tgz:8282.got - 2010.04.14 01:38:03.
