data_PCOD8183718
_publ_section_title
;
Structure prediction by ZEFSAII (Michael W. Deem and Ramdas Pophale) SiO2 
 PCOD8183718
Probable space group: A M A 2
;
_chemical_formula_sum "Si O2"
_cell_formula_units_Z 64
_cell_length_a 8.947089
_cell_length_b 23.592498
_cell_length_c 15.295468
_cell_angle_alpha 90.000000
_cell_angle_beta 90.000000
_cell_angle_gamma 90.000000
_cell_volume 3228.631310
_symmetry_space_group_name_H-M "A M A 2"
_symmetry_group_IT_number 40
_symmetry_cell_setting 'orthorhombic'
loop_
_space_group_symop_operation_xyz
x,y,z
-x,-y,z
1/2-x,y,z
1/2+x,-y,z
x,1/2+y,1/2+z
-x,1/2-y,1/2+z
1/2-x,1/2+y,1/2+z
1/2+x,1/2-y,1/2+z
loop_
_atom_site_type_symbol
_atom_site_label
_atom_site_fract_x
_atom_site_fract_y
_atom_site_fract_z
Si Si1 0.576144 0.750902 0.472180
Si Si2 0.578841 0.624794 0.424600
Si Si3 0.421819 0.865636 0.727076
Si Si4 0.426297 0.640212 0.731378
Si Si5 0.425375 0.439793 0.064732
Si Si6 0.926005 0.940498 0.073978
Si Si7 0.426596 0.860622 0.406671
Si Si8 0.924132 0.253415 0.175387
O O1 0.750000 0.762113 0.452895
O O2 0.525968 0.689275 0.438920
O O3 0.479922 0.796235 0.419273
O O4 0.537189 0.756525 0.573600
O O5 0.750000 0.618286 0.455668
O O6 0.559782 0.607843 0.323311
O O7 0.478240 0.582230 0.480114
O O8 0.250000 0.847081 0.709772
O O9 0.472922 0.912787 0.657374
O O10 0.528155 0.811667 0.720114
O O11 0.250000 0.639727 0.742992
O O12 0.477726 0.603131 0.648737
O O13 0.500860 0.614183 0.818477
O O14 0.481485 0.703996 0.719396
O O15 0.500000 0.500000 0.053058
O O16 0.250000 0.448690 0.059052
O O17 0.482137 0.398657 0.987636
O O18 0.750000 0.948521 0.071812
O O19 0.000000 0.000000 0.095945
O O20 0.250000 0.861449 0.397458
O O21 0.750000 0.241830 0.191864
#
# Coordination Sequence:
#
# PCOD8183718 Si02
#       8
#     8   8   8   8   8   8   8   8
#     4  10  20  35  59  92 126 160 196 241 300 358
#     4  10  21  39  63  89 122 158 196 244 297 356
#     4  10  21  39  62  90 124 162 199 244 302 356
#     4  11  24  41  62  89 121 159 199 246 305 362
#     4  10  23  41  60  85 117 157 204 249 300 353
#     4  11  25  43  64  87 117 157 201 250 302 356
#     4  11  23  39  62  90 121 158 201 251 301 359
#     4  11  21  35  61  94 124 159 200 245 296 354
#
# _framework density 19.822641000000001
#
# number of rings (size 3 to 8) (size 9 to 14) (size 15 to 20)
#    0.000    1.500    2.500    2.250    0.000    6.500 
#    0.000    3.750    0.000    0.000    0.000    0.000 
#    0.000    0.000    0.000    0.000    0.000    0.000 
#
# Total GULP energy -397006.127005 kJ/mol
# GULP energy per Si atom -12406.441469 kJ/mol
# Density = 1.977752 g / cm^3
# Si number density = 19.822641 Si / 1000 Ang^3
#
#
#
# Elastic Constant Matrix: (Units=GPa)
#
#
# Indices 1 2 3 4 5 6 
#
# 1 63.3847 33.0831 40.4822 0.0000 0.0000 0.0000
# 2 33.0831 92.8326 31.6382 0.0000 0.0000 0.0000
# 3 40.4822 31.6382 117.2105 0.0000 0.0000 0.0000
# 4 0.0000 0.0000 0.0000 11.4052 0.0000 0.0000
# 5 0.0000 0.0000 0.0000 0.0000 31.7704 0.0000
# 6 0.0000 0.0000 0.0000 0.0000 0.0000 33.7207
#
#
#
# Elastic Compliance Matrix: (Units=1/GPa)
#
#
# Indices 1 2 3 4 5 6 
#
# 1 0.022947 -0.006031 -0.006297 0.000000 0.000000 0.000000
# 2 -0.006031 0.013449 -0.001547 0.000000 0.000000 0.000000
# 3 -0.006297 -0.001547 0.011124 0.000000 0.000000 0.000000
# 4 0.000000 0.000000 0.000000 0.087679 0.000000 0.000000
# 5 0.000000 0.000000 0.000000 0.000000 0.031476 0.000000
# 6 0.000000 0.000000 0.000000 0.000000 0.000000 0.029655
#
#
# Mechanical properties :
#
#
# Convention : Reuss Voigt Hill
#
# Bulk Modulus (GPa) = 50.58649 53.75943 52.17296
# Shear Modulus (GPa) = 21.67589 26.59422 24.13505
#
# Velocity S-wave (km/s) = 3.31039 3.66677 3.49313
# Velocity P-wave (km/s) = 6.33928 6.71610 6.53041
#
# Compressibility (1/GPa) = 0.01976813
#
# Stress axis : x y z
#
# Youngs Moduli (GPa) = 43.57937 74.35626 89.89410
#
# Poissons Ratio (x) = 0.44847 0.56609
# Poissons Ratio (y) = 0.26285 0.13907
# Poissons Ratio (z) = 0.27443 0.11503
#
# Static dielectric constant tensor:
#      x y z
#    x 3.533870 0.000000 0.000000 
#    y 0.000000 3.489040 0.000000 
#    z 0.000000 0.000000 3.875470 
# 
# 
# High freq. dielectric constant tensor:
#      x y z
#    x 1.771210 0.000000 0.000000 
#    y 0.000000 1.765010 0.000000 
#    z 0.000000 0.000000 1.791090 
# 
# From -- ./inp_files/15604.got.cif
#   From: 2010.03.12/outbox.cif.g09.slc.cpg/sg40_8_cif.got.tgz:15604.got - 2010.04.14 01:38:03.
