data_PCOD8183195
_publ_section_title
;
Structure prediction by ZEFSAII (Michael W. Deem and Ramdas Pophale) SiO2 
 PCOD8183195
Probable space group: A M A 2
;
_chemical_formula_sum "Si O2"
_cell_formula_units_Z 48
_cell_length_a 13.408935
_cell_length_b 26.799833
_cell_length_c 7.509297
_cell_angle_alpha 90.000000
_cell_angle_beta 90.000000
_cell_angle_gamma 90.000000
_cell_volume 2698.520084
_symmetry_space_group_name_H-M "A M A 2"
_symmetry_group_IT_number 40
_symmetry_cell_setting 'orthorhombic'
loop_
_space_group_symop_operation_xyz
x,y,z
-x,-y,z
1/2-x,y,z
1/2+x,-y,z
x,1/2+y,1/2+z
-x,1/2-y,1/2+z
1/2-x,1/2+y,1/2+z
1/2+x,1/2-y,1/2+z
loop_
_atom_site_type_symbol
_atom_site_label
_atom_site_fract_x
_atom_site_fract_y
_atom_site_fract_z
Si Si1 0.970868 0.806316 0.325960
Si Si2 0.365510 0.640615 0.128914
Si Si3 0.364287 0.884654 0.344314
Si Si4 0.135267 0.892435 0.939036
Si Si5 0.474892 0.942908 0.639653
Si Si6 0.014647 0.194112 0.920566
O O1 0.884615 0.833340 0.438611
O O2 0.076410 0.832883 0.367196
O O3 0.979042 0.749688 0.385308
O O4 0.941842 0.811084 0.119281
O O5 0.250000 0.628534 0.150488
O O6 0.423012 0.588328 0.143157
O O7 0.399066 0.678443 0.284305
O O8 0.250000 0.872310 0.387774
O O9 0.404691 0.926273 0.477554
O O10 0.377171 0.906523 0.145790
O O11 0.250000 0.886449 0.884476
O O12 0.084530 0.936308 0.824836
O O13 0.082329 0.840246 0.891877
O O14 0.500000 0.000000 0.611217
#
# Coordination Sequence:
#
# PCOD8183195 Si02
#       6
#     8   8   8   8   8   8
#     4  10  19  34  54  78 112 145 179 218 264 316
#     4  10  22  37  52  77 112 146 183 222 263 319
#     4   9  19  35  55  80 108 138 176 221 267 320
#     4   9  19  35  55  80 108 138 176 221 267 320
#     4  10  21  37  58  79 105 140 179 228 276 315
#     4  10  19  34  54  78 112 145 179 218 264 316
#
# _framework density 17.787528999999999
#
# number of rings (size 3 to 8) (size 9 to 14) (size 15 to 20)
#    0.000    2.333    1.667    0.500    0.000    4.000 
#    0.000    0.000    0.000    0.000    0.000    0.000 
#    0.000    0.000    0.000    0.000    0.000    0.000 
#
# Total GULP energy -297662.063315 kJ/mol
# GULP energy per Si atom -12402.585971 kJ/mol
# Density = 1.774704 g / cm^3
# Si number density = 17.787529 Si / 1000 Ang^3
#
#
#
# Elastic Constant Matrix: (Units=GPa)
#
#
# Indices 1 2 3 4 5 6 
#
# 1 100.4335 8.0989 19.8358 0.0000 0.0000 0.0000
# 2 8.0989 72.3112 4.3101 0.0000 0.0000 0.0000
# 3 19.8358 4.3101 72.3821 0.0000 0.0000 0.0000
# 4 0.0000 0.0000 0.0000 21.2662 0.0000 0.0000
# 5 0.0000 0.0000 0.0000 0.0000 24.3715 0.0000
# 6 0.0000 0.0000 0.0000 0.0000 0.0000 12.3370
#
#
#
# Elastic Compliance Matrix: (Units=1/GPa)
#
#
# Indices 1 2 3 4 5 6 
#
# 1 0.010601 -0.001018 -0.002844 0.000000 0.000000 0.000000
# 2 -0.001018 0.013976 -0.000553 0.000000 0.000000 0.000000
# 3 -0.002844 -0.000553 0.014628 0.000000 0.000000 0.000000
# 4 0.000000 0.000000 0.000000 0.047023 0.000000 0.000000
# 5 0.000000 0.000000 0.000000 0.000000 0.041032 0.000000
# 6 0.000000 0.000000 0.000000 0.000000 0.000000 0.081057
#
#
# Mechanical properties :
#
#
# Convention : Reuss Voigt Hill
#
# Bulk Modulus (GPa) = 32.92311 34.40180 33.66246
# Shear Modulus (GPa) = 22.00010 25.78708 23.89359
#
# Velocity S-wave (km/s) = 3.52067 3.81166 3.66905
# Velocity P-wave (km/s) = 5.92251 6.22528 6.07578
#
# Compressibility (1/GPa) = 0.03037380
#
# Stress axis : x y z
#
# Youngs Moduli (GPa) = 94.33347 71.55085 68.36202
#
# Poissons Ratio (x) = 0.07282 0.19445
# Poissons Ratio (y) = 0.09601 0.03783
# Poissons Ratio (z) = 0.26833 0.03959
#
# Static dielectric constant tensor:
#      x y z
#    x 3.217700 0.000000 0.000000 
#    y 0.000000 3.074820 0.000000 
#    z 0.000000 0.000000 3.657310 
# 
# 
# High freq. dielectric constant tensor:
#      x y z
#    x 1.680950 0.000000 0.000000 
#    y 0.000000 1.673660 0.000000 
#    z 0.000000 0.000000 1.709370 
# 
# From -- ./inp_files/5431.got.cif
#   From: 2010.03.12/outbox.cif.g09.slc.cpg/sg40_3_cif.got.tgz:5431.got - 2010.04.14 01:38:03.
