data_PCOD8183595
_publ_section_title
;
Structure prediction by ZEFSAII (Michael W. Deem and Ramdas Pophale) SiO2 
 PCOD8183595
Probable space group: A M A 2
;
_chemical_formula_sum "Si O2"
_cell_formula_units_Z 40
_cell_length_a 8.844293
_cell_length_b 29.161373
_cell_length_c 7.593573
_cell_angle_alpha 90.000000
_cell_angle_beta 90.000000
_cell_angle_gamma 90.000000
_cell_volume 1958.471527
_symmetry_space_group_name_H-M "A M A 2"
_symmetry_group_IT_number 40
_symmetry_cell_setting 'orthorhombic'
loop_
_space_group_symop_operation_xyz
x,y,z
-x,-y,z
1/2-x,y,z
1/2+x,-y,z
x,1/2+y,1/2+z
-x,1/2-y,1/2+z
1/2-x,1/2+y,1/2+z
1/2+x,1/2-y,1/2+z
loop_
_atom_site_type_symbol
_atom_site_label
_atom_site_fract_x
_atom_site_fract_y
_atom_site_fract_z
Si Si1 0.928013 0.548392 0.326210
Si Si2 0.077026 0.804977 0.114364
Si Si3 0.420889 0.608994 0.037861
Si Si4 0.573554 0.396093 0.625228
Si Si5 0.077773 0.707947 0.960951
O O1 0.750000 0.543414 0.339671
O O2 0.000000 0.500000 0.277320
O O3 0.989101 0.564521 0.516374
O O4 0.967222 0.582925 0.167752
O O5 0.250000 0.815787 0.069846
O O6 0.977026 0.847043 0.041674
O O7 0.050494 0.802240 0.320571
O O8 0.026376 0.755277 0.046855
O O9 0.250000 0.591118 0.067951
O O10 0.467007 0.600452 0.832754
O O11 0.429065 0.663366 0.087709
O O12 0.750000 0.401604 0.592507
O O13 0.250000 0.711337 0.883660
#
# Coordination Sequence:
#
# PCOD8183595 Si02
#       5
#     8   8   8   8   8
#     4  12  26  43  66  95 123 159 206 258 312 374
#     4  10  20  34  55  87 120 158 205 248 298 362
#     4   9  20  41  64  88 123 164 204 252 309 365
#     4  10  22  42  65  89 124 165 204 256 311 365
#     4   9  20  36  54  83 120 160 202 244 300 361
#
# _framework density 20.424088999999999
#
# number of rings (size 3 to 8) (size 9 to 14) (size 15 to 20)
#    0.000    2.000    0.000    4.200    2.800    6.400 
#    0.000    0.000    0.000    0.000    0.000    0.000 
#    0.000    0.000    0.000    0.000    0.000    0.000 
#
# Total GULP energy -247874.799333 kJ/mol
# GULP energy per Si atom -12393.739967 kJ/mol
# Density = 2.037760 g / cm^3
# Si number density = 20.424089 Si / 1000 Ang^3
#
#
#
# Elastic Constant Matrix: (Units=GPa)
#
#
# Indices 1 2 3 4 5 6 
#
# 1 95.8790 26.6638 21.5440 0.0000 0.0000 0.0000
# 2 26.6638 80.9253 12.8776 0.0000 0.0000 0.0000
# 3 21.5440 12.8776 51.6802 0.0000 0.0000 0.0000
# 4 0.0000 0.0000 0.0000 31.4533 0.0000 0.0000
# 5 0.0000 0.0000 0.0000 0.0000 31.2969 0.0000
# 6 0.0000 0.0000 0.0000 0.0000 0.0000 33.3170
#
#
#
# Elastic Compliance Matrix: (Units=1/GPa)
#
#
# Indices 1 2 3 4 5 6 
#
# 1 0.012336 -0.003380 -0.004300 0.000000 0.000000 0.000000
# 2 -0.003380 0.013794 -0.002028 0.000000 0.000000 0.000000
# 3 -0.004300 -0.002028 0.021648 0.000000 0.000000 0.000000
# 4 0.000000 0.000000 0.000000 0.031793 0.000000 0.000000
# 5 0.000000 0.000000 0.000000 0.000000 0.031952 0.000000
# 6 0.000000 0.000000 0.000000 0.000000 0.000000 0.030015
#
#
# Mechanical properties :
#
#
# Convention : Reuss Voigt Hill
#
# Bulk Modulus (GPa) = 35.26037 38.96170 37.11103
# Shear Modulus (GPa) = 29.34137 30.37337 29.85737
#
# Velocity S-wave (km/s) = 3.79437 3.86052 3.82759
# Velocity P-wave (km/s) = 6.04135 6.24414 6.14358
#
# Compressibility (1/GPa) = 0.02836045
#
# Stress axis : x y z
#
# Youngs Moduli (GPa) = 81.06260 72.49772 46.19420
#
# Poissons Ratio (x) = 0.24506 0.19865
# Poissons Ratio (y) = 0.27402 0.09368
# Poissons Ratio (z) = 0.34859 0.14702
#
# Static dielectric constant tensor:
#      x y z
#    x 3.686980 0.000000 0.000000 
#    y 0.000000 4.058420 0.000000 
#    z 0.000000 0.000000 3.542990 
# 
# 
# High freq. dielectric constant tensor:
#      x y z
#    x 1.799250 0.000000 0.000000 
#    y 0.000000 1.809130 0.000000 
#    z 0.000000 0.000000 1.781330 
# 
# From -- ./inp_files/4253.got.cif
#   From: 2010.03.12/outbox.cif.g09.slc.cpg/sg40_3_cif.got.tgz:4253.got - 2010.04.14 01:38:03.
