data_PCOD8183013
_publ_section_title
;
Structure prediction by ZEFSAII (Michael W. Deem and Ramdas Pophale) SiO2 
 PCOD8183013
Probable space group: A M A 2
;
_chemical_formula_sum "Si O2"
_cell_formula_units_Z 40
_cell_length_a 8.928946
_cell_length_b 9.175011
_cell_length_c 26.130837
_cell_angle_alpha 90.000000
_cell_angle_beta 90.000000
_cell_angle_gamma 90.000000
_cell_volume 2140.721205
_symmetry_space_group_name_H-M "A M A 2"
_symmetry_group_IT_number 40
_symmetry_cell_setting 'orthorhombic'
loop_
_space_group_symop_operation_xyz
x,y,z
-x,-y,z
1/2-x,y,z
1/2+x,-y,z
x,1/2+y,1/2+z
-x,1/2-y,1/2+z
1/2-x,1/2+y,1/2+z
1/2+x,1/2-y,1/2+z
loop_
_atom_site_type_symbol
_atom_site_label
_atom_site_fract_x
_atom_site_fract_y
_atom_site_fract_z
Si Si1 0.427552 0.841404 0.108060
Si Si2 0.572901 0.656003 0.413871
Si Si3 0.426150 0.156221 0.510383
Si Si4 0.424377 0.155591 0.319686
Si Si5 0.574648 0.343533 0.707202
O O1 0.250000 0.857498 0.111900
O O2 0.477600 0.742167 0.060845
O O3 0.492231 0.762665 0.159797
O O4 0.500000 0.000000 0.100750
O O5 0.500000 0.500000 0.419416
O O6 0.750000 0.636090 0.413819
O O7 0.518598 0.754156 0.461167
O O8 0.514639 0.731300 0.361656
O O9 0.250000 0.134309 0.509257
O O10 0.500000 0.000000 0.509819
O O11 0.250000 0.126734 0.328030
O O12 0.453974 0.226929 0.263287
O O13 0.500000 0.000000 0.327107
O O14 0.500000 0.500000 0.709844
O O15 0.750000 0.356023 0.695038
#
# Coordination Sequence:
#
# PCOD8183013 Si02
#       5
#     8   8   8   8   8
#     4  10  19  32  51  77 104 133 169 208 247 295
#     4  10  21  37  54  76 103 132 167 208 251 301
#     4  10  22  37  54  76 102 131 168 209 252 301
#     4   9  18  32  52  77 104 132 168 208 248 295
#     4   9  16  28  48  74 102 134 168 205 246 292
#
# _framework density 18.685290999999999
#
# number of rings (size 3 to 8) (size 9 to 14) (size 15 to 20)
#    0.000    2.400    0.000    3.600    0.000    4.000 
#    0.000    1.000    0.000    4.800    0.000    0.000 
#    0.000    0.000    0.000    0.000    0.000    0.000 
#
# Total GULP energy -247901.264978 kJ/mol
# GULP energy per Si atom -12395.063249 kJ/mol
# Density = 1.864276 g / cm^3
# Si number density = 18.685291 Si / 1000 Ang^3
#
#
#
# Elastic Constant Matrix: (Units=GPa)
#
#
# Indices 1 2 3 4 5 6 
#
# 1 59.5299 39.0142 54.1532 0.0000 0.0000 0.0000
# 2 39.0142 115.4365 85.6451 0.0000 0.0000 0.0000
# 3 54.1532 85.6451 207.7571 0.0000 0.0000 0.0000
# 4 0.0000 0.0000 0.0000 33.0566 0.0000 0.0000
# 5 0.0000 0.0000 0.0000 0.0000 30.3453 0.0000
# 6 0.0000 0.0000 0.0000 0.0000 0.0000 27.7331
#
#
#
# Elastic Compliance Matrix: (Units=1/GPa)
#
#
# Indices 1 2 3 4 5 6 
#
# 1 0.023845 -0.004967 -0.004168 0.000000 0.000000 0.000000
# 2 -0.004967 0.013514 -0.004276 0.000000 0.000000 0.000000
# 3 -0.004168 -0.004276 0.007663 0.000000 0.000000 0.000000
# 4 0.000000 0.000000 0.000000 0.030251 0.000000 0.000000
# 5 0.000000 0.000000 0.000000 0.000000 0.032954 0.000000
# 6 0.000000 0.000000 0.000000 0.000000 0.000000 0.036058
#
#
# Mechanical properties :
#
#
# Convention : Reuss Voigt Hill
#
# Bulk Modulus (GPa) = 54.94620 82.26093 68.60357
# Shear Modulus (GPa) = 28.22105 31.82108 30.02107
#
# Velocity S-wave (km/s) = 3.89052 4.13122 4.01268
# Velocity P-wave (km/s) = 7.04638 8.17777 7.63307
#
# Compressibility (1/GPa) = 0.01819962
#
# Stress axis : x y z
#
# Youngs Moduli (GPa) = 41.93819 73.99660 130.50396
#
# Poissons Ratio (x) = 0.36751 0.54392
# Poissons Ratio (y) = 0.20829 0.55809
# Poissons Ratio (z) = 0.17479 0.31644
#
# Static dielectric constant tensor:
#      x y z
#    x 3.390360 0.000000 0.000000 
#    y 0.000000 3.104800 0.000000 
#    z 0.000000 0.000000 4.485380 
# 
# 
# High freq. dielectric constant tensor:
#      x y z
#    x 1.725430 0.000000 0.000000 
#    y 0.000000 1.691670 0.000000 
#    z 0.000000 0.000000 1.756470 
# 
# From -- ./inp_files/23823.got.cif
#   From: 2010.03.12/outbox.cif.g09.slc.cpg/sg40_12_cif.got.tgz:23823.got - 2010.04.14 01:38:03.
