data_PCOD8183926
_publ_section_title
;
Structure prediction by ZEFSAII (Michael W. Deem and Ramdas Pophale) SiO2 
 PCOD8183926
Probable space group: A M A 2
;
_chemical_formula_sum "Si O2"
_cell_formula_units_Z 64
_cell_length_a 8.761206
_cell_length_b 24.845767
_cell_length_c 14.950651
_cell_angle_alpha 90.000000
_cell_angle_beta 90.000000
_cell_angle_gamma 90.000000
_cell_volume 3254.441009
_symmetry_space_group_name_H-M "A M A 2"
_symmetry_group_IT_number 40
_symmetry_cell_setting 'orthorhombic'
loop_
_space_group_symop_operation_xyz
x,y,z
-x,-y,z
1/2-x,y,z
1/2+x,-y,z
x,1/2+y,1/2+z
-x,1/2-y,1/2+z
1/2-x,1/2+y,1/2+z
1/2+x,1/2-y,1/2+z
loop_
_atom_site_type_symbol
_atom_site_label
_atom_site_fract_x
_atom_site_fract_y
_atom_site_fract_z
Si Si1 0.074324 0.220352 0.847980
Si Si2 0.929326 0.352843 0.024230
Si Si3 0.929789 0.557095 0.503040
Si Si4 0.568114 0.898733 0.821021
Si Si5 0.924300 0.755480 0.050037
Si Si6 0.925938 0.865046 0.140068
Si Si7 0.073474 0.171239 0.327433
Si Si8 0.069347 0.444074 0.143595
O O1 0.250000 0.227346 0.826209
O O2 0.015689 0.163352 0.809212
O O3 0.992203 0.270402 0.801519
O O4 0.041012 0.219587 0.953312
O O5 0.750000 0.364731 0.032807
O O6 0.966382 0.295291 0.069737
O O7 0.022334 0.398822 0.073463
O O8 0.990507 0.351948 0.921278
O O9 0.750000 0.552422 0.487782
O O10 0.000000 0.500000 0.529150
O O11 0.008497 0.578628 0.414160
O O12 0.962215 0.596278 0.586372
O O13 0.750000 0.903993 0.819885
O O14 0.497040 0.932895 0.741565
O O15 0.750000 0.735497 0.057345
O O16 0.960494 0.802690 0.119333
O O17 0.750000 0.878999 0.116137
O O18 0.958304 0.870730 0.246685
O O19 0.250000 0.181247 0.341572
O O20 0.250000 0.448114 0.149525
O O21 0.000000 0.500000 0.108594
#
# Coordination Sequence:
#
# PCOD8183926 Si02
#       8
#     8   8   8   8   8   8   8   8
#     4   9  18  33  55  84 120 159 195 235 288 349
#     4  10  21  39  60  88 122 157 201 252 304 358
#     4  12  25  41  62  88 120 162 205 250 299 360
#     4  11  22  40  62  90 124 160 197 245 299 357
#     4   9  17  33  56  85 120 160 197 238 293 352
#     4  10  20  38  60  87 123 161 202 250 302 354
#     4   9  20  36  59  88 122 160 199 248 300 354
#     4  12  26  44  64  88 116 155 203 254 306 364
#
# _framework density 19.665436
#
# number of rings (size 3 to 8) (size 9 to 14) (size 15 to 20)
#    0.000    1.750    1.250    3.375    1.750    2.500 
#    0.000    0.625    0.000    0.000    0.000    0.000 
#    0.000    0.000    0.000    0.000    0.000    0.000 
#
# Total GULP energy -396843.383964 kJ/mol
# GULP energy per Si atom -12401.355749 kJ/mol
# Density = 1.962068 g / cm^3
# Si number density = 19.665436 Si / 1000 Ang^3
#
#
#
# Elastic Constant Matrix: (Units=GPa)
#
#
# Indices 1 2 3 4 5 6 
#
# 1 93.9785 47.7788 33.6782 0.0000 0.0000 0.0000
# 2 47.7788 107.9403 46.4522 0.0000 0.0000 0.0000
# 3 33.6782 46.4522 81.8117 0.0000 0.0000 0.0000
# 4 0.0000 0.0000 0.0000 27.2166 0.0000 0.0000
# 5 0.0000 0.0000 0.0000 0.0000 24.1629 0.0000
# 6 0.0000 0.0000 0.0000 0.0000 0.0000 35.9303
#
#
#
# Elastic Compliance Matrix: (Units=1/GPa)
#
#
# Indices 1 2 3 4 5 6 
#
# 1 0.014276 -0.005016 -0.003029 0.000000 0.000000 0.000000
# 2 -0.005016 0.014022 -0.005897 0.000000 0.000000 0.000000
# 3 -0.003029 -0.005897 0.016818 0.000000 0.000000 0.000000
# 4 0.000000 0.000000 0.000000 0.036742 0.000000 0.000000
# 5 0.000000 0.000000 0.000000 0.000000 0.041386 0.000000
# 6 0.000000 0.000000 0.000000 0.000000 0.000000 0.027832
#
#
# Mechanical properties :
#
#
# Convention : Reuss Voigt Hill
#
# Bulk Modulus (GPa) = 58.02672 59.94989 58.98831
# Shear Modulus (GPa) = 27.07024 27.85004 27.46014
#
# Velocity S-wave (km/s) = 3.71420 3.76732 3.74085
# Velocity P-wave (km/s) = 6.92566 7.03382 6.97995
#
# Compressibility (1/GPa) = 0.01723344
#
# Stress axis : x y z
#
# Youngs Moduli (GPa) = 70.04671 71.31477 59.45866
#
# Poissons Ratio (x) = 0.35769 0.18010
# Poissons Ratio (y) = 0.35133 0.35063
# Poissons Ratio (z) = 0.21217 0.42055
#
# Static dielectric constant tensor:
#      x y z
#    x 3.558040 0.000000 0.000000 
#    y 0.000000 3.671240 0.000000 
#    z 0.000000 0.000000 3.668370 
# 
# 
# High freq. dielectric constant tensor:
#      x y z
#    x 1.765360 0.000000 0.000000 
#    y 0.000000 1.761240 0.000000 
#    z 0.000000 0.000000 1.769270 
# 
# From -- ./inp_files/15656.got.cif
#   From: 2010.03.12/outbox.cif.g09.slc.cpg/sg40_8_cif.got.tgz:15656.got - 2010.04.14 01:38:03.
