data_PCOD8183866
_publ_section_title
;
Structure prediction by ZEFSAII (Michael W. Deem and Ramdas Pophale) SiO2 
 PCOD8183866
Probable space group: A M A 2
;
_chemical_formula_sum "Si O2"
_cell_formula_units_Z 48
_cell_length_a 8.595361
_cell_length_b 9.146790
_cell_length_c 30.394261
_cell_angle_alpha 90.000000
_cell_angle_beta 90.000000
_cell_angle_gamma 90.000000
_cell_volume 2389.595646
_symmetry_space_group_name_H-M "A M A 2"
_symmetry_group_IT_number 40
_symmetry_cell_setting 'orthorhombic'
loop_
_space_group_symop_operation_xyz
x,y,z
-x,-y,z
1/2-x,y,z
1/2+x,-y,z
x,1/2+y,1/2+z
-x,1/2-y,1/2+z
1/2-x,1/2+y,1/2+z
1/2+x,1/2-y,1/2+z
loop_
_atom_site_type_symbol
_atom_site_label
_atom_site_fract_x
_atom_site_fract_y
_atom_site_fract_z
Si Si1 0.932622 0.657592 0.494910
Si Si2 0.566587 0.345962 0.074369
Si Si3 0.434103 0.159740 0.250004
Si Si4 0.934390 0.342822 0.174123
Si Si5 0.934080 0.339854 0.329527
Si Si6 0.434284 0.160864 0.409831
O O1 0.750000 0.642960 0.497681
O O2 0.998106 0.723569 0.540794
O O3 0.982479 0.760355 0.454814
O O4 0.000000 0.500000 0.486108
O O5 0.500000 0.500000 0.058755
O O6 0.750000 0.357397 0.071197
O O7 0.514333 0.308737 0.124010
O O8 0.250000 0.152076 0.251550
O O9 0.490551 0.213396 0.202342
O O10 0.494873 0.275479 0.285146
O O11 0.500000 0.000000 0.260544
O O12 0.750000 0.343462 0.180269
O O13 0.000000 0.500000 0.189199
O O14 0.750000 0.346801 0.324695
O O15 0.000000 0.500000 0.338017
O O16 0.980857 0.239451 0.369960
O O17 0.250000 0.160943 0.401686
O O18 0.500000 0.000000 0.412944
#
# Coordination Sequence:
#
# PCOD8183866 Si02
#       6
#     8   8   8   8   8   8
#     4  10  22  38  57  84 118 155 196 241 290 345
#     4   9  19  36  58  85 116 152 195 241 289 344
#     4  12  25  42  62  87 119 155 196 241 293 348
#     4  10  20  37  60  87 119 155 197 243 293 348
#     4  12  25  43  65  90 120 154 194 239 290 346
#     4  11  23  40  62  89 120 155 196 241 292 347
#
# _framework density 20.087078999999999
#
# number of rings (size 3 to 8) (size 9 to 14) (size 15 to 20)
#    0.000    1.333    0.000    6.000    0.000    4.667 
#    0.000    1.667    0.000    0.000    0.000    0.000 
#    0.000    0.000    0.000    0.000    0.000    0.000 
#
# Total GULP energy -297716.856461 kJ/mol
# GULP energy per Si atom -12404.869019 kJ/mol
# Density = 2.004136 g / cm^3
# Si number density = 20.087079 Si / 1000 Ang^3
#
#
#
# Elastic Constant Matrix: (Units=GPa)
#
#
# Indices 1 2 3 4 5 6 
#
# 1 99.0686 41.2979 41.8177 0.0000 0.0000 0.0000
# 2 41.2979 143.3332 60.0840 0.0000 0.0000 0.0000
# 3 41.8177 60.0840 117.5817 0.0000 0.0000 0.0000
# 4 0.0000 0.0000 0.0000 46.6461 0.0000 0.0000
# 5 0.0000 0.0000 0.0000 0.0000 29.7296 0.0000
# 6 0.0000 0.0000 0.0000 0.0000 0.0000 38.3961
#
#
#
# Elastic Compliance Matrix: (Units=1/GPa)
#
#
# Indices 1 2 3 4 5 6 
#
# 1 0.012396 -0.002193 -0.003288 0.000000 0.000000 0.000000
# 2 -0.002193 0.009267 -0.003955 0.000000 0.000000 0.000000
# 3 -0.003288 -0.003955 0.011695 0.000000 0.000000 0.000000
# 4 0.000000 0.000000 0.000000 0.021438 0.000000 0.000000
# 5 0.000000 0.000000 0.000000 0.000000 0.033637 0.000000
# 6 0.000000 0.000000 0.000000 0.000000 0.000000 0.026044
#
#
# Mechanical properties :
#
#
# Convention : Reuss Voigt Hill
#
# Bulk Modulus (GPa) = 69.03628 71.82028 70.42828
# Shear Modulus (GPa) = 36.18515 37.40660 36.79587
#
# Velocity S-wave (km/s) = 4.24891 4.32003 4.28462
# Velocity P-wave (km/s) = 7.64945 7.79202 7.72107
#
# Compressibility (1/GPa) = 0.01448514
#
# Stress axis : x y z
#
# Youngs Moduli (GPa) = 80.66989 107.91317 85.50565
#
# Poissons Ratio (x) = 0.23670 0.28113
# Poissons Ratio (y) = 0.17694 0.33819
# Poissons Ratio (z) = 0.26523 0.42682
#
# Static dielectric constant tensor:
#      x y z
#    x 3.720940 0.000000 0.000000 
#    y 0.000000 3.667110 0.000000 
#    z 0.000000 0.000000 4.027920 
# 
# 
# High freq. dielectric constant tensor:
#      x y z
#    x 1.791680 0.000000 0.000000 
#    y 0.000000 1.792300 0.000000 
#    z 0.000000 0.000000 1.802070 
# 
# From -- ./inp_files/26135.got.cif
#   From: 2010.03.12/outbox.cif.g09.slc.cpg/sg40_14_cif.got.tgz:26135.got - 2010.04.14 01:38:03.
