data_PCOD8183018
_publ_section_title
;
Structure prediction by ZEFSAII (Michael W. Deem and Ramdas Pophale) SiO2 
 PCOD8183018
Probable space group: A M A 2
;
_chemical_formula_sum "Si O2"
_cell_formula_units_Z 56
_cell_length_a 9.034310
_cell_length_b 23.927638
_cell_length_c 13.443781
_cell_angle_alpha 90.000000
_cell_angle_beta 90.000000
_cell_angle_gamma 90.000000
_cell_volume 2906.138096
_symmetry_space_group_name_H-M "A M A 2"
_symmetry_group_IT_number 40
_symmetry_cell_setting 'orthorhombic'
loop_
_space_group_symop_operation_xyz
x,y,z
-x,-y,z
1/2-x,y,z
1/2+x,-y,z
x,1/2+y,1/2+z
-x,1/2-y,1/2+z
1/2-x,1/2+y,1/2+z
1/2+x,1/2-y,1/2+z
loop_
_atom_site_type_symbol
_atom_site_label
_atom_site_fract_x
_atom_site_fract_y
_atom_site_fract_z
Si Si1 0.421525 0.944526 0.566750
Si Si2 0.422802 0.274891 0.574160
Si Si3 0.077329 0.058831 0.981714
Si Si4 0.576018 0.056662 0.337647
Si Si5 0.576571 0.373988 0.677964
Si Si6 0.422588 0.328709 0.157044
Si Si7 0.420203 0.342345 0.381543
O O1 0.250000 0.956027 0.579309
O O2 0.462968 0.932874 0.452357
O O3 0.472832 0.891572 0.630992
O O4 0.500000 0.000000 0.607904
O O5 0.250000 0.278537 0.599738
O O6 0.513265 0.313840 0.649277
O O7 0.481289 0.212318 0.588723
O O8 0.454645 0.293430 0.460691
O O9 0.250000 0.050968 0.964263
O O10 0.041559 0.081187 0.091945
O O11 0.000000 0.000000 0.964984
O O12 0.018333 0.103108 0.901484
O O13 0.750000 0.052630 0.317197
O O14 0.506612 0.107928 0.277691
O O15 0.500000 0.000000 0.299266
O O16 0.750000 0.368113 0.698695
O O17 0.250000 0.319832 0.131716
O O18 0.457031 0.317872 0.273004
O O19 0.250000 0.361532 0.388320
#
# Coordination Sequence:
#
# PCOD8183018 Si02
#       7
#     8   8   8   8   8   8   8
#     4   9  20  37  56  79 109 142 178 221 267 314
#     4  10  21  37  56  80 108 139 177 222 266 316
#     4  10  20  33  52  78 109 144 181 221 268 318
#     4  10  19  32  51  78 110 145 183 224 269 318
#     4  10  20  34  53  78 108 145 183 223 270 318
#     4  10  21  39  60  81 107 141 177 217 266 318
#     4   9  20  38  57  78 107 140 178 222 265 312
#
# _framework density 19.269559999999998
#
# number of rings (size 3 to 8) (size 9 to 14) (size 15 to 20)
#    0.000    2.286    0.000    2.143    0.000    6.857 
#    0.000    4.286    0.000    0.000    0.000    0.000 
#    0.000    0.000    0.000    0.000    0.000    0.000 
#
# Total GULP energy -347319.484954 kJ/mol
# GULP energy per Si atom -12404.267320 kJ/mol
# Density = 1.922570 g / cm^3
# Si number density = 19.269560 Si / 1000 Ang^3
#
#
#
# Elastic Constant Matrix: (Units=GPa)
#
#
# Indices 1 2 3 4 5 6 
#
# 1 83.3168 49.9176 38.8168 0.0000 0.0000 0.0000
# 2 49.9176 121.0647 54.5040 0.0000 0.0000 0.0000
# 3 38.8168 54.5040 82.3028 0.0000 0.0000 0.0000
# 4 0.0000 0.0000 0.0000 26.0646 0.0000 0.0000
# 5 0.0000 0.0000 0.0000 0.0000 22.9286 0.0000
# 6 0.0000 0.0000 0.0000 0.0000 0.0000 41.0081
#
#
#
# Elastic Compliance Matrix: (Units=1/GPa)
#
#
# Indices 1 2 3 4 5 6 
#
# 1 0.017209 -0.004903 -0.004869 0.000000 0.000000 0.000000
# 2 -0.004903 0.013166 -0.006406 0.000000 0.000000 0.000000
# 3 -0.004869 -0.006406 0.018689 0.000000 0.000000 0.000000
# 4 0.000000 0.000000 0.000000 0.038366 0.000000 0.000000
# 5 0.000000 0.000000 0.000000 0.000000 0.043614 0.000000
# 6 0.000000 0.000000 0.000000 0.000000 0.000000 0.024385
#
#
# Mechanical properties :
#
#
# Convention : Reuss Voigt Hill
#
# Bulk Modulus (GPa) = 59.85784 63.68456 61.77120
# Shear Modulus (GPa) = 25.85911 27.56330 26.71121
#
# Velocity S-wave (km/s) = 3.66726 3.78617 3.72719
# Velocity P-wave (km/s) = 7.00447 7.22735 7.11678
#
# Compressibility (1/GPa) = 0.01670625
#
# Stress axis : x y z
#
# Youngs Moduli (GPa) = 58.11055 75.95290 53.50698
#
# Poissons Ratio (x) = 0.37243 0.26052
# Poissons Ratio (y) = 0.28494 0.34279
# Poissons Ratio (z) = 0.28293 0.48659
#
# Static dielectric constant tensor:
#      x y z
#    x 3.541850 0.000000 0.000000 
#    y 0.000000 3.447230 0.000000 
#    z 0.000000 0.000000 3.505880 
# 
# 
# High freq. dielectric constant tensor:
#      x y z
#    x 1.754330 0.000000 0.000000 
#    y 0.000000 1.748030 0.000000 
#    z 0.000000 0.000000 1.744780 
# 
# From -- ./inp_files/15289.got.cif
#   From: 2010.03.12/outbox.cif.g09.slc.cpg/sg40_8_cif.got.tgz:15289.got - 2010.04.14 01:38:03.
