data_PCOD8183783
_publ_section_title
;
Structure prediction by ZEFSAII (Michael W. Deem and Ramdas Pophale) SiO2 
 PCOD8183783
Probable space group: A M A 2
;
_chemical_formula_sum "Si O2"
_cell_formula_units_Z 64
_cell_length_a 8.463316
_cell_length_b 30.867136
_cell_length_c 11.932530
_cell_angle_alpha 90.000000
_cell_angle_beta 90.000000
_cell_angle_gamma 90.000000
_cell_volume 3117.234162
_symmetry_space_group_name_H-M "A M A 2"
_symmetry_group_IT_number 40
_symmetry_cell_setting 'orthorhombic'
loop_
_space_group_symop_operation_xyz
x,y,z
-x,-y,z
1/2-x,y,z
1/2+x,-y,z
x,1/2+y,1/2+z
-x,1/2-y,1/2+z
1/2-x,1/2+y,1/2+z
1/2+x,1/2-y,1/2+z
loop_
_atom_site_type_symbol
_atom_site_label
_atom_site_fract_x
_atom_site_fract_y
_atom_site_fract_z
Si Si1 0.563135 0.045020 0.247710
Si Si2 0.435604 0.370312 0.138368
Si Si3 0.068021 0.707793 0.737002
Si Si4 0.068256 0.701952 0.293269
Si Si5 0.433301 0.829300 0.017852
Si Si6 0.563001 0.545092 0.269110
Si Si7 0.437384 0.427501 0.508291
Si Si8 0.935619 0.129787 0.377577
O O1 0.750000 0.044421 0.249251
O O2 0.497188 0.049499 0.120371
O O3 0.502290 0.085179 0.322017
O O4 0.500000 0.000000 0.299072
O O5 0.250000 0.364430 0.159904
O O6 0.524741 0.329558 0.190983
O O7 0.497725 0.414870 0.194192
O O8 0.477175 0.371993 0.007938
O O9 0.250000 0.720818 0.752650
O O10 0.957361 0.748777 0.757858
O O11 0.039896 0.693736 0.609853
O O12 0.026034 0.669746 0.822988
O O13 0.250000 0.695001 0.326346
O O14 0.956424 0.693144 0.398724
O O15 0.250000 0.826995 0.053414
O O16 0.494653 0.878187 0.008579
O O17 0.500000 0.500000 0.218071
O O18 0.750000 0.544471 0.267957
O O19 0.495484 0.549925 0.396048
O O20 0.250000 0.428859 0.506244
O O21 0.750000 0.135767 0.355480
#
# Coordination Sequence:
#
# PCOD8183783 Si02
#       8
#     8   8   8   8   8   8   8   8
#     4  10  20  36  58  88 121 161 204 254 313 373
#     4  10  22  42  65  88 121 165 213 262 313 369
#     4  12  26  43  65  95 128 165 208 256 313 375
#     4  12  26  43  65  95 128 165 208 256 313 375
#     4  11  21  42  70  94 125 164 207 259 313 368
#     4  10  20  36  58  88 121 161 204 254 313 373
#     4   9  17  34  60  86 119 159 199 248 314 368
#     4  10  22  42  65  88 121 165 213 262 313 369
#
# _framework density 20.531022
#
# number of rings (size 3 to 8) (size 9 to 14) (size 15 to 20)
#    0.000    1.500    2.500    3.000    1.750    2.000 
#    0.000    0.000    0.000    0.000    0.000    0.000 
#    0.000    0.000    0.000    0.000    0.000    0.000 
#
# Total GULP energy -396912.937554 kJ/mol
# GULP energy per Si atom -12403.529299 kJ/mol
# Density = 2.048429 g / cm^3
# Si number density = 20.531022 Si / 1000 Ang^3
#
#
#
# Elastic Constant Matrix: (Units=GPa)
#
#
# Indices 1 2 3 4 5 6 
#
# 1 45.3949 22.8993 21.5825 0.0000 0.0000 0.0000
# 2 22.8993 160.0685 52.5690 0.0000 0.0000 0.0000
# 3 21.5825 52.5690 122.1350 0.0000 0.0000 0.0000
# 4 0.0000 0.0000 0.0000 105.4956 0.0000 0.0000
# 5 0.0000 0.0000 0.0000 0.0000 16.1380 0.0000
# 6 0.0000 0.0000 0.0000 0.0000 0.0000 32.3994
#
#
#
# Elastic Compliance Matrix: (Units=1/GPa)
#
#
# Indices 1 2 3 4 5 6 
#
# 1 0.024855 -0.002461 -0.003333 0.000000 0.000000 0.000000
# 2 -0.002461 0.007520 -0.002802 0.000000 0.000000 0.000000
# 3 -0.003333 -0.002802 0.009982 0.000000 0.000000 0.000000
# 4 0.000000 0.000000 0.000000 0.009479 0.000000 0.000000
# 5 0.000000 0.000000 0.000000 0.000000 0.061966 0.000000
# 6 0.000000 0.000000 0.000000 0.000000 0.000000 0.030865
#
#
# Mechanical properties :
#
#
# Convention : Reuss Voigt Hill
#
# Bulk Modulus (GPa) = 39.73652 57.96667 48.85160
# Shear Modulus (GPa) = 29.36923 46.17644 37.77284
#
# Velocity S-wave (km/s) = 3.78627 4.74762 4.29393
# Velocity P-wave (km/s) = 6.20571 7.63860 6.95913
#
# Compressibility (1/GPa) = 0.02516576
#
# Stress axis : x y z
#
# Youngs Moduli (GPa) = 40.23341 132.98724 100.17577
#
# Poissons Ratio (x) = 0.32731 0.33386
# Poissons Ratio (y) = 0.09902 0.28065
# Poissons Ratio (z) = 0.13409 0.37258
#
# Static dielectric constant tensor:
#      x y z
#    x 3.401020 0.000000 0.000000 
#    y 0.000000 3.886180 0.000000 
#    z 0.000000 0.000000 3.839410 
# 
# 
# High freq. dielectric constant tensor:
#      x y z
#    x 1.780890 0.000000 0.000000 
#    y 0.000000 1.817390 0.000000 
#    z 0.000000 0.000000 1.807710 
# 
# From -- ./inp_files/10657.got.cif
#   From: 2010.03.12/outbox.cif.g09.slc.cpg/sg40_6_cif.got.tgz:10657.got - 2010.04.14 01:38:03.
