data_PCOD8183646
_publ_section_title
;
Structure prediction by ZEFSAII (Michael W. Deem and Ramdas Pophale) SiO2 
 PCOD8183646
Probable space group: A M A 2
;
_chemical_formula_sum "Si O2"
_cell_formula_units_Z 48
_cell_length_a 8.625384
_cell_length_b 10.126415
_cell_length_c 29.693133
_cell_angle_alpha 90.000000
_cell_angle_beta 90.000000
_cell_angle_gamma 90.000000
_cell_volume 2593.523479
_symmetry_space_group_name_H-M "A M A 2"
_symmetry_group_IT_number 40
_symmetry_cell_setting 'orthorhombic'
loop_
_space_group_symop_operation_xyz
x,y,z
-x,-y,z
1/2-x,y,z
1/2+x,-y,z
x,1/2+y,1/2+z
-x,1/2-y,1/2+z
1/2-x,1/2+y,1/2+z
1/2+x,1/2-y,1/2+z
loop_
_atom_site_type_symbol
_atom_site_label
_atom_site_fract_x
_atom_site_fract_y
_atom_site_fract_z
Si Si1 0.433174 0.640346 0.091010
Si Si2 0.566411 0.360197 0.323866
Si Si3 0.066770 0.859606 0.162942
Si Si4 0.432168 0.637339 0.426783
Si Si5 0.434069 0.359122 0.994629
Si Si6 0.933462 0.858642 0.259283
O O1 0.500000 0.500000 0.107165
O O2 0.250000 0.627916 0.086089
O O3 0.482873 0.750044 0.126943
O O4 0.503915 0.683368 0.043364
O O5 0.500000 0.500000 0.307065
O O6 0.750000 0.357322 0.316966
O O7 0.516743 0.335492 0.375518
O O8 0.486641 0.246652 0.295555
O O9 0.250000 0.871539 0.167957
O O10 0.996384 0.816128 0.210573
O O11 0.000000 0.000000 0.146858
O O12 0.500000 0.500000 0.444724
O O13 0.250000 0.627364 0.430597
O O14 0.495973 0.754228 0.458202
O O15 0.500000 0.500000 0.979734
O O16 0.250000 0.366301 0.996149
O O17 0.750000 0.867128 0.257485
O O18 0.000000 0.000000 0.273913
#
# Coordination Sequence:
#
# PCOD8183646 Si02
#       6
#     8   8   8   8   8   8
#     4  10  21  36  55  79 106 138 176 217 262 313
#     4  10  20  37  57  80 110 142 180 222 267 318
#     4  10  21  37  56  79 107 139 177 219 264 316
#     4   9  20  36  55  79 107 140 177 218 262 312
#     4  10  20  35  54  78 107 139 176 217 262 311
#     4  11  22  37  57  81 109 142 179 221 269 318
#
# _framework density 18.507639999999999
#
# number of rings (size 3 to 8) (size 9 to 14) (size 15 to 20)
#    0.000    2.000    0.000    5.500    0.000    6.667 
#    0.000    6.667    0.000    0.000    0.000    0.000 
#    0.000    0.000    0.000    0.000    0.000    0.000 
#
# Total GULP energy -297676.383728 kJ/mol
# GULP energy per Si atom -12403.182655 kJ/mol
# Density = 1.846552 g / cm^3
# Si number density = 18.507640 Si / 1000 Ang^3
#
#
#
# Elastic Constant Matrix: (Units=GPa)
#
#
# Indices 1 2 3 4 5 6 
#
# 1 91.4103 56.6119 48.4828 0.0000 0.0000 0.0000
# 2 56.6119 164.2468 113.4471 0.0000 0.0000 0.0000
# 3 48.4828 113.4471 119.2462 0.0000 0.0000 0.0000
# 4 0.0000 0.0000 0.0000 46.9814 0.0000 0.0000
# 5 0.0000 0.0000 0.0000 0.0000 -83.4694 0.0000
# 6 0.0000 0.0000 0.0000 0.0000 0.0000 32.6715
#
#
#
# Elastic Compliance Matrix: (Units=1/GPa)
#
#
# Indices 1 2 3 4 5 6 
#
# 1 0.014338 -0.002670 -0.003289 0.000000 0.000000 0.000000
# 2 -0.002670 0.018254 -0.016281 0.000000 0.000000 0.000000
# 3 -0.003289 -0.016281 0.025212 0.000000 0.000000 0.000000
# 4 0.000000 0.000000 0.000000 0.021285 0.000000 0.000000
# 5 0.000000 0.000000 0.000000 0.000000 -0.011980 0.000000
# 6 0.000000 0.000000 0.000000 0.000000 0.000000 0.030608
#
#
# Mechanical properties :
#
#
# Convention : Reuss Voigt Hill
#
# Bulk Modulus (GPa) = 75.05164 90.22077 82.63620
# Shear Modulus (GPa) = 34.09767 9.66080 21.87923
#
# Velocity S-wave (km/s) = 4.29692 2.28719 3.44200
# Velocity P-wave (km/s) = 8.07823 7.47186 7.78095
#
# Compressibility (1/GPa) = 0.01332416
#
# Stress axis : x y z
#
# Youngs Moduli (GPa) = 69.74554 54.78287 39.66315
#
# Poissons Ratio (x) = 0.14626 0.13047
# Poissons Ratio (y) = 0.18621 0.64574
# Poissons Ratio (z) = 0.22942 0.89190
#
# Static dielectric constant tensor:
#      x y z
#    x 3.591060 0.000000 0.000000 
#    y 0.000000 3.610810 0.000000 
#    z 0.000000 0.000000 3.523890 
# 
# 
# High freq. dielectric constant tensor:
#      x y z
#    x 1.733090 0.000000 0.000000 
#    y 0.000000 1.725930 0.000000 
#    z 0.000000 0.000000 1.718810 
# 
# From -- ./inp_files/26161.got.cif
#   From: 2010.03.12/outbox.cif.g09.slc.cpg/sg40_14_cif.got.tgz:26161.got - 2010.04.14 01:38:03.
