data_PCOD8183531
_publ_section_title
;
Structure prediction by ZEFSAII (Michael W. Deem and Ramdas Pophale) SiO2 
 PCOD8183531
Probable space group: A M A 2
;
_chemical_formula_sum "Si O2"
_cell_formula_units_Z 56
_cell_length_a 8.898002
_cell_length_b 23.806170
_cell_length_c 13.466362
_cell_angle_alpha 90.000000
_cell_angle_beta 90.000000
_cell_angle_gamma 90.000000
_cell_volume 2852.543753
_symmetry_space_group_name_H-M "A M A 2"
_symmetry_group_IT_number 40
_symmetry_cell_setting 'orthorhombic'
loop_
_space_group_symop_operation_xyz
x,y,z
-x,-y,z
1/2-x,y,z
1/2+x,-y,z
x,1/2+y,1/2+z
-x,1/2-y,1/2+z
1/2-x,1/2+y,1/2+z
1/2+x,1/2-y,1/2+z
loop_
_atom_site_type_symbol
_atom_site_label
_atom_site_fract_x
_atom_site_fract_y
_atom_site_fract_z
Si Si1 0.426691 0.442007 0.692400
Si Si2 0.423677 0.125343 0.801154
Si Si3 0.426301 0.338404 0.995708
Si Si4 0.422122 0.277511 0.194371
Si Si5 0.924931 0.837112 0.292699
Si Si6 0.426463 0.560119 0.102770
Si Si7 0.574151 0.557602 0.464848
O O1 0.500000 0.500000 0.728667
O O2 0.250000 0.446548 0.707586
O O3 0.489515 0.392566 0.759478
O O4 0.470387 0.429871 0.578347
O O5 0.250000 0.127060 0.829174
O O6 0.473453 0.187154 0.768131
O O7 0.458405 0.080876 0.714314
O O8 0.514807 0.108783 0.899129
O O9 0.250000 0.345678 0.976502
O O10 0.460343 0.292055 0.080346
O O11 0.495092 0.398341 0.025291
O O12 0.508098 0.316376 0.897229
O O13 0.250000 0.293444 0.218260
O O14 0.452941 0.211813 0.211977
O O15 0.750000 0.850728 0.304412
O O16 0.500000 0.500000 0.087981
O O17 0.250000 0.557626 0.079813
O O18 0.500000 0.500000 0.427458
O O19 0.750000 0.551047 0.450465
#
# Coordination Sequence:
#
# PCOD8183531 Si02
#       7
#     8   8   8   8   8   8   8
#     4  10  22  40  60  84 113 147 187 232 278 329
#     4  10  20  33  54  83 115 151 191 234 281 332
#     4  10  21  39  60  83 112 147 187 231 276 328
#     4   9  21  40  59  81 113 149 186 230 278 328
#     4  11  23  40  62  87 114 146 183 227 279 333
#     4  10  20  34  53  81 114 150 190 234 282 332
#     4  10  20  34  54  81 115 152 191 234 281 332
#
# _framework density 19.631601
#
# number of rings (size 3 to 8) (size 9 to 14) (size 15 to 20)
#    0.000    2.000    0.000    3.000    0.000    8.000 
#    0.000    5.714    0.000    0.000    0.000    0.000 
#    0.000    0.000    0.000    0.000    0.000    0.000 
#
# Total GULP energy -347351.206952 kJ/mol
# GULP energy per Si atom -12405.400248 kJ/mol
# Density = 1.958692 g / cm^3
# Si number density = 19.631601 Si / 1000 Ang^3
#
#
#
# Elastic Constant Matrix: (Units=GPa)
#
#
# Indices 1 2 3 4 5 6 
#
# 1 85.9062 42.1132 40.0883 0.0000 0.0000 0.0000
# 2 42.1132 111.4468 50.1793 0.0000 0.0000 0.0000
# 3 40.0883 50.1793 90.0276 0.0000 0.0000 0.0000
# 4 0.0000 0.0000 0.0000 26.6877 0.0000 0.0000
# 5 0.0000 0.0000 0.0000 0.0000 35.2798 0.0000
# 6 0.0000 0.0000 0.0000 0.0000 0.0000 32.1128
#
#
#
# Elastic Compliance Matrix: (Units=1/GPa)
#
#
# Indices 1 2 3 4 5 6 
#
# 1 0.015779 -0.003737 -0.004944 0.000000 0.000000 0.000000
# 2 -0.003737 0.012864 -0.005506 0.000000 0.000000 0.000000
# 3 -0.004944 -0.005506 0.016378 0.000000 0.000000 0.000000
# 4 0.000000 0.000000 0.000000 0.037470 0.000000 0.000000
# 5 0.000000 0.000000 0.000000 0.000000 0.028345 0.000000
# 6 0.000000 0.000000 0.000000 0.000000 0.000000 0.031140
#
#
# Mechanical properties :
#
#
# Convention : Reuss Voigt Hill
#
# Bulk Modulus (GPa) = 60.06584 61.34912 60.70748
# Shear Modulus (GPa) = 28.42527 29.14937 28.78732
#
# Velocity S-wave (km/s) = 3.80930 3.85752 3.83348
# Velocity P-wave (km/s) = 7.07182 7.15252 7.11229
#
# Compressibility (1/GPa) = 0.01664840
#
# Stress axis : x y z
#
# Youngs Moduli (GPa) = 63.37380 77.73553 61.05730
#
# Poissons Ratio (x) = 0.29048 0.30184
# Poissons Ratio (y) = 0.23682 0.33619
# Poissons Ratio (z) = 0.31329 0.42803
#
# Static dielectric constant tensor:
#      x y z
#    x 3.674120 0.000000 0.000000 
#    y 0.000000 3.446970 0.000000 
#    z 0.000000 0.000000 3.611460 
# 
# 
# High freq. dielectric constant tensor:
#      x y z
#    x 1.779080 0.000000 0.000000 
#    y 0.000000 1.760330 0.000000 
#    z 0.000000 0.000000 1.763580 
# 
# From -- ./inp_files/15284.got.cif
#   From: 2010.03.12/outbox.cif.g09.slc.cpg/sg40_8_cif.got.tgz:15284.got - 2010.04.14 01:38:03.
