data_PCOD8183052
_publ_section_title
;
Structure prediction by ZEFSAII (Michael W. Deem and Ramdas Pophale) SiO2 
 PCOD8183052
Probable space group: A M A 2
;
_chemical_formula_sum "Si O2"
_cell_formula_units_Z 64
_cell_length_a 8.950504
_cell_length_b 32.630331
_cell_length_c 11.622922
_cell_angle_alpha 90.000000
_cell_angle_beta 90.000000
_cell_angle_gamma 90.000000
_cell_volume 3394.566286
_symmetry_space_group_name_H-M "A M A 2"
_symmetry_group_IT_number 40
_symmetry_cell_setting 'orthorhombic'
loop_
_space_group_symop_operation_xyz
x,y,z
-x,-y,z
1/2-x,y,z
1/2+x,-y,z
x,1/2+y,1/2+z
-x,1/2-y,1/2+z
1/2-x,1/2+y,1/2+z
1/2+x,1/2-y,1/2+z
loop_
_atom_site_type_symbol
_atom_site_label
_atom_site_fract_x
_atom_site_fract_y
_atom_site_fract_z
Si Si1 0.072764 0.125494 0.290130
Si Si2 0.425086 0.224977 0.675811
Si Si3 0.427642 0.691861 0.606678
Si Si4 0.075478 0.140923 0.547736
Si Si5 0.926203 0.457835 0.677021
Si Si6 0.074704 0.541524 0.413618
Si Si7 0.083825 0.313707 0.376885
Si Si8 0.084884 0.397624 0.247570
O O1 0.250000 0.125019 0.283894
O O2 0.013636 0.160863 0.204753
O O3 0.015538 0.136290 0.417595
O O4 0.013208 0.080659 0.251301
O O5 0.250000 0.231120 0.694813
O O6 0.496384 0.264173 0.616534
O O7 0.458185 0.186680 0.592018
O O8 0.501246 0.220696 0.800860
O O9 0.250000 0.696202 0.608568
O O10 0.482452 0.674076 0.485260
O O11 0.250000 0.130978 0.555399
O O12 0.990945 0.106490 0.622603
O O13 0.750000 0.462984 0.689611
O O14 0.972401 0.449107 0.544951
O O15 0.000000 0.500000 0.721892
O O16 0.250000 0.537125 0.401580
O O17 0.000000 0.500000 0.369861
O O18 0.019786 0.577186 0.331691
O O19 0.250000 0.297993 0.413249
O O20 0.100486 0.352887 0.298299
O O21 0.250000 0.417610 0.235483
#
# Coordination Sequence:
#
# PCOD8183052 Si02
#       8
#     8   8   8   8   8   8   8   8
#     4   9  19  36  57  81 108 147 189 227 274 338
#     4  10  21  36  55  80 108 143 186 231 283 337
#     4  11  22  35  56  83 111 143 183 233 284 337
#     4   9  19  37  58  76 104 148 189 225 272 335
#     4   9  18  34  56  82 112 143 181 224 275 330
#     4  10  19  32  54  83 113 144 177 224 277 335
#     4  10  21  37  55  76 106 142 182 228 276 329
#     4  10  20  35  55  79 107 140 180 228 276 325
#
# _framework density 18.853660999999999
#
# number of rings (size 3 to 8) (size 9 to 14) (size 15 to 20)
#    0.000    2.250    0.000    2.625    1.750    3.500 
#    0.000    3.750    0.000    1.500    0.000    0.000 
#    0.000    0.000    0.000    0.000    0.000    0.000 
#
# Total GULP energy -396812.380165 kJ/mol
# GULP energy per Si atom -12400.386880 kJ/mol
# Density = 1.881075 g / cm^3
# Si number density = 18.853661 Si / 1000 Ang^3
#
#
#
# Elastic Constant Matrix: (Units=GPa)
#
#
# Indices 1 2 3 4 5 6 
#
# 1 74.0376 41.6232 35.1178 0.0000 0.0000 0.0000
# 2 41.6232 80.5709 46.9996 0.0000 0.0000 0.0000
# 3 35.1178 46.9996 120.4393 0.0000 0.0000 0.0000
# 4 0.0000 0.0000 0.0000 19.7662 0.0000 0.0000
# 5 0.0000 0.0000 0.0000 0.0000 27.1397 0.0000
# 6 0.0000 0.0000 0.0000 0.0000 0.0000 31.4900
#
#
#
# Elastic Compliance Matrix: (Units=1/GPa)
#
#
# Indices 1 2 3 4 5 6 
#
# 1 0.019504 -0.008750 -0.002272 0.000000 0.000000 0.000000
# 2 -0.008750 0.019995 -0.005251 0.000000 0.000000 0.000000
# 3 -0.002272 -0.005251 0.011015 0.000000 0.000000 0.000000
# 4 0.000000 0.000000 0.000000 0.050591 0.000000 0.000000
# 5 0.000000 0.000000 0.000000 0.000000 0.036846 0.000000
# 6 0.000000 0.000000 0.000000 0.000000 0.000000 0.031756
#
#
# Mechanical properties :
#
#
# Convention : Reuss Voigt Hill
#
# Bulk Modulus (GPa) = 55.66115 58.05879 56.85997
# Shear Modulus (GPa) = 24.01032 25.76635 24.88833
#
# Velocity S-wave (km/s) = 3.57250 3.70083 3.63723
# Velocity P-wave (km/s) = 6.82670 7.00877 6.91833
#
# Compressibility (1/GPa) = 0.01796585
#
# Stress axis : x y z
#
# Youngs Moduli (GPa) = 51.27224 50.01221 90.78725
#
# Poissons Ratio (x) = 0.43762 0.20629
# Poissons Ratio (y) = 0.44864 0.47676
# Poissons Ratio (z) = 0.11650 0.26263
#
# Static dielectric constant tensor:
#      x y z
#    x 3.585450 0.000000 0.000000 
#    y 0.000000 3.485740 0.000000 
#    z 0.000000 0.000000 3.558750 
# 
# 
# High freq. dielectric constant tensor:
#      x y z
#    x 1.729820 0.000000 0.000000 
#    y 0.000000 1.726590 0.000000 
#    z 0.000000 0.000000 1.731300 
# 
# From -- ./inp_files/10594.got.cif
#   From: 2010.03.12/outbox.cif.g09.slc.cpg/sg40_6_cif.got.tgz:10594.got - 2010.04.14 01:38:03.
