data_PCOD8183191
_publ_section_title
;
Structure prediction by ZEFSAII (Michael W. Deem and Ramdas Pophale) SiO2 
 PCOD8183191
Probable space group: A M A 2
;
_chemical_formula_sum "Si O2"
_cell_formula_units_Z 64
_cell_length_a 8.725313
_cell_length_b 14.670984
_cell_length_c 27.960473
_cell_angle_alpha 90.000000
_cell_angle_beta 90.000000
_cell_angle_gamma 90.000000
_cell_volume 3579.190159
_symmetry_space_group_name_H-M "A M A 2"
_symmetry_group_IT_number 40
_symmetry_cell_setting 'orthorhombic'
loop_
_space_group_symop_operation_xyz
x,y,z
-x,-y,z
1/2-x,y,z
1/2+x,-y,z
x,1/2+y,1/2+z
-x,1/2-y,1/2+z
1/2-x,1/2+y,1/2+z
1/2+x,1/2-y,1/2+z
loop_
_atom_site_type_symbol
_atom_site_label
_atom_site_fract_x
_atom_site_fract_y
_atom_site_fract_z
Si Si1 0.566056 0.221350 0.910540
Si Si2 0.584049 0.648964 0.506079
Si Si3 0.931372 0.403299 0.332160
Si Si4 0.567553 0.784349 0.638203
Si Si5 0.582028 0.853096 0.539981
Si Si6 0.930506 0.405151 0.223418
Si Si7 0.066776 0.408297 0.604520
Si Si8 0.569814 0.593716 0.946593
O O1 0.750000 0.223990 0.911088
O O2 0.503388 0.179441 0.861768
O O3 0.504870 0.323723 0.916821
O O4 0.501377 0.156489 0.954217
O O5 0.750000 0.602834 0.497899
O O6 0.608513 0.750552 0.524197
O O7 0.499954 0.595808 0.549468
O O8 0.750000 0.405914 0.339081
O O9 0.980361 0.382814 0.277546
O O10 0.000000 0.500000 0.349020
O O11 0.750000 0.782320 0.636216
O O12 0.512180 0.848894 0.593941
O O13 0.507199 0.826001 0.688141
O O14 0.506735 0.680108 0.633700
O O15 0.750000 0.902016 0.538573
O O16 0.466974 0.902249 0.503431
O O17 0.750000 0.413725 0.219552
O O18 0.000000 0.500000 0.205977
O O19 0.250000 0.410647 0.603994
O O20 0.000000 0.500000 0.628666
O O21 0.500000 0.500000 0.925733
O O22 0.750000 0.595786 0.938530
#
# Coordination Sequence:
#
# PCOD8183191 Si02
#       8
#     8   8   8   8   8   8   8   8
#     4  10  19  34  54  74  98 129 166 207 251 297
#     4   7  13  26  43  62  87 121 155 189 230 276
#     4  10  20  34  52  75 100 126 160 203 254 309
#     4   8  15  30  51  70  94 131 167 200 245 297
#     4   8  14  28  47  66  91 125 165 203 240 283
#     4   9  18  33  52  73  96 124 159 201 250 301
#     4   9  16  28  45  66  94 127 161 193 229 275
#     4  11  21  33  49  72 103 137 171 204 243 292
#
# _framework density 17.881139000000001
#
# number of rings (size 3 to 8) (size 9 to 14) (size 15 to 20)
#    0.000    3.000    0.000    4.125    0.000    1.500 
#    0.000   10.000    0.000    0.750    0.000    1.750 
#    0.000    0.000    0.000    0.000    0.000    0.000 
#
# Total GULP energy -396418.961873 kJ/mol
# GULP energy per Si atom -12388.092559 kJ/mol
# Density = 1.784044 g / cm^3
# Si number density = 17.881139 Si / 1000 Ang^3
#
#
#
# Elastic Constant Matrix: (Units=GPa)
#
#
# Indices 1 2 3 4 5 6 
#
# 1 58.0078 34.2758 26.8790 0.0000 0.0000 0.0000
# 2 34.2758 121.7030 66.9121 0.0000 0.0000 0.0000
# 3 26.8790 66.9121 104.3645 0.0000 0.0000 0.0000
# 4 0.0000 0.0000 0.0000 25.1791 0.0000 0.0000
# 5 0.0000 0.0000 0.0000 0.0000 15.6392 0.0000
# 6 0.0000 0.0000 0.0000 0.0000 0.0000 26.0080
#
#
#
# Elastic Compliance Matrix: (Units=1/GPa)
#
#
# Indices 1 2 3 4 5 6 
#
# 1 0.021097 -0.004563 -0.002508 0.000000 0.000000 0.000000
# 2 -0.004563 0.013677 -0.007594 0.000000 0.000000 0.000000
# 3 -0.002508 -0.007594 0.015096 0.000000 0.000000 0.000000
# 4 0.000000 0.000000 0.000000 0.039715 0.000000 0.000000
# 5 0.000000 0.000000 0.000000 0.000000 0.063942 0.000000
# 6 0.000000 0.000000 0.000000 0.000000 0.000000 0.038450
#
#
# Mechanical properties :
#
#
# Convention : Reuss Voigt Hill
#
# Bulk Modulus (GPa) = 48.68240 60.02326 54.35283
# Shear Modulus (GPa) = 21.91507 23.76582 22.84044
#
# Velocity S-wave (km/s) = 3.50465 3.64964 3.57788
# Velocity P-wave (km/s) = 6.60768 7.16942 6.89427
#
# Compressibility (1/GPa) = 0.02054130
#
# Stress axis : x y z
#
# Youngs Moduli (GPa) = 47.39934 73.11738 66.24136
#
# Poissons Ratio (x) = 0.33361 0.16615
# Poissons Ratio (y) = 0.21627 0.50300
# Poissons Ratio (z) = 0.11889 0.55522
#
# Static dielectric constant tensor:
#      x y z
#    x 3.079300 0.000000 0.000000 
#    y 0.000000 3.364700 0.000000 
#    z 0.000000 0.000000 3.577240 
# 
# 
# High freq. dielectric constant tensor:
#      x y z
#    x 1.669620 0.000000 0.000000 
#    y 0.000000 1.684430 0.000000 
#    z 0.000000 0.000000 1.676320 
# 
# From -- ./inp_files/26445.got.cif
#   From: 2010.03.12/outbox.cif.g09.slc.cpg/sg40_14_cif.got.tgz:26445.got - 2010.04.14 01:38:03.
