data_PCOD8183693
_publ_section_title
;
Structure prediction by ZEFSAII (Michael W. Deem and Ramdas Pophale) SiO2 
 PCOD8183693
Probable space group: A M A 2
;
_chemical_formula_sum "Si O2"
_cell_formula_units_Z 64
_cell_length_a 8.993315
_cell_length_b 24.589997
_cell_length_c 15.053855
_cell_angle_alpha 90.000000
_cell_angle_beta 90.000000
_cell_angle_gamma 90.000000
_cell_volume 3329.093629
_symmetry_space_group_name_H-M "A M A 2"
_symmetry_group_IT_number 40
_symmetry_cell_setting 'orthorhombic'
loop_
_space_group_symop_operation_xyz
x,y,z
-x,-y,z
1/2-x,y,z
1/2+x,-y,z
x,1/2+y,1/2+z
-x,1/2-y,1/2+z
1/2-x,1/2+y,1/2+z
1/2+x,1/2-y,1/2+z
loop_
_atom_site_type_symbol
_atom_site_label
_atom_site_fract_x
_atom_site_fract_y
_atom_site_fract_z
Si Si1 0.921667 0.282621 0.365950
Si Si2 0.926555 0.555993 0.584996
Si Si3 0.076135 0.838628 0.391139
Si Si4 0.074232 0.143140 0.210556
Si Si5 0.076898 0.601664 0.416828
Si Si6 0.079889 0.366466 0.084664
Si Si7 0.580922 0.735698 0.192078
Si Si8 0.424166 0.057712 0.723338
O O1 0.750000 0.283833 0.343209
O O2 0.968294 0.224766 0.407789
O O3 0.958929 0.333871 0.429612
O O4 0.997797 0.293295 0.272193
O O5 0.750000 0.551501 0.589826
O O6 0.000000 0.500000 0.616601
O O7 0.984071 0.601751 0.650951
O O8 0.975436 0.568388 0.484368
O O9 0.250000 0.843230 0.366101
O O10 0.040287 0.872270 0.480485
O O11 0.976587 0.863649 0.312780
O O12 0.250000 0.132204 0.202219
O O13 0.025836 0.202778 0.174581
O O14 0.250000 0.589340 0.437059
O O15 0.032113 0.583735 0.317698
O O16 0.250000 0.383757 0.103043
O O17 0.058585 0.302298 0.106437
O O18 0.974034 0.403873 0.142733
O O19 0.750000 0.739843 0.222512
O O20 0.250000 0.049431 0.715319
O O21 0.500000 0.000000 0.712063
#
# Coordination Sequence:
#
# PCOD8183693 Si02
#       8
#     8   8   8   8   8   8   8   8
#     4   9  17  32  55  83 119 157 192 232 282 341
#     4  12  26  43  63  87 115 152 199 249 298 354
#     4   9  19  35  58  86 121 160 197 239 291 345
#     4  10  21  39  62  87 119 155 195 244 296 349
#     4  10  21  37  59  88 121 157 194 237 293 349
#     4  10  20  35  57  86 119 158 198 241 288 342
#     4   9  18  32  55  85 119 156 192 232 284 343
#     4  11  23  39  59  84 116 157 198 244 292 345
#
# _framework density 19.224453
#
# number of rings (size 3 to 8) (size 9 to 14) (size 15 to 20)
#    0.000    2.000    1.250    2.250    1.750    3.500 
#    0.000    0.625    0.000    3.000    0.000    0.000 
#    0.000    0.000    0.000    0.000    0.000    0.000 
#
# Total GULP energy -396769.769400 kJ/mol
# GULP energy per Si atom -12399.055294 kJ/mol
# Density = 1.918070 g / cm^3
# Si number density = 19.224453 Si / 1000 Ang^3
#
#
#
# Elastic Constant Matrix: (Units=GPa)
#
#
# Indices 1 2 3 4 5 6 
#
# 1 83.1744 48.3117 45.7400 0.0000 0.0000 0.0000
# 2 48.3117 105.8839 49.5951 0.0000 0.0000 0.0000
# 3 45.7400 49.5951 97.3938 0.0000 0.0000 0.0000
# 4 0.0000 0.0000 0.0000 26.6777 0.0000 0.0000
# 5 0.0000 0.0000 0.0000 0.0000 31.5993 0.0000
# 6 0.0000 0.0000 0.0000 0.0000 0.0000 28.5584
#
#
#
# Elastic Compliance Matrix: (Units=1/GPa)
#
#
# Indices 1 2 3 4 5 6 
#
# 1 0.018543 -0.005754 -0.005778 0.000000 0.000000 0.000000
# 2 -0.005754 0.014188 -0.004523 0.000000 0.000000 0.000000
# 3 -0.005778 -0.004523 0.015284 0.000000 0.000000 0.000000
# 4 0.000000 0.000000 0.000000 0.037485 0.000000 0.000000
# 5 0.000000 0.000000 0.000000 0.000000 0.031646 0.000000
# 6 0.000000 0.000000 0.000000 0.000000 0.000000 0.035016
#
#
# Mechanical properties :
#
#
# Convention : Reuss Voigt Hill
#
# Bulk Modulus (GPa) = 62.87207 63.74953 63.31080
# Shear Modulus (GPa) = 26.37498 26.88742 26.63120
#
# Velocity S-wave (km/s) = 3.70800 3.74385 3.72597
# Velocity P-wave (km/s) = 7.14896 7.20564 7.17735
#
# Compressibility (1/GPa) = 0.01590531
#
# Stress axis : x y z
#
# Youngs Moduli (GPa) = 53.92922 70.48202 65.42652
#
# Poissons Ratio (x) = 0.40555 0.37806
# Poissons Ratio (y) = 0.31031 0.29589
# Poissons Ratio (z) = 0.31162 0.31876
#
# Static dielectric constant tensor:
#      x y z
#    x 3.497200 0.000000 0.000000 
#    y 0.000000 3.729330 0.000000 
#    z 0.000000 0.000000 3.618760 
# 
# 
# High freq. dielectric constant tensor:
#      x y z
#    x 1.744990 0.000000 0.000000 
#    y 0.000000 1.748600 0.000000 
#    z 0.000000 0.000000 1.741440 
# 
# From -- ./inp_files/15600.got.cif
#   From: 2010.03.12/outbox.cif.g09.slc.cpg/sg40_8_cif.got.tgz:15600.got - 2010.04.14 01:38:03.
