data_PCOD8183272
_publ_section_title
;
Structure prediction by ZEFSAII (Michael W. Deem and Ramdas Pophale) SiO2 
 PCOD8183272
Probable space group: A M A 2
;
_chemical_formula_sum "Si O2"
_cell_formula_units_Z 64
_cell_length_a 16.631681
_cell_length_b 15.748098
_cell_length_c 12.235265
_cell_angle_alpha 90.000000
_cell_angle_beta 90.000000
_cell_angle_gamma 90.000000
_cell_volume 3204.628091
_symmetry_space_group_name_H-M "A M A 2"
_symmetry_group_IT_number 40
_symmetry_cell_setting 'orthorhombic'
loop_
_space_group_symop_operation_xyz
x,y,z
-x,-y,z
1/2-x,y,z
1/2+x,-y,z
x,1/2+y,1/2+z
-x,1/2-y,1/2+z
1/2-x,1/2+y,1/2+z
1/2+x,1/2-y,1/2+z
loop_
_atom_site_type_symbol
_atom_site_label
_atom_site_fract_x
_atom_site_fract_y
_atom_site_fract_z
Si Si1 0.845139 0.302090 0.181720
Si Si2 0.343682 0.295894 0.062034
Si Si3 0.085958 0.539921 0.292935
Si Si4 0.654621 0.649699 0.834043
Si Si5 0.579629 0.378781 0.530699
Si Si6 0.599218 0.675834 0.516528
Si Si7 0.341840 0.973857 0.152788
Si Si8 0.342368 0.364203 0.288250
O O1 0.750000 0.317689 0.185814
O O2 0.890719 0.390256 0.203089
O O3 0.875506 0.233661 0.270895
O O4 0.871794 0.266706 0.063028
O O5 0.250000 0.314836 0.068041
O O6 0.356609 0.196297 0.043490
O O7 0.381621 0.328561 0.175658
O O8 0.380162 0.347889 0.957830
O O9 0.086582 0.579823 0.412594
O O10 0.152042 0.465899 0.289817
O O11 0.000000 0.500000 0.263964
O O12 0.750000 0.653856 0.835473
O O13 0.628290 0.564406 0.769614
O O14 0.491601 0.342518 0.553121
O O15 0.599215 0.449576 0.621735
O O16 0.655922 0.601273 0.563078
O O17 0.606068 0.677838 0.385529
O O18 0.250000 0.006677 0.158790
O O19 0.250000 0.336633 0.301516
#
# Coordination Sequence:
#
# PCOD8183272 Si02
#       8
#     8   8   8   8   8   8   8   8
#     4  10  21  38  64  91 119 164 210 252 298 365
#     4  10  22  39  61  88 121 164 207 252 311 379
#     4  12  23  38  60  93 127 158 204 254 311 368
#     4   8  16  34  58  86 116 151 203 252 299 359
#     4  12  22  36  60  92 125 159 202 258 318 364
#     4  11  22  37  59  91 126 161 204 257 315 365
#     4  10  19  34  60  91 120 155 202 258 306 363
#     4  11  23  40  62  89 126 164 207 259 309 368
#
# _framework density 19.971117
#
# number of rings (size 3 to 8) (size 9 to 14) (size 15 to 20)
#    0.000    1.500    3.750    3.000    1.750    1.000 
#    0.000    1.250    0.000    7.500    0.000    0.000 
#    0.000    0.000    0.000    0.000    0.000    0.000 
#
# Total GULP energy -396803.192298 kJ/mol
# GULP energy per Si atom -12400.099759 kJ/mol
# Density = 1.992566 g / cm^3
# Si number density = 19.971117 Si / 1000 Ang^3
#
#
#
# Elastic Constant Matrix: (Units=GPa)
#
#
# Indices 1 2 3 4 5 6 
#
# 1 57.2151 34.9325 36.1352 0.0000 0.0000 0.0000
# 2 34.9325 106.1976 66.6519 0.0000 0.0000 0.0000
# 3 36.1352 66.6519 152.1945 0.0000 0.0000 0.0000
# 4 0.0000 0.0000 0.0000 41.8375 0.0000 0.0000
# 5 0.0000 0.0000 0.0000 0.0000 16.7285 0.0000
# 6 0.0000 0.0000 0.0000 0.0000 0.0000 34.7987
#
#
#
# Elastic Compliance Matrix: (Units=1/GPa)
#
#
# Indices 1 2 3 4 5 6 
#
# 1 0.022782 -0.005653 -0.002934 0.000000 0.000000 0.000000
# 2 -0.005653 0.014388 -0.004959 0.000000 0.000000 0.000000
# 3 -0.002934 -0.004959 0.009439 0.000000 0.000000 0.000000
# 4 0.000000 0.000000 0.000000 0.023902 0.000000 0.000000
# 5 0.000000 0.000000 0.000000 0.000000 0.059778 0.000000
# 6 0.000000 0.000000 0.000000 0.000000 0.000000 0.028737
#
#
# Mechanical properties :
#
#
# Convention : Reuss Voigt Hill
#
# Bulk Modulus (GPa) = 51.23382 65.67180 58.45281
# Shear Modulus (GPa) = 25.95754 30.53212 28.24483
#
# Velocity S-wave (km/s) = 3.60912 3.91425 3.76478
# Velocity P-wave (km/s) = 6.56333 7.30638 6.94480
#
# Compressibility (1/GPa) = 0.01951836
#
# Stress axis : x y z
#
# Youngs Moduli (GPa) = 43.89456 69.50137 105.94572
#
# Poissons Ratio (x) = 0.39287 0.31079
# Poissons Ratio (y) = 0.24812 0.52539
# Poissons Ratio (z) = 0.12877 0.34466
#
# Static dielectric constant tensor:
#      x y z
#    x 3.451080 0.000000 0.000000 
#    y 0.000000 3.596920 0.000000 
#    z 0.000000 0.000000 3.956910 
# 
# 
# High freq. dielectric constant tensor:
#      x y z
#    x 1.768290 0.000000 0.000000 
#    y 0.000000 1.766690 0.000000 
#    z 0.000000 0.000000 1.776930 
# 
# From -- ./inp_files/13095.got.cif
#   From: 2010.03.12/outbox.cif.g09.slc.cpg/sg40_7_cif.got.tgz:13095.got - 2010.04.14 01:38:03.
