data_PCOD8183001
_publ_section_title
;
Structure prediction by ZEFSAII (Michael W. Deem and Ramdas Pophale) SiO2 
 PCOD8183001
Probable space group: A M A 2
;
_chemical_formula_sum "Si O2"
_cell_formula_units_Z 64
_cell_length_a 8.984132
_cell_length_b 14.687626
_cell_length_c 27.234091
_cell_angle_alpha 90.000000
_cell_angle_beta 90.000000
_cell_angle_gamma 90.000000
_cell_volume 3593.690022
_symmetry_space_group_name_H-M "A M A 2"
_symmetry_group_IT_number 40
_symmetry_cell_setting 'orthorhombic'
loop_
_space_group_symop_operation_xyz
x,y,z
-x,-y,z
1/2-x,y,z
1/2+x,-y,z
x,1/2+y,1/2+z
-x,1/2-y,1/2+z
1/2-x,1/2+y,1/2+z
1/2+x,1/2-y,1/2+z
loop_
_atom_site_type_symbol
_atom_site_label
_atom_site_fract_x
_atom_site_fract_y
_atom_site_fract_z
Si Si1 0.424997 0.408901 0.503310
Si Si2 0.577506 0.589750 0.614318
Si Si3 0.925072 0.593979 0.067983
Si Si4 0.574550 0.285677 0.147416
Si Si5 0.574853 0.231271 0.921780
Si Si6 0.076849 0.407469 0.339504
Si Si7 0.076507 0.906958 0.454204
Si Si8 0.425648 0.405481 0.227003
O O1 0.500000 0.500000 0.482298
O O2 0.250000 0.422624 0.499500
O O3 0.479529 0.390553 0.558899
O O4 0.475357 0.324459 0.469940
O O5 0.500000 0.500000 0.636791
O O6 0.750000 0.567640 0.612926
O O7 0.542936 0.677461 0.647656
O O8 0.750000 0.589339 0.079367
O O9 0.000000 0.500000 0.085025
O O10 0.001412 0.674002 0.098440
O O11 0.958845 0.613122 0.011122
O O12 0.750000 0.306734 0.147242
O O13 0.497234 0.324668 0.195803
O O14 0.750000 0.251024 0.921975
O O15 0.524816 0.176190 0.873295
O O16 0.488675 0.326331 0.921124
O O17 0.250000 0.425035 0.346219
O O18 0.035852 0.383958 0.283435
O O19 0.000000 0.500000 0.357100
O O20 0.250000 0.916363 0.444288
O O21 0.000000 0.000000 0.437121
O O22 0.500000 0.500000 0.210275
O O23 0.250000 0.411271 0.217181
#
# Coordination Sequence:
#
# PCOD8183001 Si02
#       8
#     8   8   8   8   8   8   8   8
#     4   9  17  29  46  70 100 131 160 194 236 283
#     4   9  19  33  48  68  96 129 163 199 239 283
#     4  10  20  33  49  72 102 134 167 203 245 294
#     4  11  21  33  51  74  99 130 168 207 250 298
#     4  10  19  32  51  74 101 132 166 203 244 291
#     4   9  19  34  53  77 104 133 163 200 247 297
#     4  10  21  35  51  72  99 133 170 207 247 291
#     4  10  20  35  53  75 103 132 163 201 248 299
#
# _framework density 17.808993000000001
#
# number of rings (size 3 to 8) (size 9 to 14) (size 15 to 20)
#    0.000    2.250    0.000    3.000    0.000    5.000 
#    0.000    2.500    0.000    0.750    0.000    1.750 
#    0.000    0.000    0.000    0.000    0.000    0.000 
#
# Total GULP energy -396878.613567 kJ/mol
# GULP energy per Si atom -12402.456674 kJ/mol
# Density = 1.776846 g / cm^3
# Si number density = 17.808993 Si / 1000 Ang^3
#
#
#
# Elastic Constant Matrix: (Units=GPa)
#
#
# Indices 1 2 3 4 5 6 
#
# 1 78.6200 64.5477 38.7739 0.0000 0.0000 0.0000
# 2 64.5477 151.4638 63.8206 0.0000 0.0000 0.0000
# 3 38.7739 63.8206 76.3657 0.0000 0.0000 0.0000
# 4 0.0000 0.0000 0.0000 27.2262 0.0000 0.0000
# 5 0.0000 0.0000 0.0000 0.0000 12.4467 0.0000
# 6 0.0000 0.0000 0.0000 0.0000 0.0000 36.0547
#
#
#
# Elastic Compliance Matrix: (Units=1/GPa)
#
#
# Indices 1 2 3 4 5 6 
#
# 1 0.020660 -0.006767 -0.004834 0.000000 0.000000 0.000000
# 2 -0.006767 0.012408 -0.006933 0.000000 0.000000 0.000000
# 3 -0.004834 -0.006933 0.021344 0.000000 0.000000 0.000000
# 4 0.000000 0.000000 0.000000 0.036729 0.000000 0.000000
# 5 0.000000 0.000000 0.000000 0.000000 0.080342 0.000000
# 6 0.000000 0.000000 0.000000 0.000000 0.000000 0.027736
#
#
# Mechanical properties :
#
#
# Convention : Reuss Voigt Hill
#
# Bulk Modulus (GPa) = 57.66534 71.19264 64.42899
# Shear Modulus (GPa) = 20.65536 24.43267 22.54401
#
# Velocity S-wave (km/s) = 3.40932 3.70797 3.56178
# Velocity P-wave (km/s) = 6.92446 7.64163 7.29187
#
# Compressibility (1/GPa) = 0.01734144
#
# Stress axis : x y z
#
# Youngs Moduli (GPa) = 48.40378 80.59562 46.85254
#
# Poissons Ratio (x) = 0.54542 0.22648
# Poissons Ratio (y) = 0.32757 0.32484
# Poissons Ratio (z) = 0.23398 0.55879
#
# Static dielectric constant tensor:
#      x y z
#    x 3.310250 0.000000 0.000000 
#    y 0.000000 3.303200 0.000000 
#    z 0.000000 0.000000 3.239260 
# 
# 
# High freq. dielectric constant tensor:
#      x y z
#    x 1.694550 0.000000 0.000000 
#    y 0.000000 1.688840 0.000000 
#    z 0.000000 0.000000 1.668350 
# 
# From -- ./inp_files/24313.got.cif
#   From: 2010.03.12/outbox.cif.g09.slc.cpg/sg40_13_cif.got.tgz:24313.got - 2010.04.14 01:38:03.
