data_PCOD8183883
_publ_section_title
;
Structure prediction by ZEFSAII (Michael W. Deem and Ramdas Pophale) SiO2 
 PCOD8183883
Probable space group: A M A 2
;
_chemical_formula_sum "Si O2"
_cell_formula_units_Z 64
_cell_length_a 8.760271
_cell_length_b 14.889932
_cell_length_c 24.508581
_cell_angle_alpha 90.000000
_cell_angle_beta 90.000000
_cell_angle_gamma 90.000000
_cell_volume 3196.895372
_symmetry_space_group_name_H-M "A M A 2"
_symmetry_group_IT_number 40
_symmetry_cell_setting 'orthorhombic'
loop_
_space_group_symop_operation_xyz
x,y,z
-x,-y,z
1/2-x,y,z
1/2+x,-y,z
x,1/2+y,1/2+z
-x,1/2-y,1/2+z
1/2-x,1/2+y,1/2+z
1/2+x,1/2-y,1/2+z
loop_
_atom_site_type_symbol
_atom_site_label
_atom_site_fract_x
_atom_site_fract_y
_atom_site_fract_z
Si Si1 0.428675 0.598116 0.439530
Si Si2 0.429670 0.252533 0.364825
Si Si3 0.430505 0.400584 0.169880
Si Si4 0.572505 0.403145 0.559760
Si Si5 0.074421 0.905344 0.551598
Si Si6 0.430600 0.901371 0.433751
Si Si7 0.070955 0.244436 0.747579
Si Si8 0.928445 0.597672 0.667127
O O1 0.500000 0.500000 0.434331
O O2 0.250000 0.590401 0.427314
O O3 0.504433 0.661473 0.395417
O O4 0.455549 0.641331 0.500252
O O5 0.250000 0.252038 0.371656
O O6 0.497187 0.160969 0.388226
O O7 0.473671 0.258282 0.302087
O O8 0.500000 0.500000 0.173586
O O9 0.250000 0.403399 0.183122
O O10 0.459468 0.355680 0.109183
O O11 0.520921 0.340248 0.212142
O O12 0.500000 0.500000 0.556485
O O13 0.750000 0.409784 0.572851
O O14 0.492918 0.355061 0.611476
O O15 0.250000 0.926461 0.546600
O O16 0.026013 0.859212 0.494033
O O17 0.000000 0.000000 0.556277
O O18 0.250000 0.905181 0.424276
O O19 0.500000 0.000000 0.427286
O O20 0.250000 0.237206 0.760538
O O21 0.031072 0.337185 0.717034
O O22 0.750000 0.585162 0.660004
O O23 0.000000 0.500000 0.678486
#
# Coordination Sequence:
#
# PCOD8183883 Si02
#       8
#     8   8   8   8   8   8   8   8
#     4  10  21  39  62  89 120 154 190 235 288 344
#     4  12  26  42  60  84 113 152 200 247 291 342
#     4  10  20  37  61  89 119 152 189 233 284 341
#     4   9  17  31  56  87 119 151 185 227 280 341
#     4   8  16  31  55  86 118 149 184 226 279 340
#     4  10  20  38  62  89 121 156 192 236 288 343
#     4  11  25  43  59  81 113 151 197 246 289 339
#     4  10  21  37  60  87 117 151 188 234 287 340
#
# _framework density 20.019421999999999
#
# number of rings (size 3 to 8) (size 9 to 14) (size 15 to 20)
#    0.000    2.000    0.000    4.125    0.000    6.500 
#    0.000    7.500    0.000    0.000    0.000    0.000 
#    0.000    0.000    0.000    0.000    0.000    0.000 
#
# Total GULP energy -396518.737095 kJ/mol
# GULP energy per Si atom -12391.210534 kJ/mol
# Density = 1.997386 g / cm^3
# Si number density = 20.019422 Si / 1000 Ang^3
#
#
#
# Elastic Constant Matrix: (Units=GPa)
#
#
# Indices 1 2 3 4 5 6 
#
# 1 115.3905 50.5132 62.8949 0.0000 0.0000 0.0000
# 2 50.5132 103.9042 73.3153 0.0000 0.0000 0.0000
# 3 62.8949 73.3153 165.0466 0.0000 0.0000 0.0000
# 4 0.0000 0.0000 0.0000 34.4277 0.0000 0.0000
# 5 0.0000 0.0000 0.0000 0.0000 33.5856 0.0000
# 6 0.0000 0.0000 0.0000 0.0000 0.0000 19.0325
#
#
#
# Elastic Compliance Matrix: (Units=1/GPa)
#
#
# Indices 1 2 3 4 5 6 
#
# 1 0.011865 -0.003755 -0.002854 0.000000 0.000000 0.000000
# 2 -0.003755 0.015206 -0.005324 0.000000 0.000000 0.000000
# 3 -0.002854 -0.005324 0.009511 0.000000 0.000000 0.000000
# 4 0.000000 0.000000 0.000000 0.029046 0.000000 0.000000
# 5 0.000000 0.000000 0.000000 0.000000 0.029775 0.000000
# 6 0.000000 0.000000 0.000000 0.000000 0.000000 0.052542
#
#
# Mechanical properties :
#
#
# Convention : Reuss Voigt Hill
#
# Bulk Modulus (GPa) = 78.62790 84.19869 81.41329
# Shear Modulus (GPa) = 28.40109 30.58369 29.49239
#
# Velocity S-wave (km/s) = 3.77062 3.91282 3.84238
# Velocity P-wave (km/s) = 7.63661 7.90970 7.77436
#
# Compressibility (1/GPa) = 0.01271813
#
# Stress axis : x y z
#
# Youngs Moduli (GPa) = 84.27909 65.76258 105.13844
#
# Poissons Ratio (x) = 0.24693 0.30003
# Poissons Ratio (y) = 0.31645 0.55975
# Poissons Ratio (z) = 0.24050 0.35011
#
# Static dielectric constant tensor:
#      x y z
#    x 3.821600 0.000000 0.000000 
#    y 0.000000 3.419440 0.000000 
#    z 0.000000 0.000000 4.238120 
# 
# 
# High freq. dielectric constant tensor:
#      x y z
#    x 1.795620 0.000000 0.000000 
#    y 0.000000 1.765210 0.000000 
#    z 0.000000 0.000000 1.796820 
# 
# From -- ./inp_files/24239.got.cif
#   From: 2010.03.12/outbox.cif.g09.slc.cpg/sg40_13_cif.got.tgz:24239.got - 2010.04.14 01:38:03.
