data_PCOD8183276
_publ_section_title
;
Structure prediction by ZEFSAII (Michael W. Deem and Ramdas Pophale) SiO2 
 PCOD8183276
Probable space group: A M A 2
;
_chemical_formula_sum "Si O2"
_cell_formula_units_Z 56
_cell_length_a 13.784268
_cell_length_b 10.157454
_cell_length_c 16.559305
_cell_angle_alpha 90.000000
_cell_angle_beta 90.000000
_cell_angle_gamma 90.000000
_cell_volume 2318.519099
_symmetry_space_group_name_H-M "A M A 2"
_symmetry_group_IT_number 40
_symmetry_cell_setting 'orthorhombic'
loop_
_space_group_symop_operation_xyz
x,y,z
-x,-y,z
1/2-x,y,z
1/2+x,-y,z
x,1/2+y,1/2+z
-x,1/2-y,1/2+z
1/2-x,1/2+y,1/2+z
1/2+x,1/2-y,1/2+z
loop_
_atom_site_type_symbol
_atom_site_label
_atom_site_fract_x
_atom_site_fract_y
_atom_site_fract_z
Si Si1 0.058794 0.319555 0.269140
Si Si2 0.862283 0.805577 0.981947
Si Si3 0.894080 0.954723 0.332154
Si Si4 0.356168 0.646092 0.001846
Si Si5 0.144678 0.768538 0.301646
Si Si6 0.133745 0.409899 0.102618
Si Si7 0.867185 0.087558 0.935534
O O1 0.106717 0.174724 0.275504
O O2 0.100920 0.398808 0.194194
O O3 0.085443 0.407089 0.346762
O O4 0.942205 0.305090 0.255357
O O5 0.750000 0.820517 0.001427
O O6 0.880158 0.736406 0.896435
O O7 0.905214 0.954220 0.978437
O O8 0.909468 0.713519 0.051164
O O9 0.840010 0.924778 0.415574
O O10 0.846403 0.075066 0.281900
O O11 0.000000 0.000000 0.357503
O O12 0.250000 0.678630 0.037092
O O13 0.408712 0.547613 0.065216
O O14 0.409082 0.787672 0.987375
O O15 0.250000 0.702693 0.281328
O O16 0.250000 0.412336 0.094752
O O17 0.750000 0.092676 0.926740
#
# Coordination Sequence:
#
# PCOD8183276 Si02
#       7
#     8   8   8   8   8   8   8
#     4  10  21  34  59  96 126 162 212 264 320 374
#     4   9  18  34  62  94 125 164 211 258 312 375
#     4   9  17  31  56  86 117 153 208 256 299 367
#     4   9  16  30  57  88 119 160 204 247 305 375
#     4  10  19  35  62  90 123 169 218 260 305 378
#     4  10  19  34  61  97 128 159 204 263 323 375
#     4   9  18  34  59  91 129 168 207 254 310 380
#
# _framework density 24.15335
#
# number of rings (size 3 to 8) (size 9 to 14) (size 15 to 20)
#    0.000    2.571    1.429    0.857    0.000    2.286 
#    0.000    0.000   15.714    0.000    0.000   10.000 
#    0.000    0.000    0.000    0.000    0.000    0.000 
#
# Total GULP energy -347006.586313 kJ/mol
# GULP energy per Si atom -12393.092368 kJ/mol
# Density = 2.409838 g / cm^3
# Si number density = 24.153350 Si / 1000 Ang^3
#
#
#
# Elastic Constant Matrix: (Units=GPa)
#
#
# Indices 1 2 3 4 5 6 
#
# 1 52.5054 19.5167 17.4794 0.0000 0.0000 0.0000
# 2 19.5167 187.9854 78.7820 0.0000 0.0000 0.0000
# 3 17.4794 78.7820 110.8288 0.0000 0.0000 0.0000
# 4 0.0000 0.0000 0.0000 30.3222 0.0000 0.0000
# 5 0.0000 0.0000 0.0000 0.0000 22.3621 0.0000
# 6 0.0000 0.0000 0.0000 0.0000 0.0000 -227.2083
#
#
#
# Elastic Compliance Matrix: (Units=1/GPa)
#
#
# Indices 1 2 3 4 5 6 
#
# 1 0.020256 -0.001088 -0.002421 0.000000 0.000000 0.000000
# 2 -0.001088 0.007635 -0.005256 0.000000 0.000000 0.000000
# 3 -0.002421 -0.005256 0.013141 0.000000 0.000000 0.000000
# 4 0.000000 0.000000 0.000000 0.032979 0.000000 0.000000
# 5 0.000000 0.000000 0.000000 0.000000 0.044719 0.000000
# 6 0.000000 0.000000 0.000000 0.000000 0.000000 -0.004401
#
#
# Mechanical properties :
#
#
# Convention : Reuss Voigt Hill
#
# Bulk Modulus (GPa) = 42.54993 64.76398 53.65695
# Shear Modulus (GPa) = 35.79278 -19.20204 8.29537
#
# Velocity S-wave (km/s) = 3.85372 -2.82264 1.85524
# Velocity P-wave (km/s) = 6.12016 4.03098 5.18195
#
# Compressibility (1/GPa) = 0.02350180
#
# Stress axis : x y z
#
# Youngs Moduli (GPa) = 49.36756 130.97276 76.09895
#
# Poissons Ratio (x) = 0.14255 0.18424
# Poissons Ratio (y) = 0.05373 0.39996
# Poissons Ratio (z) = 0.11952 0.68836
#
# Static dielectric constant tensor:
#      x y z
#    x 4.551620 0.000000 0.000000 
#    y 0.000000 4.876440 0.000000 
#    z 0.000000 0.000000 3.721360 
# 
# 
# High freq. dielectric constant tensor:
#      x y z
#    x 1.967470 0.000000 0.000000 
#    y 0.000000 1.979070 0.000000 
#    z 0.000000 0.000000 1.899550 
# 
# From -- ./inp_files/17061.got.cif
#   From: 2010.03.12/outbox.cif.g09.slc.cpg/sg40_9_cif.got.tgz:17061.got - 2010.04.14 01:38:03.
