data_PCOD8183962
_publ_section_title
;
Structure prediction by ZEFSAII (Michael W. Deem and Ramdas Pophale) SiO2 
 PCOD8183962
Probable space group: A M A 2
;
_chemical_formula_sum "Si O2"
_cell_formula_units_Z 40
_cell_length_a 9.941600
_cell_length_b 21.776401
_cell_length_c 8.888007
_cell_angle_alpha 90.000000
_cell_angle_beta 90.000000
_cell_angle_gamma 90.000000
_cell_volume 1924.184795
_symmetry_space_group_name_H-M "A M A 2"
_symmetry_group_IT_number 40
_symmetry_cell_setting 'orthorhombic'
loop_
_space_group_symop_operation_xyz
x,y,z
-x,-y,z
1/2-x,y,z
1/2+x,-y,z
x,1/2+y,1/2+z
-x,1/2-y,1/2+z
1/2-x,1/2+y,1/2+z
1/2+x,1/2-y,1/2+z
loop_
_atom_site_type_symbol
_atom_site_label
_atom_site_fract_x
_atom_site_fract_y
_atom_site_fract_z
Si Si1 0.106597 0.424327 0.150160
Si Si2 0.000000 0.000000 0.891162
Si Si3 0.097959 0.586813 0.637088
Si Si4 0.091901 0.683936 0.207722
Si Si5 0.405306 0.218113 0.054925
Si Si6 0.500000 0.000000 0.390276
O O1 0.250000 0.388176 0.150325
O O2 0.117340 0.476598 0.279662
O O3 0.976999 0.381984 0.179911
O O4 0.099113 0.459267 0.990775
O O5 0.976165 0.941668 0.995440
O O6 0.250000 0.586268 0.585552
O O7 0.053630 0.657912 0.653147
O O8 0.080669 0.548582 0.788943
O O9 0.250000 0.680819 0.161906
O O10 0.075413 0.704270 0.379122
O O11 0.011626 0.730175 0.099623
O O12 0.250000 0.237852 0.087107
#
# Coordination Sequence:
#
# PCOD8183962 Si02
#       6
#     8   4   8   8   8   4
#     4  11  23  40  64  95 131 167 208 259 316 379
#     4  10  20  38  64  94 122 162 208 258 316 380
#     4  10  20  40  64  90 125 164 208 259 314 374
#     4  11  25  44  67  94 125 165 215 265 316 378
#     4  10  23  44  67  93 125 164 211 264 316 375
#     4  10  24  38  60  98 130 170 208 254 312 376
#
# _framework density 20.788022999999999
#
# number of rings (size 3 to 8) (size 9 to 14) (size 15 to 20)
#    0.000    1.600    2.000    1.800    2.800    5.600 
#    0.000    1.000    0.000    0.000    0.000    0.000 
#    0.000    0.000    0.000    0.000    0.000    0.000 
#
# Total GULP energy -247820.103908 kJ/mol
# GULP energy per Si atom -12391.005195 kJ/mol
# Density = 2.074071 g / cm^3
# Si number density = 20.788023 Si / 1000 Ang^3
#
#
#
# Elastic Constant Matrix: (Units=GPa)
#
#
# Indices 1 2 3 4 5 6 
#
# 1 136.0273 59.4198 36.6440 0.0000 0.0000 0.0000
# 2 59.4198 87.0535 44.3708 0.0000 0.0000 0.0000
# 3 36.6440 44.3708 107.8923 0.0000 0.0000 0.0000
# 4 0.0000 0.0000 0.0000 35.1505 0.0000 0.0000
# 5 0.0000 0.0000 0.0000 0.0000 11.9109 0.0000
# 6 0.0000 0.0000 0.0000 0.0000 0.0000 29.4943
#
#
#
# Elastic Compliance Matrix: (Units=1/GPa)
#
#
# Indices 1 2 3 4 5 6 
#
# 1 0.010527 -0.006785 -0.000785 0.000000 0.000000 0.000000
# 2 -0.006785 0.018907 -0.005471 0.000000 0.000000 0.000000
# 3 -0.000785 -0.005471 0.011785 0.000000 0.000000 0.000000
# 4 0.000000 0.000000 0.000000 0.028449 0.000000 0.000000
# 5 0.000000 0.000000 0.000000 0.000000 0.083957 0.000000
# 6 0.000000 0.000000 0.000000 0.000000 0.000000 0.033905
#
#
# Mechanical properties :
#
#
# Convention : Reuss Voigt Hill
#
# Bulk Modulus (GPa) = 66.06455 67.98249 67.02352
# Shear Modulus (GPa) = 22.86677 28.01369 25.44023
#
# Velocity S-wave (km/s) = 3.32022 3.67493 3.50207
# Velocity P-wave (km/s) = 6.82258 7.12605 6.97596
#
# Compressibility (1/GPa) = 0.01513671
#
# Stress axis : x y z
#
# Youngs Moduli (GPa) = 94.99525 52.89005 84.85328
#
# Poissons Ratio (x) = 0.35887 0.06660
# Poissons Ratio (y) = 0.64457 0.46424
# Poissons Ratio (z) = 0.07456 0.28937
#
# Static dielectric constant tensor:
#      x y z
#    x 3.733180 0.000000 0.000000 
#    y 0.000000 4.326660 0.000000 
#    z 0.000000 0.000000 3.829790 
# 
# 
# High freq. dielectric constant tensor:
#      x y z
#    x 1.805840 0.000000 0.000000 
#    y 0.000000 1.820970 0.000000 
#    z 0.000000 0.000000 1.823320 
# 
# From -- ./inp_files/4266.got.cif
#   From: 2010.03.12/outbox.cif.g09.slc.cpg/sg40_3_cif.got.tgz:4266.got - 2010.04.14 01:38:03.
