data_PCOD8183815
_publ_section_title
;
Structure prediction by ZEFSAII (Michael W. Deem and Ramdas Pophale) SiO2 
 PCOD8183815
Probable space group: A M A 2
;
_chemical_formula_sum "Si O2"
_cell_formula_units_Z 40
_cell_length_a 16.989825
_cell_length_b 15.486273
_cell_length_c 6.840531
_cell_angle_alpha 90.000000
_cell_angle_beta 90.000000
_cell_angle_gamma 90.000000
_cell_volume 1799.805737
_symmetry_space_group_name_H-M "A M A 2"
_symmetry_group_IT_number 40
_symmetry_cell_setting 'orthorhombic'
loop_
_space_group_symop_operation_xyz
x,y,z
-x,-y,z
1/2-x,y,z
1/2+x,-y,z
x,1/2+y,1/2+z
-x,1/2-y,1/2+z
1/2-x,1/2+y,1/2+z
1/2+x,1/2-y,1/2+z
loop_
_atom_site_type_symbol
_atom_site_label
_atom_site_fract_x
_atom_site_fract_y
_atom_site_fract_z
Si Si1 0.160496 0.843889 0.399130
Si Si2 0.098008 0.826284 0.983117
Si Si3 0.660834 0.027426 0.727572
Si Si4 0.052724 0.579020 0.476752
Si Si5 0.159902 0.692765 0.709263
O O1 0.250000 0.849811 0.324268
O O2 0.138043 0.931009 0.518230
O O3 0.150448 0.761746 0.537532
O O4 0.103017 0.831562 0.216915
O O5 0.155911 0.897798 0.891298
O O6 0.123151 0.731602 0.908312
O O7 0.007224 0.843815 0.920048
O O8 0.750000 0.991746 0.724529
O O9 0.601465 0.949721 0.782835
O O10 0.112941 0.606827 0.647306
O O11 0.000000 0.500000 0.558155
O O12 0.250000 0.666760 0.747788
#
# Coordination Sequence:
#
# PCOD8183815 Si02
#       5
#     8   8   8   8   8
#     4   9  18  35  63  90 116 162 217 267 319 379
#     4  10  20  36  60  89 126 161 214 261 321 379
#     4   9  18  37  61  85 122 164 209 265 324 384
#     4  10  22  38  57  91 127 167 207 261 329 374
#     4  10  21  38  61  87 120 166 217 268 315 381
#
# _framework density 22.224620000000002
#
# number of rings (size 3 to 8) (size 9 to 14) (size 15 to 20)
#    0.000    2.400    0.000    3.600    2.800    0.000 
#    0.000   19.000    0.000    7.200    0.000    0.000 
#    0.000    0.000    0.000    0.000    0.000    0.000 
#
# Total GULP energy -247984.275168 kJ/mol
# GULP energy per Si atom -12399.213758 kJ/mol
# Density = 2.217404 g / cm^3
# Si number density = 22.224620 Si / 1000 Ang^3
#
#
#
# Elastic Constant Matrix: (Units=GPa)
#
#
# Indices 1 2 3 4 5 6 
#
# 1 153.3285 67.0308 51.2846 0.0000 0.0000 0.0000
# 2 67.0308 69.3178 39.9934 0.0000 0.0000 0.0000
# 3 51.2846 39.9934 121.6717 0.0000 0.0000 0.0000
# 4 0.0000 0.0000 0.0000 33.0161 0.0000 0.0000
# 5 0.0000 0.0000 0.0000 0.0000 15.2410 0.0000
# 6 0.0000 0.0000 0.0000 0.0000 0.0000 41.4925
#
#
#
# Elastic Compliance Matrix: (Units=1/GPa)
#
#
# Indices 1 2 3 4 5 6 
#
# 1 0.011508 -0.010279 -0.001472 0.000000 0.000000 0.000000
# 2 -0.010279 0.026984 -0.004537 0.000000 0.000000 0.000000
# 3 -0.001472 -0.004537 0.010331 0.000000 0.000000 0.000000
# 4 0.000000 0.000000 0.000000 0.030288 0.000000 0.000000
# 5 0.000000 0.000000 0.000000 0.000000 0.065612 0.000000
# 6 0.000000 0.000000 0.000000 0.000000 0.000000 0.024101
#
#
# Mechanical properties :
#
#
# Convention : Reuss Voigt Hill
#
# Bulk Modulus (GPa) = 61.55153 73.43729 67.49441
# Shear Modulus (GPa) = 24.17620 30.35054 27.26337
#
# Velocity S-wave (km/s) = 3.30178 3.69945 3.50625
# Velocity P-wave (km/s) = 6.50315 7.16679 6.84302
#
# Compressibility (1/GPa) = 0.01624655
#
# Stress axis : x y z
#
# Youngs Moduli (GPa) = 86.89642 37.05925 96.80049
#
# Poissons Ratio (x) = 0.38093 0.14248
# Poissons Ratio (y) = 0.89321 0.43918
# Poissons Ratio (z) = 0.12790 0.16814
#
# Static dielectric constant tensor:
#      x y z
#    x 4.125430 0.000000 0.000000 
#    y 0.000000 3.876480 0.000000 
#    z 0.000000 0.000000 3.770430 
# 
# 
# High freq. dielectric constant tensor:
#      x y z
#    x 1.884510 0.000000 0.000000 
#    y 0.000000 1.855530 0.000000 
#    z 0.000000 0.000000 1.854110 
# 
# From -- ./inp_files/1739.got.cif
#   From: 2010.03.12/outbox.cif.g09.slc.cpg/sg40_1_cif.got.tgz:1739.got - 2010.04.14 01:38:03.
