data_PCOD8183031
_publ_section_title
;
Structure prediction by ZEFSAII (Michael W. Deem and Ramdas Pophale) SiO2 
 PCOD8183031
Probable space group: A M A 2
;
_chemical_formula_sum "Si O2"
_cell_formula_units_Z 56
_cell_length_a 8.678469
_cell_length_b 14.489826
_cell_length_c 22.243391
_cell_angle_alpha 90.000000
_cell_angle_beta 90.000000
_cell_angle_gamma 90.000000
_cell_volume 2797.095425
_symmetry_space_group_name_H-M "A M A 2"
_symmetry_group_IT_number 40
_symmetry_cell_setting 'orthorhombic'
loop_
_space_group_symop_operation_xyz
x,y,z
-x,-y,z
1/2-x,y,z
1/2+x,-y,z
x,1/2+y,1/2+z
-x,1/2-y,1/2+z
1/2-x,1/2+y,1/2+z
1/2+x,1/2-y,1/2+z
loop_
_atom_site_type_symbol
_atom_site_label
_atom_site_fract_x
_atom_site_fract_y
_atom_site_fract_z
Si Si1 0.432698 0.720549 0.850880
Si Si2 0.569347 0.791219 0.120005
Si Si3 0.067041 0.904146 0.449898
Si Si4 0.932695 0.402845 0.386085
Si Si5 0.931858 0.595544 0.516295
Si Si6 0.568044 0.898515 0.238204
Si Si7 0.428169 0.907735 0.586454
O O1 0.250000 0.729108 0.851575
O O2 0.492524 0.679145 0.913254
O O3 0.505365 0.822155 0.842616
O O4 0.491643 0.656751 0.796273
O O5 0.750000 0.808182 0.107420
O O6 0.471175 0.825460 0.063634
O O7 0.512017 0.842689 0.179653
O O8 0.534540 0.681853 0.126950
O O9 0.250000 0.901801 0.442179
O O10 0.011198 0.891460 0.518553
O O11 0.000000 0.000000 0.423950
O O12 0.750000 0.406997 0.384718
O O13 0.000000 0.500000 0.362940
O O14 0.989355 0.380847 0.453264
O O15 0.750000 0.586896 0.506752
O O16 0.000000 0.500000 0.542162
O O17 0.750000 0.906779 0.239009
O O18 0.500000 0.000000 0.237555
O O19 0.250000 0.927594 0.582894
O O20 0.500000 0.000000 0.615683
#
# Coordination Sequence:
#
# PCOD8183031 Si02
#       7
#     8   8   8   8   8   8   8
#     4  11  22  37  56  81 111 147 188 233 282 335
#     4  10  20  37  57  80 111 150 190 232 279 330
#     4  10  19  32  52  81 112 146 183 227 282 340
#     4  11  22  38  59  84 113 147 184 228 279 336
#     4  11  21  34  55  85 117 149 183 227 278 334
#     4  10  23  40  59  81 111 147 187 232 278 327
#     4   9  19  34  54  78 108 140 176 221 272 326
#
# _framework density 20.020769000000001
#
# number of rings (size 3 to 8) (size 9 to 14) (size 15 to 20)
#    0.000    1.714    0.000    6.000    0.000    6.286 
#    0.000    0.714    0.000    1.714    0.000    0.000 
#    0.000    0.000    0.000    0.000    0.000    0.000 
#
# Total GULP energy -347282.755533 kJ/mol
# GULP energy per Si atom -12402.955555 kJ/mol
# Density = 1.997520 g / cm^3
# Si number density = 20.020769 Si / 1000 Ang^3
#
#
#
# Elastic Constant Matrix: (Units=GPa)
#
#
# Indices 1 2 3 4 5 6 
#
# 1 95.1684 50.6071 28.6581 0.0000 0.0000 0.0000
# 2 50.6071 177.4379 64.9281 0.0000 0.0000 0.0000
# 3 28.6581 64.9281 69.2095 0.0000 0.0000 0.0000
# 4 0.0000 0.0000 0.0000 40.3844 0.0000 0.0000
# 5 0.0000 0.0000 0.0000 0.0000 17.1380 0.0000
# 6 0.0000 0.0000 0.0000 0.0000 0.0000 39.3159
#
#
#
# Elastic Compliance Matrix: (Units=1/GPa)
#
#
# Indices 1 2 3 4 5 6 
#
# 1 0.012743 -0.002594 -0.002843 0.000000 0.000000 0.000000
# 2 -0.002594 0.009110 -0.007472 0.000000 0.000000 0.000000
# 3 -0.002843 -0.007472 0.022636 0.000000 0.000000 0.000000
# 4 0.000000 0.000000 0.000000 0.024762 0.000000 0.000000
# 5 0.000000 0.000000 0.000000 0.000000 0.058350 0.000000
# 6 0.000000 0.000000 0.000000 0.000000 0.000000 0.025435
#
#
# Mechanical properties :
#
#
# Convention : Reuss Voigt Hill
#
# Bulk Modulus (GPa) = 53.56034 70.02249 61.79141
# Shear Modulus (GPa) = 27.01558 32.54247 29.77903
#
# Velocity S-wave (km/s) = 3.67737 4.03604 3.86088
# Velocity P-wave (km/s) = 6.69636 7.53461 7.12782
#
# Compressibility (1/GPa) = 0.01867053
#
# Stress axis : x y z
#
# Youngs Moduli (GPa) = 78.47261 109.77096 44.17741
#
# Poissons Ratio (x) = 0.28477 0.12560
# Poissons Ratio (y) = 0.20357 0.33010
# Poissons Ratio (z) = 0.22310 0.82022
#
# Static dielectric constant tensor:
#      x y z
#    x 3.614060 0.000000 0.000000 
#    y 0.000000 3.812600 0.000000 
#    z 0.000000 0.000000 3.517450 
# 
# 
# High freq. dielectric constant tensor:
#      x y z
#    x 1.782000 0.000000 0.000000 
#    y 0.000000 1.800200 0.000000 
#    z 0.000000 0.000000 1.755070 
# 
# From -- ./inp_files/22155.got.cif
#   From: 2010.03.12/outbox.cif.g09.slc.cpg/sg40_12_cif.got.tgz:22155.got - 2010.04.14 01:38:03.
