data_PCOD8183961
_publ_section_title
;
Structure prediction by ZEFSAII (Michael W. Deem and Ramdas Pophale) SiO2 
 PCOD8183961
Probable space group: A M A 2
;
_chemical_formula_sum "Si O2"
_cell_formula_units_Z 56
_cell_length_a 27.712585
_cell_length_b 12.856893
_cell_length_c 7.405659
_cell_angle_alpha 90.000000
_cell_angle_beta 90.000000
_cell_angle_gamma 90.000000
_cell_volume 2638.619566
_symmetry_space_group_name_H-M "A M A 2"
_symmetry_group_IT_number 40
_symmetry_cell_setting 'orthorhombic'
loop_
_space_group_symop_operation_xyz
x,y,z
-x,-y,z
1/2-x,y,z
1/2+x,-y,z
x,1/2+y,1/2+z
-x,1/2-y,1/2+z
1/2-x,1/2+y,1/2+z
1/2+x,1/2-y,1/2+z
loop_
_atom_site_type_symbol
_atom_site_label
_atom_site_fract_x
_atom_site_fract_y
_atom_site_fract_z
Si Si1 0.696123 0.632176 0.448200
Si Si2 0.695128 0.077518 0.551332
Si Si3 0.095517 0.097387 0.249821
Si Si4 0.519894 0.384020 0.447461
Si Si5 0.696886 0.364396 0.861904
Si Si6 0.554983 0.282622 0.094981
Si Si7 0.873998 0.122872 0.253233
O O1 0.750000 0.589938 0.483947
O O2 0.677230 0.596216 0.253611
O O3 0.694294 0.756521 0.468699
O O4 0.660917 0.582147 0.593697
O O5 0.750000 0.118434 0.526735
O O6 0.659565 0.145485 0.426454
O O7 0.690733 0.955460 0.509028
O O8 0.067724 0.129495 0.068779
O O9 0.152144 0.127885 0.222504
O O10 0.074347 0.153668 0.425569
O O11 0.089717 0.973590 0.287406
O O12 0.500000 0.500000 0.463266
O O13 0.530193 0.360190 0.237625
O O14 0.481238 0.303776 0.523215
O O15 0.750000 0.373281 0.765518
O O16 0.598210 0.226810 0.201737
#
# Coordination Sequence:
#
# PCOD8183961 Si02
#       7
#     8   8   8   8   8   8   8
#     4  10  20  38  64  93 135 182 223 271 328 390
#     4   9  20  38  61  94 135 178 222 271 324 388
#     4  11  24  45  70 101 136 174 226 273 341 399
#     4  12  27  47  71  98 130 174 226 274 342 406
#     4   9  19  38  63  96 137 174 218 270 319 392
#     4  12  26  45  69  96 132 171 216 288 336 399
#     4  11  23  40  68  98 132 173 226 272 335 403
#
# _framework density 21.223220000000001
#
# number of rings (size 3 to 8) (size 9 to 14) (size 15 to 20)
#    0.000    1.429    4.286    0.429    2.000    4.571 
#    0.000    0.000    0.000    7.714    0.000    0.000 
#    0.000    0.000    0.000    0.000    0.000    0.000 
#
# Total GULP energy -347166.642660 kJ/mol
# GULP energy per Si atom -12398.808666 kJ/mol
# Density = 2.117492 g / cm^3
# Si number density = 21.223220 Si / 1000 Ang^3
#
#
#
# Elastic Constant Matrix: (Units=GPa)
#
#
# Indices 1 2 3 4 5 6 
#
# 1 113.1401 37.8202 57.2678 0.0000 0.0000 0.0000
# 2 37.8202 94.2588 43.5997 0.0000 0.0000 0.0000
# 3 57.2678 43.5997 104.2780 0.0000 0.0000 0.0000
# 4 0.0000 0.0000 0.0000 28.8250 0.0000 0.0000
# 5 0.0000 0.0000 0.0000 0.0000 793.3784 0.0000
# 6 0.0000 0.0000 0.0000 0.0000 0.0000 -11.2337
#
#
#
# Elastic Compliance Matrix: (Units=1/GPa)
#
#
# Indices 1 2 3 4 5 6 
#
# 1 0.012633 -0.002306 -0.005974 0.000000 0.000000 0.000000
# 2 -0.002306 0.013574 -0.004409 0.000000 0.000000 0.000000
# 3 -0.005974 -0.004409 0.014714 0.000000 0.000000 0.000000
# 4 0.000000 0.000000 0.000000 0.034692 0.000000 0.000000
# 5 0.000000 0.000000 0.000000 0.000000 0.001260 0.000000
# 6 0.000000 0.000000 0.000000 0.000000 0.000000 -0.089018
#
#
# Mechanical properties :
#
#
# Convention : Reuss Voigt Hill
#
# Bulk Modulus (GPa) = 64.33536 65.45027 64.89282
# Shear Modulus (GPa) = 271.53751 173.72656 222.63204
#
# Velocity S-wave (km/s) = 11.32349 9.05729 10.25319
# Velocity P-wave (km/s) = 14.18948 11.84421 13.06956
#
# Compressibility (1/GPa) = 0.01554355
#
# Stress axis : x y z
#
# Youngs Moduli (GPa) = 79.15711 73.67233 67.96262
#
# Poissons Ratio (x) = 0.16986 0.40600
# Poissons Ratio (y) = 0.18251 0.29965
# Poissons Ratio (z) = 0.47287 0.32482
#
# Static dielectric constant tensor:
#      x y z
#    x 3.209850 0.000000 0.000000 
#    y 0.000000 3.892030 0.000000 
#    z 0.000000 0.000000 3.721180 
# 
# 
# High freq. dielectric constant tensor:
#      x y z
#    x 1.844290 0.000000 0.000000 
#    y 0.000000 1.835710 0.000000 
#    z 0.000000 0.000000 1.818990 
# 
# From -- ./inp_files/3403.got.cif
#   From: 2010.03.12/outbox.cif.g09.slc.cpg/sg40_2_cif.got.tgz:3403.got - 2010.04.14 01:38:03.
