data_PCOD8183345
_publ_section_title
;
Structure prediction by ZEFSAII (Michael W. Deem and Ramdas Pophale) SiO2 
 PCOD8183345
Probable space group: A M A 2
;
_chemical_formula_sum "Si O2"
_cell_formula_units_Z 64
_cell_length_a 8.825017
_cell_length_b 28.899880
_cell_length_c 12.592716
_cell_angle_alpha 90.000000
_cell_angle_beta 90.000000
_cell_angle_gamma 90.000000
_cell_volume 3211.670622
_symmetry_space_group_name_H-M "A M A 2"
_symmetry_group_IT_number 40
_symmetry_cell_setting 'orthorhombic'
loop_
_space_group_symop_operation_xyz
x,y,z
-x,-y,z
1/2-x,y,z
1/2+x,-y,z
x,1/2+y,1/2+z
-x,1/2-y,1/2+z
1/2-x,1/2+y,1/2+z
1/2+x,1/2-y,1/2+z
loop_
_atom_site_type_symbol
_atom_site_label
_atom_site_fract_x
_atom_site_fract_y
_atom_site_fract_z
Si Si1 0.921735 0.332925 0.562760
Si Si2 0.070011 0.599311 0.277880
Si Si3 0.927309 0.076387 0.988745
Si Si4 0.429187 0.550796 0.059281
Si Si5 0.426398 0.615835 0.867448
Si Si6 0.931038 0.201660 0.272965
Si Si7 0.075016 0.543356 0.690862
Si Si8 0.919177 0.800469 0.835934
O O1 0.750000 0.351742 0.586391
O O2 0.917605 0.298488 0.463428
O O3 0.036249 0.372975 0.531583
O O4 0.988178 0.306746 0.662223
O O5 0.250000 0.599737 0.293784
O O6 0.020116 0.576391 0.167367
O O7 0.005581 0.652310 0.288099
O O8 0.999588 0.568440 0.372391
O O9 0.750000 0.067712 0.981282
O O10 0.000434 0.042358 0.074455
O O11 0.500000 0.500000 0.051634
O O12 0.250000 0.544628 0.053740
O O13 0.486703 0.583296 0.962808
O O14 0.250000 0.626589 0.885110
O O15 0.516892 0.664137 0.861606
O O16 0.456288 0.590438 0.755049
O O17 0.750000 0.199818 0.264216
O O18 0.996787 0.252425 0.302006
O O19 0.250000 0.533319 0.679863
O O20 0.000000 0.500000 0.753647
O O21 0.750000 0.799848 0.789862
#
# Coordination Sequence:
#
# PCOD8183345 Si02
#       8
#     8   8   8   8   8   8   8   8
#     4  10  19  36  57  77 111 154 190 235 296 354
#     4   9  19  39  62  82 116 160 199 241 300 360
#     4  11  21  35  57  85 113 145 191 240 293 350
#     4  10  22  40  63  88 116 159 206 249 301 360
#     4  10  22  39  58  83 117 158 198 239 297 363
#     4  11  21  34  57  88 117 151 199 250 299 353
#     4  11  22  36  56  82 115 150 189 235 292 349
#     4   8  18  35  55  81 113 153 196 241 294 354
#
# _framework density 19.927323999999999
#
# number of rings (size 3 to 8) (size 9 to 14) (size 15 to 20)
#    0.000    2.000    1.250    3.375    0.000    3.000 
#    0.000    8.750    0.000    0.000    0.000    0.000 
#    0.000    0.000    0.000    0.000    0.000    0.000 
#
# Total GULP energy -396647.066413 kJ/mol
# GULP energy per Si atom -12395.220825 kJ/mol
# Density = 1.988197 g / cm^3
# Si number density = 19.927324 Si / 1000 Ang^3
#
#
#
# Elastic Constant Matrix: (Units=GPa)
#
#
# Indices 1 2 3 4 5 6 
#
# 1 66.9437 25.4834 31.5564 0.0000 0.0000 0.0000
# 2 25.4834 101.1231 40.5859 0.0000 0.0000 0.0000
# 3 31.5564 40.5859 118.9254 0.0000 0.0000 0.0000
# 4 0.0000 0.0000 0.0000 28.0803 0.0000 0.0000
# 5 0.0000 0.0000 0.0000 0.0000 23.1805 0.0000
# 6 0.0000 0.0000 0.0000 0.0000 0.0000 24.7446
#
#
#
# Elastic Compliance Matrix: (Units=1/GPa)
#
#
# Indices 1 2 3 4 5 6 
#
# 1 0.017829 -0.003006 -0.003705 0.000000 0.000000 0.000000
# 2 -0.003006 0.011965 -0.003286 0.000000 0.000000 0.000000
# 3 -0.003705 -0.003286 0.010513 0.000000 0.000000 0.000000
# 4 0.000000 0.000000 0.000000 0.035612 0.000000 0.000000
# 5 0.000000 0.000000 0.000000 0.000000 0.043140 0.000000
# 6 0.000000 0.000000 0.000000 0.000000 0.000000 0.040413
#
#
# Mechanical properties :
#
#
# Convention : Reuss Voigt Hill
#
# Bulk Modulus (GPa) = 49.22796 53.58264 51.40530
# Shear Modulus (GPa) = 26.84765 27.82551 27.33658
#
# Velocity S-wave (km/s) = 3.67451 3.74083 3.70782
# Velocity P-wave (km/s) = 6.53912 6.75321 6.64703
#
# Compressibility (1/GPa) = 0.02031366
#
# Stress axis : x y z
#
# Youngs Moduli (GPa) = 56.08956 83.57582 95.11973
#
# Poissons Ratio (x) = 0.25122 0.35241
# Poissons Ratio (y) = 0.16860 0.31254
# Poissons Ratio (z) = 0.20781 0.27461
#
# Static dielectric constant tensor:
#      x y z
#    x 3.447030 0.000000 0.000000 
#    y 0.000000 3.692520 0.000000 
#    z 0.000000 0.000000 3.795640 
# 
# 
# High freq. dielectric constant tensor:
#      x y z
#    x 1.760490 0.000000 0.000000 
#    y 0.000000 1.783130 0.000000 
#    z 0.000000 0.000000 1.779840 
# 
# From -- ./inp_files/10573.got.cif
#   From: 2010.03.12/outbox.cif.g09.slc.cpg/sg40_6_cif.got.tgz:10573.got - 2010.04.14 01:38:03.
