data_PCOD8183632
_publ_section_title
;
Structure prediction by ZEFSAII (Michael W. Deem and Ramdas Pophale) SiO2 
 PCOD8183632
Probable space group: A M A 2
;
_chemical_formula_sum "Si O2"
_cell_formula_units_Z 64
_cell_length_a 8.779975
_cell_length_b 29.425815
_cell_length_c 12.855442
_cell_angle_alpha 90.000000
_cell_angle_beta 90.000000
_cell_angle_gamma 90.000000
_cell_volume 3321.305257
_symmetry_space_group_name_H-M "A M A 2"
_symmetry_group_IT_number 40
_symmetry_cell_setting 'orthorhombic'
loop_
_space_group_symop_operation_xyz
x,y,z
-x,-y,z
1/2-x,y,z
1/2+x,-y,z
x,1/2+y,1/2+z
-x,1/2-y,1/2+z
1/2-x,1/2+y,1/2+z
1/2+x,1/2-y,1/2+z
loop_
_atom_site_type_symbol
_atom_site_label
_atom_site_fract_x
_atom_site_fract_y
_atom_site_fract_z
Si Si1 0.930258 0.743630 0.929460
Si Si2 0.567870 0.380976 0.704864
Si Si3 0.068539 0.359260 0.915437
Si Si4 0.070516 0.048241 0.796593
Si Si5 0.419543 0.297236 0.264414
Si Si6 0.431104 0.625373 0.134943
Si Si7 0.429623 0.548011 0.531343
Si Si8 0.082440 0.213120 0.130869
O O1 0.750000 0.739813 0.926633
O O2 0.991490 0.692978 0.902363
O O3 0.980686 0.788657 0.866181
O O4 0.998421 0.757050 0.041908
O O5 0.750000 0.380353 0.718260
O O6 0.492839 0.389088 0.818177
O O7 0.512179 0.417575 0.620068
O O8 0.498638 0.333306 0.662396
O O9 0.250000 0.362124 0.921229
O O10 0.001640 0.381639 0.020715
O O11 0.250000 0.042920 0.791741
O O12 0.014350 0.085311 0.712826
O O13 0.019773 0.063035 0.914113
O O14 0.000000 0.000000 0.765730
O O15 0.250000 0.317084 0.286083
O O16 0.506203 0.327866 0.181584
O O17 0.405062 0.245234 0.229355
O O18 0.250000 0.627443 0.126985
O O19 0.500000 0.500000 0.560599
O O20 0.250000 0.543798 0.535962
O O21 0.250000 0.198979 0.089753
#
# Coordination Sequence:
#
# PCOD8183632 Si02
#       8
#     8   8   8   8   8   8   8   8
#     4  10  20  35  52  74 109 152 190 232 282 329
#     4  10  20  36  59  83 110 151 193 230 280 343
#     4  11  22  37  56  81 116 153 193 239 283 328
#     4   9  20  39  63  89 114 144 182 230 288 344
#     4  11  21  35  53  80 113 149 192 234 277 326
#     4  11  23  38  59  85 115 152 193 232 282 347
#     4   9  19  37  62  87 113 143 180 228 286 343
#     4   9  18  33  53  75 107 148 190 230 273 325
#
# _framework density 19.269531000000001
#
# number of rings (size 3 to 8) (size 9 to 14) (size 15 to 20)
#    0.000    2.000    2.500    1.125    1.750    2.000 
#    0.000    1.250    0.000    0.000    0.000    0.000 
#    0.000    0.000    0.000    0.000    0.000    0.000 
#
# Total GULP energy -396514.368006 kJ/mol
# GULP energy per Si atom -12391.074000 kJ/mol
# Density = 1.922567 g / cm^3
# Si number density = 19.269531 Si / 1000 Ang^3
#
#
#
# Elastic Constant Matrix: (Units=GPa)
#
#
# Indices 1 2 3 4 5 6 
#
# 1 46.6874 31.5796 38.7282 0.0000 0.0000 0.0000
# 2 31.5796 106.1846 69.2297 0.0000 0.0000 0.0000
# 3 38.7282 69.2297 136.2061 0.0000 0.0000 0.0000
# 4 0.0000 0.0000 0.0000 39.2200 0.0000 0.0000
# 5 0.0000 0.0000 0.0000 0.0000 25.2448 0.0000
# 6 0.0000 0.0000 0.0000 0.0000 0.0000 26.9083
#
#
#
# Elastic Compliance Matrix: (Units=1/GPa)
#
#
# Indices 1 2 3 4 5 6 
#
# 1 0.029689 -0.004974 -0.005913 0.000000 0.000000 0.000000
# 2 -0.004974 0.014918 -0.006168 0.000000 0.000000 0.000000
# 3 -0.005913 -0.006168 0.012158 0.000000 0.000000 0.000000
# 4 0.000000 0.000000 0.000000 0.025497 0.000000 0.000000
# 5 0.000000 0.000000 0.000000 0.000000 0.039612 0.000000
# 6 0.000000 0.000000 0.000000 0.000000 0.000000 0.037163
#
#
# Mechanical properties :
#
#
# Convention : Reuss Voigt Hill
#
# Bulk Modulus (GPa) = 44.14223 63.12812 53.63517
# Shear Modulus (GPa) = 24.91263 28.24400 26.57831
#
# Velocity S-wave (km/s) = 3.59952 3.83264 3.71791
# Velocity P-wave (km/s) = 6.34295 7.23998 6.80625
#
# Compressibility (1/GPa) = 0.02265404
#
# Stress axis : x y z
#
# Youngs Moduli (GPa) = 33.68259 67.03105 82.24784
#
# Poissons Ratio (x) = 0.33342 0.48636
# Poissons Ratio (y) = 0.16754 0.50733
# Poissons Ratio (z) = 0.19918 0.41347
#
# Static dielectric constant tensor:
#      x y z
#    x 3.378130 0.000000 0.000000 
#    y 0.000000 3.457660 0.000000 
#    z 0.000000 0.000000 3.744070 
# 
# 
# High freq. dielectric constant tensor:
#      x y z
#    x 1.732970 0.000000 0.000000 
#    y 0.000000 1.733970 0.000000 
#    z 0.000000 0.000000 1.761690 
# 
# From -- ./inp_files/10679.got.cif
#   From: 2010.03.12/outbox.cif.g09.slc.cpg/sg40_6_cif.got.tgz:10679.got - 2010.04.14 01:38:03.
