data_PCOD8183172
_publ_section_title
;
Structure prediction by ZEFSAII (Michael W. Deem and Ramdas Pophale) SiO2 
 PCOD8183172
Probable space group: A M A 2
;
_chemical_formula_sum "Si O2"
_cell_formula_units_Z 64
_cell_length_a 18.753378
_cell_length_b 16.042762
_cell_length_c 11.994459
_cell_angle_alpha 90.000000
_cell_angle_beta 90.000000
_cell_angle_gamma 90.000000
_cell_volume 3608.604716
_symmetry_space_group_name_H-M "A M A 2"
_symmetry_group_IT_number 40
_symmetry_cell_setting 'orthorhombic'
loop_
_space_group_symop_operation_xyz
x,y,z
-x,-y,z
1/2-x,y,z
1/2+x,-y,z
x,1/2+y,1/2+z
-x,1/2-y,1/2+z
1/2-x,1/2+y,1/2+z
1/2+x,1/2-y,1/2+z
loop_
_atom_site_type_symbol
_atom_site_label
_atom_site_fract_x
_atom_site_fract_y
_atom_site_fract_z
Si Si1 0.832102 0.321458 0.353490
Si Si2 0.668577 0.408020 0.586868
Si Si3 0.667831 0.253393 0.961370
Si Si4 0.918294 0.002748 0.465738
Si Si5 0.415453 0.845184 0.317423
Si Si6 0.831924 0.598884 0.603929
Si Si7 0.831623 0.401368 0.126687
Si Si8 0.417398 0.144626 0.297507
O O1 0.750000 0.292035 0.339103
O O2 0.845912 0.364635 0.470172
O O3 0.884319 0.243743 0.347493
O O4 0.851330 0.387136 0.255881
O O5 0.750000 0.394475 0.627869
O O6 0.653368 0.505141 0.565551
O O7 0.614473 0.367922 0.674845
O O8 0.750000 0.260579 0.925240
O O9 0.619900 0.275579 0.854594
O O10 0.648299 0.160351 0.001898
O O11 0.649915 0.315831 0.062729
O O12 0.898906 0.094797 0.422453
O O13 0.874880 0.979569 0.576921
O O14 0.899821 0.938333 0.367144
O O15 0.000000 0.000000 0.500411
O O16 0.380233 0.883309 0.209077
O O17 0.498999 0.837977 0.291443
O O18 0.750000 0.614046 0.638783
O O19 0.750000 0.426105 0.111420
#
# Coordination Sequence:
#
# PCOD8183172 Si02
#       8
#     8   8   8   8   8   8   8   8
#     4  10  21  38  56  79 110 144 182 223 271 327
#     4  10  21  37  57  81 113 145 177 224 280 331
#     4   9  17  32  55  81 104 135 185 229 259 312
#     4   9  19  34  53  79 112 140 177 227 269 313
#     4  11  20  34  56  81 110 143 181 226 264 324
#     4  10  19  33  57  82 105 141 185 226 264 319
#     4   9  17  32  56  80 104 138 179 223 267 315
#     4  10  20  34  53  82 112 145 174 222 283 317
#
# _framework density 17.735386999999999
#
# number of rings (size 3 to 8) (size 9 to 14) (size 15 to 20)
#    0.000    2.250    2.500    0.750    0.000    2.500 
#    2.250    1.250    2.750    3.000    0.000    0.000 
#    0.000    0.000    0.000    0.000    0.000    0.000 
#
# Total GULP energy -396846.046299 kJ/mol
# GULP energy per Si atom -12401.438947 kJ/mol
# Density = 1.769502 g / cm^3
# Si number density = 17.735387 Si / 1000 Ang^3
#
#
#
# Elastic Constant Matrix: (Units=GPa)
#
#
# Indices 1 2 3 4 5 6 
#
# 1 96.2520 65.3842 67.9475 0.0000 0.0000 0.0000
# 2 65.3842 90.0574 59.4313 0.0000 0.0000 0.0000
# 3 67.9475 59.4313 115.5225 0.0000 0.0000 0.0000
# 4 0.0000 0.0000 0.0000 23.2461 0.0000 0.0000
# 5 0.0000 0.0000 0.0000 0.0000 -19.7994 0.0000
# 6 0.0000 0.0000 0.0000 0.0000 0.0000 4.9365
#
#
#
# Elastic Compliance Matrix: (Units=1/GPa)
#
#
# Indices 1 2 3 4 5 6 
#
# 1 0.024557 -0.012562 -0.007981 0.000000 0.000000 0.000000
# 2 -0.012562 0.023238 -0.004566 0.000000 0.000000 0.000000
# 3 -0.007981 -0.004566 0.015700 0.000000 0.000000 0.000000
# 4 0.000000 0.000000 0.000000 0.043018 0.000000 0.000000
# 5 0.000000 0.000000 0.000000 0.000000 -0.050507 0.000000
# 6 0.000000 0.000000 0.000000 0.000000 0.000000 0.202574
#
#
# Mechanical properties :
#
#
# Convention : Reuss Voigt Hill
#
# Bulk Modulus (GPa) = 75.32535 76.37309 75.84922
# Shear Modulus (GPa) = 15.96301 8.94789 12.45545
#
# Velocity S-wave (km/s) = 3.00336 2.24859 2.65296
# Velocity P-wave (km/s) = 7.38857 7.06382 7.22802
#
# Compressibility (1/GPa) = 0.01327574
#
# Stress axis : x y z
#
# Youngs Moduli (GPa) = 40.72154 43.03345 63.69541
#
# Poissons Ratio (x) = 0.54059 0.50837
# Poissons Ratio (y) = 0.51155 0.29084
# Poissons Ratio (z) = 0.32501 0.19649
#
# Static dielectric constant tensor:
#      x y z
#    x 3.349140 0.000000 0.000000 
#    y 0.000000 3.539460 0.000000 
#    z 0.000000 0.000000 3.214850 
# 
# 
# High freq. dielectric constant tensor:
#      x y z
#    x 1.685900 0.000000 0.000000 
#    y 0.000000 1.680040 0.000000 
#    z 0.000000 0.000000 1.678170 
# 
# From -- ./inp_files/13101.got.cif
#   From: 2010.03.12/outbox.cif.g09.slc.cpg/sg40_7_cif.got.tgz:13101.got - 2010.04.14 01:38:03.
