data_PCOD8183413
_publ_section_title
;
Structure prediction by ZEFSAII (Michael W. Deem and Ramdas Pophale) SiO2 
 PCOD8183413
Probable space group: A M A 2
;
_chemical_formula_sum "Si O2"
_cell_formula_units_Z 32
_cell_length_a 18.300460
_cell_length_b 7.614098
_cell_length_c 13.126778
_cell_angle_alpha 90.000000
_cell_angle_beta 90.000000
_cell_angle_gamma 90.000000
_cell_volume 1829.104883
_symmetry_space_group_name_H-M "A M A 2"
_symmetry_group_IT_number 40
_symmetry_cell_setting 'orthorhombic'
loop_
_space_group_symop_operation_xyz
x,y,z
-x,-y,z
1/2-x,y,z
1/2+x,-y,z
x,1/2+y,1/2+z
-x,1/2-y,1/2+z
1/2-x,1/2+y,1/2+z
1/2+x,1/2-y,1/2+z
loop_
_atom_site_type_symbol
_atom_site_label
_atom_site_fract_x
_atom_site_fract_y
_atom_site_fract_z
Si Si1 0.927055 0.893184 0.375000
Si Si2 0.090310 0.671521 0.101238
Si Si3 0.931974 0.709973 0.176473
Si Si4 0.335143 0.482174 0.703925
O O1 0.893703 0.827405 0.480877
O O2 0.943924 0.728578 0.299256
O O3 0.868052 0.019836 0.318894
O O4 0.000000 0.000000 0.400124
O O5 0.100509 0.479261 0.149737
O O6 0.150494 0.795857 0.151556
O O7 0.008902 0.743995 0.121020
O O8 0.875355 0.861426 0.140039
O O9 0.250000 0.522043 0.707618
#
# Coordination Sequence:
#
# PCOD8183413 Si02
#       4
#     8   8   8   8
#     4  10  19  38  61  85 114 144 200 241 280 329
#     4  11  19  38  64  84 107 156 196 238 289 331
#     4   9  20  37  59  86 112 143 197 244 274 328
#     4  10  22  40  55  85 128 150 183 237 291 357
#
# _framework density 17.494896000000001
#
# number of rings (size 3 to 8) (size 9 to 14) (size 15 to 20)
#    1.500    0.500    5.000    0.750    0.000    2.000 
#   13.500    0.000    0.000    0.000    0.000    0.000 
#    0.000    0.000    0.000    0.000    0.000    0.000 
#
# Total GULP energy -198291.253739 kJ/mol
# GULP energy per Si atom -12393.203359 kJ/mol
# Density = 1.745508 g / cm^3
# Si number density = 17.494896 Si / 1000 Ang^3
#
#
#
# Elastic Constant Matrix: (Units=GPa)
#
#
# Indices 1 2 3 4 5 6 
#
# 1 85.6988 30.2329 14.7830 0.0000 0.0000 0.0000
# 2 30.2329 78.3732 37.4893 0.0000 0.0000 0.0000
# 3 14.7830 37.4893 133.6540 0.0000 0.0000 0.0000
# 4 0.0000 0.0000 0.0000 30.1645 0.0000 0.0000
# 5 0.0000 0.0000 0.0000 0.0000 5.0182 0.0000
# 6 0.0000 0.0000 0.0000 0.0000 0.0000 20.8475
#
#
#
# Elastic Compliance Matrix: (Units=1/GPa)
#
#
# Indices 1 2 3 4 5 6 
#
# 1 0.013507 -0.005192 -0.000038 0.000000 0.000000 0.000000
# 2 -0.005192 0.016733 -0.004119 0.000000 0.000000 0.000000
# 3 -0.000038 -0.004119 0.008642 0.000000 0.000000 0.000000
# 4 0.000000 0.000000 0.000000 0.033152 0.000000 0.000000
# 5 0.000000 0.000000 0.000000 0.000000 0.199275 0.000000
# 6 0.000000 0.000000 0.000000 0.000000 0.000000 0.047967
#
#
# Mechanical properties :
#
#
# Convention : Reuss Voigt Hill
#
# Bulk Modulus (GPa) = 49.54621 51.41517 50.48069
# Shear Modulus (GPa) = 14.50529 25.55408 20.02968
#
# Velocity S-wave (km/s) = 2.88256 3.82600 3.38729
# Velocity P-wave (km/s) = 6.28178 6.99787 6.64947
#
# Compressibility (1/GPa) = 0.02018318
#
# Stress axis : x y z
#
# Youngs Moduli (GPa) = 74.03542 59.76266 115.71985
#
# Poissons Ratio (x) = 0.31032 0.00434
# Poissons Ratio (y) = 0.38443 0.47667
# Poissons Ratio (z) = 0.00278 0.24617
#
# Static dielectric constant tensor:
#      x y z
#    x 2.982080 0.000000 0.000000 
#    y 0.000000 3.207850 0.000000 
#    z 0.000000 0.000000 3.181100 
# 
# 
# High freq. dielectric constant tensor:
#      x y z
#    x 1.659020 0.000000 0.000000 
#    y 0.000000 1.670760 0.000000 
#    z 0.000000 0.000000 1.668730 
# 
# From -- ./inp_files/11700.got.cif
#   From: 2010.03.12/outbox.cif.g09.slc.cpg/sg40_6_cif.got.tgz:11700.got - 2010.04.14 01:38:03.
