data_PCOD8183051
_publ_section_title
;
Structure prediction by ZEFSAII (Michael W. Deem and Ramdas Pophale) SiO2 
 PCOD8183051
Probable space group: A M A 2
;
_chemical_formula_sum "Si O2"
_cell_formula_units_Z 64
_cell_length_a 8.864176
_cell_length_b 20.716814
_cell_length_c 19.407149
_cell_angle_alpha 90.000000
_cell_angle_beta 90.000000
_cell_angle_gamma 90.000000
_cell_volume 3563.880042
_symmetry_space_group_name_H-M "A M A 2"
_symmetry_group_IT_number 40
_symmetry_cell_setting 'orthorhombic'
loop_
_space_group_symop_operation_xyz
x,y,z
-x,-y,z
1/2-x,y,z
1/2+x,-y,z
x,1/2+y,1/2+z
-x,1/2-y,1/2+z
1/2-x,1/2+y,1/2+z
1/2+x,1/2-y,1/2+z
loop_
_atom_site_type_symbol
_atom_site_label
_atom_site_fract_x
_atom_site_fract_y
_atom_site_fract_z
Si Si1 0.426040 0.878016 0.485970
Si Si2 0.927294 0.933070 0.199495
Si Si3 0.571865 0.811541 0.696708
Si Si4 0.575894 0.769732 0.843238
Si Si5 0.575471 0.183450 0.123086
Si Si6 0.077673 0.879895 0.330209
Si Si7 0.571344 0.934392 0.614489
Si Si8 0.576699 0.242081 0.980023
O O1 0.250000 0.882639 0.503678
O O2 0.458739 0.901485 0.408160
O O3 0.519731 0.924428 0.535813
O O4 0.476103 0.804292 0.496039
O O5 0.750000 0.939312 0.193938
O O6 0.982464 0.877828 0.147826
O O7 0.970712 0.918326 0.278543
O O8 0.000000 0.000000 0.175236
O O9 0.750000 0.810498 0.686517
O O10 0.528410 0.812812 0.777517
O O11 0.508039 0.747610 0.659505
O O12 0.506674 0.875735 0.660900
O O13 0.750000 0.779799 0.863465
O O14 0.546313 0.695960 0.822146
O O15 0.475160 0.790807 0.908408
O O16 0.750000 0.173518 0.143892
O O17 0.555854 0.190179 0.040806
O O18 0.250000 0.895659 0.310675
O O19 0.750000 0.939360 0.617758
O O20 0.500000 0.000000 0.643905
O O21 0.750000 0.264487 0.974813
#
# Coordination Sequence:
#
# PCOD8183051 Si02
#       8
#     8   8   8   8   8   8   8   8
#     4  10  20  34  53  78 109 147 186 224 264 317
#     4  12  25  38  55  80 109 144 183 227 272 324
#     4   9  17  34  58  79 105 146 184 219 273 324
#     4   9  17  32  55  80 108 141 179 224 270 322
#     4  10  19  37  59  79 108 145 181 223 272 325
#     4   9  18  34  54  76 108 145 180 219 267 320
#     4  11  22  37  55  79 110 148 187 226 275 325
#     4  10  19  32  54  83 113 143 175 222 276 322
#
# _framework density 17.957954999999998
#
# number of rings (size 3 to 8) (size 9 to 14) (size 15 to 20)
#    0.000    2.000    2.500    3.000    0.000    4.000 
#    0.000    1.250    0.000    0.750    0.000    3.500 
#    0.000    0.000    0.000    0.000    0.000    0.000 
#
# Total GULP energy -396845.548087 kJ/mol
# GULP energy per Si atom -12401.423378 kJ/mol
# Density = 1.791708 g / cm^3
# Si number density = 17.957955 Si / 1000 Ang^3
#
#
#
# Elastic Constant Matrix: (Units=GPa)
#
#
# Indices 1 2 3 4 5 6 
#
# 1 84.6565 45.4535 38.6479 0.0000 0.0000 0.0000
# 2 45.4535 113.1231 58.0529 0.0000 0.0000 0.0000
# 3 38.6479 58.0529 100.4931 0.0000 0.0000 0.0000
# 4 0.0000 0.0000 0.0000 21.0213 0.0000 0.0000
# 5 0.0000 0.0000 0.0000 0.0000 29.2311 0.0000
# 6 0.0000 0.0000 0.0000 0.0000 0.0000 24.1761
#
#
#
# Elastic Compliance Matrix: (Units=1/GPa)
#
#
# Indices 1 2 3 4 5 6 
#
# 1 0.015855 -0.004607 -0.003436 0.000000 0.000000 0.000000
# 2 -0.004607 0.013904 -0.006260 0.000000 0.000000 0.000000
# 3 -0.003436 -0.006260 0.014889 0.000000 0.000000 0.000000
# 4 0.000000 0.000000 0.000000 0.047571 0.000000 0.000000
# 5 0.000000 0.000000 0.000000 0.000000 0.034210 0.000000
# 6 0.000000 0.000000 0.000000 0.000000 0.000000 0.041363
#
#
# Mechanical properties :
#
#
# Convention : Reuss Voigt Hill
#
# Bulk Modulus (GPa) = 62.34168 64.73126 63.53647
# Shear Modulus (GPa) = 24.78381 25.29359 25.03870
#
# Velocity S-wave (km/s) = 3.71900 3.75706 3.73808
# Velocity P-wave (km/s) = 7.29603 7.41248 7.35449
#
# Compressibility (1/GPa) = 0.01604063
#
# Stress axis : x y z
#
# Youngs Moduli (GPa) = 63.07259 71.92338 67.16540
#
# Poissons Ratio (x) = 0.33137 0.23078
# Poissons Ratio (y) = 0.29059 0.42046
# Poissons Ratio (z) = 0.21671 0.45024
#
# Static dielectric constant tensor:
#      x y z
#    x 3.219590 0.000000 0.000000 
#    y 0.000000 3.198640 0.000000 
#    z 0.000000 0.000000 3.486600 
# 
# 
# High freq. dielectric constant tensor:
#      x y z
#    x 1.687510 0.000000 0.000000 
#    y 0.000000 1.670710 0.000000 
#    z 0.000000 0.000000 1.699190 
# 
# From -- ./inp_files/22409.got.cif
#   From: 2010.03.12/outbox.cif.g09.slc.cpg/sg40_12_cif.got.tgz:22409.got - 2010.04.14 01:38:03.
