data_PCOD8183507
_publ_section_title
;
Structure prediction by ZEFSAII (Michael W. Deem and Ramdas Pophale) SiO2 
 PCOD8183507
Probable space group: A M A 2
;
_chemical_formula_sum "Si O2"
_cell_formula_units_Z 64
_cell_length_a 8.553070
_cell_length_b 14.614410
_cell_length_c 27.380142
_cell_angle_alpha 90.000000
_cell_angle_beta 90.000000
_cell_angle_gamma 90.000000
_cell_volume 3422.464954
_symmetry_space_group_name_H-M "A M A 2"
_symmetry_group_IT_number 40
_symmetry_cell_setting 'orthorhombic'
loop_
_space_group_symop_operation_xyz
x,y,z
-x,-y,z
1/2-x,y,z
1/2+x,-y,z
x,1/2+y,1/2+z
-x,1/2-y,1/2+z
1/2-x,1/2+y,1/2+z
1/2+x,1/2-y,1/2+z
loop_
_atom_site_type_symbol
_atom_site_label
_atom_site_fract_x
_atom_site_fract_y
_atom_site_fract_z
Si Si1 0.933631 0.097330 0.506370
Si Si2 0.934643 0.401447 0.625104
Si Si3 0.933292 0.095188 0.230235
Si Si4 0.933564 0.597057 0.283618
Si Si5 0.933356 0.278477 0.089319
Si Si6 0.568611 0.721795 0.820372
Si Si7 0.432844 0.596864 0.901538
Si Si8 0.066225 0.902825 0.670537
O O1 0.750000 0.088367 0.503305
O O2 0.979362 0.174534 0.544595
O O3 0.997061 0.125512 0.453497
O O4 0.000000 0.000000 0.523991
O O5 0.750000 0.398472 0.618274
O O6 0.000000 0.500000 0.609547
O O7 0.977047 0.378507 0.680973
O O8 0.014664 0.327092 0.590055
O O9 0.750000 0.085053 0.218763
O O10 0.969736 0.173144 0.269279
O O11 0.000000 0.000000 0.251336
O O12 0.750000 0.600618 0.292884
O O13 0.975121 0.613462 0.227002
O O14 0.000000 0.500000 0.301185
O O15 0.017942 0.673173 0.316245
O O16 0.750000 0.286612 0.081288
O O17 0.981224 0.323765 0.140570
O O18 0.750000 0.714108 0.833668
O O19 0.470310 0.675706 0.863151
O O20 0.500000 0.500000 0.882932
O O21 0.250000 0.585389 0.907611
O O22 0.250000 0.899724 0.660197
O O23 0.000000 0.000000 0.652724
#
# Coordination Sequence:
#
# PCOD8183507 Si02
#       8
#     8   8   8   8   8   8   8   8
#     4  11  22  39  60  84 113 143 176 217 268 322
#     4  11  22  37  55  77 107 144 184 226 271 317
#     4  10  20  33  51  77 110 146 182 222 267 317
#     4  10  21  36  54  76 106 144 184 227 271 317
#     4  12  23  36  55  80 109 143 183 224 268 319
#     4  11  22  35  54  80 109 143 183 224 268 320
#     4  11  22  38  59  84 113 143 176 217 268 322
#     4  10  20  34  52  78 111 146 183 223 269 320
#
# _framework density 18.699971999999999
#
# number of rings (size 3 to 8) (size 9 to 14) (size 15 to 20)
#    0.000    1.250    0.000    9.000    0.000    6.500 
#    0.000    0.000    0.000    0.750    0.000    5.250 
#    0.000    0.000    0.000    0.000    0.000    0.000 
#
# Total GULP energy -397008.589014 kJ/mol
# GULP energy per Si atom -12406.518407 kJ/mol
# Density = 1.865741 g / cm^3
# Si number density = 18.699972 Si / 1000 Ang^3
#
#
#
# Elastic Constant Matrix: (Units=GPa)
#
#
# Indices 1 2 3 4 5 6 
#
# 1 122.9150 35.1961 31.3958 0.0000 0.0000 0.0000
# 2 35.1961 127.6436 54.3495 0.0000 0.0000 0.0000
# 3 31.3958 54.3495 69.4810 0.0000 0.0000 0.0000
# 4 0.0000 0.0000 0.0000 20.8399 0.0000 0.0000
# 5 0.0000 0.0000 0.0000 0.0000 29.9598 0.0000
# 6 0.0000 0.0000 0.0000 0.0000 0.0000 32.8720
#
#
#
# Elastic Compliance Matrix: (Units=1/GPa)
#
#
# Indices 1 2 3 4 5 6 
#
# 1 0.009311 -0.001163 -0.003297 0.000000 0.000000 0.000000
# 2 -0.001163 0.011892 -0.008777 0.000000 0.000000 0.000000
# 3 -0.003297 -0.008777 0.022747 0.000000 0.000000 0.000000
# 4 0.000000 0.000000 0.000000 0.047985 0.000000 0.000000
# 5 0.000000 0.000000 0.000000 0.000000 0.033378 0.000000
# 6 0.000000 0.000000 0.000000 0.000000 0.000000 0.030421
#
#
# Mechanical properties :
#
#
# Convention : Reuss Voigt Hill
#
# Bulk Modulus (GPa) = 57.22062 62.43583 59.82823
# Shear Modulus (GPa) = 26.59087 30.00754 28.29921
#
# Velocity S-wave (km/s) = 3.77500 4.01020 3.89437
# Velocity P-wave (km/s) = 7.04745 7.40965 7.23082
#
# Compressibility (1/GPa) = 0.01747622
#
# Stress axis : x y z
#
# Youngs Moduli (GPa) = 107.39918 84.08946 43.96090
#
# Poissons Ratio (x) = 0.09784 0.14495
# Poissons Ratio (y) = 0.12496 0.38582
# Poissons Ratio (z) = 0.35412 0.73801
#
# Static dielectric constant tensor:
#      x y z
#    x 3.611310 0.000000 0.000000 
#    y 0.000000 3.567830 0.000000 
#    z 0.000000 0.000000 3.247270 
# 
# 
# High freq. dielectric constant tensor:
#      x y z
#    x 1.748760 0.000000 0.000000 
#    y 0.000000 1.730150 0.000000 
#    z 0.000000 0.000000 1.703030 
# 
# From -- ./inp_files/24327.got.cif
#   From: 2010.03.12/outbox.cif.g09.slc.cpg/sg40_13_cif.got.tgz:24327.got - 2010.04.14 01:38:03.
