data_PCOD8183386
_publ_section_title
;
Structure prediction by ZEFSAII (Michael W. Deem and Ramdas Pophale) SiO2 
 PCOD8183386
Probable space group: A M A 2
;
_chemical_formula_sum "Si O2"
_cell_formula_units_Z 48
_cell_length_a 18.095173
_cell_length_b 15.698997
_cell_length_c 8.643864
_cell_angle_alpha 90.000000
_cell_angle_beta 90.000000
_cell_angle_gamma 90.000000
_cell_volume 2455.514886
_symmetry_space_group_name_H-M "A M A 2"
_symmetry_group_IT_number 40
_symmetry_cell_setting 'orthorhombic'
loop_
_space_group_symop_operation_xyz
x,y,z
-x,-y,z
1/2-x,y,z
1/2+x,-y,z
x,1/2+y,1/2+z
-x,1/2-y,1/2+z
1/2-x,1/2+y,1/2+z
1/2+x,1/2-y,1/2+z
loop_
_atom_site_type_symbol
_atom_site_label
_atom_site_fract_x
_atom_site_fract_y
_atom_site_fract_z
Si Si1 0.924780 0.957245 0.823710
Si Si2 0.408969 0.799752 0.433455
Si Si3 0.947816 0.287086 0.135410
Si Si4 0.834943 0.856867 0.057789
Si Si5 0.165850 0.148353 0.407321
Si Si6 0.664511 0.534071 0.057417
O O1 0.947548 0.875657 0.725046
O O2 0.874793 0.021796 0.722952
O O3 0.880148 0.932353 0.976807
O O4 0.000000 0.000000 0.880300
O O5 0.435452 0.790970 0.255048
O O6 0.475263 0.775419 0.548340
O O7 0.344372 0.731521 0.465452
O O8 0.377922 0.893745 0.460706
O O9 0.882065 0.287091 0.009960
O O10 0.750000 0.884369 0.053999
O O11 0.862932 0.845244 0.232497
O O12 0.250000 0.179400 0.423039
O O13 0.157096 0.051205 0.458906
O O14 0.750000 0.559164 0.084456
#
# Coordination Sequence:
#
# PCOD8183386 Si02
#       6
#     8   8   8   8   8   8
#     4  10  19  37  58  85 115 151 193 230 286 348
#     4  11  21  36  57  85 116 149 196 237 287 343
#     4  10  21  36  57  83 117 154 192 236 291 344
#     4  10  21  38  58  82 115 153 190 235 291 349
#     4   9  20  39  58  81 114 153 195 236 288 346
#     4  10  20  36  60  85 112 148 192 238 284 338
#
# _framework density 19.547834000000002
#
# number of rings (size 3 to 8) (size 9 to 14) (size 15 to 20)
#    0.000    2.000    1.667    2.000    0.000    4.667 
#    9.000    0.000    0.000    4.000    0.000    0.000 
#    0.000    0.000    0.000    0.000    0.000    0.000 
#
# Total GULP energy -297657.116940 kJ/mol
# GULP energy per Si atom -12402.379872 kJ/mol
# Density = 1.950334 g / cm^3
# Si number density = 19.547834 Si / 1000 Ang^3
#
#
#
# Elastic Constant Matrix: (Units=GPa)
#
#
# Indices 1 2 3 4 5 6 
#
# 1 101.0006 27.3618 53.8206 0.0000 0.0000 0.0000
# 2 27.3618 51.3133 24.7805 0.0000 0.0000 0.0000
# 3 53.8206 24.7805 123.0071 0.0000 0.0000 0.0000
# 4 0.0000 0.0000 0.0000 27.5358 0.0000 0.0000
# 5 0.0000 0.0000 0.0000 0.0000 36.5216 0.0000
# 6 0.0000 0.0000 0.0000 0.0000 0.0000 27.2065
#
#
#
# Elastic Compliance Matrix: (Units=1/GPa)
#
#
# Indices 1 2 3 4 5 6 
#
# 1 0.013974 -0.004984 -0.005110 0.000000 0.000000 0.000000
# 2 -0.004984 0.023366 -0.002527 0.000000 0.000000 0.000000
# 3 -0.005110 -0.002527 0.010875 0.000000 0.000000 0.000000
# 4 0.000000 0.000000 0.000000 0.036316 0.000000 0.000000
# 5 0.000000 0.000000 0.000000 0.000000 0.027381 0.000000
# 6 0.000000 0.000000 0.000000 0.000000 0.000000 0.036756
#
#
# Mechanical properties :
#
#
# Convention : Reuss Voigt Hill
#
# Bulk Modulus (GPa) = 43.52855 54.13853 48.83354
# Shear Modulus (GPa) = 27.53812 29.54333 28.54073
#
# Velocity S-wave (km/s) = 3.75741 3.89181 3.82520
# Velocity P-wave (km/s) = 6.41407 6.92462 6.67423
#
# Compressibility (1/GPa) = 0.02297343
#
# Stress axis : x y z
#
# Youngs Moduli (GPa) = 71.56070 42.79783 91.95765
#
# Poissons Ratio (x) = 0.21329 0.46993
# Poissons Ratio (y) = 0.35663 0.23234
# Poissons Ratio (z) = 0.36570 0.10813
#
# Static dielectric constant tensor:
#      x y z
#    x 3.664080 0.000000 0.000000 
#    y 0.000000 3.343830 0.000000 
#    z 0.000000 0.000000 3.695210 
# 
# 
# High freq. dielectric constant tensor:
#      x y z
#    x 1.774990 0.000000 0.000000 
#    y 0.000000 1.742340 0.000000 
#    z 0.000000 0.000000 1.765670 
# 
# From -- ./inp_files/6446.got.cif
#   From: 2010.03.12/outbox.cif.g09.slc.cpg/sg40_4_cif.got.tgz:6446.got - 2010.04.14 01:38:03.
