data_PCOD8183737
_publ_section_title
;
Structure prediction by ZEFSAII (Michael W. Deem and Ramdas Pophale) SiO2 
 PCOD8183737
Probable space group: A M A 2
;
_chemical_formula_sum "Si O2"
_cell_formula_units_Z 56
_cell_length_a 8.680470
_cell_length_b 23.867552
_cell_length_c 13.827579
_cell_angle_alpha 90.000000
_cell_angle_beta 90.000000
_cell_angle_gamma 90.000000
_cell_volume 2864.819514
_symmetry_space_group_name_H-M "A M A 2"
_symmetry_group_IT_number 40
_symmetry_cell_setting 'orthorhombic'
loop_
_space_group_symop_operation_xyz
x,y,z
-x,-y,z
1/2-x,y,z
1/2+x,-y,z
x,1/2+y,1/2+z
-x,1/2-y,1/2+z
1/2-x,1/2+y,1/2+z
1/2+x,1/2-y,1/2+z
loop_
_atom_site_type_symbol
_atom_site_label
_atom_site_fract_x
_atom_site_fract_y
_atom_site_fract_z
Si Si1 0.069097 0.615885 0.074790
Si Si2 0.932156 0.058602 0.756540
Si Si3 0.069115 0.667318 0.580530
Si Si4 0.432395 0.941105 0.399190
Si Si5 0.427737 0.228896 0.681141
Si Si6 0.933121 0.441028 0.690833
Si Si7 0.568033 0.339549 0.364046
O O1 0.250000 0.606001 0.062091
O O2 0.030909 0.678780 0.108115
O O3 0.006654 0.572172 0.153084
O O4 0.981960 0.607038 0.973809
O O5 0.750000 0.055300 0.745305
O O6 0.977228 0.104662 0.835713
O O7 0.000000 0.000000 0.793799
O O8 0.250000 0.665830 0.581289
O O9 0.008388 0.607351 0.618313
O O10 0.011488 0.678074 0.470975
O O11 0.019631 0.716176 0.652460
O O12 0.250000 0.945073 0.391014
O O13 0.502205 0.925625 0.295845
O O14 0.500000 0.000000 0.436709
O O15 0.250000 0.244401 0.675024
O O16 0.473617 0.210689 0.790190
O O17 0.750000 0.445350 0.696666
O O18 0.000000 0.500000 0.653199
O O19 0.750000 0.352686 0.358237
#
# Coordination Sequence:
#
# PCOD8183737 Si02
#       7
#     8   8   8   8   8   8   8
#     4  10  20  36  55  80 114 150 187 232 277 325
#     4  11  21  34  54  82 113 149 188 230 277 331
#     4  10  22  39  61  84 111 144 183 228 278 330
#     4  11  21  34  54  81 112 149 188 231 278 331
#     4   9  20  37  58  81 110 144 182 226 275 327
#     4  10  21  38  57  81 111 145 183 230 278 328
#     4   9  20  40  58  79 111 147 185 231 277 324
#
# _framework density 19.547478999999999
#
# number of rings (size 3 to 8) (size 9 to 14) (size 15 to 20)
#    0.000    2.000    0.000    5.571    0.000    6.286 
#    0.000    4.286    0.000    0.000    0.000    0.000 
#    0.000    0.000    0.000    0.000    0.000    0.000 
#
# Total GULP energy -347262.993594 kJ/mol
# GULP energy per Si atom -12402.249771 kJ/mol
# Density = 1.950299 g / cm^3
# Si number density = 19.547479 Si / 1000 Ang^3
#
#
#
# Elastic Constant Matrix: (Units=GPa)
#
#
# Indices 1 2 3 4 5 6 
#
# 1 67.7778 31.8946 27.4114 0.0000 0.0000 0.0000
# 2 31.8946 122.6642 75.2419 0.0000 0.0000 0.0000
# 3 27.4114 75.2419 128.3577 0.0000 0.0000 0.0000
# 4 0.0000 0.0000 0.0000 26.8399 0.0000 0.0000
# 5 0.0000 0.0000 0.0000 0.0000 11.6088 0.0000
# 6 0.0000 0.0000 0.0000 0.0000 0.0000 35.0795
#
#
#
# Elastic Compliance Matrix: (Units=1/GPa)
#
#
# Indices 1 2 3 4 5 6 
#
# 1 0.017025 -0.003430 -0.001625 0.000000 0.000000 0.000000
# 2 -0.003430 0.013420 -0.007134 0.000000 0.000000 0.000000
# 3 -0.001625 -0.007134 0.012320 0.000000 0.000000 0.000000
# 4 0.000000 0.000000 0.000000 0.037258 0.000000 0.000000
# 5 0.000000 0.000000 0.000000 0.000000 0.086142 0.000000
# 6 0.000000 0.000000 0.000000 0.000000 0.000000 0.028507
#
#
# Mechanical properties :
#
#
# Convention : Reuss Voigt Hill
#
# Bulk Modulus (GPa) = 54.38769 65.32175 59.85472
# Shear Modulus (GPa) = 22.20441 26.98906 24.59673
#
# Velocity S-wave (km/s) = 3.37400 3.71980 3.55111
# Velocity P-wave (km/s) = 6.56219 7.20685 6.89206
#
# Compressibility (1/GPa) = 0.01838651
#
# Stress axis : x y z
#
# Youngs Moduli (GPa) = 58.73560 74.51329 81.16920
#
# Poissons Ratio (x) = 0.25558 0.13192
# Poissons Ratio (y) = 0.20146 0.57910
# Poissons Ratio (z) = 0.09546 0.53161
#
# Static dielectric constant tensor:
#      x y z
#    x 3.531580 0.000000 0.000000 
#    y 0.000000 3.565660 0.000000 
#    z 0.000000 0.000000 3.752190 
# 
# 
# High freq. dielectric constant tensor:
#      x y z
#    x 1.764080 0.000000 0.000000 
#    y 0.000000 1.758920 0.000000 
#    z 0.000000 0.000000 1.762510 
# 
# From -- ./inp_files/15337.got.cif
#   From: 2010.03.12/outbox.cif.g09.slc.cpg/sg40_8_cif.got.tgz:15337.got - 2010.04.14 01:38:03.
