data_PCOD8183479
_publ_section_title
;
Structure prediction by ZEFSAII (Michael W. Deem and Ramdas Pophale) SiO2 
 PCOD8183479
Probable space group: A M A 2
;
_chemical_formula_sum "Si O2"
_cell_formula_units_Z 64
_cell_length_a 8.800217
_cell_length_b 18.295335
_cell_length_c 22.974088
_cell_angle_alpha 90.000000
_cell_angle_beta 90.000000
_cell_angle_gamma 90.000000
_cell_volume 3698.895208
_symmetry_space_group_name_H-M "A M A 2"
_symmetry_group_IT_number 40
_symmetry_cell_setting 'orthorhombic'
loop_
_space_group_symop_operation_xyz
x,y,z
-x,-y,z
1/2-x,y,z
1/2+x,-y,z
x,1/2+y,1/2+z
-x,1/2-y,1/2+z
1/2-x,1/2+y,1/2+z
1/2+x,1/2-y,1/2+z
loop_
_atom_site_type_symbol
_atom_site_label
_atom_site_fract_x
_atom_site_fract_y
_atom_site_fract_z
Si Si1 0.068827 0.922913 0.721330
Si Si2 0.069195 0.781929 0.904701
Si Si3 0.567144 0.785261 0.782758
Si Si4 0.419883 0.793978 0.509329
Si Si5 0.915545 0.704326 0.672626
Si Si6 0.580252 0.858844 0.611262
Si Si7 0.584098 0.858917 0.073998
Si Si8 0.567707 0.923957 0.957898
O O1 0.250000 0.923207 0.725937
O O2 0.000224 0.863872 0.765727
O O3 0.019964 0.907476 0.654776
O O4 0.000000 0.000000 0.741309
O O5 0.250000 0.786843 0.903696
O O6 0.002783 0.757079 0.842833
O O7 0.017603 0.721562 0.951552
O O8 0.998753 0.861224 0.917102
O O9 0.750000 0.790918 0.784319
O O10 0.511345 0.725337 0.734886
O O11 0.250000 0.819723 0.491910
O O12 0.501281 0.857031 0.547611
O O13 0.408103 0.721672 0.547710
O O14 0.750000 0.671585 0.683750
O O15 0.906817 0.777104 0.634569
O O16 0.000675 0.641395 0.636203
O O17 0.750000 0.892590 0.606104
O O18 0.750000 0.889263 0.087971
O O19 0.509727 0.910845 0.024548
O O20 0.750000 0.921930 0.953965
O O21 0.500000 0.000000 0.935285
#
# Coordination Sequence:
#
# PCOD8183479 Si02
#       8
#     8   8   8   8   8   8   8   8
#     4  11  21  33  47  65  89 120 155 190 226 267
#     4  11  21  32  46  65  88 119 154 188 224 266
#     4  10  20  34  47  63  88 118 152 190 224 262
#     4   9  16  28  45  65  87 113 143 181 225 267
#     4   8  15  26  43  63  83 107 137 174 219 262
#     4   9  16  28  45  66  88 112 143 182 225 269
#     4   8  15  26  42  62  84 107 136 174 218 261
#     4  10  20  33  46  63  87 118 152 187 222 260
#
# _framework density 17.302462999999999
#
# number of rings (size 3 to 8) (size 9 to 14) (size 15 to 20)
#    0.000    2.500    0.000    5.250    0.000    7.500 
#    0.000    2.500    0.000    0.000    0.000    0.000 
#    0.000    1.000    0.000    7.000    0.000    6.125 
#
# Total GULP energy -396598.379192 kJ/mol
# GULP energy per Si atom -12393.699350 kJ/mol
# Density = 1.726308 g / cm^3
# Si number density = 17.302463 Si / 1000 Ang^3
#
#
#
# Elastic Constant Matrix: (Units=GPa)
#
#
# Indices 1 2 3 4 5 6 
#
# 1 113.9319 6.1305 40.6144 0.0000 0.0000 0.0000
# 2 6.1305 3.7762 10.3692 0.0000 0.0000 0.0000
# 3 40.6144 10.3692 112.6483 0.0000 0.0000 0.0000
# 4 0.0000 0.0000 0.0000 14.4251 0.0000 0.0000
# 5 0.0000 0.0000 0.0000 0.0000 30.9816 0.0000
# 6 0.0000 0.0000 0.0000 0.0000 0.0000 17.4650
#
#
#
# Elastic Compliance Matrix: (Units=1/GPa)
#
#
# Indices 1 2 3 4 5 6 
#
# 1 0.010282 -0.008715 -0.002905 0.000000 0.000000 0.000000
# 2 -0.008715 0.361776 -0.030159 0.000000 0.000000 0.000000
# 3 -0.002905 -0.030159 0.012701 0.000000 0.000000 0.000000
# 4 0.000000 0.000000 0.000000 0.069324 0.000000 0.000000
# 5 0.000000 0.000000 0.000000 0.000000 0.032277 0.000000
# 6 0.000000 0.000000 0.000000 0.000000 0.000000 0.057257
#
#
# Mechanical properties :
#
#
# Convention : Reuss Voigt Hill
#
# Bulk Modulus (GPa) = 3.32005 38.28717 20.80361
# Shear Modulus (GPa) = 6.87215 24.12385 15.49800
#
# Velocity S-wave (km/s) = 1.99509 3.73801 2.99609
# Velocity P-wave (km/s) = 2.68890 6.38799 4.90085
#
# Compressibility (1/GPa) = 0.30120033
#
# Stress axis : x y z
#
# Youngs Moduli (GPa) = 97.26115 2.76414 78.73671
#
# Poissons Ratio (x) = 0.02409 0.22871
# Poissons Ratio (y) = 0.84767 2.37461
# Poissons Ratio (z) = 0.28251 0.08336
#
# Static dielectric constant tensor:
#      x y z
#    x 3.459570 0.000000 0.000000 
#    y 0.000000 2.828840 0.000000 
#    z 0.000000 0.000000 3.335220 
# 
# 
# High freq. dielectric constant tensor:
#      x y z
#    x 1.682830 0.000000 0.000000 
#    y 0.000000 1.608090 0.000000 
#    z 0.000000 0.000000 1.664740 
# 
# From -- ./inp_files/22522.got.cif
#   From: 2010.03.12/outbox.cif.g09.slc.cpg/sg40_12_cif.got.tgz:22522.got - 2010.04.14 01:38:03.
