data_PCOD8183561
_publ_section_title
;
Structure prediction by ZEFSAII (Michael W. Deem and Ramdas Pophale) SiO2 
 PCOD8183561
Probable space group: A M A 2
;
_chemical_formula_sum "Si O2"
_cell_formula_units_Z 64
_cell_length_a 26.666576
_cell_length_b 6.699046
_cell_length_c 18.653196
_cell_angle_alpha 90.000000
_cell_angle_beta 90.000000
_cell_angle_gamma 90.000000
_cell_volume 3332.218485
_symmetry_space_group_name_H-M "A M A 2"
_symmetry_group_IT_number 40
_symmetry_cell_setting 'orthorhombic'
loop_
_space_group_symop_operation_xyz
x,y,z
-x,-y,z
1/2-x,y,z
1/2+x,-y,z
x,1/2+y,1/2+z
-x,1/2-y,1/2+z
1/2-x,1/2+y,1/2+z
1/2+x,1/2-y,1/2+z
loop_
_atom_site_type_symbol
_atom_site_label
_atom_site_fract_x
_atom_site_fract_y
_atom_site_fract_z
Si Si1 0.194255 0.672656 0.100630
Si Si2 0.446320 0.546844 0.790443
Si Si3 0.128076 0.667608 0.968658
Si Si4 0.085320 0.781069 0.412371
Si Si5 0.880480 0.597985 0.330059
Si Si6 0.557145 0.008134 0.033860
Si Si7 0.874200 0.020565 0.166178
Si Si8 0.693933 0.171248 0.705445
O O1 0.250000 0.769712 0.104806
O O2 0.195707 0.451674 0.131839
O O3 0.151788 0.772479 0.149049
O O4 0.176587 0.683996 0.018678
O O5 0.500000 0.500000 0.754349
O O6 0.449424 0.427270 0.865535
O O7 0.431109 0.781241 0.803258
O O8 0.406111 0.448513 0.737718
O O9 0.121714 0.430612 0.955682
O O10 0.143106 0.771578 0.894137
O O11 0.078754 0.780055 0.003029
O O12 0.110736 0.626031 0.357446
O O13 0.055562 0.655537 0.471057
O O14 0.840653 0.574539 0.266678
O O15 0.500000 0.000000 0.061626
O O16 0.591392 0.940383 0.100756
O O17 0.827684 0.879598 0.180854
O O18 0.750000 0.196964 0.736780
#
# Coordination Sequence:
#
# PCOD8183561 Si02
#       8
#     8   8   8   8   8   8   8   8
#     4  10  20  35  57  80 104 139 183 224 273 330
#     4  10  21  33  55  79 108 142 184 219 268 327
#     4   9  20  36  52  78 109 142 177 224 271 318
#     4  10  20  34  53  74 110 144 175 224 268 318
#     4   9  20  36  52  78 109 142 177 224 271 318
#     4  10  21  33  55  79 108 142 184 219 268 327
#     4  10  20  38  54  78 110 142 174 230 278 320
#     4  10  20  35  57  80 104 139 183 224 273 330
#
# _framework density 19.206422
#
# number of rings (size 3 to 8) (size 9 to 14) (size 15 to 20)
#    0.000    2.250    0.000    2.250    5.250    0.500 
#    0.000    0.625    0.000    4.500    0.000    0.000 
#    0.000    0.000    0.000    0.000    0.000    0.000 
#
# Total GULP energy -396488.236928 kJ/mol
# GULP energy per Si atom -12390.257404 kJ/mol
# Density = 1.916271 g / cm^3
# Si number density = 19.206422 Si / 1000 Ang^3
#
#
#
# Elastic Constant Matrix: (Units=GPa)
#
#
# Indices 1 2 3 4 5 6 
#
# 1 112.8896 34.0702 27.2545 0.0000 0.0000 0.0000
# 2 34.0702 83.5471 16.1337 0.0000 0.0000 0.0000
# 3 27.2545 16.1337 67.7905 0.0000 0.0000 0.0000
# 4 0.0000 0.0000 0.0000 27.8690 0.0000 0.0000
# 5 0.0000 0.0000 0.0000 0.0000 16.1697 0.0000
# 6 0.0000 0.0000 0.0000 0.0000 0.0000 17.1902
#
#
#
# Elastic Compliance Matrix: (Units=1/GPa)
#
#
# Indices 1 2 3 4 5 6 
#
# 1 0.010824 -0.003746 -0.003460 0.000000 0.000000 0.000000
# 2 -0.003746 0.013842 -0.001788 0.000000 0.000000 0.000000
# 3 -0.003460 -0.001788 0.016568 0.000000 0.000000 0.000000
# 4 0.000000 0.000000 0.000000 0.035882 0.000000 0.000000
# 5 0.000000 0.000000 0.000000 0.000000 0.061844 0.000000
# 6 0.000000 0.000000 0.000000 0.000000 0.000000 0.058173
#
#
# Mechanical properties :
#
#
# Convention : Reuss Voigt Hill
#
# Bulk Modulus (GPa) = 43.01906 46.57155 44.79531
# Shear Modulus (GPa) = 22.43454 24.69703 23.56578
#
# Velocity S-wave (km/s) = 3.42142 3.58980 3.50662
# Velocity P-wave (km/s) = 6.16888 6.44071 6.30626
#
# Compressibility (1/GPa) = 0.02324551
#
# Stress axis : x y z
#
# Youngs Moduli (GPa) = 92.38638 72.24294 60.35691
#
# Poissons Ratio (x) = 0.27061 0.20885
# Poissons Ratio (y) = 0.34606 0.10794
# Poissons Ratio (z) = 0.31968 0.12920
#
# Static dielectric constant tensor:
#      x y z
#    x 3.481620 0.000000 0.000000 
#    y 0.000000 3.533820 0.000000 
#    z 0.000000 0.000000 3.642800 
# 
# 
# High freq. dielectric constant tensor:
#      x y z
#    x 1.733110 0.000000 0.000000 
#    y 0.000000 1.742740 0.000000 
#    z 0.000000 0.000000 1.759940 
# 
# From -- ./inp_files/3224.got.cif
#   From: 2010.03.12/outbox.cif.g09.slc.cpg/sg40_2_cif.got.tgz:3224.got - 2010.04.14 01:38:03.
