data_PCOD8183068
_publ_section_title
;
Structure prediction by ZEFSAII (Michael W. Deem and Ramdas Pophale) SiO2 
 PCOD8183068
Probable space group: A M A 2
;
_chemical_formula_sum "Si O2"
_cell_formula_units_Z 56
_cell_length_a 8.858885
_cell_length_b 19.157568
_cell_length_c 17.079375
_cell_angle_alpha 90.000000
_cell_angle_beta 90.000000
_cell_angle_gamma 90.000000
_cell_volume 2898.620864
_symmetry_space_group_name_H-M "A M A 2"
_symmetry_group_IT_number 40
_symmetry_cell_setting 'orthorhombic'
loop_
_space_group_symop_operation_xyz
x,y,z
-x,-y,z
1/2-x,y,z
1/2+x,-y,z
x,1/2+y,1/2+z
-x,1/2-y,1/2+z
1/2-x,1/2+y,1/2+z
1/2+x,1/2-y,1/2+z
loop_
_atom_site_type_symbol
_atom_site_label
_atom_site_fract_x
_atom_site_fract_y
_atom_site_fract_z
Si Si1 0.420328 0.206166 0.710200
Si Si2 0.418061 0.433372 0.732029
Si Si3 0.913950 0.064823 0.049404
Si Si4 0.930001 0.925684 0.610359
Si Si5 0.576481 0.218505 0.050696
Si Si6 0.072800 0.686980 0.809796
Si Si7 0.072761 0.343795 0.972439
O O1 0.250000 0.197823 0.741143
O O2 0.478710 0.131659 0.676091
O O3 0.427368 0.264189 0.642372
O O4 0.520079 0.235005 0.782949
O O5 0.500000 0.500000 0.772133
O O6 0.250000 0.422284 0.768699
O O7 0.399160 0.448611 0.641037
O O8 0.524955 0.366296 0.741867
O O9 0.750000 0.065398 0.010115
O O10 0.987314 0.140734 0.034817
O O11 0.000000 0.000000 0.009222
O O12 0.750000 0.930368 0.605030
O O13 0.991835 0.902475 0.525510
O O14 0.000000 0.000000 0.634583
O O15 0.750000 0.227795 0.021002
O O16 0.462600 0.267253 0.004529
O O17 0.250000 0.688877 0.824478
O O18 0.989549 0.655018 0.884955
O O19 0.250000 0.358566 0.973592
#
# Coordination Sequence:
#
# PCOD8183068 Si02
#       7
#     8   8   8   8   8   8   8
#     4   9  18  35  57  80 109 144 180 226 277 325
#     4  10  19  33  49  73 106 140 174 211 256 306
#     4   9  17  29  48  73 103 135 167 207 254 302
#     4  10  21  39  62  87 116 147 186 233 283 338
#     4   9  17  34  54  75 105 139 175 221 270 318
#     4  12  23  35  53  79 110 147 187 227 273 330
#     4  11  23  37  55  79 108 144 184 227 277 333
#
# _framework density 19.319531999999999
#
# number of rings (size 3 to 8) (size 9 to 14) (size 15 to 20)
#    0.000    2.000    1.429    4.286    0.000    4.571 
#    0.000    2.857    0.000    0.857    0.000    6.000 
#    0.000    0.000    0.000    0.000    0.000    0.000 
#
# Total GULP energy -347022.714272 kJ/mol
# GULP energy per Si atom -12393.668367 kJ/mol
# Density = 1.927556 g / cm^3
# Si number density = 19.319532 Si / 1000 Ang^3
#
#
#
# Elastic Constant Matrix: (Units=GPa)
#
#
# Indices 1 2 3 4 5 6 
#
# 1 106.0665 40.2695 19.6053 0.0000 0.0000 0.0000
# 2 40.2695 134.4478 10.5558 0.0000 0.0000 0.0000
# 3 19.6053 10.5558 30.9936 0.0000 0.0000 0.0000
# 4 0.0000 0.0000 0.0000 14.7581 0.0000 0.0000
# 5 0.0000 0.0000 0.0000 0.0000 24.4898 0.0000
# 6 0.0000 0.0000 0.0000 0.0000 0.0000 36.0071
#
#
#
# Elastic Compliance Matrix: (Units=1/GPa)
#
#
# Indices 1 2 3 4 5 6 
#
# 1 0.011759 -0.003019 -0.006410 0.000000 0.000000 0.000000
# 2 -0.003019 0.008417 -0.000957 0.000000 0.000000 0.000000
# 3 -0.006410 -0.000957 0.036646 0.000000 0.000000 0.000000
# 4 0.000000 0.000000 0.000000 0.067759 0.000000 0.000000
# 5 0.000000 0.000000 0.000000 0.000000 0.040833 0.000000
# 6 0.000000 0.000000 0.000000 0.000000 0.000000 0.027772
#
#
# Mechanical properties :
#
#
# Convention : Reuss Voigt Hill
#
# Bulk Modulus (GPa) = 27.73960 45.81878 36.77919
# Shear Modulus (GPa) = 22.12633 28.45617 25.29125
#
# Velocity S-wave (km/s) = 3.38787 3.84203 3.62208
# Velocity P-wave (km/s) = 5.44914 6.59161 6.04742
#
# Compressibility (1/GPa) = 0.03604954
#
# Stress axis : x y z
#
# Youngs Moduli (GPa) = 85.04130 118.80503 27.28847
#
# Poissons Ratio (x) = 0.35864 0.17492
# Poissons Ratio (y) = 0.25672 0.02612
# Poissons Ratio (z) = 0.54513 0.11372
#
# Static dielectric constant tensor:
#      x y z
#    x 3.689080 0.000000 0.000000 
#    y 0.000000 3.686500 0.000000 
#    z 0.000000 0.000000 3.171140 
# 
# 
# High freq. dielectric constant tensor:
#      x y z
#    x 1.753380 0.000000 0.000000 
#    y 0.000000 1.759530 0.000000 
#    z 0.000000 0.000000 1.707050 
# 
# From -- ./inp_files/15322.got.cif
#   From: 2010.03.12/outbox.cif.g09.slc.cpg/sg40_8_cif.got.tgz:15322.got - 2010.04.14 01:38:03.
