data_PCOD8183948
_publ_section_title
;
Structure prediction by ZEFSAII (Michael W. Deem and Ramdas Pophale) SiO2 
 PCOD8183948
Probable space group: A M A 2
;
_chemical_formula_sum "Si O2"
_cell_formula_units_Z 36
_cell_length_a 8.939311
_cell_length_b 19.509976
_cell_length_c 9.374311
_cell_angle_alpha 90.000000
_cell_angle_beta 90.000000
_cell_angle_gamma 90.000000
_cell_volume 1634.933676
_symmetry_space_group_name_H-M "A M A 2"
_symmetry_group_IT_number 40
_symmetry_cell_setting 'orthorhombic'
loop_
_space_group_symop_operation_xyz
x,y,z
-x,-y,z
1/2-x,y,z
1/2+x,-y,z
x,1/2+y,1/2+z
-x,1/2-y,1/2+z
1/2-x,1/2+y,1/2+z
1/2+x,1/2-y,1/2+z
loop_
_atom_site_type_symbol
_atom_site_label
_atom_site_fract_x
_atom_site_fract_y
_atom_site_fract_z
Si Si1 0.581981 0.116617 0.336780
Si Si2 0.085819 0.610210 0.421861
Si Si3 0.070323 0.219270 0.138771
Si Si4 0.000000 0.000000 0.130843
Si Si5 0.927499 0.867118 0.616525
O O1 0.750000 0.143629 0.361310
O O2 0.480210 0.179255 0.281297
O O3 0.509628 0.093522 0.487235
O O4 0.592182 0.051589 0.230746
O O5 0.250000 0.637157 0.385605
O O6 0.008971 0.672505 0.507437
O O7 0.101937 0.543588 0.522439
O O8 0.014753 0.597266 0.265062
O O9 0.250000 0.228484 0.141653
O O10 0.983039 0.289305 0.123416
O O11 0.750000 0.871643 0.591963
#
# Coordination Sequence:
#
# PCOD8183948 Si02
#       5
#     8   8   8   4   8
#     4  11  23  39  61  88 121 160 202 248 301 363
#     4   9  20  38  59  83 113 151 193 242 294 348
#     4  10  20  38  63  90 122 156 195 242 298 363
#     4  10  22  42  62  80 110 158 208 252 300 358
#     4  11  22  37  60  91 124 155 194 246 304 362
#
# _framework density 22.019241999999998
#
# number of rings (size 3 to 8) (size 9 to 14) (size 15 to 20)
#    0.000    1.778    0.000    4.000    0.000    5.333 
#    0.000   14.444    0.000    0.000    0.000    0.000 
#    0.000    0.000    0.000    0.000    0.000    0.000 
#
# Total GULP energy -223018.159922 kJ/mol
# GULP energy per Si atom -12389.897773 kJ/mol
# Density = 2.196913 g / cm^3
# Si number density = 22.019242 Si / 1000 Ang^3
#
#
#
# Elastic Constant Matrix: (Units=GPa)
#
#
# Indices 1 2 3 4 5 6 
#
# 1 94.1050 11.3675 41.9460 0.0000 0.0000 0.0000
# 2 11.3675 84.9461 47.9691 0.0000 0.0000 0.0000
# 3 41.9460 47.9691 192.2391 0.0000 0.0000 0.0000
# 4 0.0000 0.0000 0.0000 19.6345 0.0000 0.0000
# 5 0.0000 0.0000 0.0000 0.0000 22.1465 0.0000
# 6 0.0000 0.0000 0.0000 0.0000 0.0000 16.6499
#
#
#
# Elastic Compliance Matrix: (Units=1/GPa)
#
#
# Indices 1 2 3 4 5 6 
#
# 1 0.011773 -0.000145 -0.002533 0.000000 0.000000 0.000000
# 2 -0.000145 0.013705 -0.003388 0.000000 0.000000 0.000000
# 3 -0.002533 -0.003388 0.006600 0.000000 0.000000 0.000000
# 4 0.000000 0.000000 0.000000 0.050931 0.000000 0.000000
# 5 0.000000 0.000000 0.000000 0.000000 0.045154 0.000000
# 6 0.000000 0.000000 0.000000 0.000000 0.000000 0.060060
#
#
# Mechanical properties :
#
#
# Convention : Reuss Voigt Hill
#
# Bulk Modulus (GPa) = 50.13601 63.76173 56.94887
# Shear Modulus (GPa) = 24.15425 29.68669 26.92047
#
# Velocity S-wave (km/s) = 3.31563 3.67579 3.50035
# Velocity P-wave (km/s) = 6.12181 6.85823 6.50046
#
# Compressibility (1/GPa) = 0.01994574
#
# Stress axis : x y z
#
# Youngs Moduli (GPa) = 84.94140 72.96690 151.51840
#
# Poissons Ratio (x) = 0.01060 0.38373
# Poissons Ratio (y) = 0.01234 0.51335
# Poissons Ratio (z) = 0.21512 0.24721
#
# Static dielectric constant tensor:
#      x y z
#    x 3.660650 0.000000 0.000000 
#    y 0.000000 3.740350 0.000000 
#    z 0.000000 0.000000 4.629900 
# 
# 
# High freq. dielectric constant tensor:
#      x y z
#    x 1.846850 0.000000 0.000000 
#    y 0.000000 1.851640 0.000000 
#    z 0.000000 0.000000 1.892260 
# 
# From -- ./inp_files/4119.got.cif
#   From: 2010.03.12/outbox.cif.g09.slc.cpg/sg40_3_cif.got.tgz:4119.got - 2010.04.14 01:38:03.
