data_PCOD8183218
_publ_section_title
;
Structure prediction by ZEFSAII (Michael W. Deem and Ramdas Pophale) SiO2 
 PCOD8183218
Probable space group: A M A 2
;
_chemical_formula_sum "Si O2"
_cell_formula_units_Z 64
_cell_length_a 8.767709
_cell_length_b 19.592568
_cell_length_c 20.469715
_cell_angle_alpha 90.000000
_cell_angle_beta 90.000000
_cell_angle_gamma 90.000000
_cell_volume 3516.327247
_symmetry_space_group_name_H-M "A M A 2"
_symmetry_group_IT_number 40
_symmetry_cell_setting 'orthorhombic'
loop_
_space_group_symop_operation_xyz
x,y,z
-x,-y,z
1/2-x,y,z
1/2+x,-y,z
x,1/2+y,1/2+z
-x,1/2-y,1/2+z
1/2-x,1/2+y,1/2+z
1/2+x,1/2-y,1/2+z
loop_
_atom_site_type_symbol
_atom_site_label
_atom_site_fract_x
_atom_site_fract_y
_atom_site_fract_z
Si Si1 0.069778 0.292688 0.553970
Si Si2 0.929835 0.289166 0.803714
Si Si3 0.428917 0.713278 0.185098
Si Si4 0.430274 0.793814 0.437871
Si Si5 0.930838 0.929575 0.094962
Si Si6 0.071935 0.568701 0.132939
Si Si7 0.568979 0.429720 0.984048
Si Si8 0.429049 0.569209 0.744488
O O1 0.250000 0.294309 0.544972
O O2 0.023383 0.254602 0.620539
O O3 0.998261 0.253357 0.493673
O O4 0.002722 0.368637 0.553203
O O5 0.750000 0.286117 0.816105
O O6 0.984359 0.365824 0.785795
O O7 0.971465 0.238738 0.745121
O O8 0.019464 0.264118 0.867716
O O9 0.250000 0.722451 0.199592
O O10 0.473550 0.634007 0.175769
O O11 0.250000 0.795389 0.444298
O O12 0.498679 0.869480 0.441564
O O13 0.750000 0.929558 0.086847
O O14 0.983260 0.920086 0.169957
O O15 0.000000 0.000000 0.067309
O O16 0.250000 0.557503 0.132179
O O17 0.000000 0.500000 0.163286
O O18 0.015470 0.580681 0.058860
O O19 0.500000 0.500000 0.956501
O O20 0.750000 0.429207 0.975928
O O21 0.500000 0.500000 0.774124
O O22 0.250000 0.561139 0.747504
#
# Coordination Sequence:
#
# PCOD8183218 Si02
#       8
#     8   8   8   8   8   8   8   8
#     4  11  21  37  60  85 114 150 188 237 288 336
#     4  11  23  39  56  80 113 150 191 237 284 337
#     4  10  20  36  58  84 113 146 186 232 284 337
#     4  12  25  39  56  81 113 154 195 237 286 342
#     4  10  19  34  55  86 117 147 188 233 282 337
#     4   9  18  33  54  83 114 144 181 228 278 330
#     4  10  19  35  55  81 114 152 192 233 279 334
#     4   9  19  33  52  78 110 147 186 227 271 326
#
# _framework density 18.200810000000001
#
# number of rings (size 3 to 8) (size 9 to 14) (size 15 to 20)
#    0.000    1.750    2.500    2.625    0.000    3.500 
#    0.000    1.250    0.000    0.750    0.000    3.500 
#    0.000    0.000    0.000    0.000    0.000    0.000 
#
# Total GULP energy -396913.636918 kJ/mol
# GULP energy per Si atom -12403.551154 kJ/mol
# Density = 1.815938 g / cm^3
# Si number density = 18.200810 Si / 1000 Ang^3
#
#
#
# Elastic Constant Matrix: (Units=GPa)
#
#
# Indices 1 2 3 4 5 6 
#
# 1 81.8166 47.9581 41.2169 0.0000 0.0000 0.0000
# 2 47.9581 125.3529 51.7880 0.0000 0.0000 0.0000
# 3 41.2169 51.7880 93.4795 0.0000 0.0000 0.0000
# 4 0.0000 0.0000 0.0000 20.0730 0.0000 0.0000
# 5 0.0000 0.0000 0.0000 0.0000 24.1489 0.0000
# 6 0.0000 0.0000 0.0000 0.0000 0.0000 36.4115
#
#
#
# Elastic Compliance Matrix: (Units=1/GPa)
#
#
# Indices 1 2 3 4 5 6 
#
# 1 0.017509 -0.004551 -0.005199 0.000000 0.000000 0.000000
# 2 -0.004551 0.011528 -0.004380 0.000000 0.000000 0.000000
# 3 -0.005199 -0.004380 0.015416 0.000000 0.000000 0.000000
# 4 0.000000 0.000000 0.000000 0.049818 0.000000 0.000000
# 5 0.000000 0.000000 0.000000 0.000000 0.041410 0.000000
# 6 0.000000 0.000000 0.000000 0.000000 0.000000 0.027464
#
#
# Mechanical properties :
#
#
# Convention : Reuss Voigt Hill
#
# Bulk Modulus (GPa) = 61.75137 64.73057 63.24097
# Shear Modulus (GPa) = 25.40611 26.77241 26.08926
#
# Velocity S-wave (km/s) = 3.74020 3.83945 3.79015
# Velocity P-wave (km/s) = 7.25628 7.43620 7.34679
#
# Compressibility (1/GPa) = 0.01619397
#
# Stress axis : x y z
#
# Youngs Moduli (GPa) = 57.11327 86.74433 64.86598
#
# Poissons Ratio (x) = 0.39476 0.33723
# Poissons Ratio (y) = 0.25991 0.28412
# Poissons Ratio (z) = 0.29693 0.37995
#
# Static dielectric constant tensor:
#      x y z
#    x 3.329320 0.000000 0.000000 
#    y 0.000000 3.512790 0.000000 
#    z 0.000000 0.000000 3.190330 
# 
# 
# High freq. dielectric constant tensor:
#      x y z
#    x 1.711830 0.000000 0.000000 
#    y 0.000000 1.710860 0.000000 
#    z 0.000000 0.000000 1.681290 
# 
# From -- ./inp_files/19596.got.cif
#   From: 2010.03.12/outbox.cif.g09.slc.cpg/sg40_10_cif.got.tgz:19596.got - 2010.04.14 01:38:03.
