data_PCOD8183257
_publ_section_title
;
Structure prediction by ZEFSAII (Michael W. Deem and Ramdas Pophale) SiO2 
 PCOD8183257
Probable space group: A M A 2
;
_chemical_formula_sum "Si O2"
_cell_formula_units_Z 64
_cell_length_a 8.709788
_cell_length_b 18.265193
_cell_length_c 20.674023
_cell_angle_alpha 90.000000
_cell_angle_beta 90.000000
_cell_angle_gamma 90.000000
_cell_volume 3288.946771
_symmetry_space_group_name_H-M "A M A 2"
_symmetry_group_IT_number 40
_symmetry_cell_setting 'orthorhombic'
loop_
_space_group_symop_operation_xyz
x,y,z
-x,-y,z
1/2-x,y,z
1/2+x,-y,z
x,1/2+y,1/2+z
-x,1/2-y,1/2+z
1/2-x,1/2+y,1/2+z
1/2+x,1/2-y,1/2+z
loop_
_atom_site_type_symbol
_atom_site_label
_atom_site_fract_x
_atom_site_fract_y
_atom_site_fract_z
Si Si1 0.568871 0.141867 0.520000
Si Si2 0.072363 0.357409 0.881039
Si Si3 0.925136 0.205175 0.883240
Si Si4 0.571341 0.811855 0.009287
Si Si5 0.429646 0.076634 0.645579
Si Si6 0.066601 0.352086 0.741501
Si Si7 0.068522 0.075849 0.119431
Si Si8 0.073608 0.307995 0.240085
O O1 0.750000 0.129475 0.528609
O O2 0.506700 0.111811 0.449481
O O3 0.529488 0.228059 0.526596
O O4 0.480851 0.096039 0.573332
O O5 0.250000 0.372965 0.884357
O O6 0.010633 0.386294 0.811522
O O7 0.044900 0.271034 0.881397
O O8 0.750000 0.232806 0.891421
O O9 0.941209 0.163531 0.814483
O O10 0.976604 0.158691 0.946271
O O11 0.750000 0.821709 0.994245
O O12 0.520322 0.860803 0.069766
O O13 0.250000 0.068244 0.646723
O O14 0.477851 0.138698 0.695407
O O15 0.500000 0.000000 0.668026
O O16 0.250000 0.342837 0.739712
O O17 0.009605 0.408357 0.688155
O O18 0.988559 0.273754 0.730644
O O19 0.250000 0.070326 0.128173
O O20 0.000000 0.000000 0.092933
O O21 0.250000 0.308456 0.217065
#
# Coordination Sequence:
#
# PCOD8183257 Si02
#       8
#     8   8   8   8   8   8   8   8
#     4   9  17  34  58  82 108 138 172 216 267 321
#     4   8  16  31  53  80 110 139 170 212 264 315
#     4   9  17  29  52  83 110 134 169 217 264 311
#     4   9  19  35  56  79 107 142 177 216 266 317
#     4  12  25  39  55  77 106 143 183 225 269 318
#     4  10  19  34  58  86 110 139 180 223 266 317
#     4  11  23  38  54  76 108 147 185 225 271 319
#     4  10  20  36  57  83 112 142 176 218 266 318
#
# _framework density 19.459118
#
# number of rings (size 3 to 8) (size 9 to 14) (size 15 to 20)
#    0.000    2.250    0.000    4.125    0.000    6.000 
#    0.000    1.250    0.000    1.500    0.000    0.000 
#    0.000    0.000    0.000    0.000    0.000    0.000 
#
# Total GULP energy -396549.374657 kJ/mol
# GULP energy per Si atom -12392.167958 kJ/mol
# Density = 1.941483 g / cm^3
# Si number density = 19.459118 Si / 1000 Ang^3
#
#
#
# Elastic Constant Matrix: (Units=GPa)
#
#
# Indices 1 2 3 4 5 6 
#
# 1 52.1781 17.7813 23.1587 0.0000 0.0000 0.0000
# 2 17.7813 38.2907 6.4778 0.0000 0.0000 0.0000
# 3 23.1587 6.4778 97.9575 0.0000 0.0000 0.0000
# 4 0.0000 0.0000 0.0000 0.8506 0.0000 0.0000
# 5 0.0000 0.0000 0.0000 0.0000 30.2749 0.0000
# 6 0.0000 0.0000 0.0000 0.0000 0.0000 27.5571
#
#
#
# Elastic Compliance Matrix: (Units=1/GPa)
#
#
# Indices 1 2 3 4 5 6 
#
# 1 0.025171 -0.010803 -0.005236 0.000000 0.000000 0.000000
# 2 -0.010803 0.031048 0.000501 0.000000 0.000000 0.000000
# 3 -0.005236 0.000501 0.011413 0.000000 0.000000 0.000000
# 4 0.000000 0.000000 0.000000 1.175616 0.000000 0.000000
# 5 0.000000 0.000000 0.000000 0.000000 0.033031 0.000000
# 6 0.000000 0.000000 0.000000 0.000000 0.000000 0.036288
#
#
# Mechanical properties :
#
#
# Convention : Reuss Voigt Hill
#
# Bulk Modulus (GPa) = 27.35594 31.47353 29.41474
# Shear Modulus (GPa) = 3.68778 21.13710 12.41244
#
# Velocity S-wave (km/s) = 1.37814 3.29938 2.52835
# Velocity P-wave (km/s) = 4.07689 5.54291 4.86543
#
# Compressibility (1/GPa) = 0.03655513
#
# Stress axis : x y z
#
# Youngs Moduli (GPa) = 39.72889 32.20838 87.61673
#
# Poissons Ratio (x) = 0.34794 0.45879
# Poissons Ratio (y) = 0.42918 -0.04388
# Poissons Ratio (z) = 0.20803 -0.01613
#
# Static dielectric constant tensor:
#      x y z
#    x 3.537720 0.000000 0.000000 
#    y 0.000000 3.206820 0.000000 
#    z 0.000000 0.000000 4.189100 
# 
# 
# High freq. dielectric constant tensor:
#      x y z
#    x 1.759340 0.000000 0.000000 
#    y 0.000000 1.714800 0.000000 
#    z 0.000000 0.000000 1.784390 
# 
# From -- ./inp_files/22427.got.cif
#   From: 2010.03.12/outbox.cif.g09.slc.cpg/sg40_12_cif.got.tgz:22427.got - 2010.04.14 01:38:03.
