data_PCOD8183933
_publ_section_title
;
Structure prediction by ZEFSAII (Michael W. Deem and Ramdas Pophale) SiO2 
 PCOD8183933
Probable space group: A M A 2
;
_chemical_formula_sum "Si O2"
_cell_formula_units_Z 64
_cell_length_a 8.644594
_cell_length_b 31.009754
_cell_length_c 11.975859
_cell_angle_alpha 90.000000
_cell_angle_beta 90.000000
_cell_angle_gamma 90.000000
_cell_volume 3210.329401
_symmetry_space_group_name_H-M "A M A 2"
_symmetry_group_IT_number 40
_symmetry_cell_setting 'orthorhombic'
loop_
_space_group_symop_operation_xyz
x,y,z
-x,-y,z
1/2-x,y,z
1/2+x,-y,z
x,1/2+y,1/2+z
-x,1/2-y,1/2+z
1/2-x,1/2+y,1/2+z
1/2+x,1/2-y,1/2+z
loop_
_atom_site_type_symbol
_atom_site_label
_atom_site_fract_x
_atom_site_fract_y
_atom_site_fract_z
Si Si1 0.066422 0.545119 0.312480
Si Si2 0.933238 0.455984 0.790409
Si Si3 0.931580 0.428574 0.553278
Si Si4 0.932208 0.123696 0.676195
Si Si5 0.430489 0.836517 0.058360
Si Si6 0.068545 0.703456 0.769996
Si Si7 0.432505 0.798339 0.826712
Si Si8 0.930629 0.374318 0.934426
O O1 0.250000 0.543471 0.313122
O O2 0.997605 0.553183 0.437637
O O3 0.000000 0.500000 0.267579
O O4 0.013812 0.582394 0.229450
O O5 0.750000 0.457390 0.791418
O O6 0.998096 0.452508 0.663162
O O7 0.989867 0.415026 0.861936
O O8 0.000000 0.500000 0.843590
O O9 0.750000 0.434417 0.549456
O O10 0.968491 0.378877 0.568034
O O11 0.750000 0.118535 0.693485
O O12 0.995520 0.166975 0.736759
O O13 0.971283 0.126964 0.546632
O O14 0.250000 0.848375 0.051560
O O15 0.465364 0.806942 0.163478
O O16 0.488639 0.811558 0.949135
O O17 0.250000 0.703065 0.739072
O O18 0.005688 0.750329 0.805204
O O19 0.034700 0.669580 0.868235
O O20 0.250000 0.797478 0.820280
O O21 0.750000 0.378752 0.963286
#
# Coordination Sequence:
#
# PCOD8183933 Si02
#       8
#     8   8   8   8   8   8   8   8
#     4  11  23  39  63  91 120 156 200 243 294 355
#     4  10  21  38  59  86 116 150 192 238 292 349
#     4  10  20  38  61  88 121 157 193 233 293 359
#     4  11  23  41  61  85 121 157 198 248 298 353
#     4  11  21  36  61  92 122 151 195 247 298 351
#     4  10  21  41  63  84 120 162 197 243 300 356
#     4   9  21  39  60  87 120 158 194 242 302 350
#     4  10  22  40  61  83 116 158 201 244 294 357
#
# _framework density 19.935649000000002
#
# number of rings (size 3 to 8) (size 9 to 14) (size 15 to 20)
#    0.000    1.750    2.500    1.500    1.750    2.500 
#    0.000    3.125    0.000    0.000    0.000    0.000 
#    0.000    0.000    0.000    0.000    0.000    0.000 
#
# Total GULP energy -396847.983720 kJ/mol
# GULP energy per Si atom -12401.499491 kJ/mol
# Density = 1.989027 g / cm^3
# Si number density = 19.935649 Si / 1000 Ang^3
#
#
#
# Elastic Constant Matrix: (Units=GPa)
#
#
# Indices 1 2 3 4 5 6 
#
# 1 22.4949 16.3697 23.7042 0.0000 0.0000 0.0000
# 2 16.3697 171.0000 57.3433 0.0000 0.0000 0.0000
# 3 23.7042 57.3433 125.7535 0.0000 0.0000 0.0000
# 4 0.0000 0.0000 0.0000 35.8469 0.0000 0.0000
# 5 0.0000 0.0000 0.0000 0.0000 24.5097 0.0000
# 6 0.0000 0.0000 0.0000 0.0000 0.0000 21.3964
#
#
#
# Elastic Compliance Matrix: (Units=1/GPa)
#
#
# Indices 1 2 3 4 5 6 
#
# 1 0.056138 -0.002155 -0.009599 0.000000 0.000000 0.000000
# 2 -0.002155 0.006986 -0.002780 0.000000 0.000000 0.000000
# 3 -0.009599 -0.002780 0.011029 0.000000 0.000000 0.000000
# 4 0.000000 0.000000 0.000000 0.027896 0.000000 0.000000
# 5 0.000000 0.000000 0.000000 0.000000 0.040800 0.000000
# 6 0.000000 0.000000 0.000000 0.000000 0.000000 0.046737
#
#
# Mechanical properties :
#
#
# Convention : Reuss Voigt Hill
#
# Bulk Modulus (GPa) = 22.17991 57.12029 39.65010
# Shear Modulus (GPa) = 21.39653 31.13937 26.26795
#
# Velocity S-wave (km/s) = 3.27965 3.95650 3.63387
# Velocity P-wave (km/s) = 5.04890 7.04176 6.12690
#
# Compressibility (1/GPa) = 0.04508584
#
# Stress axis : x y z
#
# Youngs Moduli (GPa) = 17.81322 143.13639 90.67052
#
# Poissons Ratio (x) = 0.30847 0.87036
# Poissons Ratio (y) = 0.03839 0.25202
# Poissons Ratio (z) = 0.17099 0.39785
#
# Static dielectric constant tensor:
#      x y z
#    x 3.342330 0.000000 0.000000 
#    y 0.000000 3.897370 0.000000 
#    z 0.000000 0.000000 3.845940 
# 
# 
# High freq. dielectric constant tensor:
#      x y z
#    x 1.757480 0.000000 0.000000 
#    y 0.000000 1.792560 0.000000 
#    z 0.000000 0.000000 1.784220 
# 
# From -- ./inp_files/10555.got.cif
#   From: 2010.03.12/outbox.cif.g09.slc.cpg/sg40_6_cif.got.tgz:10555.got - 2010.04.14 01:38:03.
