data_PCOD8183230
_publ_section_title
;
Structure prediction by ZEFSAII (Michael W. Deem and Ramdas Pophale) SiO2 
 PCOD8183230
Probable space group: A M A 2
;
_chemical_formula_sum "Si O2"
_cell_formula_units_Z 48
_cell_length_a 17.541311
_cell_length_b 8.774237
_cell_length_c 16.437649
_cell_angle_alpha 90.000000
_cell_angle_beta 90.000000
_cell_angle_gamma 90.000000
_cell_volume 2529.945187
_symmetry_space_group_name_H-M "A M A 2"
_symmetry_group_IT_number 40
_symmetry_cell_setting 'orthorhombic'
loop_
_space_group_symop_operation_xyz
x,y,z
-x,-y,z
1/2-x,y,z
1/2+x,-y,z
x,1/2+y,1/2+z
-x,1/2-y,1/2+z
1/2-x,1/2+y,1/2+z
1/2+x,1/2-y,1/2+z
loop_
_atom_site_type_symbol
_atom_site_label
_atom_site_fract_x
_atom_site_fract_y
_atom_site_fract_z
Si Si1 0.083833 0.441003 0.245460
Si Si2 0.837174 0.311500 0.148276
Si Si3 0.834333 0.637363 0.818344
Si Si4 0.579401 0.913758 0.226069
Si Si5 0.159753 0.068099 0.899350
Si Si6 0.088706 0.957112 0.064481
O O1 0.125042 0.523761 0.168721
O O2 0.073009 0.264553 0.228741
O O3 0.130386 0.457522 0.328687
O O4 0.000000 0.500000 0.260323
O O5 0.750000 0.332067 0.115442
O O6 0.835595 0.221306 0.232234
O O7 0.890839 0.222036 0.082459
O O8 0.750000 0.589285 0.845159
O O9 0.881165 0.480593 0.807857
O O10 0.869536 0.756952 0.883725
O O11 0.500000 0.000000 0.216938
O O12 0.623563 0.951532 0.141789
O O13 0.250000 0.068372 0.893616
O O14 0.133477 0.009176 0.985590
O O15 0.000000 0.000000 0.050997
#
# Coordination Sequence:
#
# PCOD8183230 Si02
#       6
#     8   8   8   8   8   8
#     4  11  20  34  57  81 108 144 189 239 287 347
#     4   9  18  34  54  79 111 147 184 229 284 345
#     4   8  16  31  51  73 102 137 175 215 263 327
#     4  10  20  34  54  80 107 137 182 235 285 337
#     4  10  20  35  54  79 110 147 186 229 285 347
#     4  10  19  34  56  82 111 146 189 231 281 345
#
# _framework density 18.972743999999999
#
# number of rings (size 3 to 8) (size 9 to 14) (size 15 to 20)
#    0.000    2.333    0.000    6.500    0.000    2.000 
#    0.000    1.667    0.000    6.000    0.000    0.000 
#    0.000    0.000    0.000    0.000    0.000    0.000 
#
# Total GULP energy -297345.765968 kJ/mol
# GULP energy per Si atom -12389.406915 kJ/mol
# Density = 1.892956 g / cm^3
# Si number density = 18.972744 Si / 1000 Ang^3
#
#
#
# Elastic Constant Matrix: (Units=GPa)
#
#
# Indices 1 2 3 4 5 6 
#
# 1 85.8534 48.2861 32.5130 0.0000 0.0000 0.0000
# 2 48.2861 160.9162 58.5371 0.0000 0.0000 0.0000
# 3 32.5130 58.5371 94.8716 0.0000 0.0000 0.0000
# 4 0.0000 0.0000 0.0000 27.7533 0.0000 0.0000
# 5 0.0000 0.0000 0.0000 0.0000 -17.3399 0.0000
# 6 0.0000 0.0000 0.0000 0.0000 0.0000 27.3351
#
#
#
# Elastic Compliance Matrix: (Units=1/GPa)
#
#
# Indices 1 2 3 4 5 6 
#
# 1 0.014635 -0.003310 -0.002973 0.000000 0.000000 0.000000
# 2 -0.003310 0.008762 -0.004272 0.000000 0.000000 0.000000
# 3 -0.002973 -0.004272 0.014195 0.000000 0.000000 0.000000
# 4 0.000000 0.000000 0.000000 0.036032 0.000000 0.000000
# 5 0.000000 0.000000 0.000000 0.000000 -0.057670 0.000000
# 6 0.000000 0.000000 0.000000 0.000000 0.000000 0.036583
#
#
# Mechanical properties :
#
#
# Convention : Reuss Voigt Hill
#
# Bulk Modulus (GPa) = 60.67146 68.92375 64.79760
# Shear Modulus (GPa) = 63.17870 21.03669 42.10769
#
# Velocity S-wave (km/s) = 5.77685 3.33345 4.71614
# Velocity P-wave (km/s) = 8.74892 7.15699 7.99269
#
# Compressibility (1/GPa) = 0.01648221
#
# Stress axis : x y z
#
# Youngs Moduli (GPa) = 68.32741 114.13479 70.44643
#
# Poissons Ratio (x) = 0.37779 0.20946
# Poissons Ratio (y) = 0.22617 0.30092
# Poissons Ratio (z) = 0.20316 0.48754
#
# Static dielectric constant tensor:
#      x y z
#    x 3.655340 0.000000 0.000000 
#    y 0.000000 3.623030 0.000000 
#    z 0.000000 0.000000 3.440780 
# 
# 
# High freq. dielectric constant tensor:
#      x y z
#    x 1.743070 0.000000 0.000000 
#    y 0.000000 1.732620 0.000000 
#    z 0.000000 0.000000 1.711890 
# 
# From -- ./inp_files/18083.got.cif
#   From: 2010.03.12/outbox.cif.g09.slc.cpg/sg40_10_cif.got.tgz:18083.got - 2010.04.14 01:38:03.
