data_PCOD8183289
_publ_section_title
;
Structure prediction by ZEFSAII (Michael W. Deem and Ramdas Pophale) SiO2 
 PCOD8183289
Probable space group: A M A 2
;
_chemical_formula_sum "Si O2"
_cell_formula_units_Z 56
_cell_length_a 8.565307
_cell_length_b 14.575937
_cell_length_c 22.345440
_cell_angle_alpha 90.000000
_cell_angle_beta 90.000000
_cell_angle_gamma 90.000000
_cell_volume 2789.769532
_symmetry_space_group_name_H-M "A M A 2"
_symmetry_group_IT_number 40
_symmetry_cell_setting 'orthorhombic'
loop_
_space_group_symop_operation_xyz
x,y,z
-x,-y,z
1/2-x,y,z
1/2+x,-y,z
x,1/2+y,1/2+z
-x,1/2-y,1/2+z
1/2-x,1/2+y,1/2+z
1/2+x,1/2-y,1/2+z
loop_
_atom_site_type_symbol
_atom_site_label
_atom_site_fract_x
_atom_site_fract_y
_atom_site_fract_z
Si Si1 0.066415 0.101726 0.444240
Si Si2 0.434991 0.097164 0.657951
Si Si3 0.433822 0.714511 0.832634
Si Si4 0.566725 0.405439 0.591098
Si Si5 0.932951 0.209449 0.554097
Si Si6 0.435166 0.595047 0.725177
Si Si7 0.565790 0.093810 0.788899
O O1 0.250000 0.093639 0.438236
O O2 0.993286 0.161763 0.389707
O O3 0.027577 0.152966 0.505421
O O4 0.000000 0.000000 0.443415
O O5 0.250000 0.100726 0.649421
O O6 0.518091 0.176121 0.619826
O O7 0.479815 0.112458 0.726602
O O8 0.500000 0.000000 0.634527
O O9 0.250000 0.700529 0.834895
O O10 0.498370 0.673200 0.770203
O O11 0.475018 0.822840 0.833971
O O12 0.500000 0.500000 0.563127
O O13 0.750000 0.416445 0.595221
O O14 0.522764 0.317789 0.550163
O O15 0.498528 0.389020 0.658149
O O16 0.750000 0.193856 0.544237
O O17 0.500000 0.500000 0.751164
O O18 0.250000 0.593352 0.724531
O O19 0.750000 0.085607 0.776776
O O20 0.500000 0.000000 0.818099
#
# Coordination Sequence:
#
# PCOD8183289 Si02
#       7
#     8   8   8   8   8   8   8
#     4  11  23  40  59  82 109 142 182 228 275 325
#     4  11  21  34  54  83 114 146 181 225 276 331
#     4   9  19  35  56  77 106 145 181 216 265 320
#     4   9  19  34  55  80 109 140 175 218 267 319
#     4  11  22  38  57  79 108 147 187 228 275 327
#     4   9  16  30  51  78 106 136 169 208 258 315
#     4  10  19  35  56  81 111 144 180 223 271 325
#
# _framework density 20.073343000000001
#
# number of rings (size 3 to 8) (size 9 to 14) (size 15 to 20)
#    0.000    2.000    0.000    5.143    0.000    3.429 
#    0.000    8.571    0.000    3.429    0.000    0.000 
#    0.000    0.000    0.000    0.000    0.000    0.000 
#
# Total GULP energy -347151.911192 kJ/mol
# GULP energy per Si atom -12398.282543 kJ/mol
# Density = 2.002766 g / cm^3
# Si number density = 20.073343 Si / 1000 Ang^3
#
#
#
# Elastic Constant Matrix: (Units=GPa)
#
#
# Indices 1 2 3 4 5 6 
#
# 1 44.2271 33.3978 13.1540 0.0000 0.0000 0.0000
# 2 33.3978 176.3843 59.8651 0.0000 0.0000 0.0000
# 3 13.1540 59.8651 66.2338 0.0000 0.0000 0.0000
# 4 0.0000 0.0000 0.0000 26.9032 0.0000 0.0000
# 5 0.0000 0.0000 0.0000 0.0000 -2.2996 0.0000
# 6 0.0000 0.0000 0.0000 0.0000 0.0000 32.6843
#
#
#
# Elastic Compliance Matrix: (Units=1/GPa)
#
#
# Indices 1 2 3 4 5 6 
#
# 1 0.026433 -0.004650 -0.001047 0.000000 0.000000 0.000000
# 2 -0.004650 0.008996 -0.007208 0.000000 0.000000 0.000000
# 3 -0.001047 -0.007208 0.021821 0.000000 0.000000 0.000000
# 4 0.000000 0.000000 0.000000 0.037170 0.000000 0.000000
# 5 0.000000 0.000000 0.000000 0.000000 -0.434860 0.000000
# 6 0.000000 0.000000 0.000000 0.000000 0.000000 0.030596
#
#
# Mechanical properties :
#
#
# Convention : Reuss Voigt Hill
#
# Bulk Modulus (GPa) = 31.80548 55.51989 43.66269
# Shear Modulus (GPa) = -18.27788 23.48615 2.60413
#
# Velocity S-wave (km/s) = -3.02081 3.42426 1.14023
# Velocity P-wave (km/s) = 1.92664 6.58427 4.85101
#
# Compressibility (1/GPa) = 0.03144112
#
# Stress axis : x y z
#
# Youngs Moduli (GPa) = 37.83131 111.15878 45.82827
#
# Poissons Ratio (x) = 0.51685 0.04798
# Poissons Ratio (y) = 0.17590 0.33032
# Poissons Ratio (z) = 0.03961 0.80120
#
# Static dielectric constant tensor:
#      x y z
#    x 3.480880 0.000000 0.000000 
#    y 0.000000 4.104820 0.000000 
#    z 0.000000 0.000000 3.554270 
# 
# 
# High freq. dielectric constant tensor:
#      x y z
#    x 1.771020 0.000000 0.000000 
#    y 0.000000 1.801360 0.000000 
#    z 0.000000 0.000000 1.759370 
# 
# From -- ./inp_files/22161.got.cif
#   From: 2010.03.12/outbox.cif.g09.slc.cpg/sg40_12_cif.got.tgz:22161.got - 2010.04.14 01:38:03.
