data_PCOD8183467
_publ_section_title
;
Structure prediction by ZEFSAII (Michael W. Deem and Ramdas Pophale) SiO2 
 PCOD8183467
Probable space group: A M A 2
;
_chemical_formula_sum "Si O2"
_cell_formula_units_Z 60
_cell_length_a 10.457453
_cell_length_b 29.405597
_cell_length_c 10.714044
_cell_angle_alpha 90.000000
_cell_angle_beta 90.000000
_cell_angle_gamma 90.000000
_cell_volume 3294.650477
_symmetry_space_group_name_H-M "A M A 2"
_symmetry_group_IT_number 40
_symmetry_cell_setting 'orthorhombic'
loop_
_space_group_symop_operation_xyz
x,y,z
-x,-y,z
1/2-x,y,z
1/2+x,-y,z
x,1/2+y,1/2+z
-x,1/2-y,1/2+z
1/2-x,1/2+y,1/2+z
1/2+x,1/2-y,1/2+z
loop_
_atom_site_type_symbol
_atom_site_label
_atom_site_fract_x
_atom_site_fract_y
_atom_site_fract_z
Si Si1 0.605198 0.295390 0.437510
Si Si2 0.103952 0.114938 0.083898
Si Si3 0.963097 0.652763 0.239240
Si Si4 0.888705 0.576835 0.414384
Si Si5 0.106259 0.580204 0.100286
Si Si6 0.000000 0.500000 0.250943
Si Si7 0.901304 0.369414 0.866817
Si Si8 0.393968 0.806853 0.480864
O O1 0.750000 0.297541 0.389259
O O2 0.581180 0.332886 0.544566
O O3 0.515730 0.304953 0.318525
O O4 0.573393 0.246438 0.495045
O O5 0.250000 0.099708 0.052875
O O6 0.075337 0.110590 0.230004
O O7 0.005345 0.082141 0.011619
O O8 0.874080 0.620446 0.323517
O O9 0.079757 0.619984 0.199589
O O10 0.890624 0.671615 0.118927
O O11 0.750000 0.572434 0.482146
O O12 0.908153 0.530616 0.336069
O O13 0.250000 0.580753 0.063920
O O14 0.076535 0.531427 0.155721
O O15 0.045435 0.592524 0.964862
O O16 0.750000 0.355574 0.882819
O O17 0.995167 0.326483 0.890956
O O18 0.250000 0.814041 0.424967
#
# Coordination Sequence:
#
# PCOD8183467 Si02
#       8
#     8   8   8   8   8   4   8   8
#     4   9  18  31  49  73 102 137 177 218 263 312
#     4   9  19  36  55  74 103 144 180 213 261 317
#     4   9  18  32  50  72 104 137 173 215 266 311
#     4  10  20  34  54  80 106 135 173 218 267 318
#     4   9  17  32  54  77 101 132 170 213 258 314
#     4  10  20  32  54  82 108 132 164 216 272 322
#     4   9  19  36  56  76 103 142 181 212 256 318
#     4  10  20  32  50  76 105 137 175 223 269 306
#
# _framework density 18.21134
#
# number of rings (size 3 to 8) (size 9 to 14) (size 15 to 20)
#    0.000    2.667    0.000    1.200    1.867    4.800 
#    0.000    4.000    0.000    1.600    0.000    0.000 
#    0.000    0.000    0.000    0.000    0.000    0.000 
#
# Total GULP energy -371692.598359 kJ/mol
# GULP energy per Si atom -12389.753279 kJ/mol
# Density = 1.816989 g / cm^3
# Si number density = 18.211340 Si / 1000 Ang^3
#
#
#
# Elastic Constant Matrix: (Units=GPa)
#
#
# Indices 1 2 3 4 5 6 
#
# 1 96.5804 36.7750 43.4700 0.0000 0.0000 0.0000
# 2 36.7750 85.8997 24.9552 0.0000 0.0000 0.0000
# 3 43.4700 24.9552 86.3828 0.0000 0.0000 0.0000
# 4 0.0000 0.0000 0.0000 23.7899 0.0000 0.0000
# 5 0.0000 0.0000 0.0000 0.0000 18.3706 0.0000
# 6 0.0000 0.0000 0.0000 0.0000 0.0000 2.9637
#
#
#
# Elastic Compliance Matrix: (Units=1/GPa)
#
#
# Indices 1 2 3 4 5 6 
#
# 1 0.014869 -0.004576 -0.006161 0.000000 0.000000 0.000000
# 2 -0.004576 0.014116 -0.001775 0.000000 0.000000 0.000000
# 3 -0.006161 -0.001775 0.015189 0.000000 0.000000 0.000000
# 4 0.000000 0.000000 0.000000 0.042035 0.000000 0.000000
# 5 0.000000 0.000000 0.000000 0.000000 0.054435 0.000000
# 6 0.000000 0.000000 0.000000 0.000000 0.000000 0.337411
#
#
# Mechanical properties :
#
#
# Convention : Reuss Voigt Hill
#
# Bulk Modulus (GPa) = 52.21627 53.25149 52.73388
# Shear Modulus (GPa) = 9.81426 19.93571 14.87499
#
# Velocity S-wave (km/s) = 2.32396 3.31219 2.86107
# Velocity P-wave (km/s) = 5.99464 6.62811 6.31932
#
# Compressibility (1/GPa) = 0.01915112
#
# Stress axis : x y z
#
# Youngs Moduli (GPa) = 67.25243 70.84009 65.83520
#
# Poissons Ratio (x) = 0.32417 0.40559
# Poissons Ratio (y) = 0.30775 0.11688
# Poissons Ratio (z) = 0.41432 0.12576
#
# Static dielectric constant tensor:
#      x y z
#    x 3.504780 0.000000 0.000000 
#    y 0.000000 3.129280 0.000000 
#    z 0.000000 0.000000 3.287480 
# 
# 
# High freq. dielectric constant tensor:
#      x y z
#    x 1.704080 0.000000 0.000000 
#    y 0.000000 1.695170 0.000000 
#    z 0.000000 0.000000 1.698840 
# 
# From -- ./inp_files/10515.got.cif
#   From: 2010.03.12/outbox.cif.g09.slc.cpg/sg40_6_cif.got.tgz:10515.got - 2010.04.14 01:38:03.
