data_PCOD8183453
_publ_section_title
;
Structure prediction by ZEFSAII (Michael W. Deem and Ramdas Pophale) SiO2 
 PCOD8183453
Probable space group: A M A 2
;
_chemical_formula_sum "Si O2"
_cell_formula_units_Z 64
_cell_length_a 8.769141
_cell_length_b 23.618117
_cell_length_c 19.210502
_cell_angle_alpha 90.000000
_cell_angle_beta 90.000000
_cell_angle_gamma 90.000000
_cell_volume 3978.698560
_symmetry_space_group_name_H-M "A M A 2"
_symmetry_group_IT_number 40
_symmetry_cell_setting 'orthorhombic'
loop_
_space_group_symop_operation_xyz
x,y,z
-x,-y,z
1/2-x,y,z
1/2+x,-y,z
x,1/2+y,1/2+z
-x,1/2-y,1/2+z
1/2-x,1/2+y,1/2+z
1/2+x,1/2-y,1/2+z
loop_
_atom_site_type_symbol
_atom_site_label
_atom_site_fract_x
_atom_site_fract_y
_atom_site_fract_z
Si Si1 0.930459 0.060756 0.468980
Si Si2 0.069658 0.837917 0.378273
Si Si3 0.570065 0.939751 0.749255
Si Si4 0.070499 0.760729 0.611244
Si Si5 0.930290 0.335975 0.334763
Si Si6 0.070166 0.616181 0.104588
Si Si7 0.570953 0.726709 0.746984
Si Si8 0.930710 0.768577 0.960946
O O1 0.750000 0.055490 0.472322
O O2 0.986033 0.100870 0.405099
O O3 0.985481 0.086816 0.541089
O O4 0.000000 0.000000 0.454417
O O5 0.250000 0.834304 0.383605
O O6 0.021926 0.825059 0.298274
O O7 0.001541 0.789925 0.429696
O O8 0.750000 0.944268 0.755699
O O9 0.502200 0.894920 0.805742
O O10 0.523293 0.919406 0.672480
O O11 0.500000 0.000000 0.766813
O O12 0.250000 0.773092 0.611448
O O13 0.020649 0.726562 0.541450
O O14 0.981849 0.819629 0.614992
O O15 0.022617 0.720902 0.675480
O O16 0.750000 0.340979 0.334708
O O17 0.977170 0.285413 0.283087
O O18 0.990564 0.321214 0.413150
O O19 0.250000 0.614964 0.091652
O O20 0.750000 0.725121 0.730251
O O21 0.750000 0.766871 0.953807
#
# Coordination Sequence:
#
# PCOD8183453 Si02
#       8
#     8   8   8   8   8   8   8   8
#     4  11  21  34  49  69  94 126 163 197 235 277
#     4   8  15  29  49  67  87 121 160 192 226 275
#     4  10  20  32  46  64  87 120 156 189 219 259
#     4  11  19  28  46  73  99 122 149 191 240 280
#     4   8  14  28  47  64  84 116 157 187 216 270
#     4  11  21  33  46  65  94 130 166 193 221 269
#     4   9  16  30  50  67  88 121 158 191 227 280
#     4   8  14  26  46  67  87 116 151 186 225 274
#
# _framework density 16.085661000000002
#
# number of rings (size 3 to 8) (size 9 to 14) (size 15 to 20)
#    0.000    2.500    2.500    3.000    0.000    2.000 
#    0.000    1.250    0.000    1.500    0.000    0.875 
#    0.000    6.000    0.000    0.000    0.000    0.000 
#
# Total GULP energy -396569.986619 kJ/mol
# GULP energy per Si atom -12392.812082 kJ/mol
# Density = 1.604905 g / cm^3
# Si number density = 16.085661 Si / 1000 Ang^3
#
#
#
# Elastic Constant Matrix: (Units=GPa)
#
#
# Indices 1 2 3 4 5 6 
#
# 1 31.0275 25.9134 26.8121 0.0000 0.0000 0.0000
# 2 25.9134 106.3643 74.9953 0.0000 0.0000 0.0000
# 3 26.8121 74.9953 133.5024 0.0000 0.0000 0.0000
# 4 0.0000 0.0000 0.0000 19.8549 0.0000 0.0000
# 5 0.0000 0.0000 0.0000 0.0000 15.2568 0.0000
# 6 0.0000 0.0000 0.0000 0.0000 0.0000 7.2573
#
#
#
# Elastic Compliance Matrix: (Units=1/GPa)
#
#
# Indices 1 2 3 4 5 6 
#
# 1 0.042000 -0.007095 -0.004449 0.000000 0.000000 0.000000
# 2 -0.007095 0.016766 -0.007994 0.000000 0.000000 0.000000
# 3 -0.004449 -0.007994 0.012874 0.000000 0.000000 0.000000
# 4 0.000000 0.000000 0.000000 0.050365 0.000000 0.000000
# 5 0.000000 0.000000 0.000000 0.000000 0.065544 0.000000
# 6 0.000000 0.000000 0.000000 0.000000 0.000000 0.137792
#
#
# Mechanical properties :
#
#
# Convention : Reuss Voigt Hill
#
# Bulk Modulus (GPa) = 30.70823 58.48176 44.59500
# Shear Modulus (GPa) = 13.32362 18.01872 15.67117
#
# Velocity S-wave (km/s) = 2.88113 3.35053 3.12466
# Velocity P-wave (km/s) = 5.49543 7.16962 6.38761
#
# Compressibility (1/GPa) = 0.03256456
#
# Stress axis : x y z
#
# Youngs Moduli (GPa) = 23.80949 59.64325 77.67300
#
# Poissons Ratio (x) = 0.42319 0.34559
# Poissons Ratio (y) = 0.16894 0.62088
# Poissons Ratio (z) = 0.10594 0.47676
#
# Static dielectric constant tensor:
#      x y z
#    x 2.785080 0.000000 0.000000 
#    y 0.000000 3.265490 0.000000 
#    z 0.000000 0.000000 3.420040 
# 
# 
# High freq. dielectric constant tensor:
#      x y z
#    x 1.594320 0.000000 0.000000 
#    y 0.000000 1.595520 0.000000 
#    z 0.000000 0.000000 1.620140 
# 
# From -- ./inp_files/19701.got.cif
#   From: 2010.03.12/outbox.cif.g09.slc.cpg/sg40_10_cif.got.tgz:19701.got - 2010.04.14 01:38:03.
