data_PCOD8183261
_publ_section_title
;
Structure prediction by ZEFSAII (Michael W. Deem and Ramdas Pophale) SiO2 
 PCOD8183261
Probable space group: A M A 2
;
_chemical_formula_sum "Si O2"
_cell_formula_units_Z 64
_cell_length_a 8.726443
_cell_length_b 24.511166
_cell_length_c 15.098176
_cell_angle_alpha 90.000000
_cell_angle_beta 90.000000
_cell_angle_gamma 90.000000
_cell_volume 3229.428779
_symmetry_space_group_name_H-M "A M A 2"
_symmetry_group_IT_number 40
_symmetry_cell_setting 'orthorhombic'
loop_
_space_group_symop_operation_xyz
x,y,z
-x,-y,z
1/2-x,y,z
1/2+x,-y,z
x,1/2+y,1/2+z
-x,1/2-y,1/2+z
1/2-x,1/2+y,1/2+z
1/2+x,1/2-y,1/2+z
loop_
_atom_site_type_symbol
_atom_site_label
_atom_site_fract_x
_atom_site_fract_y
_atom_site_fract_z
Si Si1 0.928410 0.285093 0.125000
Si Si2 0.927944 0.355836 0.420939
Si Si3 0.430434 0.893728 0.591825
Si Si4 0.573353 0.230613 0.806800
Si Si5 0.931439 0.943627 0.421564
Si Si6 0.570288 0.440923 0.269266
Si Si7 0.570293 0.661605 0.597879
Si Si8 0.072932 0.145793 0.281644
O O1 0.750000 0.295858 0.109664
O O2 0.978529 0.225296 0.092679
O O3 0.021289 0.331166 0.071443
O O4 0.965759 0.291372 0.228634
O O5 0.750000 0.341004 0.419464
O O6 0.965135 0.406639 0.357699
O O7 0.025364 0.302346 0.393932
O O8 0.981784 0.370646 0.520356
O O9 0.250000 0.900077 0.589114
O O10 0.502251 0.932903 0.518633
O O11 0.491749 0.911204 0.687207
O O12 0.750000 0.219108 0.782337
O O13 0.545413 0.294561 0.823508
O O14 0.750000 0.946796 0.427678
O O15 0.986332 0.897010 0.353881
O O16 0.000000 0.000000 0.385377
O O17 0.500000 0.500000 0.284697
O O18 0.750000 0.445724 0.250199
O O19 0.750000 0.653988 0.585563
O O20 0.522538 0.636829 0.692128
O O21 0.250000 0.136589 0.258060
#
# Coordination Sequence:
#
# PCOD8183261 Si02
#       8
#     8   8   8   8   8   8   8   8
#     4  10  20  36  56  85 123 161 197 241 297 354
#     4  11  23  38  59  88 124 162 201 249 301 356
#     4  12  24  38  60  90 122 161 202 247 298 363
#     4  10  19  34  58  88 119 156 198 241 295 359
#     4  11  24  43  64  88 120 158 203 256 304 360
#     4  11  24  42  63  87 120 161 203 251 302 358
#     4  10  22  38  61  89 123 160 200 251 301 359
#     4   9  21  41  63  87 119 157 199 250 306 358
#
# _framework density 19.817746
#
# number of rings (size 3 to 8) (size 9 to 14) (size 15 to 20)
#    0.000    1.500    1.250    3.750    1.750    4.500 
#    0.000    0.625    0.000    0.000    0.000    0.000 
#    0.000    0.000    0.000    0.000    0.000    0.000 
#
# Total GULP energy -396969.506791 kJ/mol
# GULP energy per Si atom -12405.297087 kJ/mol
# Density = 1.977264 g / cm^3
# Si number density = 19.817746 Si / 1000 Ang^3
#
#
#
# Elastic Constant Matrix: (Units=GPa)
#
#
# Indices 1 2 3 4 5 6 
#
# 1 94.8569 46.3664 41.3415 0.0000 0.0000 0.0000
# 2 46.3664 103.2525 42.0220 0.0000 0.0000 0.0000
# 3 41.3415 42.0220 91.4696 0.0000 0.0000 0.0000
# 4 0.0000 0.0000 0.0000 29.7926 0.0000 0.0000
# 5 0.0000 0.0000 0.0000 0.0000 32.0143 0.0000
# 6 0.0000 0.0000 0.0000 0.0000 0.0000 31.1732
#
#
#
# Elastic Compliance Matrix: (Units=1/GPa)
#
#
# Indices 1 2 3 4 5 6 
#
# 1 0.014871 -0.004849 -0.004493 0.000000 0.000000 0.000000
# 2 -0.004849 0.013493 -0.004007 0.000000 0.000000 0.000000
# 3 -0.004493 -0.004007 0.014805 0.000000 0.000000 0.000000
# 4 0.000000 0.000000 0.000000 0.033565 0.000000 0.000000
# 5 0.000000 0.000000 0.000000 0.000000 0.031236 0.000000
# 6 0.000000 0.000000 0.000000 0.000000 0.000000 0.032079
#
#
# Mechanical properties :
#
#
# Convention : Reuss Voigt Hill
#
# Bulk Modulus (GPa) = 60.72028 61.00431 60.86229
# Shear Modulus (GPa) = 29.02952 29.25265 29.14108
#
# Velocity S-wave (km/s) = 3.83145 3.84615 3.83881
# Velocity P-wave (km/s) = 7.09079 7.11149 7.10115
#
# Compressibility (1/GPa) = 0.01646896
#
# Stress axis : x y z
#
# Youngs Moduli (GPa) = 67.24562 74.10997 67.54699
#
# Poissons Ratio (x) = 0.35937 0.30352
# Poissons Ratio (y) = 0.32608 0.27068
# Poissons Ratio (z) = 0.30216 0.29699
#
# Static dielectric constant tensor:
#      x y z
#    x 3.623660 0.000000 0.000000 
#    y 0.000000 3.674120 0.000000 
#    z 0.000000 0.000000 3.546250 
# 
# 
# High freq. dielectric constant tensor:
#      x y z
#    x 1.782790 0.000000 0.000000 
#    y 0.000000 1.766900 0.000000 
#    z 0.000000 0.000000 1.770340 
# 
# From -- ./inp_files/15691.got.cif
#   From: 2010.03.12/outbox.cif.g09.slc.cpg/sg40_8_cif.got.tgz:15691.got - 2010.04.14 01:38:03.
