data_PCOD8183280
_publ_section_title
;
Structure prediction by ZEFSAII (Michael W. Deem and Ramdas Pophale) SiO2 
 PCOD8183280
Probable space group: A M A 2
;
_chemical_formula_sum "Si O2"
_cell_formula_units_Z 56
_cell_length_a 8.763596
_cell_length_b 18.958016
_cell_length_c 17.723628
_cell_angle_alpha 90.000000
_cell_angle_beta 90.000000
_cell_angle_gamma 90.000000
_cell_volume 2944.610525
_symmetry_space_group_name_H-M "A M A 2"
_symmetry_group_IT_number 40
_symmetry_cell_setting 'orthorhombic'
loop_
_space_group_symop_operation_xyz
x,y,z
-x,-y,z
1/2-x,y,z
1/2+x,-y,z
x,1/2+y,1/2+z
-x,1/2-y,1/2+z
1/2-x,1/2+y,1/2+z
1/2+x,1/2-y,1/2+z
loop_
_atom_site_type_symbol
_atom_site_label
_atom_site_fract_x
_atom_site_fract_y
_atom_site_fract_z
Si Si1 0.081346 0.793261 0.516480
Si Si2 0.422511 0.295714 0.769487
Si Si3 0.071356 0.070114 0.526994
Si Si4 0.582770 0.338846 0.619663
Si Si5 0.570080 0.705556 0.389295
Si Si6 0.575627 0.565591 0.865567
Si Si7 0.932093 0.922852 0.975749
O O1 0.250000 0.815027 0.484836
O O2 0.102446 0.734008 0.577405
O O3 0.002424 0.858551 0.560427
O O4 0.979619 0.766898 0.446775
O O5 0.250000 0.268486 0.764176
O O6 0.470731 0.323859 0.687917
O O7 0.520352 0.231156 0.805086
O O8 0.439256 0.363375 0.820882
O O9 0.250000 0.070317 0.541247
O O10 0.027984 0.072605 0.439380
O O11 0.000000 0.000000 0.565658
O O12 0.750000 0.363065 0.649340
O O13 0.517538 0.396474 0.559723
O O14 0.750000 0.695208 0.391594
O O15 0.492983 0.631080 0.411855
O O16 0.500000 0.500000 0.819089
O O17 0.750000 0.548011 0.886789
O O18 0.750000 0.924315 0.969943
O O19 0.000000 0.000000 0.960570
#
# Coordination Sequence:
#
# PCOD8183280 Si02
#       7
#     8   8   8   8   8   8   8
#     4  10  19  35  54  76 106 138 178 228 273 320
#     4  11  22  35  53  78 112 149 186 231 278 331
#     4  11  20  30  49  75 102 136 172 214 259 312
#     4   9  21  37  55  78 109 146 182 226 278 335
#     4  11  21  34  57  83 108 144 188 232 281 334
#     4  10  20  32  47  70 104 140 174 215 258 307
#     4  10  21  39  61  86 116 149 190 239 288 340
#
# _framework density 19.017796000000001
#
# number of rings (size 3 to 8) (size 9 to 14) (size 15 to 20)
#    0.000    1.714    1.429    6.000    0.000    5.714 
#    0.000    2.857    0.000    0.857    0.000    2.000 
#    0.000    0.000    0.000    0.000    0.000    0.000 
#
# Total GULP energy -347027.191306 kJ/mol
# GULP energy per Si atom -12393.828261 kJ/mol
# Density = 1.897451 g / cm^3
# Si number density = 19.017796 Si / 1000 Ang^3
#
#
#
# Elastic Constant Matrix: (Units=GPa)
#
#
# Indices 1 2 3 4 5 6 
#
# 1 129.3250 47.9758 24.7867 0.0000 0.0000 0.0000
# 2 47.9758 112.6284 6.7415 0.0000 0.0000 0.0000
# 3 24.7867 6.7415 25.1779 0.0000 0.0000 0.0000
# 4 0.0000 0.0000 0.0000 6.8809 0.0000 0.0000
# 5 0.0000 0.0000 0.0000 0.0000 22.8664 0.0000
# 6 0.0000 0.0000 0.0000 0.0000 0.0000 28.7908
#
#
#
# Elastic Compliance Matrix: (Units=1/GPa)
#
#
# Indices 1 2 3 4 5 6 
#
# 1 0.011173 -0.004168 -0.009883 0.000000 0.000000 0.000000
# 2 -0.004168 0.010578 0.001271 0.000000 0.000000 0.000000
# 3 -0.009883 0.001271 0.049107 0.000000 0.000000 0.000000
# 4 0.000000 0.000000 0.000000 0.145330 0.000000 0.000000
# 5 0.000000 0.000000 0.000000 0.000000 0.043732 0.000000
# 6 0.000000 0.000000 0.000000 0.000000 0.000000 0.034733
#
#
# Mechanical properties :
#
#
# Convention : Reuss Voigt Hill
#
# Bulk Modulus (GPa) = 22.07652 47.34880 34.71266
# Shear Modulus (GPa) = 14.91146 24.21612 19.56379
#
# Velocity S-wave (km/s) = 2.80318 3.57226 3.21083
# Velocity P-wave (km/s) = 4.70219 6.47811 5.66023
#
# Compressibility (1/GPa) = 0.04529699
#
# Stress axis : x y z
#
# Youngs Moduli (GPa) = 89.50328 94.53609 20.36374
#
# Poissons Ratio (x) = 0.39399 0.20126
# Poissons Ratio (y) = 0.37302 -0.02587
# Poissons Ratio (z) = 0.88458 -0.12012
#
# Static dielectric constant tensor:
#      x y z
#    x 3.976840 0.000000 0.000000 
#    y 0.000000 4.178850 0.000000 
#    z 0.000000 0.000000 3.569620 
# 
# 
# High freq. dielectric constant tensor:
#      x y z
#    x 1.754680 0.000000 0.000000 
#    y 0.000000 1.752320 0.000000 
#    z 0.000000 0.000000 1.694460 
# 
# From -- ./inp_files/19472.got.cif
#   From: 2010.03.12/outbox.cif.g09.slc.cpg/sg40_10_cif.got.tgz:19472.got - 2010.04.14 01:38:03.
