data_PCOD8183642
_publ_section_title
;
Structure prediction by ZEFSAII (Michael W. Deem and Ramdas Pophale) SiO2 
 PCOD8183642
Probable space group: A M A 2
;
_chemical_formula_sum "Si O2"
_cell_formula_units_Z 40
_cell_length_a 13.644736
_cell_length_b 13.789613
_cell_length_c 12.131535
_cell_angle_alpha 90.000000
_cell_angle_beta 90.000000
_cell_angle_gamma 90.000000
_cell_volume 2282.616598
_symmetry_space_group_name_H-M "A M A 2"
_symmetry_group_IT_number 40
_symmetry_cell_setting 'orthorhombic'
loop_
_space_group_symop_operation_xyz
x,y,z
-x,-y,z
1/2-x,y,z
1/2+x,-y,z
x,1/2+y,1/2+z
-x,1/2-y,1/2+z
1/2-x,1/2+y,1/2+z
1/2+x,1/2-y,1/2+z
loop_
_atom_site_type_symbol
_atom_site_label
_atom_site_fract_x
_atom_site_fract_y
_atom_site_fract_z
Si Si1 0.861941 0.314332 0.977140
Si Si2 0.456014 0.104528 0.279445
Si Si3 0.536657 0.780712 0.882422
Si Si4 0.863164 0.766787 0.101842
Si Si5 0.517955 0.888248 0.670957
O O1 0.750000 0.280205 0.978386
O O2 0.880388 0.397326 0.883394
O O3 0.930818 0.221567 0.946210
O O4 0.890479 0.355399 0.096530
O O5 0.543583 0.180675 0.310413
O O6 0.400407 0.140296 0.170049
O O7 0.500000 0.000000 0.255336
O O8 0.543798 0.871216 0.799447
O O9 0.622852 0.787780 0.971833
O O10 0.750000 0.748398 0.127159
O O11 0.920250 0.669992 0.137718
O O12 0.500000 0.000000 0.649298
#
# Coordination Sequence:
#
# PCOD8183642 Si02
#       5
#     8   8   8   8   8
#     4   9  18  32  54  79 105 138 177 221 268 320
#     4   9  18  33  54  77 106 136 179 221 271 313
#     4   8  20  34  54  75 107 145 175 222 269 320
#     4  10  20  36  56  79 107 144 182 220 268 329
#     4  10  20  35  53  80 110 144 176 226 274 319
#
# _framework density 17.523748999999999
#
# number of rings (size 3 to 8) (size 9 to 14) (size 15 to 20)
#    1.200    1.600    0.000    1.200    0.000    2.400 
#    0.000    1.000    0.000   16.800    0.000    0.000 
#    0.000    0.000    0.000    0.000    0.000    0.000 
#
# Total GULP energy -247824.031111 kJ/mol
# GULP energy per Si atom -12391.201556 kJ/mol
# Density = 1.748386 g / cm^3
# Si number density = 17.523749 Si / 1000 Ang^3
#
#
#
# Elastic Constant Matrix: (Units=GPa)
#
#
# Indices 1 2 3 4 5 6 
#
# 1 82.5418 36.9145 29.1749 0.0000 0.0000 0.0000
# 2 36.9145 53.7090 32.7788 0.0000 0.0000 0.0000
# 3 29.1749 32.7788 117.4168 0.0000 0.0000 0.0000
# 4 0.0000 0.0000 0.0000 15.9809 0.0000 0.0000
# 5 0.0000 0.0000 0.0000 0.0000 16.7753 0.0000
# 6 0.0000 0.0000 0.0000 0.0000 0.0000 15.2123
#
#
#
# Elastic Compliance Matrix: (Units=1/GPa)
#
#
# Indices 1 2 3 4 5 6 
#
# 1 0.017631 -0.011384 -0.001203 0.000000 0.000000 0.000000
# 2 -0.011384 0.029793 -0.005489 0.000000 0.000000 0.000000
# 3 -0.001203 -0.005489 0.010348 0.000000 0.000000 0.000000
# 4 0.000000 0.000000 0.000000 0.062575 0.000000 0.000000
# 5 0.000000 0.000000 0.000000 0.000000 0.059611 0.000000
# 6 0.000000 0.000000 0.000000 0.000000 0.000000 0.065736
#
#
# Mechanical properties :
#
#
# Convention : Reuss Voigt Hill
#
# Bulk Modulus (GPa) = 46.25109 50.15599 48.20354
# Shear Modulus (GPa) = 17.29789 19.91366 18.60578
#
# Velocity S-wave (km/s) = 3.14524 3.37468 3.26198
# Velocity P-wave (km/s) = 6.29609 6.62333 6.46178
#
# Compressibility (1/GPa) = 0.02162111
#
# Stress axis : x y z
#
# Youngs Moduli (GPa) = 56.71686 33.56506 96.63927
#
# Poissons Ratio (x) = 0.38211 0.11625
# Poissons Ratio (y) = 0.64567 0.53041
# Poissons Ratio (z) = 0.06822 0.18422
#
# Static dielectric constant tensor:
#      x y z
#    x 2.940950 0.000000 0.000000 
#    y 0.000000 2.872000 0.000000 
#    z 0.000000 0.000000 3.467020 
# 
# 
# High freq. dielectric constant tensor:
#      x y z
#    x 1.652210 0.000000 0.000000 
#    y 0.000000 1.642640 0.000000 
#    z 0.000000 0.000000 1.695360 
# 
# From -- ./inp_files/12036.got.cif
#   From: 2010.03.12/outbox.cif.g09.slc.cpg/sg40_7_cif.got.tgz:12036.got - 2010.04.14 01:38:03.
