data_PCOD8183216
_publ_section_title
;
Structure prediction by ZEFSAII (Michael W. Deem and Ramdas Pophale) SiO2 
 PCOD8183216
Probable space group: A M A 2
;
_chemical_formula_sum "Si O2"
_cell_formula_units_Z 64
_cell_length_a 8.904853
_cell_length_b 24.684483
_cell_length_c 15.260151
_cell_angle_alpha 90.000000
_cell_angle_beta 90.000000
_cell_angle_gamma 90.000000
_cell_volume 3354.359619
_symmetry_space_group_name_H-M "A M A 2"
_symmetry_group_IT_number 40
_symmetry_cell_setting 'orthorhombic'
loop_
_space_group_symop_operation_xyz
x,y,z
-x,-y,z
1/2-x,y,z
1/2+x,-y,z
x,1/2+y,1/2+z
-x,1/2-y,1/2+z
1/2-x,1/2+y,1/2+z
1/2+x,1/2-y,1/2+z
loop_
_atom_site_type_symbol
_atom_site_label
_atom_site_fract_x
_atom_site_fract_y
_atom_site_fract_z
Si Si1 0.426639 0.858591 0.331810
Si Si2 0.928006 0.943764 0.458242
Si Si3 0.926325 0.641938 0.453617
Si Si4 0.080713 0.235219 0.862396
Si Si5 0.072555 0.834115 0.141661
Si Si6 0.073356 0.893739 0.625372
Si Si7 0.922583 0.285449 0.162224
Si Si8 0.427537 0.942088 0.812568
O O1 0.250000 0.871832 0.342261
O O2 0.525615 0.898901 0.388094
O O3 0.463484 0.798187 0.364678
O O4 0.481842 0.863910 0.230294
O O5 0.750000 0.949133 0.461521
O O6 0.988249 0.929623 0.554320
O O7 0.000000 0.000000 0.427145
O O8 0.750000 0.640106 0.444107
O O9 0.974125 0.631709 0.555281
O O10 0.994730 0.596034 0.390068
O O11 0.975197 0.702288 0.427712
O O12 0.250000 0.227831 0.895144
O O13 0.061608 0.210068 0.766415
O O14 0.250000 0.826983 0.151583
O O15 0.010552 0.772730 0.132823
O O16 0.250000 0.897727 0.608159
O O17 0.025899 0.916793 0.719768
O O18 0.023144 0.831432 0.616820
O O19 0.750000 0.293649 0.132876
O O20 0.250000 0.947931 0.819890
O O21 0.500000 0.000000 0.825199
#
# Coordination Sequence:
#
# PCOD8183216 Si02
#       8
#     8   8   8   8   8   8   8   8
#     4   9  19  39  61  84 115 151 191 237 288 341
#     4  12  26  43  62  85 111 148 195 244 294 347
#     4  10  19  34  55  83 115 150 194 237 283 339
#     4   9  18  32  53  82 117 153 188 230 283 337
#     4   8  17  34  58  83 116 155 189 229 282 344
#     4  11  22  37  56  84 118 152 188 236 289 341
#     4   9  17  32  53  82 116 154 192 226 275 339
#     4  10  22  37  55  79 111 151 192 235 283 334
#
# _framework density 19.079647999999999
#
# number of rings (size 3 to 8) (size 9 to 14) (size 15 to 20)
#    0.000    2.250    1.250    3.375    1.750    3.000 
#    0.000    3.125    0.000    1.500    0.000    0.000 
#    0.000    0.000    0.000    0.000    0.000    0.000 
#
# Total GULP energy -396759.421001 kJ/mol
# GULP energy per Si atom -12398.731906 kJ/mol
# Density = 1.903622 g / cm^3
# Si number density = 19.079648 Si / 1000 Ang^3
#
#
#
# Elastic Constant Matrix: (Units=GPa)
#
#
# Indices 1 2 3 4 5 6 
#
# 1 59.5848 39.1030 41.2618 0.0000 0.0000 0.0000
# 2 39.1030 106.0683 60.2792 0.0000 0.0000 0.0000
# 3 41.2618 60.2792 126.6542 0.0000 0.0000 0.0000
# 4 0.0000 0.0000 0.0000 29.1765 0.0000 0.0000
# 5 0.0000 0.0000 0.0000 0.0000 20.9453 0.0000
# 6 0.0000 0.0000 0.0000 0.0000 0.0000 31.3376
#
#
#
# Elastic Compliance Matrix: (Units=1/GPa)
#
#
# Indices 1 2 3 4 5 6 
#
# 1 0.024245 -0.006099 -0.004996 0.000000 0.000000 0.000000
# 2 -0.006099 0.014458 -0.004894 0.000000 0.000000 0.000000
# 3 -0.004996 -0.004894 0.011852 0.000000 0.000000 0.000000
# 4 0.000000 0.000000 0.000000 0.034274 0.000000 0.000000
# 5 0.000000 0.000000 0.000000 0.000000 0.047743 0.000000
# 6 0.000000 0.000000 0.000000 0.000000 0.000000 0.031911
#
#
# Mechanical properties :
#
#
# Convention : Reuss Voigt Hill
#
# Bulk Modulus (GPa) = 53.82924 63.73280 58.78102
# Shear Modulus (GPa) = 24.67276 26.40276 25.53776
#
# Velocity S-wave (km/s) = 3.59993 3.72401 3.66250
# Velocity P-wave (km/s) = 6.74934 7.20882 6.98286
#
# Compressibility (1/GPa) = 0.01857726
#
# Stress axis : x y z
#
# Youngs Moduli (GPa) = 41.24588 69.16793 84.37184
#
# Poissons Ratio (x) = 0.42185 0.42151
# Poissons Ratio (y) = 0.25155 0.41291
# Poissons Ratio (z) = 0.20606 0.33851
#
# Static dielectric constant tensor:
#      x y z
#    x 3.264560 0.000000 0.000000 
#    y 0.000000 3.460750 0.000000 
#    z 0.000000 0.000000 3.693780 
# 
# 
# High freq. dielectric constant tensor:
#      x y z
#    x 1.722040 0.000000 0.000000 
#    y 0.000000 1.735700 0.000000 
#    z 0.000000 0.000000 1.748140 
# 
# From -- ./inp_files/15575.got.cif
#   From: 2010.03.12/outbox.cif.g09.slc.cpg/sg40_8_cif.got.tgz:15575.got - 2010.04.14 01:38:03.
