data_PCOD8183443
_publ_section_title
;
Structure prediction by ZEFSAII (Michael W. Deem and Ramdas Pophale) SiO2 
 PCOD8183443
Probable space group: A M A 2
;
_chemical_formula_sum "Si O2"
_cell_formula_units_Z 64
_cell_length_a 9.084350
_cell_length_b 21.128903
_cell_length_c 21.575962
_cell_angle_alpha 90.000000
_cell_angle_beta 90.000000
_cell_angle_gamma 90.000000
_cell_volume 4141.340849
_symmetry_space_group_name_H-M "A M A 2"
_symmetry_group_IT_number 40
_symmetry_cell_setting 'orthorhombic'
loop_
_space_group_symop_operation_xyz
x,y,z
-x,-y,z
1/2-x,y,z
1/2+x,-y,z
x,1/2+y,1/2+z
-x,1/2-y,1/2+z
1/2-x,1/2+y,1/2+z
1/2+x,1/2-y,1/2+z
loop_
_atom_site_type_symbol
_atom_site_label
_atom_site_fract_x
_atom_site_fract_y
_atom_site_fract_z
Si Si1 0.423023 0.564575 0.817660
Si Si2 0.424134 0.934527 0.644651
Si Si3 0.423658 0.344606 0.736559
Si Si4 0.582821 0.350778 0.237017
Si Si5 0.078917 0.261249 0.316665
Si Si6 0.420861 0.326911 0.047114
Si Si7 0.416607 0.169788 0.420292
Si Si8 0.087200 0.256676 0.633395
O O1 0.500000 0.500000 0.838430
O O2 0.250000 0.555276 0.805451
O O3 0.502511 0.588131 0.753861
O O4 0.454536 0.614031 0.872434
O O5 0.250000 0.943008 0.652527
O O6 0.492426 0.909880 0.709380
O O7 0.464855 0.886579 0.589359
O O8 0.500000 0.000000 0.626288
O O9 0.250000 0.344188 0.752548
O O10 0.509687 0.294124 0.776905
O O11 0.448435 0.325477 0.663993
O O12 0.750000 0.371819 0.251257
O O13 0.505454 0.326962 0.300976
O O14 0.577241 0.293705 0.188685
O O15 0.250000 0.268781 0.298818
O O16 0.060955 0.238970 0.388177
O O17 0.250000 0.318527 0.041906
O O18 0.479398 0.261751 0.077642
O O19 0.479723 0.337529 0.978757
O O20 0.250000 0.162787 0.443562
O O21 0.250000 0.256828 0.604546
#
# Coordination Sequence:
#
# PCOD8183443 Si02
#       8
#     8   8   8   8   8   8   8   8
#     4  10  20  32  45  62  85 116 149 183 218 255
#     4  10  20  32  44  61  85 115 149 184 218 256
#     4   9  16  27  44  64  83 107 138 175 218 261
#     4   9  16  27  44  64  83 107 137 174 219 262
#     4   9  16  27  43  63  84 108 138 175 218 260
#     4  10  20  30  43  62  84 113 149 185 217 250
#     4   9  19  32  44  59  84 117 149 180 216 254
#     4   8  15  27  43  61  82 107 135 170 216 262
#
# _framework density 15.453932
#
# number of rings (size 3 to 8) (size 9 to 14) (size 15 to 20)
#    0.000    2.750    0.000    3.750    0.000    8.500 
#    0.000    2.500    0.000    0.000    0.000    0.000 
#    0.000    1.000    0.000    8.250    0.000    5.625 
#
# Total GULP energy -396568.633725 kJ/mol
# GULP energy per Si atom -12392.769804 kJ/mol
# Density = 1.541876 g / cm^3
# Si number density = 15.453932 Si / 1000 Ang^3
#
#
#
# Elastic Constant Matrix: (Units=GPa)
#
#
# Indices 1 2 3 4 5 6 
#
# 1 103.8693 43.7998 54.1932 0.0000 0.0000 0.0000
# 2 43.7998 45.0146 52.1439 0.0000 0.0000 0.0000
# 3 54.1932 52.1439 63.9055 0.0000 0.0000 0.0000
# 4 0.0000 0.0000 0.0000 10.8441 0.0000 0.0000
# 5 0.0000 0.0000 0.0000 0.0000 27.2287 0.0000
# 6 0.0000 0.0000 0.0000 0.0000 0.0000 26.0304
#
#
#
# Elastic Compliance Matrix: (Units=1/GPa)
#
#
# Indices 1 2 3 4 5 6 
#
# 1 0.017289 0.002938 -0.017058 0.000000 0.000000 0.000000
# 2 0.002938 0.405752 -0.333566 0.000000 0.000000 0.000000
# 3 -0.017058 -0.333566 0.302288 0.000000 0.000000 0.000000
# 4 0.000000 0.000000 0.000000 0.092216 0.000000 0.000000
# 5 0.000000 0.000000 0.000000 0.000000 0.036726 0.000000
# 6 0.000000 0.000000 0.000000 0.000000 0.000000 0.038417
#
#
# Mechanical properties :
#
#
# Convention : Reuss Voigt Hill
#
# Bulk Modulus (GPa) = 33.38242 57.00704 45.19473
# Shear Modulus (GPa) = 3.12882 16.99748 10.06315
#
# Velocity S-wave (km/s) = 1.42443 3.32004 2.55457
# Velocity P-wave (km/s) = 4.93493 7.18786 6.16518
#
# Compressibility (1/GPa) = 0.02995588
#
# Stress axis : x y z
#
# Youngs Moduli (GPa) = 57.84116 2.46456 3.30810
#
# Poissons Ratio (x) = -0.00724 0.05643
# Poissons Ratio (y) = -0.16992 1.10347
# Poissons Ratio (z) = 0.98667 0.82209
#
# Static dielectric constant tensor:
#      x y z
#    x 3.143080 0.000000 0.000000 
#    y 0.000000 3.195140 0.000000 
#    z 0.000000 0.000000 2.951640 
# 
# 
# High freq. dielectric constant tensor:
#      x y z
#    x 1.612520 0.000000 0.000000 
#    y 0.000000 1.564670 0.000000 
#    z 0.000000 0.000000 1.563040 
# 
# From -- ./inp_files/22515.got.cif
#   From: 2010.03.12/outbox.cif.g09.slc.cpg/sg40_12_cif.got.tgz:22515.got - 2010.04.14 01:38:03.
