data_PCOD8183323
_publ_section_title
;
Structure prediction by ZEFSAII (Michael W. Deem and Ramdas Pophale) SiO2 
 PCOD8183323
Probable space group: A M A 2
;
_chemical_formula_sum "Si O2"
_cell_formula_units_Z 64
_cell_length_a 17.228268
_cell_length_b 12.031578
_cell_length_c 15.745414
_cell_angle_alpha 90.000000
_cell_angle_beta 90.000000
_cell_angle_gamma 90.000000
_cell_volume 3263.760590
_symmetry_space_group_name_H-M "A M A 2"
_symmetry_group_IT_number 40
_symmetry_cell_setting 'orthorhombic'
loop_
_space_group_symop_operation_xyz
x,y,z
-x,-y,z
1/2-x,y,z
1/2+x,-y,z
x,1/2+y,1/2+z
-x,1/2-y,1/2+z
1/2-x,1/2+y,1/2+z
1/2+x,1/2-y,1/2+z
loop_
_atom_site_type_symbol
_atom_site_label
_atom_site_fract_x
_atom_site_fract_y
_atom_site_fract_z
Si Si1 0.840475 0.333552 0.763570
Si Si2 0.659449 0.529975 0.544752
Si Si3 0.340981 0.396427 0.000381
Si Si4 0.081889 0.953120 0.325789
Si Si5 0.658744 0.720983 0.429091
Si Si6 0.659229 0.373936 0.080325
Si Si7 0.919457 0.192914 0.168620
Si Si8 0.411475 0.695684 0.591452
O O1 0.750000 0.350747 0.776412
O O2 0.880144 0.453595 0.766101
O O3 0.875281 0.251747 0.836531
O O4 0.857363 0.279700 0.672680
O O5 0.750000 0.498937 0.548851
O O6 0.637489 0.595671 0.457597
O O7 0.640971 0.609136 0.624343
O O8 0.609492 0.418771 0.544970
O O9 0.250000 0.365018 0.002733
O O10 0.362153 0.429420 0.904539
O O11 0.358844 0.496240 0.066584
O O12 0.395737 0.294367 0.025603
O O13 0.070576 0.843096 0.267035
O O14 0.000000 0.000000 0.359395
O O15 0.750000 0.734990 0.426535
O O16 0.626885 0.809644 0.497266
O O17 0.750000 0.354090 0.094289
O O18 0.614393 0.319361 0.161270
O O19 0.000166 0.187609 0.119115
#
# Coordination Sequence:
#
# PCOD8183323 Si02
#       8
#     8   8   8   8   8   8   8   8
#     4  11  20  36  60  85 119 160 205 257 302 364
#     4  10  19  35  60  87 118 159 205 252 304 366
#     4  11  25  42  63  93 128 168 212 257 317 383
#     4  12  23  38  61  95 125 156 206 266 315 372
#     4   8  16  31  56  86 109 142 198 250 294 352
#     4   9  19  37  61  89 119 159 208 250 306 378
#     4  11  22  38  59  91 125 159 207 258 315 374
#     4  12  24  38  58  91 132 161 206 257 316 376
#
# _framework density 19.609279999999998
#
# number of rings (size 3 to 8) (size 9 to 14) (size 15 to 20)
#    0.000    1.500    3.750    3.000    1.750    1.500 
#    0.000    1.250    0.000    1.500    0.000    0.000 
#    0.000    0.000    0.000    0.000    0.000    0.000 
#
# Total GULP energy -396743.639351 kJ/mol
# GULP energy per Si atom -12398.238730 kJ/mol
# Density = 1.956465 g / cm^3
# Si number density = 19.609280 Si / 1000 Ang^3
#
#
#
# Elastic Constant Matrix: (Units=GPa)
#
#
# Indices 1 2 3 4 5 6 
#
# 1 74.4376 29.1208 12.7208 0.0000 0.0000 0.0000
# 2 29.1208 79.7891 25.2879 0.0000 0.0000 0.0000
# 3 12.7208 25.2879 68.2305 0.0000 0.0000 0.0000
# 4 0.0000 0.0000 0.0000 31.6786 0.0000 0.0000
# 5 0.0000 0.0000 0.0000 0.0000 28.3385 0.0000
# 6 0.0000 0.0000 0.0000 0.0000 0.0000 23.9915
#
#
#
# Elastic Compliance Matrix: (Units=1/GPa)
#
#
# Indices 1 2 3 4 5 6 
#
# 1 0.015722 -0.005449 -0.000912 0.000000 0.000000 0.000000
# 2 -0.005449 0.016090 -0.004947 0.000000 0.000000 0.000000
# 3 -0.000912 -0.004947 0.016660 0.000000 0.000000 0.000000
# 4 0.000000 0.000000 0.000000 0.031567 0.000000 0.000000
# 5 0.000000 0.000000 0.000000 0.000000 0.035288 0.000000
# 6 0.000000 0.000000 0.000000 0.000000 0.000000 0.041681
#
#
# Mechanical properties :
#
#
# Convention : Reuss Voigt Hill
#
# Bulk Modulus (GPa) = 38.67695 39.63515 39.15605
# Shear Modulus (GPa) = 26.56161 27.15689 26.85925
#
# Velocity S-wave (km/s) = 3.68440 3.72546 3.70499
# Velocity P-wave (km/s) = 6.15357 6.22589 6.18984
#
# Compressibility (1/GPa) = 0.02585519
#
# Stress axis : x y z
#
# Youngs Moduli (GPa) = 63.60690 62.15128 60.02488
#
# Poissons Ratio (x) = 0.33866 0.05472
# Poissons Ratio (y) = 0.34660 0.29696
# Poissons Ratio (z) = 0.05798 0.30748
#
# Static dielectric constant tensor:
#      x y z
#    x 3.536120 0.000000 0.000000 
#    y 0.000000 3.649730 0.000000 
#    z 0.000000 0.000000 3.669930 
# 
# 
# High freq. dielectric constant tensor:
#      x y z
#    x 1.765640 0.000000 0.000000 
#    y 0.000000 1.755270 0.000000 
#    z 0.000000 0.000000 1.747110 
# 
# From -- ./inp_files/20790.got.cif
#   From: 2010.03.12/outbox.cif.g09.slc.cpg/sg40_11_cif.got.tgz:20790.got - 2010.04.14 01:38:03.
