data_PCOD8183340
_publ_section_title
;
Structure prediction by ZEFSAII (Michael W. Deem and Ramdas Pophale) SiO2 
 PCOD8183340
Probable space group: A M A 2
;
_chemical_formula_sum "Si O2"
_cell_formula_units_Z 56
_cell_length_a 14.045787
_cell_length_b 11.057896
_cell_length_c 19.209332
_cell_angle_alpha 90.000000
_cell_angle_beta 90.000000
_cell_angle_gamma 90.000000
_cell_volume 2983.532973
_symmetry_space_group_name_H-M "A M A 2"
_symmetry_group_IT_number 40
_symmetry_cell_setting 'orthorhombic'
loop_
_space_group_symop_operation_xyz
x,y,z
-x,-y,z
1/2-x,y,z
1/2+x,-y,z
x,1/2+y,1/2+z
-x,1/2-y,1/2+z
1/2-x,1/2+y,1/2+z
1/2+x,1/2-y,1/2+z
loop_
_atom_site_type_symbol
_atom_site_label
_atom_site_fract_x
_atom_site_fract_y
_atom_site_fract_z
Si Si1 0.359511 0.501583 0.420320
Si Si2 0.012779 0.807496 0.715064
Si Si3 0.493658 0.142578 0.342251
Si Si4 0.862323 0.486879 0.264858
Si Si5 0.004563 0.359259 0.063884
Si Si6 0.862983 0.258254 0.957203
Si Si7 0.860740 0.233055 0.450127
O O1 0.250000 0.474298 0.408143
O O2 0.402733 0.516807 0.343547
O O3 0.400148 0.382019 0.458412
O O4 0.377033 0.623472 0.464158
O O5 0.013969 0.688294 0.762827
O O6 0.016532 0.776766 0.632808
O O7 0.106488 0.885557 0.732589
O O8 0.913904 0.878432 0.725197
O O9 0.400369 0.180878 0.386100
O O10 0.588487 0.195674 0.378344
O O11 0.500000 0.000000 0.340055
O O12 0.750000 0.468872 0.257482
O O13 0.000000 0.500000 0.085129
O O14 0.095705 0.339542 0.014532
O O15 0.908236 0.322788 0.023971
O O16 0.750000 0.272877 0.961166
O O17 0.750000 0.201200 0.442657
#
# Coordination Sequence:
#
# PCOD8183340 Si02
#       7
#     8   8   8   8   8   8   8
#     4   9  17  33  61  90 105 137 192 232 280 330
#     4  11  22  39  57  85 118 145 188 238 282 341
#     4  11  23  37  58  85 114 147 192 232 283 343
#     4  10  19  35  64  89 109 138 183 242 291 329
#     4  11  24  38  53  86 115 149 194 222 281 353
#     4  10  21  38  60  84 114 148 188 238 281 330
#     4  10  21  38  60  84 114 148 188 238 281 330
#
# _framework density 18.769694000000001
#
# number of rings (size 3 to 8) (size 9 to 14) (size 15 to 20)
#    0.000    1.714    4.286    1.714    0.000    5.714 
#    2.571    0.000    0.000    0.000    0.000    0.000 
#    0.000    0.000    0.000    0.000    0.000    0.000 
#
# Total GULP energy -347131.293143 kJ/mol
# GULP energy per Si atom -12397.546184 kJ/mol
# Density = 1.872697 g / cm^3
# Si number density = 18.769694 Si / 1000 Ang^3
#
#
#
# Elastic Constant Matrix: (Units=GPa)
#
#
# Indices 1 2 3 4 5 6 
#
# 1 98.9720 6.0319 15.0421 0.0000 0.0000 0.0000
# 2 6.0319 100.1435 22.2961 0.0000 0.0000 0.0000
# 3 15.0421 22.2961 115.4875 0.0000 0.0000 0.0000
# 4 0.0000 0.0000 0.0000 30.2174 0.0000 0.0000
# 5 0.0000 0.0000 0.0000 0.0000 10.6086 0.0000
# 6 0.0000 0.0000 0.0000 0.0000 0.0000 14.5333
#
#
#
# Elastic Compliance Matrix: (Units=1/GPa)
#
#
# Indices 1 2 3 4 5 6 
#
# 1 0.010319 -0.000337 -0.001279 0.000000 0.000000 0.000000
# 2 -0.000337 0.010445 -0.001973 0.000000 0.000000 0.000000
# 3 -0.001279 -0.001973 0.009206 0.000000 0.000000 0.000000
# 4 0.000000 0.000000 0.000000 0.033094 0.000000 0.000000
# 5 0.000000 0.000000 0.000000 0.000000 0.094263 0.000000
# 6 0.000000 0.000000 0.000000 0.000000 0.000000 0.068807
#
#
# Mechanical properties :
#
#
# Convention : Reuss Voigt Hill
#
# Bulk Modulus (GPa) = 43.87232 44.59370 44.23301
# Shear Modulus (GPa) = 20.75476 29.15407 24.95442
#
# Velocity S-wave (km/s) = 3.32890 3.94541 3.65019
# Velocity P-wave (km/s) = 6.18063 6.67570 6.43293
#
# Compressibility (1/GPa) = 0.02279341
#
# Stress axis : x y z
#
# Youngs Moduli (GPa) = 96.91073 95.73818 108.62035
#
# Poissons Ratio (x) = 0.03224 0.13892
# Poissons Ratio (y) = 0.03264 0.21427
# Poissons Ratio (z) = 0.12395 0.18886
#
# Static dielectric constant tensor:
#      x y z
#    x 3.447680 0.000000 0.000000 
#    y 0.000000 3.466770 0.000000 
#    z 0.000000 0.000000 3.384150 
# 
# 
# High freq. dielectric constant tensor:
#      x y z
#    x 1.735340 0.000000 0.000000 
#    y 0.000000 1.724180 0.000000 
#    z 0.000000 0.000000 1.714670 
# 
# From -- ./inp_files/23106.got.cif
#   From: 2010.03.12/outbox.cif.g09.slc.cpg/sg40_12_cif.got.tgz:23106.got - 2010.04.14 01:38:03.
