data_PCOD8183842
_publ_section_title
;
Structure prediction by ZEFSAII (Michael W. Deem and Ramdas Pophale) SiO2 
 PCOD8183842
Probable space group: A M A 2
;
_chemical_formula_sum "Si O2"
_cell_formula_units_Z 64
_cell_length_a 8.340413
_cell_length_b 20.113487
_cell_length_c 19.714878
_cell_angle_alpha 90.000000
_cell_angle_beta 90.000000
_cell_angle_gamma 90.000000
_cell_volume 3307.265188
_symmetry_space_group_name_H-M "A M A 2"
_symmetry_group_IT_number 40
_symmetry_cell_setting 'orthorhombic'
loop_
_space_group_symop_operation_xyz
x,y,z
-x,-y,z
1/2-x,y,z
1/2+x,-y,z
x,1/2+y,1/2+z
-x,1/2-y,1/2+z
1/2-x,1/2+y,1/2+z
1/2+x,1/2-y,1/2+z
loop_
_atom_site_type_symbol
_atom_site_label
_atom_site_fract_x
_atom_site_fract_y
_atom_site_fract_z
Si Si1 0.562900 0.926857 0.814270
Si Si2 0.437704 0.822299 0.418394
Si Si3 0.937121 0.318289 0.560826
Si Si4 0.063959 0.429488 0.168144
Si Si5 0.063527 0.819580 0.915826
Si Si6 0.061118 0.429854 0.812994
Si Si7 0.440145 0.428700 0.659056
Si Si8 0.565088 0.825231 0.565817
O O1 0.750000 0.921621 0.830372
O O2 0.530854 0.908973 0.736012
O O3 0.467604 0.875773 0.860851
O O4 0.500000 0.000000 0.831731
O O5 0.250000 0.832792 0.430811
O O6 0.470023 0.747178 0.394480
O O7 0.505537 0.871161 0.360426
O O8 0.530075 0.839450 0.487278
O O9 0.750000 0.303628 0.553164
O O10 0.004862 0.344483 0.489286
O O11 0.969379 0.373210 0.616745
O O12 0.023011 0.250563 0.583943
O O13 0.250000 0.436442 0.186762
O O14 0.000000 0.500000 0.140164
O O15 0.040874 0.373961 0.111341
O O16 0.250000 0.802594 0.919701
O O17 0.250000 0.430206 0.813893
O O18 0.000867 0.418595 0.736317
O O19 0.000000 0.500000 0.841877
O O20 0.500000 0.500000 0.632296
O O21 0.250000 0.422139 0.650409
O O22 0.750000 0.838920 0.581727
#
# Coordination Sequence:
#
# PCOD8183842 Si02
#       8
#     8   8   8   8   8   8   8   8
#     4  11  22  39  60  85 115 148 184 229 278 332
#     4  10  20  37  57  82 113 148 187 233 281 331
#     4  11  22  38  58  83 112 147 187 233 282 334
#     4  11  22  39  60  85 114 148 187 231 278 332
#     4  11  22  38  58  83 112 147 187 231 278 332
#     4   9  20  36  57  81 111 145 182 225 273 324
#     4  10  20  37  57  82 112 146 185 229 278 333
#     4  11  22  38  58  83 113 149 187 231 280 332
#
# _framework density 19.351336
#
# number of rings (size 3 to 8) (size 9 to 14) (size 15 to 20)
#    0.000    1.500    0.000    8.625    0.000    3.500 
#    0.000    7.500    0.000    0.000    0.000    0.000 
#    0.000    0.000    0.000    0.000    0.000    0.000 
#
# Total GULP energy -396969.291382 kJ/mol
# GULP energy per Si atom -12405.290356 kJ/mol
# Density = 1.930729 g / cm^3
# Si number density = 19.351336 Si / 1000 Ang^3
#
#
#
# Elastic Constant Matrix: (Units=GPa)
#
#
# Indices 1 2 3 4 5 6 
#
# 1 77.2538 6.2186 6.5504 0.0000 0.0000 0.0000
# 2 6.2186 119.1609 79.0887 0.0000 0.0000 0.0000
# 3 6.5504 79.0887 91.2382 0.0000 0.0000 0.0000
# 4 0.0000 0.0000 0.0000 34.8361 0.0000 0.0000
# 5 0.0000 0.0000 0.0000 0.0000 28.8461 0.0000
# 6 0.0000 0.0000 0.0000 0.0000 0.0000 33.9088
#
#
#
# Elastic Compliance Matrix: (Units=1/GPa)
#
#
# Indices 1 2 3 4 5 6 
#
# 1 0.013025 -0.000139 -0.000815 0.000000 0.000000 0.000000
# 2 -0.000139 0.019763 -0.017121 0.000000 0.000000 0.000000
# 3 -0.000815 -0.017121 0.025860 0.000000 0.000000 0.000000
# 4 0.000000 0.000000 0.000000 0.028706 0.000000 0.000000
# 5 0.000000 0.000000 0.000000 0.000000 0.034667 0.000000
# 6 0.000000 0.000000 0.000000 0.000000 0.000000 0.029491
#
#
# Mechanical properties :
#
#
# Convention : Reuss Voigt Hill
#
# Bulk Modulus (GPa) = 44.44852 52.37425 48.41139
# Shear Modulus (GPa) = 25.62003 32.57122 29.09563
#
# Velocity S-wave (km/s) = 3.64255 4.10707 3.88177
# Velocity P-wave (km/s) = 6.38044 7.04375 6.72028
#
# Compressibility (1/GPa) = 0.02249793
#
# Stress axis : x y z
#
# Youngs Moduli (GPa) = 76.77771 50.60003 38.66965
#
# Poissons Ratio (x) = 0.00704 0.03150
# Poissons Ratio (y) = 0.01068 0.66207
# Poissons Ratio (z) = 0.06254 0.86633
#
# Static dielectric constant tensor:
#      x y z
#    x 3.583970 0.000000 0.000000 
#    y 0.000000 3.572900 0.000000 
#    z 0.000000 0.000000 3.562480 
# 
# 
# High freq. dielectric constant tensor:
#      x y z
#    x 1.769000 0.000000 0.000000 
#    y 0.000000 1.757730 0.000000 
#    z 0.000000 0.000000 1.751100 
# 
# From -- ./inp_files/19561.got.cif
#   From: 2010.03.12/outbox.cif.g09.slc.cpg/sg40_10_cif.got.tgz:19561.got - 2010.04.14 01:38:03.
