data_PCOD8183904
_publ_section_title
;
Structure prediction by ZEFSAII (Michael W. Deem and Ramdas Pophale) SiO2 
 PCOD8183904
Probable space group: A M A 2
;
_chemical_formula_sum "Si O2"
_cell_formula_units_Z 60
_cell_length_a 9.402438
_cell_length_b 16.849484
_cell_length_c 18.365766
_cell_angle_alpha 90.000000
_cell_angle_beta 90.000000
_cell_angle_gamma 90.000000
_cell_volume 2909.619044
_symmetry_space_group_name_H-M "A M A 2"
_symmetry_group_IT_number 40
_symmetry_cell_setting 'orthorhombic'
loop_
_space_group_symop_operation_xyz
x,y,z
-x,-y,z
1/2-x,y,z
1/2+x,-y,z
x,1/2+y,1/2+z
-x,1/2-y,1/2+z
1/2-x,1/2+y,1/2+z
1/2+x,1/2-y,1/2+z
loop_
_atom_site_type_symbol
_atom_site_label
_atom_site_fract_x
_atom_site_fract_y
_atom_site_fract_z
Si Si1 0.910433 0.566452 0.418650
Si Si2 0.084857 0.801589 0.296101
Si Si3 0.000000 0.000000 0.523609
Si Si4 0.590653 0.207855 0.023782
Si Si5 0.594193 0.608100 0.150941
Si Si6 0.589345 0.356429 0.933144
Si Si7 0.913010 0.385858 0.285185
Si Si8 0.087910 0.705176 0.655009
O O1 0.750000 0.536573 0.408386
O O2 0.915266 0.651817 0.454311
O O3 0.000000 0.500000 0.464084
O O4 0.988060 0.569582 0.341423
O O5 0.250000 0.827087 0.289695
O O6 0.069850 0.707293 0.301111
O O7 0.017671 0.846961 0.365305
O O8 0.997435 0.827421 0.224652
O O9 0.089726 0.941374 0.575707
O O10 0.910305 0.943925 0.469175
O O11 0.750000 0.212040 0.056919
O O12 0.543209 0.294503 0.995964
O O13 0.486363 0.169329 0.083383
O O14 0.750000 0.593215 0.185941
O O15 0.467739 0.584863 0.205973
O O16 0.575619 0.701608 0.139388
O O17 0.750000 0.337723 0.906308
O O18 0.750000 0.412193 0.292107
O O19 0.250000 0.676065 0.661904
#
# Coordination Sequence:
#
# PCOD8183904 Si02
#       8
#     8   8   4   8   8   8   8   8
#     4  11  23  39  60  87 120 156 198 250 311 376
#     4  10  21  38  63  91 120 157 207 259 307 367
#     4  12  24  40  60  92 130 172 214 260 312 374
#     4  10  21  39  62  89 120 159 201 252 314 377
#     4  10  22  37  54  83 122 163 203 246 298 359
#     4  11  23  40  63  90 126 169 214 261 310 372
#     4  10  21  37  59  87 121 162 204 249 302 363
#     4  10  20  37  63  90 118 155 203 256 309 372
#
# _framework density 20.621257
#
# number of rings (size 3 to 8) (size 9 to 14) (size 15 to 20)
#    0.000    1.600    2.667    2.000    0.933    5.333 
#    0.000    0.000    1.467    0.000    0.000    0.000 
#    0.000    0.000    0.000    0.000    0.000    0.000 
#
# Total GULP energy -371836.732969 kJ/mol
# GULP energy per Si atom -12394.557766 kJ/mol
# Density = 2.057432 g / cm^3
# Si number density = 20.621257 Si / 1000 Ang^3
#
#
#
# Elastic Constant Matrix: (Units=GPa)
#
#
# Indices 1 2 3 4 5 6 
#
# 1 163.0923 24.7581 75.1911 0.0000 0.0000 0.0000
# 2 24.7581 60.3303 25.6063 0.0000 0.0000 0.0000
# 3 75.1911 25.6063 121.4839 0.0000 0.0000 0.0000
# 4 0.0000 0.0000 0.0000 32.2403 0.0000 0.0000
# 5 0.0000 0.0000 0.0000 0.0000 36.3838 0.0000
# 6 0.0000 0.0000 0.0000 0.0000 0.0000 24.5973
#
#
#
# Elastic Compliance Matrix: (Units=1/GPa)
#
#
# Indices 1 2 3 4 5 6 
#
# 1 0.008687 -0.001409 -0.005080 0.000000 0.000000 0.000000
# 2 -0.001409 0.018432 -0.003013 0.000000 0.000000 0.000000
# 3 -0.005080 -0.003013 0.012011 0.000000 0.000000 0.000000
# 4 0.000000 0.000000 0.000000 0.031017 0.000000 0.000000
# 5 0.000000 0.000000 0.000000 0.000000 0.027485 0.000000
# 6 0.000000 0.000000 0.000000 0.000000 0.000000 0.040655
#
#
# Mechanical properties :
#
#
# Convention : Reuss Voigt Hill
#
# Bulk Modulus (GPa) = 49.68553 66.22415 57.95484
# Shear Modulus (GPa) = 30.48770 33.26768 31.87769
#
# Velocity S-wave (km/s) = 3.84925 4.02091 3.93602
# Velocity P-wave (km/s) = 6.62588 7.33084 6.98725
#
# Compressibility (1/GPa) = 0.02012659
#
# Stress axis : x y z
#
# Youngs Moduli (GPa) = 115.10863 54.25203 83.25796
#
# Poissons Ratio (x) = 0.07644 0.42295
# Poissons Ratio (y) = 0.16219 0.25087
# Poissons Ratio (z) = 0.58475 0.16347
#
# Static dielectric constant tensor:
#      x y z
#    x 3.866890 0.000000 0.000000 
#    y 0.000000 3.659380 0.000000 
#    z 0.000000 0.000000 3.559720 
# 
# 
# High freq. dielectric constant tensor:
#      x y z
#    x 1.816480 0.000000 0.000000 
#    y 0.000000 1.789320 0.000000 
#    z 0.000000 0.000000 1.797890 
# 
# From -- ./inp_files/19407.got.cif
#   From: 2010.03.12/outbox.cif.g09.slc.cpg/sg40_10_cif.got.tgz:19407.got - 2010.04.14 01:38:03.
