data_PCOD8183543
_publ_section_title
;
Structure prediction by ZEFSAII (Michael W. Deem and Ramdas Pophale) SiO2 
 PCOD8183543
Probable space group: A M A 2
;
_chemical_formula_sum "Si O2"
_cell_formula_units_Z 64
_cell_length_a 8.828287
_cell_length_b 27.578452
_cell_length_c 14.508282
_cell_angle_alpha 90.000000
_cell_angle_beta 90.000000
_cell_angle_gamma 90.000000
_cell_volume 3532.338517
_symmetry_space_group_name_H-M "A M A 2"
_symmetry_group_IT_number 40
_symmetry_cell_setting 'orthorhombic'
loop_
_space_group_symop_operation_xyz
x,y,z
-x,-y,z
1/2-x,y,z
1/2+x,-y,z
x,1/2+y,1/2+z
-x,1/2-y,1/2+z
1/2-x,1/2+y,1/2+z
1/2+x,1/2-y,1/2+z
loop_
_atom_site_type_symbol
_atom_site_label
_atom_site_fract_x
_atom_site_fract_y
_atom_site_fract_z
Si Si1 0.076305 0.820965 0.815600
Si Si2 0.072065 0.279347 0.810855
Si Si3 0.071997 0.549846 0.819829
Si Si4 0.923677 0.136219 0.005472
Si Si5 0.927740 0.357624 0.934969
Si Si6 0.925291 0.283117 0.619328
Si Si7 0.577023 0.669687 0.111678
Si Si8 0.427957 0.549867 0.610725
O O1 0.250000 0.801546 0.811471
O O2 0.035782 0.845029 0.716871
O O3 0.967636 0.775793 0.836519
O O4 0.056110 0.861255 0.894769
O O5 0.250000 0.283920 0.793825
O O6 0.022342 0.312883 0.895193
O O7 0.982781 0.297247 0.720770
O O8 0.250000 0.543396 0.824165
O O9 0.017398 0.593184 0.885607
O O10 0.018244 0.561193 0.715251
O O11 0.000000 0.500000 0.856150
O O12 0.750000 0.127638 0.033108
O O13 0.978575 0.187362 0.045335
O O14 0.022650 0.092607 0.043639
O O15 0.750000 0.349092 0.920530
O O16 0.968098 0.360347 0.043481
O O17 0.750000 0.298026 0.612156
O O18 0.952236 0.226858 0.599434
O O19 0.750000 0.656556 0.088363
O O20 0.500000 0.500000 0.574969
O O21 0.250000 0.544307 0.605496
#
# Coordination Sequence:
#
# PCOD8183543 Si02
#       8
#     8   8   8   8   8   8   8   8
#     4   9  20  37  53  71 102 139 174 216 258 296
#     4  11  21  32  50  76 104 137 176 212 251 304
#     4   9  20  36  54  76 102 131 161 198 248 302
#     4  11  21  33  53  79 103 134 176 214 255 309
#     4  11  21  33  51  76 105 135 168 208 256 306
#     4  10  20  34  50  72 106 141 172 211 257 302
#     4   9  19  35  52  72 100 137 177 214 253 295
#     4  10  20  36  56  78 106 136 165 205 257 310
#
# _framework density 18.118307999999999
#
# number of rings (size 3 to 8) (size 9 to 14) (size 15 to 20)
#    0.000    2.000    0.000    4.875    0.000    8.000 
#    0.000    0.000    0.000    0.750    0.000    1.750 
#    0.000    0.000    0.000    0.000    0.000    0.000 
#
# Total GULP energy -396906.603566 kJ/mol
# GULP energy per Si atom -12403.331361 kJ/mol
# Density = 1.807707 g / cm^3
# Si number density = 18.118308 Si / 1000 Ang^3
#
#
#
# Elastic Constant Matrix: (Units=GPa)
#
#
# Indices 1 2 3 4 5 6 
#
# 1 61.2609 30.0748 27.7815 0.0000 0.0000 0.0000
# 2 30.0748 72.3413 53.2935 0.0000 0.0000 0.0000
# 3 27.7815 53.2935 108.8886 0.0000 0.0000 0.0000
# 4 0.0000 0.0000 0.0000 24.6331 0.0000 0.0000
# 5 0.0000 0.0000 0.0000 0.0000 28.9374 0.0000
# 6 0.0000 0.0000 0.0000 0.0000 0.0000 28.6178
#
#
#
# Elastic Compliance Matrix: (Units=1/GPa)
#
#
# Indices 1 2 3 4 5 6 
#
# 1 0.020703 -0.007375 -0.001673 0.000000 0.000000 0.000000
# 2 -0.007375 0.024245 -0.009985 0.000000 0.000000 0.000000
# 3 -0.001673 -0.009985 0.014497 0.000000 0.000000 0.000000
# 4 0.000000 0.000000 0.000000 0.040596 0.000000 0.000000
# 5 0.000000 0.000000 0.000000 0.000000 0.034557 0.000000
# 6 0.000000 0.000000 0.000000 0.000000 0.000000 0.034943
#
#
# Mechanical properties :
#
#
# Convention : Reuss Voigt Hill
#
# Bulk Modulus (GPa) = 46.77063 51.64338 49.20700
# Shear Modulus (GPa) = 23.28485 25.19373 24.23929
#
# Velocity S-wave (km/s) = 3.58880 3.73300 3.66161
# Velocity P-wave (km/s) = 6.56069 6.86627 6.71522
#
# Compressibility (1/GPa) = 0.02138094
#
# Stress axis : x y z
#
# Youngs Moduli (GPa) = 48.30330 41.24581 68.97842
#
# Poissons Ratio (x) = 0.30417 0.11538
# Poissons Ratio (y) = 0.35621 0.68873
# Poissons Ratio (z) = 0.08079 0.41183
#
# Static dielectric constant tensor:
#      x y z
#    x 3.352060 0.000000 0.000000 
#    y 0.000000 3.131280 0.000000 
#    z 0.000000 0.000000 3.497520 
# 
# 
# High freq. dielectric constant tensor:
#      x y z
#    x 1.709040 0.000000 0.000000 
#    y 0.000000 1.673900 0.000000 
#    z 0.000000 0.000000 1.704650 
# 
# From -- ./inp_files/15588.got.cif
#   From: 2010.03.12/outbox.cif.g09.slc.cpg/sg40_8_cif.got.tgz:15588.got - 2010.04.14 01:38:03.
