data_PCOD8183878
_publ_section_title
;
Structure prediction by ZEFSAII (Michael W. Deem and Ramdas Pophale) SiO2 
 PCOD8183878
Probable space group: A M A 2
;
_chemical_formula_sum "Si O2"
_cell_formula_units_Z 64
_cell_length_a 19.095843
_cell_length_b 15.231589
_cell_length_c 11.581478
_cell_angle_alpha 90.000000
_cell_angle_beta 90.000000
_cell_angle_gamma 90.000000
_cell_volume 3368.589064
_symmetry_space_group_name_H-M "A M A 2"
_symmetry_group_IT_number 40
_symmetry_cell_setting 'orthorhombic'
loop_
_space_group_symop_operation_xyz
x,y,z
-x,-y,z
1/2-x,y,z
1/2+x,-y,z
x,1/2+y,1/2+z
-x,1/2-y,1/2+z
1/2-x,1/2+y,1/2+z
1/2+x,1/2-y,1/2+z
loop_
_atom_site_type_symbol
_atom_site_label
_atom_site_fract_x
_atom_site_fract_y
_atom_site_fract_z
Si Si1 0.575352 0.175683 0.102180
Si Si2 0.071633 0.614348 0.335845
Si Si3 0.330415 0.355709 0.163764
Si Si4 0.056350 0.923426 0.341509
Si Si5 0.328338 0.506292 0.986874
Si Si6 0.583262 0.582354 0.364792
Si Si7 0.668814 0.828591 0.628654
Si Si8 0.943004 0.734017 0.014258
O O1 0.569342 0.120792 0.218874
O O2 0.647849 0.229883 0.094312
O O3 0.509769 0.242421 0.093005
O O4 0.576761 0.109618 0.996643
O O5 0.101109 0.520116 0.372956
O O6 0.117604 0.647748 0.231690
O O7 0.080476 0.683105 0.439012
O O8 0.990026 0.603786 0.299702
O O9 0.250000 0.323645 0.163806
O O10 0.356360 0.366128 0.295539
O O11 0.376830 0.284801 0.096066
O O12 0.339786 0.449979 0.103133
O O13 0.035451 0.849000 0.434500
O O14 0.126447 0.972366 0.380801
O O15 0.000000 0.000000 0.332210
O O16 0.250000 0.496468 0.940987
O O17 0.345246 0.606691 0.020683
O O18 0.750000 0.832700 0.667117
#
# Coordination Sequence:
#
# PCOD8183878 Si02
#       8
#     8   8   8   8   8   8   8   8
#     4  11  24  39  59  90 122 157 198 244 303 358
#     4  10  20  38  59  93 112 155 196 244 300 342
#     4  10  20  37  61  87 116 153 196 245 296 351
#     4  11  23  38  60  90 118 158 196 246 301 360
#     4   9  20  39  61  86 116 154 198 244 294 353
#     4  10  22  37  62  85 122 154 191 244 296 365
#     4  11  21  38  62  88 119 153 200 249 290 350
#     4  10  22  39  61  87 119 153 201 252 292 358
#
# _framework density 18.999051999999999
#
# number of rings (size 3 to 8) (size 9 to 14) (size 15 to 20)
#    0.000    1.750    2.500    1.500    5.250    2.500 
#    0.000    0.000    0.000    0.000    0.000    0.000 
#    0.000    0.000    0.000    0.000    0.000    0.000 
#
# Total GULP energy -396794.723813 kJ/mol
# GULP energy per Si atom -12399.835119 kJ/mol
# Density = 1.895581 g / cm^3
# Si number density = 18.999052 Si / 1000 Ang^3
#
#
#
# Elastic Constant Matrix: (Units=GPa)
#
#
# Indices 1 2 3 4 5 6 
#
# 1 100.8694 36.1827 56.2726 0.0000 0.0000 0.0000
# 2 36.1827 77.9928 35.3681 0.0000 0.0000 0.0000
# 3 56.2726 35.3681 100.4678 0.0000 0.0000 0.0000
# 4 0.0000 0.0000 0.0000 18.5167 0.0000 0.0000
# 5 0.0000 0.0000 0.0000 0.0000 13.4166 0.0000
# 6 0.0000 0.0000 0.0000 0.0000 0.0000 24.3766
#
#
#
# Elastic Compliance Matrix: (Units=1/GPa)
#
#
# Indices 1 2 3 4 5 6 
#
# 1 0.015323 -0.003828 -0.007235 0.000000 0.000000 0.000000
# 2 -0.003828 0.016214 -0.003564 0.000000 0.000000 0.000000
# 3 -0.007235 -0.003564 0.015260 0.000000 0.000000 0.000000
# 4 0.000000 0.000000 0.000000 0.054005 0.000000 0.000000
# 5 0.000000 0.000000 0.000000 0.000000 0.074535 0.000000
# 6 0.000000 0.000000 0.000000 0.000000 0.000000 0.041023
#
#
# Mechanical properties :
#
#
# Convention : Reuss Voigt Hill
#
# Bulk Modulus (GPa) = 56.99995 59.44186 58.22090
# Shear Modulus (GPa) = 19.88379 21.36243 20.62311
#
# Velocity S-wave (km/s) = 3.23858 3.35684 3.29824
# Velocity P-wave (km/s) = 6.63710 6.81022 6.72422
#
# Compressibility (1/GPa) = 0.01754388
#
# Stress axis : x y z
#
# Youngs Moduli (GPa) = 65.26081 61.67660 65.52915
#
# Poissons Ratio (x) = 0.23609 0.47411
# Poissons Ratio (y) = 0.24981 0.23353
# Poissons Ratio (z) = 0.47216 0.21980
#
# Static dielectric constant tensor:
#      x y z
#    x 4.173890 0.000000 0.000000 
#    y 0.000000 3.814870 0.000000 
#    z 0.000000 0.000000 3.323730 
# 
# 
# High freq. dielectric constant tensor:
#      x y z
#    x 1.738190 0.000000 0.000000 
#    y 0.000000 1.747350 0.000000 
#    z 0.000000 0.000000 1.729970 
# 
# From -- ./inp_files/13097.got.cif
#   From: 2010.03.12/outbox.cif.g09.slc.cpg/sg40_7_cif.got.tgz:13097.got - 2010.04.14 01:38:03.
