data_PCOD8183306
_publ_section_title
;
Structure prediction by ZEFSAII (Michael W. Deem and Ramdas Pophale) SiO2 
 PCOD8183306
Probable space group: A M A 2
;
_chemical_formula_sum "Si O2"
_cell_formula_units_Z 64
_cell_length_a 8.734010
_cell_length_b 27.231752
_cell_length_c 12.968301
_cell_angle_alpha 90.000000
_cell_angle_beta 90.000000
_cell_angle_gamma 90.000000
_cell_volume 3084.411760
_symmetry_space_group_name_H-M "A M A 2"
_symmetry_group_IT_number 40
_symmetry_cell_setting 'orthorhombic'
loop_
_space_group_symop_operation_xyz
x,y,z
-x,-y,z
1/2-x,y,z
1/2+x,-y,z
x,1/2+y,1/2+z
-x,1/2-y,1/2+z
1/2-x,1/2+y,1/2+z
1/2+x,1/2-y,1/2+z
loop_
_atom_site_type_symbol
_atom_site_label
_atom_site_fract_x
_atom_site_fract_y
_atom_site_fract_z
Si Si1 0.428787 0.624008 0.034610
Si Si2 0.569357 0.872641 0.301359
Si Si3 0.567936 0.697293 0.477067
Si Si4 0.567945 0.449667 0.634922
Si Si5 0.576598 0.765214 0.301883
Si Si6 0.922354 0.724132 0.091070
Si Si7 0.568091 0.088423 0.929496
Si Si8 0.931150 0.052942 0.704085
O O1 0.250000 0.617345 0.056667
O O2 0.470974 0.681334 0.046772
O O3 0.520675 0.591171 0.115884
O O4 0.470926 0.608384 0.917217
O O5 0.750000 0.872294 0.286116
O O6 0.501463 0.907997 0.212399
O O7 0.496858 0.818216 0.282927
O O8 0.750000 0.696920 0.485234
O O9 0.499597 0.737125 0.396618
O O10 0.488665 0.720047 0.577665
O O11 0.507894 0.643636 0.448342
O O12 0.500000 0.500000 0.679206
O O13 0.750000 0.451365 0.633814
O O14 0.508227 0.443935 0.518175
O O15 0.750000 0.778344 0.332538
O O16 0.575129 0.723401 0.214371
O O17 0.750000 0.717845 0.048511
O O18 0.750000 0.084483 0.938278
O O19 0.511298 0.070732 0.816863
O O20 0.750000 0.049154 0.702937
O O21 0.000000 0.000000 0.678011
#
# Coordination Sequence:
#
# PCOD8183306 Si02
#       8
#     8   8   8   8   8   8   8   8
#     4  11  22  40  64  88 122 165 208 252 304 367
#     4   9  19  37  61  86 116 159 205 249 304 361
#     4  10  19  35  58  83 115 156 194 234 291 356
#     4  11  23  40  63  89 118 156 204 256 310 368
#     4   9  17  33  56  80 113 155 193 233 290 354
#     4  11  21  34  56  87 121 158 200 247 295 351
#     4  10  22  40  63  92 126 160 199 253 313 370
#     4  11  24  43  65  91 122 159 205 258 317 372
#
# _framework density 20.749500000000001
#
# number of rings (size 3 to 8) (size 9 to 14) (size 15 to 20)
#    0.000    1.750    1.250    3.375    0.000    6.000 
#    0.000    6.250    0.000    0.000    0.000    0.000 
#    0.000    0.000    0.000    0.000    0.000    0.000 
#
# Total GULP energy -396623.797107 kJ/mol
# GULP energy per Si atom -12394.493660 kJ/mol
# Density = 2.070227 g / cm^3
# Si number density = 20.749500 Si / 1000 Ang^3
#
#
#
# Elastic Constant Matrix: (Units=GPa)
#
#
# Indices 1 2 3 4 5 6 
#
# 1 43.2005 18.5256 23.1228 0.0000 0.0000 0.0000
# 2 18.5256 105.3575 25.5296 0.0000 0.0000 0.0000
# 3 23.1228 25.5296 94.1129 0.0000 0.0000 0.0000
# 4 0.0000 0.0000 0.0000 35.5325 0.0000 0.0000
# 5 0.0000 0.0000 0.0000 0.0000 22.8516 0.0000
# 6 0.0000 0.0000 0.0000 0.0000 0.0000 24.9315
#
#
#
# Elastic Compliance Matrix: (Units=1/GPa)
#
#
# Indices 1 2 3 4 5 6 
#
# 1 0.027782 -0.003458 -0.005888 0.000000 0.000000 0.000000
# 2 -0.003458 0.010590 -0.002023 0.000000 0.000000 0.000000
# 3 -0.005888 -0.002023 0.012621 0.000000 0.000000 0.000000
# 4 0.000000 0.000000 0.000000 0.028143 0.000000 0.000000
# 5 0.000000 0.000000 0.000000 0.000000 0.043761 0.000000
# 6 0.000000 0.000000 0.000000 0.000000 0.000000 0.040110
#
#
# Mechanical properties :
#
#
# Convention : Reuss Voigt Hill
#
# Bulk Modulus (GPa) = 35.39226 41.89186 38.64206
# Shear Modulus (GPa) = 25.61957 28.36264 26.99110
#
# Velocity S-wave (km/s) = 3.51765 3.70118 3.61058
# Velocity P-wave (km/s) = 5.79590 6.20469 6.00377
#
# Compressibility (1/GPa) = 0.02825477
#
# Stress axis : x y z
#
# Youngs Moduli (GPa) = 35.99405 94.43050 79.23391
#
# Poissons Ratio (x) = 0.32658 0.46651
# Poissons Ratio (y) = 0.12448 0.16028
# Poissons Ratio (z) = 0.21192 0.19103
#
# Static dielectric constant tensor:
#      x y z
#    x 3.433460 0.000000 0.000000 
#    y 0.000000 3.991570 0.000000 
#    z 0.000000 0.000000 3.914860 
# 
# 
# High freq. dielectric constant tensor:
#      x y z
#    x 1.784520 0.000000 0.000000 
#    y 0.000000 1.821170 0.000000 
#    z 0.000000 0.000000 1.825400 
# 
# From -- ./inp_files/10606.got.cif
#   From: 2010.03.12/outbox.cif.g09.slc.cpg/sg40_6_cif.got.tgz:10606.got - 2010.04.14 01:38:03.
