data_PCOD8183570
_publ_section_title
;
Structure prediction by ZEFSAII (Michael W. Deem and Ramdas Pophale) SiO2 
 PCOD8183570
Probable space group: A M A 2
;
_chemical_formula_sum "Si O2"
_cell_formula_units_Z 64
_cell_length_a 8.880895
_cell_length_b 19.617363
_cell_length_c 20.245753
_cell_angle_alpha 90.000000
_cell_angle_beta 90.000000
_cell_angle_gamma 90.000000
_cell_volume 3527.209844
_symmetry_space_group_name_H-M "A M A 2"
_symmetry_group_IT_number 40
_symmetry_cell_setting 'orthorhombic'
loop_
_space_group_symop_operation_xyz
x,y,z
-x,-y,z
1/2-x,y,z
1/2+x,-y,z
x,1/2+y,1/2+z
-x,1/2-y,1/2+z
1/2-x,1/2+y,1/2+z
1/2+x,1/2-y,1/2+z
loop_
_atom_site_type_symbol
_atom_site_label
_atom_site_fract_x
_atom_site_fract_y
_atom_site_fract_z
Si Si1 0.076607 0.295082 0.087280
Si Si2 0.075339 0.570729 0.128358
Si Si3 0.071978 0.293947 0.324266
Si Si4 0.424580 0.570856 0.282933
Si Si5 0.426328 0.432612 0.891247
Si Si6 0.922871 0.712943 0.937497
Si Si7 0.925481 0.566955 0.741182
Si Si8 0.927533 0.215022 0.202835
O O1 0.250000 0.298243 0.110048
O O2 0.008593 0.370601 0.088275
O O3 0.983965 0.245552 0.134456
O O4 0.061534 0.265283 0.013608
O O5 0.250000 0.568892 0.109077
O O6 0.052643 0.585627 0.205649
O O7 0.000000 0.500000 0.107537
O O8 0.250000 0.297217 0.317022
O O9 0.005929 0.369897 0.323453
O O10 0.027911 0.261377 0.394211
O O11 0.005896 0.249769 0.264888
O O12 0.500000 0.500000 0.303704
O O13 0.250000 0.568403 0.302158
O O14 0.500000 0.500000 0.923632
O O15 0.250000 0.443065 0.894882
O O16 0.476915 0.365401 0.930629
O O17 0.483760 0.423800 0.816063
O O18 0.750000 0.719544 0.912788
O O19 0.750000 0.554281 0.740153
O O20 0.968549 0.634934 0.701041
O O21 0.000000 0.500000 0.708179
O O22 0.750000 0.227570 0.210286
#
# Coordination Sequence:
#
# PCOD8183570 Si02
#       8
#     8   8   8   8   8   8   8   8
#     4  11  23  37  56  82 112 149 191 235 280 333
#     4  10  20  34  54  78 112 153 189 230 276 332
#     4  12  23  35  58  87 112 144 190 236 277 331
#     4  10  20  35  57  84 115 148 182 229 283 334
#     4   9  17  32  51  74 106 144 182 220 266 323
#     4  10  22  40  56  76 113 153 187 229 283 333
#     4   9  18  32  54  80 108 140 177 221 274 326
#     4  11  21  37  58  81 112 149 184 228 283 334
#
# _framework density 18.144653999999999
#
# number of rings (size 3 to 8) (size 9 to 14) (size 15 to 20)
#    0.000    1.750    2.500    2.625    0.000    4.000 
#    0.000    1.250    0.000    0.750    0.000    1.750 
#    0.000    0.000    0.000    0.000    0.000    0.000 
#
# Total GULP energy -396900.404136 kJ/mol
# GULP energy per Si atom -12403.137629 kJ/mol
# Density = 1.810336 g / cm^3
# Si number density = 18.144654 Si / 1000 Ang^3
#
#
#
# Elastic Constant Matrix: (Units=GPa)
#
#
# Indices 1 2 3 4 5 6 
#
# 1 112.2815 66.8951 37.9750 0.0000 0.0000 0.0000
# 2 66.8951 128.9817 45.8337 0.0000 0.0000 0.0000
# 3 37.9750 45.8337 68.5850 0.0000 0.0000 0.0000
# 4 0.0000 0.0000 0.0000 24.3894 0.0000 0.0000
# 5 0.0000 0.0000 0.0000 0.0000 51.5609 0.0000
# 6 0.0000 0.0000 0.0000 0.0000 0.0000 37.4180
#
#
#
# Elastic Compliance Matrix: (Units=1/GPa)
#
#
# Indices 1 2 3 4 5 6 
#
# 1 0.013563 -0.005725 -0.003684 0.000000 0.000000 0.000000
# 2 -0.005725 0.012584 -0.005240 0.000000 0.000000 0.000000
# 3 -0.003684 -0.005240 0.020122 0.000000 0.000000 0.000000
# 4 0.000000 0.000000 0.000000 0.041001 0.000000 0.000000
# 5 0.000000 0.000000 0.000000 0.000000 0.019395 0.000000
# 6 0.000000 0.000000 0.000000 0.000000 0.000000 0.026725
#
#
# Mechanical properties :
#
#
# Convention : Reuss Voigt Hill
#
# Bulk Modulus (GPa) = 58.92199 67.91729 63.41964
# Shear Modulus (GPa) = 29.70090 33.28327 31.49209
#
# Velocity S-wave (km/s) = 4.05025 4.28755 4.17059
# Velocity P-wave (km/s) = 7.37676 7.87547 7.63019
#
# Compressibility (1/GPa) = 0.01697159
#
# Stress axis : x y z
#
# Youngs Moduli (GPa) = 73.72939 79.46350 49.69771
#
# Poissons Ratio (x) = 0.45496 0.18307
# Poissons Ratio (y) = 0.42213 0.26040
# Poissons Ratio (z) = 0.27159 0.41637
#
# Static dielectric constant tensor:
#      x y z
#    x -0.184600 0.000000 0.000000 
#    y 0.000000 3.490880 0.000000 
#    z 0.000000 0.000000 3.104700 
# 
# 
# High freq. dielectric constant tensor:
#      x y z
#    x 1.711530 0.000000 0.000000 
#    y 0.000000 1.710220 0.000000 
#    z 0.000000 0.000000 1.673390 
# 
# From -- ./inp_files/19640.got.cif
#   From: 2010.03.12/outbox.cif.g09.slc.cpg/sg40_10_cif.got.tgz:19640.got - 2010.04.14 01:38:03.
