data_PCOD8183278
_publ_section_title
;
Structure prediction by ZEFSAII (Michael W. Deem and Ramdas Pophale) SiO2 
 PCOD8183278
Probable space group: A M A 2
;
_chemical_formula_sum "Si O2"
_cell_formula_units_Z 48
_cell_length_a 17.184605
_cell_length_b 9.797353
_cell_length_c 15.408128
_cell_angle_alpha 90.000000
_cell_angle_beta 90.000000
_cell_angle_gamma 90.000000
_cell_volume 2594.168536
_symmetry_space_group_name_H-M "A M A 2"
_symmetry_group_IT_number 40
_symmetry_cell_setting 'orthorhombic'
loop_
_space_group_symop_operation_xyz
x,y,z
-x,-y,z
1/2-x,y,z
1/2+x,-y,z
x,1/2+y,1/2+z
-x,1/2-y,1/2+z
1/2-x,1/2+y,1/2+z
1/2+x,1/2-y,1/2+z
loop_
_atom_site_type_symbol
_atom_site_label
_atom_site_fract_x
_atom_site_fract_y
_atom_site_fract_z
Si Si1 0.907004 0.294092 0.563520
Si Si2 0.661406 0.182224 0.315447
Si Si3 0.661374 0.052757 0.128788
Si Si4 0.068383 0.734056 0.020634
Si Si5 0.662519 0.534207 0.992160
Si Si6 0.035241 0.139852 0.888497
O O1 0.878565 0.403212 0.633863
O O2 0.849250 0.165707 0.553898
O O3 0.910493 0.382124 0.473575
O O4 0.993337 0.236322 0.585257
O O5 0.750000 0.242183 0.324697
O O6 0.645272 0.074866 0.392672
O O7 0.592776 0.295407 0.316719
O O8 0.651688 0.109927 0.224387
O O9 0.750000 0.031060 0.102243
O O10 0.627290 0.152655 0.055748
O O11 0.037820 0.766468 0.921986
O O12 0.105497 0.585176 0.021659
O O13 0.750000 0.480740 0.003642
O O14 0.000000 0.000000 0.850661
#
# Coordination Sequence:
#
# PCOD8183278 Si02
#       6
#     8   8   8   8   8   8
#     4   9  18  34  54  82 112 141 189 227 276 331
#     4   9  21  36  58  83 112 148 187 234 287 336
#     4  11  20  36  58  84 113 144 184 235 288 337
#     4  10  19  35  52  86 110 145 183 234 275 331
#     4  10  19  35  57  82 110 150 191 229 276 333
#     4   9  17  36  55  81 114 145 192 229 274 340
#
# _framework density 18.503038
#
# number of rings (size 3 to 8) (size 9 to 14) (size 15 to 20)
#    1.000    1.333    1.667    2.000    0.000    0.667 
#    6.000    1.667    0.000    0.000    0.000    0.000 
#    0.000    0.000    0.000    0.000    0.000    0.000 
#
# Total GULP energy -297313.979526 kJ/mol
# GULP energy per Si atom -12388.082480 kJ/mol
# Density = 1.846092 g / cm^3
# Si number density = 18.503038 Si / 1000 Ang^3
#
#
#
# Elastic Constant Matrix: (Units=GPa)
#
#
# Indices 1 2 3 4 5 6 
#
# 1 134.9899 77.8097 41.9833 0.0000 0.0000 0.0000
# 2 77.8097 135.7161 42.4951 0.0000 0.0000 0.0000
# 3 41.9833 42.4951 41.7828 0.0000 0.0000 0.0000
# 4 0.0000 0.0000 0.0000 16.6364 0.0000 0.0000
# 5 0.0000 0.0000 0.0000 0.0000 18.9722 0.0000
# 6 0.0000 0.0000 0.0000 0.0000 0.0000 42.3309
#
#
#
# Elastic Compliance Matrix: (Units=1/GPa)
#
#
# Indices 1 2 3 4 5 6 
#
# 1 0.012582 -0.004776 -0.007785 0.000000 0.000000 0.000000
# 2 -0.004776 0.012624 -0.008040 0.000000 0.000000 0.000000
# 3 -0.007785 -0.008040 0.039933 0.000000 0.000000 0.000000
# 4 0.000000 0.000000 0.000000 0.060109 0.000000 0.000000
# 5 0.000000 0.000000 0.000000 0.000000 0.052709 0.000000
# 6 0.000000 0.000000 0.000000 0.000000 0.000000 0.023623
#
#
# Mechanical properties :
#
#
# Convention : Reuss Voigt Hill
#
# Bulk Modulus (GPa) = 41.77730 70.78500 56.28115
# Shear Modulus (GPa) = 19.93920 25.60130 22.77025
#
# Velocity S-wave (km/s) = 3.28627 3.72375 3.51183
# Velocity P-wave (km/s) = 6.08499 7.53839 6.85034
#
# Compressibility (1/GPa) = 0.02393644
#
# Stress axis : x y z
#
# Youngs Moduli (GPa) = 79.47752 79.21335 25.04188
#
# Poissons Ratio (x) = 0.37833 0.19495
# Poissons Ratio (y) = 0.37959 0.20135
# Poissons Ratio (z) = 0.61874 0.63690
#
# Static dielectric constant tensor:
#      x y z
#    x 3.636040 0.000000 0.000000 
#    y 0.000000 3.203690 0.000000 
#    z 0.000000 0.000000 3.021760 
# 
# 
# High freq. dielectric constant tensor:
#      x y z
#    x 1.732310 0.000000 0.000000 
#    y 0.000000 1.710290 0.000000 
#    z 0.000000 0.000000 1.677310 
# 
# From -- ./inp_files/17612.got.cif
#   From: 2010.03.12/outbox.cif.g09.slc.cpg/sg40_9_cif.got.tgz:17612.got - 2010.04.14 01:38:03.
