data_PCOD8183177
_publ_section_title
;
Structure prediction by ZEFSAII (Michael W. Deem and Ramdas Pophale) SiO2 
 PCOD8183177
Probable space group: A M A 2
;
_chemical_formula_sum "Si O2"
_cell_formula_units_Z 64
_cell_length_a 18.267994
_cell_length_b 9.847130
_cell_length_c 17.589542
_cell_angle_alpha 90.000000
_cell_angle_beta 90.000000
_cell_angle_gamma 90.000000
_cell_volume 3164.135425
_symmetry_space_group_name_H-M "A M A 2"
_symmetry_group_IT_number 40
_symmetry_cell_setting 'orthorhombic'
loop_
_space_group_symop_operation_xyz
x,y,z
-x,-y,z
1/2-x,y,z
1/2+x,-y,z
x,1/2+y,1/2+z
-x,1/2-y,1/2+z
1/2-x,1/2+y,1/2+z
1/2+x,1/2-y,1/2+z
loop_
_atom_site_type_symbol
_atom_site_label
_atom_site_fract_x
_atom_site_fract_y
_atom_site_fract_z
Si Si1 0.167549 0.528228 0.117370
Si Si2 0.831825 0.905645 0.441212
Si Si3 0.335921 0.848747 0.348104
Si Si4 0.071766 0.829838 0.950780
Si Si5 0.408776 0.135208 0.946305
Si Si6 0.398772 0.232300 0.119162
Si Si7 0.065344 0.259825 0.619035
Si Si8 0.664024 0.528392 0.686703
O O1 0.250000 0.540628 0.151816
O O2 0.138081 0.377985 0.130105
O O3 0.110564 0.633867 0.156704
O O4 0.170134 0.576253 0.030928
O O5 0.750000 0.886855 0.408831
O O6 0.875863 0.776116 0.407478
O O7 0.867524 0.041500 0.407383
O O8 0.250000 0.838826 0.350419
O O9 0.363776 0.702866 0.377316
O O10 0.361237 0.902977 0.265980
O O11 0.991443 0.846402 0.916267
O O12 0.111378 0.975969 0.953053
O O13 0.057769 0.750600 0.029215
O O14 0.392382 0.195587 0.029894
O O15 0.482356 0.234466 0.150521
O O16 0.354035 0.130509 0.174669
O O17 0.111509 0.397596 0.627258
O O18 0.750000 0.553674 0.671091
#
# Coordination Sequence:
#
# PCOD8183177 Si02
#       8
#     8   8   8   8   8   8   8   8
#     4  10  19  33  58  89 116 149 197 247 297 351
#     4   9  18  34  53  83 118 147 187 238 291 348
#     4  10  22  39  57  83 119 155 195 242 294 359
#     4   9  19  34  57  86 113 146 191 248 297 343
#     4  10  19  36  58  84 116 150 196 247 293 351
#     4  11  20  36  60  88 118 153 200 251 296 355
#     4  10  20  37  57  85 120 153 192 248 303 350
#     4  11  23  39  58  84 120 159 198 245 301 361
#
# _framework density 20.226693999999998
#
# number of rings (size 3 to 8) (size 9 to 14) (size 15 to 20)
#    0.000    2.000    2.500    1.500    0.000    2.000 
#    4.500    1.250    2.750    3.000    0.000    0.000 
#    0.000    0.000    0.000    0.000    0.000    0.000 
#
# Total GULP energy -396460.436530 kJ/mol
# GULP energy per Si atom -12389.388642 kJ/mol
# Density = 2.018066 g / cm^3
# Si number density = 20.226694 Si / 1000 Ang^3
#
#
#
# Elastic Constant Matrix: (Units=GPa)
#
#
# Indices 1 2 3 4 5 6 
#
# 1 94.6351 35.2584 17.5345 0.0000 0.0000 0.0000
# 2 35.2584 122.6166 9.6846 0.0000 0.0000 0.0000
# 3 17.5345 9.6846 38.5602 0.0000 0.0000 0.0000
# 4 0.0000 0.0000 0.0000 25.9037 0.0000 0.0000
# 5 0.0000 0.0000 0.0000 0.0000 17.6490 0.0000
# 6 0.0000 0.0000 0.0000 0.0000 0.0000 41.2721
#
#
#
# Elastic Compliance Matrix: (Units=1/GPa)
#
#
# Indices 1 2 3 4 5 6 
#
# 1 0.012700 -0.003260 -0.004956 0.000000 0.000000 0.000000
# 2 -0.003260 0.009158 -0.000817 0.000000 0.000000 0.000000
# 3 -0.004956 -0.000817 0.028392 0.000000 0.000000 0.000000
# 4 0.000000 0.000000 0.000000 0.038604 0.000000 0.000000
# 5 0.000000 0.000000 0.000000 0.000000 0.056661 0.000000
# 6 0.000000 0.000000 0.000000 0.000000 0.000000 0.024229
#
#
# Mechanical properties :
#
#
# Convention : Reuss Voigt Hill
#
# Bulk Modulus (GPa) = 31.07318 42.30744 36.69031
# Shear Modulus (GPa) = 25.18386 29.85390 27.51888
#
# Velocity S-wave (km/s) = 3.53240 3.84600 3.69253
# Velocity P-wave (km/s) = 5.65976 6.37843 6.02981
#
# Compressibility (1/GPa) = 0.03218210
#
# Stress axis : x y z
#
# Youngs Moduli (GPa) = 78.74046 109.19898 35.22057
#
# Poissons Ratio (x) = 0.35603 0.17456
# Poissons Ratio (y) = 0.25673 0.02879
# Poissons Ratio (z) = 0.39025 0.08926
#
# Static dielectric constant tensor:
#      x y z
#    x 3.953430 0.000000 0.000000 
#    y 0.000000 3.836000 0.000000 
#    z 0.000000 0.000000 3.296480 
# 
# 
# High freq. dielectric constant tensor:
#      x y z
#    x 1.796070 0.000000 0.000000 
#    y 0.000000 1.803680 0.000000 
#    z 0.000000 0.000000 1.743360 
# 
# From -- ./inp_files/21391.got.cif
#   From: 2010.03.12/outbox.cif.g09.slc.cpg/sg40_11_cif.got.tgz:21391.got - 2010.04.14 01:38:03.
