data_PCOD8183794
_publ_section_title
;
Structure prediction by ZEFSAII (Michael W. Deem and Ramdas Pophale) SiO2 
 PCOD8183794
Probable space group: A M A 2
;
_chemical_formula_sum "Si O2"
_cell_formula_units_Z 64
_cell_length_a 16.902126
_cell_length_b 8.837919
_cell_length_c 20.907680
_cell_angle_alpha 90.000000
_cell_angle_beta 90.000000
_cell_angle_gamma 90.000000
_cell_volume 3123.181304
_symmetry_space_group_name_H-M "A M A 2"
_symmetry_group_IT_number 40
_symmetry_cell_setting 'orthorhombic'
loop_
_space_group_symop_operation_xyz
x,y,z
-x,-y,z
1/2-x,y,z
1/2+x,-y,z
x,1/2+y,1/2+z
-x,1/2-y,1/2+z
1/2-x,1/2+y,1/2+z
1/2+x,1/2-y,1/2+z
loop_
_atom_site_type_symbol
_atom_site_label
_atom_site_fract_x
_atom_site_fract_y
_atom_site_fract_z
Si Si1 0.415681 0.580584 0.859570
Si Si2 0.842703 0.882153 0.740026
Si Si3 0.085908 0.440483 0.352895
Si Si4 0.157111 0.595336 0.991200
Si Si5 0.155929 0.933607 0.616508
Si Si6 0.843260 0.902463 0.112754
Si Si7 0.656355 0.559252 0.485633
Si Si8 0.089882 0.942194 0.233861
O O1 0.500000 0.500000 0.859726
O O2 0.416911 0.760200 0.853450
O O3 0.372967 0.527125 0.924217
O O4 0.370291 0.521032 0.796187
O O5 0.750000 0.835867 0.736464
O O6 0.900006 0.737034 0.744877
O O7 0.854433 0.995231 0.799599
O O8 0.871532 0.967479 0.676315
O O9 0.114627 0.502270 0.421651
O O10 0.000000 0.500000 0.336306
O O11 0.250000 0.577390 0.991391
O O12 0.131394 0.768489 0.998843
O O13 0.120703 0.503254 0.050904
O O14 0.250000 0.929300 0.613319
O O15 0.121518 0.764387 0.624867
O O16 0.750000 0.897697 0.107175
O O17 0.864694 0.014546 0.169733
O O18 0.876680 0.963489 0.045313
O O19 0.750000 0.544268 0.476345
O O20 0.000000 0.000000 0.227139
#
# Coordination Sequence:
#
# PCOD8183794 Si02
#       8
#     8   8   8   8   8   8   8   8
#     4  10  22  39  56  81 117 154 192 236 293 358
#     4  11  23  40  63  89 119 159 206 253 307 372
#     4  11  22  38  60  85 119 156 194 247 303 357
#     4   9  18  35  58  81 108 146 191 238 288 345
#     4   9  19  35  57  85 113 144 187 240 294 349
#     4  10  20  36  59  85 115 151 195 247 298 356
#     4   9  19  36  58  83 113 152 195 240 294 357
#     4  11  23  39  58  83 118 156 199 249 304 364
#
# _framework density 20.491927
#
# number of rings (size 3 to 8) (size 9 to 14) (size 15 to 20)
#    0.000    2.000    0.000    3.750    0.000    6.000 
#    0.000    4.375    0.000    0.000    0.000    0.000 
#    0.000    0.000    0.000    0.000    0.000    0.000 
#
# Total GULP energy -396766.267655 kJ/mol
# GULP energy per Si atom -12398.945864 kJ/mol
# Density = 2.044529 g / cm^3
# Si number density = 20.491927 Si / 1000 Ang^3
#
#
#
# Elastic Constant Matrix: (Units=GPa)
#
#
# Indices 1 2 3 4 5 6 
#
# 1 24.0355 22.7975 19.0012 0.0000 0.0000 0.0000
# 2 22.7975 115.9602 67.2569 0.0000 0.0000 0.0000
# 3 19.0012 67.2569 189.3316 0.0000 0.0000 0.0000
# 4 0.0000 0.0000 0.0000 33.6475 0.0000 0.0000
# 5 0.0000 0.0000 0.0000 0.0000 21.0198 0.0000
# 6 0.0000 0.0000 0.0000 0.0000 0.0000 27.2734
#
#
#
# Elastic Compliance Matrix: (Units=1/GPa)
#
#
# Indices 1 2 3 4 5 6 
#
# 1 0.051729 -0.009017 -0.001989 0.000000 0.000000 0.000000
# 2 -0.009017 0.012433 -0.003512 0.000000 0.000000 0.000000
# 3 -0.001989 -0.003512 0.006729 0.000000 0.000000 0.000000
# 4 0.000000 0.000000 0.000000 0.029720 0.000000 0.000000
# 5 0.000000 0.000000 0.000000 0.000000 0.047574 0.000000
# 6 0.000000 0.000000 0.000000 0.000000 0.000000 0.036666
#
#
# Mechanical properties :
#
#
# Convention : Reuss Voigt Hill
#
# Bulk Modulus (GPa) = 23.89057 60.82652 42.35854
# Shear Modulus (GPa) = 21.94550 31.07292 26.50921
#
# Velocity S-wave (km/s) = 3.27606 3.89826 3.60063
# Velocity P-wave (km/s) = 5.09843 7.07174 6.16455
#
# Compressibility (1/GPa) = 0.04185752
#
# Stress axis : x y z
#
# Youngs Moduli (GPa) = 19.33141 80.43049 148.61484
#
# Poissons Ratio (x) = 0.72520 0.29553
# Poissons Ratio (y) = 0.17430 0.52190
# Poissons Ratio (z) = 0.03844 0.28245
#
# Static dielectric constant tensor:
#      x y z
#    x 3.386780 0.000000 0.000000 
#    y 0.000000 3.881720 0.000000 
#    z 0.000000 0.000000 4.251460 
# 
# 
# High freq. dielectric constant tensor:
#      x y z
#    x 1.771680 0.000000 0.000000 
#    y 0.000000 1.806620 0.000000 
#    z 0.000000 0.000000 1.825810 
# 
# From -- ./inp_files/21386.got.cif
#   From: 2010.03.12/outbox.cif.g09.slc.cpg/sg40_11_cif.got.tgz:21386.got - 2010.04.14 01:38:03.
