data_PCOD8183288
_publ_section_title
;
Structure prediction by ZEFSAII (Michael W. Deem and Ramdas Pophale) SiO2 
 PCOD8183288
Probable space group: A M A 2
;
_chemical_formula_sum "Si O2"
_cell_formula_units_Z 56
_cell_length_a 22.363387
_cell_length_b 15.554669
_cell_length_c 8.219762
_cell_angle_alpha 90.000000
_cell_angle_beta 90.000000
_cell_angle_gamma 90.000000
_cell_volume 2859.285989
_symmetry_space_group_name_H-M "A M A 2"
_symmetry_group_IT_number 40
_symmetry_cell_setting 'orthorhombic'
loop_
_space_group_symop_operation_xyz
x,y,z
-x,-y,z
1/2-x,y,z
1/2+x,-y,z
x,1/2+y,1/2+z
-x,1/2-y,1/2+z
1/2-x,1/2+y,1/2+z
1/2+x,1/2-y,1/2+z
loop_
_atom_site_type_symbol
_atom_site_label
_atom_site_fract_x
_atom_site_fract_y
_atom_site_fract_z
Si Si1 0.381987 0.685679 0.804700
Si Si2 0.529931 0.910296 0.518517
Si Si3 0.609985 0.377971 0.322057
Si Si4 0.816944 0.110547 0.329844
Si Si5 0.582327 0.208668 0.513058
Si Si6 0.314483 0.729015 0.104878
Si Si7 0.319436 0.550645 0.611226
O O1 0.410942 0.759462 0.696526
O O2 0.328147 0.640627 0.705558
O O3 0.426143 0.611085 0.868781
O O4 0.360140 0.738782 0.958857
O O5 0.562567 0.918451 0.695040
O O6 0.481394 0.835576 0.512171
O O7 0.500000 0.000000 0.476977
O O8 0.580357 0.292329 0.397972
O O9 0.668608 0.348398 0.225103
O O10 0.634272 0.446547 0.456669
O O11 0.750000 0.099199 0.407909
O O12 0.865094 0.140328 0.465420
O O13 0.813622 0.180633 0.191241
O O14 0.837581 0.024273 0.237278
O O15 0.250000 0.705251 0.033957
O O16 0.250000 0.542164 0.555634
#
# Coordination Sequence:
#
# PCOD8183288 Si02
#       7
#     8   8   8   8   8   8   8
#     4  10  21  34  55  81 105 141 184 223 274 330
#     4  11  22  37  54  77 110 142 182 232 276 324
#     4   9  20  35  54  77 104 144 186 219 270 331
#     4   9  19  34  55  81 110 141 178 222 274 327
#     4  10  20  37  56  76 107 144 182 226 272 331
#     4   9  17  32  52  77 106 138 175 221 269 325
#     4  10  19  35  56  81 110 140 177 225 275 326
#
# _framework density 19.585308999999999
#
# number of rings (size 3 to 8) (size 9 to 14) (size 15 to 20)
#    0.000    2.286    0.000    2.571    0.000    5.143 
#    0.000    7.143    0.000    7.714    0.000    0.000 
#    0.000    0.000    0.000    0.000    0.000    0.000 
#
# Total GULP energy -347009.674154 kJ/mol
# GULP energy per Si atom -12393.202648 kJ/mol
# Density = 1.954073 g / cm^3
# Si number density = 19.585309 Si / 1000 Ang^3
#
#
#
# Elastic Constant Matrix: (Units=GPa)
#
#
# Indices 1 2 3 4 5 6 
#
# 1 94.0900 33.3926 38.2104 0.0000 0.0000 0.0000
# 2 33.3926 58.2828 22.3383 0.0000 0.0000 0.0000
# 3 38.2104 22.3383 97.6827 0.0000 0.0000 0.0000
# 4 0.0000 0.0000 0.0000 26.7441 0.0000 0.0000
# 5 0.0000 0.0000 0.0000 0.0000 8.3982 0.0000
# 6 0.0000 0.0000 0.0000 0.0000 0.0000 13.8394
#
#
#
# Elastic Compliance Matrix: (Units=1/GPa)
#
#
# Indices 1 2 3 4 5 6 
#
# 1 0.014768 -0.006847 -0.004211 0.000000 0.000000 0.000000
# 2 -0.006847 0.021981 -0.002348 0.000000 0.000000 0.000000
# 3 -0.004211 -0.002348 0.012421 0.000000 0.000000 0.000000
# 4 0.000000 0.000000 0.000000 0.037391 0.000000 0.000000
# 5 0.000000 0.000000 0.000000 0.000000 0.119073 0.000000
# 6 0.000000 0.000000 0.000000 0.000000 0.000000 0.072258
#
#
# Mechanical properties :
#
#
# Convention : Reuss Voigt Hill
#
# Bulk Modulus (GPa) = 44.72777 48.65978 46.69378
# Shear Modulus (GPa) = 16.01753 20.20396 18.11074
#
# Velocity S-wave (km/s) = 2.86288 3.21532 3.04420
# Velocity P-wave (km/s) = 5.81508 6.21959 6.02073
#
# Compressibility (1/GPa) = 0.02235748
#
# Stress axis : x y z
#
# Youngs Moduli (GPa) = 67.71210 45.49408 80.50602
#
# Poissons Ratio (x) = 0.31152 0.33901
# Poissons Ratio (y) = 0.46366 0.18904
# Poissons Ratio (z) = 0.28514 0.10683
#
# Static dielectric constant tensor:
#      x y z
#    x 3.730530 0.000000 0.000000 
#    y 0.000000 3.465260 0.000000 
#    z 0.000000 0.000000 3.748780 
# 
# 
# High freq. dielectric constant tensor:
#      x y z
#    x 1.767540 0.000000 0.000000 
#    y 0.000000 1.755280 0.000000 
#    z 0.000000 0.000000 1.761230 
# 
# From -- ./inp_files/8312.got.cif
#   From: 2010.03.12/outbox.cif.g09.slc.cpg/sg40_5_cif.got.tgz:8312.got - 2010.04.14 01:38:03.
