data_PCOD8183077
_publ_section_title
;
Structure prediction by ZEFSAII (Michael W. Deem and Ramdas Pophale) SiO2 
 PCOD8183077
Probable space group: A M A 2
;
_chemical_formula_sum "Si O2"
_cell_formula_units_Z 64
_cell_length_a 8.623407
_cell_length_b 23.367844
_cell_length_c 18.999831
_cell_angle_alpha 90.000000
_cell_angle_beta 90.000000
_cell_angle_gamma 90.000000
_cell_volume 3828.664106
_symmetry_space_group_name_H-M "A M A 2"
_symmetry_group_IT_number 40
_symmetry_cell_setting 'orthorhombic'
loop_
_space_group_symop_operation_xyz
x,y,z
-x,-y,z
1/2-x,y,z
1/2+x,-y,z
x,1/2+y,1/2+z
-x,1/2-y,1/2+z
1/2-x,1/2+y,1/2+z
1/2+x,1/2-y,1/2+z
loop_
_atom_site_type_symbol
_atom_site_label
_atom_site_fract_x
_atom_site_fract_y
_atom_site_fract_z
Si Si1 0.932946 0.562907 0.896720
Si Si2 0.430577 0.279163 0.690573
Si Si3 0.567256 0.333414 0.267360
Si Si4 0.069471 0.384164 0.046143
Si Si5 0.429513 0.239594 0.541191
Si Si6 0.932153 0.766362 0.899100
Si Si7 0.931546 0.337896 0.814101
Si Si8 0.432738 0.561159 0.182130
O O1 0.750000 0.562237 0.884825
O O2 0.000000 0.500000 0.892909
O O3 0.014235 0.598820 0.834785
O O4 0.979087 0.590811 0.970964
O O5 0.250000 0.287384 0.708903
O O6 0.492075 0.217500 0.717175
O O7 0.461873 0.281817 0.607035
O O8 0.526580 0.327966 0.731771
O O9 0.750000 0.336466 0.260199
O O10 0.520340 0.319383 0.348112
O O11 0.497971 0.393283 0.239047
O O12 0.250000 0.392618 0.061199
O O13 0.029951 0.317417 0.048271
O O14 0.976156 0.419896 0.103759
O O15 0.250000 0.221498 0.539033
O O16 0.475963 0.274609 0.471654
O O17 0.750000 0.765488 0.914831
O O18 0.975382 0.706764 0.862440
O O19 0.750000 0.330064 0.827003
O O20 0.500000 0.500000 0.202121
O O21 0.250000 0.557385 0.187129
#
# Coordination Sequence:
#
# PCOD8183077 Si02
#       8
#     8   8   8   8   8   8   8   8
#     4  11  23  37  52  71 100 138 176 215 252 298
#     4   9  18  34  52  71  99 134 165 203 256 307
#     4   8  16  32  50  67  94 133 167 201 251 299
#     4  11  22  34  49  72 102 138 175 210 245 293
#     4  11  20  32  52  77 104 136 168 206 255 307
#     4  10  19  33  51  72 100 133 168 209 255 304
#     4  11  21  33  51  75 100 131 170 213 253 301
#     4  11  21  35  51  71  99 136 176 214 252 297
#
# _framework density 16.716014000000001
#
# number of rings (size 3 to 8) (size 9 to 14) (size 15 to 20)
#    0.000    1.750    2.500    4.125    0.000    3.500 
#    0.000    1.875    0.000    0.000    0.000    0.875 
#    0.000    4.000    0.000    0.000    0.000    0.000 
#
# Total GULP energy -396809.280884 kJ/mol
# GULP energy per Si atom -12400.290028 kJ/mol
# Density = 1.667797 g / cm^3
# Si number density = 16.716014 Si / 1000 Ang^3
#
#
#
# Elastic Constant Matrix: (Units=GPa)
#
#
# Indices 1 2 3 4 5 6 
#
# 1 47.8191 30.9695 32.7180 0.0000 0.0000 0.0000
# 2 30.9695 82.3827 47.5059 0.0000 0.0000 0.0000
# 3 32.7180 47.5059 108.0135 0.0000 0.0000 0.0000
# 4 0.0000 0.0000 0.0000 26.1414 0.0000 0.0000
# 5 0.0000 0.0000 0.0000 0.0000 24.3074 0.0000
# 6 0.0000 0.0000 0.0000 0.0000 0.0000 20.4260
#
#
#
# Elastic Compliance Matrix: (Units=1/GPa)
#
#
# Indices 1 2 3 4 5 6 
#
# 1 0.029906 -0.008064 -0.005512 0.000000 0.000000 0.000000
# 2 -0.008064 0.018437 -0.005666 0.000000 0.000000 0.000000
# 3 -0.005512 -0.005666 0.013420 0.000000 0.000000 0.000000
# 4 0.000000 0.000000 0.000000 0.038253 0.000000 0.000000
# 5 0.000000 0.000000 0.000000 0.000000 0.041140 0.000000
# 6 0.000000 0.000000 0.000000 0.000000 0.000000 0.048957
#
#
# Mechanical properties :
#
#
# Convention : Reuss Voigt Hill
#
# Bulk Modulus (GPa) = 42.95795 51.17802 47.06799
# Shear Modulus (GPa) = 21.15434 22.64308 21.89871
#
# Velocity S-wave (km/s) = 3.56126 3.68445 3.62338
# Velocity P-wave (km/s) = 6.53182 6.98447 6.76193
#
# Compressibility (1/GPa) = 0.02327858
#
# Stress axis : x y z
#
# Youngs Moduli (GPa) = 33.43810 54.23771 74.51576
#
# Poissons Ratio (x) = 0.43736 0.41075
# Poissons Ratio (y) = 0.26964 0.42224
# Poissons Ratio (z) = 0.18432 0.30734
#
# Static dielectric constant tensor:
#      x y z
#    x 3.119240 0.000000 0.000000 
#    y 0.000000 3.135710 0.000000 
#    z 0.000000 0.000000 3.380090 
# 
# 
# High freq. dielectric constant tensor:
#      x y z
#    x 1.648280 0.000000 0.000000 
#    y 0.000000 1.616280 0.000000 
#    z 0.000000 0.000000 1.641730 
# 
# From -- ./inp_files/19611.got.cif
#   From: 2010.03.12/outbox.cif.g09.slc.cpg/sg40_10_cif.got.tgz:19611.got - 2010.04.14 01:38:03.
