data_PCOD8183034
_publ_section_title
;
Structure prediction by ZEFSAII (Michael W. Deem and Ramdas Pophale) SiO2 
 PCOD8183034
Probable space group: A M A 2
;
_chemical_formula_sum "Si O2"
_cell_formula_units_Z 64
_cell_length_a 8.685144
_cell_length_b 23.058861
_cell_length_c 18.976667
_cell_angle_alpha 90.000000
_cell_angle_beta 90.000000
_cell_angle_gamma 90.000000
_cell_volume 3800.448148
_symmetry_space_group_name_H-M "A M A 2"
_symmetry_group_IT_number 40
_symmetry_cell_setting 'orthorhombic'
loop_
_space_group_symop_operation_xyz
x,y,z
-x,-y,z
1/2-x,y,z
1/2+x,-y,z
x,1/2+y,1/2+z
-x,1/2-y,1/2+z
1/2-x,1/2+y,1/2+z
1/2+x,1/2-y,1/2+z
loop_
_atom_site_type_symbol
_atom_site_label
_atom_site_fract_x
_atom_site_fract_y
_atom_site_fract_z
Si Si1 0.429321 0.338444 0.847590
Si Si2 0.432276 0.384772 0.072986
Si Si3 0.928141 0.276717 0.723368
Si Si4 0.069786 0.061481 0.713085
Si Si5 0.569781 0.748320 0.068641
Si Si6 0.926222 0.157745 0.798453
Si Si7 0.431460 0.561861 0.932566
Si Si8 0.071835 0.267217 0.427257
O O1 0.250000 0.351886 0.854479
O O2 0.470714 0.322487 0.767038
O O3 0.523437 0.395088 0.869551
O O4 0.470696 0.286202 0.900025
O O5 0.250000 0.389654 0.070438
O O6 0.490579 0.415751 0.142712
O O7 0.486340 0.318081 0.073245
O O8 0.501161 0.416924 0.006272
O O9 0.750000 0.290600 0.738225
O O10 0.969909 0.281574 0.641075
O O11 0.965198 0.211668 0.747978
O O12 0.250000 0.055841 0.700273
O O13 0.036602 0.104912 0.777933
O O14 0.000000 0.000000 0.734480
O O15 0.750000 0.751203 0.052510
O O16 0.477446 0.781373 0.007036
O O17 0.750000 0.138250 0.787308
O O18 0.957967 0.175971 0.879467
O O19 0.500000 0.500000 0.912523
O O20 0.250000 0.557500 0.939521
O O21 0.250000 0.248876 0.422481
#
# Coordination Sequence:
#
# PCOD8183034 Si02
#       8
#     8   8   8   8   8   8   8   8
#     4  11  21  34  51  75 103 134 172 215 255 301
#     4  11  21  36  52  73 105 140 176 215 251 297
#     4   9  18  34  53  74 102 136 168 208 259 304
#     4  12  24  36  52  73 100 138 179 218 256 305
#     4  10  19  32  53  77 106 139 172 210 255 305
#     4   9  18  35  52  71 101 135 171 214 259 301
#     4  12  24  38  54  74 101 138 178 217 256 303
#     4  10  20  33  52  75 104 136 169 210 258 309
#
# _framework density 16.840119000000001
#
# number of rings (size 3 to 8) (size 9 to 14) (size 15 to 20)
#    0.000    1.500    2.500    5.250    0.000    3.500 
#    0.000    0.000    0.000    0.000    0.000    0.875 
#    0.000    2.000    0.000    0.000    0.000    0.000 
#
# Total GULP energy -396911.568273 kJ/mol
# GULP energy per Si atom -12403.486509 kJ/mol
# Density = 1.680179 g / cm^3
# Si number density = 16.840119 Si / 1000 Ang^3
#
#
#
# Elastic Constant Matrix: (Units=GPa)
#
#
# Indices 1 2 3 4 5 6 
#
# 1 83.6879 33.3169 35.4900 0.0000 0.0000 0.0000
# 2 33.3169 79.4137 47.2829 0.0000 0.0000 0.0000
# 3 35.4900 47.2829 113.5698 0.0000 0.0000 0.0000
# 4 0.0000 0.0000 0.0000 18.8193 0.0000 0.0000
# 5 0.0000 0.0000 0.0000 0.0000 28.9663 0.0000
# 6 0.0000 0.0000 0.0000 0.0000 0.0000 23.6336
#
#
#
# Elastic Compliance Matrix: (Units=1/GPa)
#
#
# Indices 1 2 3 4 5 6 
#
# 1 0.014961 -0.004644 -0.002742 0.000000 0.000000 0.000000
# 2 -0.004644 0.018184 -0.006119 0.000000 0.000000 0.000000
# 3 -0.002742 -0.006119 0.012210 0.000000 0.000000 0.000000
# 4 0.000000 0.000000 0.000000 0.053137 0.000000 0.000000
# 5 0.000000 0.000000 0.000000 0.000000 0.034523 0.000000
# 6 0.000000 0.000000 0.000000 0.000000 0.000000 0.042313
#
#
# Mechanical properties :
#
#
# Convention : Reuss Voigt Hill
#
# Bulk Modulus (GPa) = 54.51347 56.53899 55.52623
# Shear Modulus (GPa) = 23.98635 24.98929 24.48782
#
# Velocity S-wave (km/s) = 3.77816 3.85634 3.81745
# Velocity P-wave (km/s) = 7.17455 7.31268 7.24394
#
# Compressibility (1/GPa) = 0.01834409
#
# Stress axis : x y z
#
# Youngs Moduli (GPa) = 66.84178 54.99290 81.90273
#
# Poissons Ratio (x) = 0.25540 0.22455
# Poissons Ratio (y) = 0.31043 0.50120
# Poissons Ratio (z) = 0.18325 0.33652
#
# Static dielectric constant tensor:
#      x y z
#    x 3.192980 0.000000 0.000000 
#    y 0.000000 3.048230 0.000000 
#    z 0.000000 0.000000 3.267620 
# 
# 
# High freq. dielectric constant tensor:
#      x y z
#    x 1.659420 0.000000 0.000000 
#    y 0.000000 1.620840 0.000000 
#    z 0.000000 0.000000 1.648050 
# 
# From -- ./inp_files/19645.got.cif
#   From: 2010.03.12/outbox.cif.g09.slc.cpg/sg40_10_cif.got.tgz:19645.got - 2010.04.14 01:38:03.
