data_PCOD8183957
_publ_section_title
;
Structure prediction by ZEFSAII (Michael W. Deem and Ramdas Pophale) SiO2 
 PCOD8183957
Probable space group: A M A 2
;
_chemical_formula_sum "Si O2"
_cell_formula_units_Z 32
_cell_length_a 18.482331
_cell_length_b 12.986564
_cell_length_c 7.573444
_cell_angle_alpha 90.000000
_cell_angle_beta 90.000000
_cell_angle_gamma 90.000000
_cell_volume 1817.792982
_symmetry_space_group_name_H-M "A M A 2"
_symmetry_group_IT_number 40
_symmetry_cell_setting 'orthorhombic'
loop_
_space_group_symop_operation_xyz
x,y,z
-x,-y,z
1/2-x,y,z
1/2+x,-y,z
x,1/2+y,1/2+z
-x,1/2-y,1/2+z
1/2-x,1/2+y,1/2+z
1/2+x,1/2-y,1/2+z
loop_
_atom_site_type_symbol
_atom_site_label
_atom_site_fract_x
_atom_site_fract_y
_atom_site_fract_z
Si Si1 0.419366 0.459220 0.240940
Si Si2 0.834621 0.335599 0.267862
Si Si3 0.923419 0.704386 0.538644
Si Si4 0.934479 0.180888 0.422393
O O1 0.500000 0.500000 0.272612
O O2 0.360444 0.546964 0.267694
O O3 0.401955 0.371017 0.382431
O O4 0.409714 0.413378 0.044862
O O5 0.750000 0.331596 0.301144
O O6 0.855926 0.280922 0.081524
O O7 0.875184 0.273577 0.426150
O O8 0.942838 0.641500 0.719286
O O9 0.989810 0.777433 0.491532
#
# Coordination Sequence:
#
# PCOD8183957 Si02
#       4
#     8   8   8   8
#     4  12  20  38  67  91 113 163 205 244 296 360
#     4  10  24  42  58  90 131 150 199 263 296 343
#     4  10  20  38  64  87 119 155 205 241 296 359
#     4  10  20  38  64  87 119 155 205 241 296 359
#
# _framework density 17.603766
#
# number of rings (size 3 to 8) (size 9 to 14) (size 15 to 20)
#    1.500    0.000    7.500    0.000    0.000    3.000 
#    4.500    0.000    0.000    0.000    0.000    0.000 
#    0.000    0.000    0.000    0.000    0.000    0.000 
#
# Total GULP energy -198274.762127 kJ/mol
# GULP energy per Si atom -12392.172633 kJ/mol
# Density = 1.756370 g / cm^3
# Si number density = 17.603766 Si / 1000 Ang^3
#
#
#
# Elastic Constant Matrix: (Units=GPa)
#
#
# Indices 1 2 3 4 5 6 
#
# 1 63.2983 14.6113 -6.1989 0.0000 0.0000 0.0000
# 2 14.6113 60.7625 -9.0107 0.0000 0.0000 0.0000
# 3 -6.1989 -9.0107 54.8335 0.0000 0.0000 0.0000
# 4 0.0000 0.0000 0.0000 40.2667 0.0000 0.0000
# 5 0.0000 0.0000 0.0000 0.0000 20.4064 0.0000
# 6 0.0000 0.0000 0.0000 0.0000 0.0000 24.3752
#
#
#
# Elastic Compliance Matrix: (Units=1/GPa)
#
#
# Indices 1 2 3 4 5 6 
#
# 1 0.016812 -0.003855 0.001267 0.000000 0.000000 0.000000
# 2 -0.003855 0.017752 0.002481 0.000000 0.000000 0.000000
# 3 0.001267 0.002481 0.018788 0.000000 0.000000 0.000000
# 4 0.000000 0.000000 0.000000 0.024834 0.000000 0.000000
# 5 0.000000 0.000000 0.000000 0.000000 0.049004 0.000000
# 6 0.000000 0.000000 0.000000 0.000000 0.000000 0.041025
#
#
# Mechanical properties :
#
#
# Convention : Reuss Voigt Hill
#
# Bulk Modulus (GPa) = 18.81816 19.74418 19.28117
# Shear Modulus (GPa) = 26.86115 28.97583 27.91849
#
# Velocity S-wave (km/s) = 3.91048 4.06150 3.98670
# Velocity P-wave (km/s) = 5.57694 5.76494 5.67172
#
# Compressibility (1/GPa) = 0.05314016
#
# Stress axis : x y z
#
# Youngs Moduli (GPa) = 59.48082 56.33023 53.22535
#
# Poissons Ratio (x) = 0.21714 -0.06744
# Poissons Ratio (y) = 0.22929 -0.13208
# Poissons Ratio (z) = -0.07537 -0.13978
#
# Static dielectric constant tensor:
#      x y z
#    x 3.022800 0.000000 0.000000 
#    y 0.000000 3.437800 0.000000 
#    z 0.000000 0.000000 3.354730 
# 
# 
# High freq. dielectric constant tensor:
#      x y z
#    x 1.662380 0.000000 0.000000 
#    y 0.000000 1.680920 0.000000 
#    z 0.000000 0.000000 1.677300 
# 
# From -- ./inp_files/2150.got.cif
#   From: 2010.03.12/outbox.cif.g09.slc.cpg/sg40_2_cif.got.tgz:2150.got - 2010.04.14 01:38:03.
