data_PCOD8183030
_publ_section_title
;
Structure prediction by ZEFSAII (Michael W. Deem and Ramdas Pophale) SiO2 
 PCOD8183030
Probable space group: A M A 2
;
_chemical_formula_sum "Si O2"
_cell_formula_units_Z 56
_cell_length_a 8.917079
_cell_length_b 14.571357
_cell_length_c 22.023485
_cell_angle_alpha 90.000000
_cell_angle_beta 90.000000
_cell_angle_gamma 90.000000
_cell_volume 2861.598212
_symmetry_space_group_name_H-M "A M A 2"
_symmetry_group_IT_number 40
_symmetry_cell_setting 'orthorhombic'
loop_
_space_group_symop_operation_xyz
x,y,z
-x,-y,z
1/2-x,y,z
1/2+x,-y,z
x,1/2+y,1/2+z
-x,1/2-y,1/2+z
1/2-x,1/2+y,1/2+z
1/2+x,1/2-y,1/2+z
loop_
_atom_site_type_symbol
_atom_site_label
_atom_site_fract_x
_atom_site_fract_y
_atom_site_fract_z
Si Si1 0.925723 0.092437 0.957090
Si Si2 0.425007 0.091482 0.529828
Si Si3 0.573292 0.406252 0.888880
Si Si4 0.573491 0.099101 0.178937
Si Si5 0.072908 0.778895 0.294423
Si Si6 0.427814 0.904455 0.818216
Si Si7 0.571747 0.214797 0.065738
O O1 0.750000 0.078448 0.961633
O O2 0.973337 0.113717 0.888249
O O3 0.981739 0.172771 0.001539
O O4 0.000000 0.000000 0.981281
O O5 0.250000 0.079034 0.538373
O O6 0.465650 0.105925 0.459387
O O7 0.485454 0.179729 0.567231
O O8 0.500000 0.000000 0.556531
O O9 0.500000 0.500000 0.863731
O O10 0.750000 0.408589 0.876345
O O11 0.501196 0.320138 0.854842
O O12 0.750000 0.085500 0.172274
O O13 0.531348 0.154991 0.238939
O O14 0.507151 0.156519 0.121943
O O15 0.500000 0.000000 0.181653
O O16 0.250000 0.768502 0.303174
O O17 0.000994 0.679180 0.280786
O O18 0.250000 0.907666 0.808119
O O19 0.500000 0.000000 0.795556
O O20 0.750000 0.215117 0.068914
#
# Coordination Sequence:
#
# PCOD8183030 Si02
#       7
#     8   8   8   8   8   8   8
#     4   9  17  30  51  78 105 133 166 204 254 308
#     4   9  18  33  53  76 103 133 168 210 259 311
#     4  10  19  32  52  79 108 139 173 214 264 316
#     4  10  22  38  56  77 103 135 172 212 255 303
#     4  11  22  35  52  76 105 141 180 216 257 307
#     4  10  20  35  55  80 108 138 172 214 261 311
#     4   9  17  33  54  74 101 137 170 206 254 306
#
# _framework density 19.569483999999999
#
# number of rings (size 3 to 8) (size 9 to 14) (size 15 to 20)
#    0.000    2.286    0.000    3.000    0.000    5.714 
#    0.000    2.143    0.000    1.714    0.000    0.000 
#    0.000    0.000    0.000    0.000    0.000    0.000 
#
# Total GULP energy -347206.571864 kJ/mol
# GULP energy per Si atom -12400.234709 kJ/mol
# Density = 1.952494 g / cm^3
# Si number density = 19.569484 Si / 1000 Ang^3
#
#
#
# Elastic Constant Matrix: (Units=GPa)
#
#
# Indices 1 2 3 4 5 6 
#
# 1 55.3143 52.4920 29.2460 0.0000 0.0000 0.0000
# 2 52.4920 196.5416 57.2530 0.0000 0.0000 0.0000
# 3 29.2460 57.2530 58.0821 0.0000 0.0000 0.0000
# 4 0.0000 0.0000 0.0000 24.3403 0.0000 0.0000
# 5 0.0000 0.0000 0.0000 0.0000 12.7616 0.0000
# 6 0.0000 0.0000 0.0000 0.0000 0.0000 38.5647
#
#
#
# Elastic Compliance Matrix: (Units=1/GPa)
#
#
# Indices 1 2 3 4 5 6 
#
# 1 0.027329 -0.004616 -0.009211 0.000000 0.000000 0.000000
# 2 -0.004616 0.007917 -0.005480 0.000000 0.000000 0.000000
# 3 -0.009211 -0.005480 0.027257 0.000000 0.000000 0.000000
# 4 0.000000 0.000000 0.000000 0.041084 0.000000 0.000000
# 5 0.000000 0.000000 0.000000 0.000000 0.078360 0.000000
# 6 0.000000 0.000000 0.000000 0.000000 0.000000 0.025930
#
#
# Mechanical properties :
#
#
# Convention : Reuss Voigt Hill
#
# Bulk Modulus (GPa) = 41.85974 65.32445 53.59210
# Shear Modulus (GPa) = 19.64994 26.52978 23.08986
#
# Velocity S-wave (km/s) = 3.17221 3.68594 3.43868
# Velocity P-wave (km/s) = 5.90372 7.18109 6.57351
#
# Compressibility (1/GPa) = 0.02388930
#
# Stress axis : x y z
#
# Youngs Moduli (GPa) = 36.59137 126.30964 36.68827
#
# Poissons Ratio (x) = 0.58301 0.33794
# Poissons Ratio (y) = 0.16890 0.20105
# Poissons Ratio (z) = 0.33704 0.69216
#
# Static dielectric constant tensor:
#      x y z
#    x 3.388350 0.000000 0.000000 
#    y 0.000000 4.482700 0.000000 
#    z 0.000000 0.000000 3.498050 
# 
# 
# High freq. dielectric constant tensor:
#      x y z
#    x 1.746010 0.000000 0.000000 
#    y 0.000000 1.781300 0.000000 
#    z 0.000000 0.000000 1.741070 
# 
# From -- ./inp_files/22139.got.cif
#   From: 2010.03.12/outbox.cif.g09.slc.cpg/sg40_12_cif.got.tgz:22139.got - 2010.04.14 01:38:03.
