data_PCOD8183535
_publ_section_title
;
Structure prediction by ZEFSAII (Michael W. Deem and Ramdas Pophale) SiO2 
 PCOD8183535
Probable space group: A M A 2
;
_chemical_formula_sum "Si O2"
_cell_formula_units_Z 64
_cell_length_a 17.313030
_cell_length_b 11.261358
_cell_length_c 16.900138
_cell_angle_alpha 90.000000
_cell_angle_beta 90.000000
_cell_angle_gamma 90.000000
_cell_volume 3294.989974
_symmetry_space_group_name_H-M "A M A 2"
_symmetry_group_IT_number 40
_symmetry_cell_setting 'orthorhombic'
loop_
_space_group_symop_operation_xyz
x,y,z
-x,-y,z
1/2-x,y,z
1/2+x,-y,z
x,1/2+y,1/2+z
-x,1/2-y,1/2+z
1/2-x,1/2+y,1/2+z
1/2+x,1/2-y,1/2+z
loop_
_atom_site_type_symbol
_atom_site_label
_atom_site_fract_x
_atom_site_fract_y
_atom_site_fract_z
Si Si1 0.497012 0.165453 0.007000
Si Si2 0.075753 0.440600 0.353659
Si Si3 0.661693 0.587232 0.921218
Si Si4 0.443331 0.399081 0.064257
Si Si5 0.838565 0.860725 0.934562
Si Si6 0.043450 0.886821 0.176779
Si Si7 0.340133 0.518537 0.758990
Si Si8 0.587399 0.233638 0.717439
O O1 0.498448 0.306683 0.017707
O O2 0.536278 0.105610 0.082488
O O3 0.547876 0.126700 0.932708
O O4 0.406281 0.124072 0.000714
O O5 0.142609 0.538448 0.368873
O O6 0.109387 0.345995 0.292308
O O7 0.000000 0.500000 0.314644
O O8 0.750000 0.556415 0.938541
O O9 0.652403 0.727600 0.899760
O O10 0.630043 0.506973 0.848577
O O11 0.616808 0.549475 0.000647
O O12 0.500000 0.500000 0.098244
O O13 0.395336 0.337360 0.135929
O O14 0.750000 0.879570 0.966256
O O15 0.004102 0.768113 0.213038
O O16 0.131218 0.908033 0.203955
O O17 0.000000 0.000000 0.215614
O O18 0.250000 0.507589 0.757509
O O19 0.363014 0.646546 0.723688
#
# Coordination Sequence:
#
# PCOD8183535 Si02
#       8
#     8   8   8   8   8   8   8   8
#     4   9  19  35  54  84 114 147 196 246 290 358
#     4  10  20  33  55  81 118 155 200 243 297 356
#     4   9  20  38  60  88 116 151 199 245 297 364
#     4  10  21  36  60  86 117 155 200 245 303 363
#     4   9  18  34  57  83 114 153 194 241 294 355
#     4   9  18  34  54  78 114 143 188 240 297 352
#     4  10  22  38  61  88 118 152 200 253 305 360
#     4  10  22  36  55  88 120 156 194 249 303 364
#
# _framework density 19.423428000000001
#
# number of rings (size 3 to 8) (size 9 to 14) (size 15 to 20)
#    0.000    2.500    0.000    1.500    7.000    2.500 
#    0.000   11.875    0.000    3.000    0.000    0.000 
#    0.000    0.000    0.000    0.000    0.000    0.000 
#
# Total GULP energy -396457.767242 kJ/mol
# GULP energy per Si atom -12389.305226 kJ/mol
# Density = 1.937922 g / cm^3
# Si number density = 19.423428 Si / 1000 Ang^3
#
#
#
# Elastic Constant Matrix: (Units=GPa)
#
#
# Indices 1 2 3 4 5 6 
#
# 1 67.8682 24.0502 56.3563 0.0000 0.0000 0.0000
# 2 24.0502 67.8339 41.7547 0.0000 0.0000 0.0000
# 3 56.3563 41.7547 122.4915 0.0000 0.0000 0.0000
# 4 0.0000 0.0000 0.0000 34.9013 0.0000 0.0000
# 5 0.0000 0.0000 0.0000 0.0000 24.0886 0.0000
# 6 0.0000 0.0000 0.0000 0.0000 0.0000 27.1220
#
#
#
# Elastic Compliance Matrix: (Units=1/GPa)
#
#
# Indices 1 2 3 4 5 6 
#
# 1 0.024095 -0.002176 -0.010344 0.000000 0.000000 0.000000
# 2 -0.002176 0.018853 -0.005426 0.000000 0.000000 0.000000
# 3 -0.010344 -0.005426 0.014772 0.000000 0.000000 0.000000
# 4 0.000000 0.000000 0.000000 0.028652 0.000000 0.000000
# 5 0.000000 0.000000 0.000000 0.000000 0.041513 0.000000
# 6 0.000000 0.000000 0.000000 0.000000 0.000000 0.036870
#
#
# Mechanical properties :
#
#
# Convention : Reuss Voigt Hill
#
# Bulk Modulus (GPa) = 45.80892 55.83510 50.82201
# Shear Modulus (GPa) = 24.04733 26.29121 25.16927
#
# Velocity S-wave (km/s) = 3.52242 3.68310 3.60366
# Velocity P-wave (km/s) = 6.33868 6.84804 6.59827
#
# Compressibility (1/GPa) = 0.02182981
#
# Stress axis : x y z
#
# Youngs Moduli (GPa) = 41.50265 53.04216 67.69363
#
# Poissons Ratio (x) = 0.11539 0.70023
# Poissons Ratio (y) = 0.09029 0.36728
# Poissons Ratio (z) = 0.42931 0.28779
#
# Static dielectric constant tensor:
#      x y z
#    x 3.502800 0.000000 0.000000 
#    y 0.000000 3.685040 0.000000 
#    z 0.000000 0.000000 3.487310 
# 
# 
# High freq. dielectric constant tensor:
#      x y z
#    x 1.732450 0.000000 0.000000 
#    y 0.000000 1.759250 0.000000 
#    z 0.000000 0.000000 1.748020 
# 
# From -- ./inp_files/21245.got.cif
#   From: 2010.03.12/outbox.cif.g09.slc.cpg/sg40_11_cif.got.tgz:21245.got - 2010.04.14 01:38:03.
