data_PCOD8183498
_publ_section_title
;
Structure prediction by ZEFSAII (Michael W. Deem and Ramdas Pophale) SiO2 
 PCOD8183498
Probable space group: A M A 2
;
_chemical_formula_sum "Si O2"
_cell_formula_units_Z 48
_cell_length_a 8.591764
_cell_length_b 16.189913
_cell_length_c 18.317569
_cell_angle_alpha 90.000000
_cell_angle_beta 90.000000
_cell_angle_gamma 90.000000
_cell_volume 2547.972230
_symmetry_space_group_name_H-M "A M A 2"
_symmetry_group_IT_number 40
_symmetry_cell_setting 'orthorhombic'
loop_
_space_group_symop_operation_xyz
x,y,z
-x,-y,z
1/2-x,y,z
1/2+x,-y,z
x,1/2+y,1/2+z
-x,1/2-y,1/2+z
1/2-x,1/2+y,1/2+z
1/2+x,1/2-y,1/2+z
loop_
_atom_site_type_symbol
_atom_site_label
_atom_site_fract_x
_atom_site_fract_y
_atom_site_fract_z
Si Si1 0.428334 0.163602 0.997720
Si Si2 0.071716 0.683310 0.925511
Si Si3 0.428915 0.587353 0.062249
Si Si4 0.932648 0.745894 0.138500
Si Si5 0.432539 0.249256 0.794744
Si Si6 0.568333 0.586461 0.367413
O O1 0.250000 0.135970 0.989969
O O2 0.452753 0.250789 0.958538
O O3 0.532541 0.096431 0.954610
O O4 0.473384 0.178785 0.082540
O O5 0.250000 0.715745 0.929132
O O6 0.017094 0.676788 0.841179
O O7 0.054822 0.600589 0.974136
O O8 0.500000 0.500000 0.083824
O O9 0.250000 0.589761 0.086430
O O10 0.517923 0.657868 0.106197
O O11 0.750000 0.742583 0.154779
O O12 0.026801 0.765225 0.211114
O O13 0.250000 0.255229 0.806020
O O14 0.491007 0.159401 0.820603
O O15 0.500000 0.500000 0.339160
O O16 0.750000 0.587700 0.352857
#
# Coordination Sequence:
#
# PCOD8183498 Si02
#       6
#     8   8   8   8   8   8
#     4   9  17  31  51  73  96 126 165 204 242 288
#     4   9  17  31  50  71  96 128 166 204 242 288
#     4  10  20  33  51  75 102 132 166 203 245 293
#     4  10  20  34  52  74 102 133 165 202 245 293
#     4  11  21  33  51  75 102 131 166 204 246 294
#     4  11  21  34  52  74 102 132 165 203 246 294
#
# _framework density 18.838511
#
# number of rings (size 3 to 8) (size 9 to 14) (size 15 to 20)
#    0.000    2.000    0.000    7.000    0.000    4.667 
#    0.000    3.333    0.000    1.000    0.000    4.667 
#    0.000    0.000    0.000    0.000    0.000    0.000 
#
# Total GULP energy -297432.973344 kJ/mol
# GULP energy per Si atom -12393.040556 kJ/mol
# Density = 1.879563 g / cm^3
# Si number density = 18.838511 Si / 1000 Ang^3
#
#
#
# Elastic Constant Matrix: (Units=GPa)
#
#
# Indices 1 2 3 4 5 6 
#
# 1 87.8607 0.8554 20.6162 0.0000 0.0000 0.0000
# 2 0.8554 5.2396 -4.1475 0.0000 0.0000 0.0000
# 3 20.6162 -4.1475 99.2970 0.0000 0.0000 0.0000
# 4 0.0000 0.0000 0.0000 6.8054 0.0000 0.0000
# 5 0.0000 0.0000 0.0000 0.0000 33.4250 0.0000
# 6 0.0000 0.0000 0.0000 0.0000 0.0000 20.8067
#
#
#
# Elastic Compliance Matrix: (Units=1/GPa)
#
#
# Indices 1 2 3 4 5 6 
#
# 1 0.012048 -0.004082 -0.002672 0.000000 0.000000 0.000000
# 2 -0.004082 0.198762 0.009150 0.000000 0.000000 0.000000
# 3 -0.002672 0.009150 0.011008 0.000000 0.000000 0.000000
# 4 0.000000 0.000000 0.000000 0.146942 0.000000 0.000000
# 5 0.000000 0.000000 0.000000 0.000000 0.029918 0.000000
# 6 0.000000 0.000000 0.000000 0.000000 0.000000 0.048061
#
#
# Mechanical properties :
#
#
# Convention : Reuss Voigt Hill
#
# Bulk Modulus (GPa) = 4.41288 25.22729 14.82009
# Shear Modulus (GPa) = 9.66211 23.87898 16.77055
#
# Velocity S-wave (km/s) = 2.26717 3.56415 2.98690
# Velocity P-wave (km/s) = 3.03331 5.50980 4.44741
#
# Compressibility (1/GPa) = 0.22660953
#
# Stress axis : x y z
#
# Youngs Moduli (GPa) = 82.99874 5.03113 90.84532
#
# Poissons Ratio (x) = 0.02054 0.24274
# Poissons Ratio (y) = 0.33880 -0.83119
# Poissons Ratio (z) = 0.22177 -0.04603
#
# Static dielectric constant tensor:
#      x y z
#    x 3.542390 0.000000 0.000000 
#    y 0.000000 3.295610 0.000000 
#    z 0.000000 0.000000 3.837490 
# 
# 
# High freq. dielectric constant tensor:
#      x y z
#    x 1.750760 0.000000 0.000000 
#    y 0.000000 1.688950 0.000000 
#    z 0.000000 0.000000 1.732480 
# 
# From -- ./inp_files/19196.got.cif
#   From: 2010.03.12/outbox.cif.g09.slc.cpg/sg40_10_cif.got.tgz:19196.got - 2010.04.14 01:38:03.
