data_PCOD8183295
_publ_section_title
;
Structure prediction by ZEFSAII (Michael W. Deem and Ramdas Pophale) SiO2 
 PCOD8183295
Probable space group: A M A 2
;
_chemical_formula_sum "Si O2"
_cell_formula_units_Z 48
_cell_length_a 18.318214
_cell_length_b 15.263968
_cell_length_c 8.773038
_cell_angle_alpha 90.000000
_cell_angle_beta 90.000000
_cell_angle_gamma 90.000000
_cell_volume 2453.017156
_symmetry_space_group_name_H-M "A M A 2"
_symmetry_group_IT_number 40
_symmetry_cell_setting 'orthorhombic'
loop_
_space_group_symop_operation_xyz
x,y,z
-x,-y,z
1/2-x,y,z
1/2+x,-y,z
x,1/2+y,1/2+z
-x,1/2-y,1/2+z
1/2-x,1/2+y,1/2+z
1/2+x,1/2-y,1/2+z
loop_
_atom_site_type_symbol
_atom_site_label
_atom_site_fract_x
_atom_site_fract_y
_atom_site_fract_z
Si Si1 0.059936 0.776516 0.231030
Si Si2 0.921052 0.532546 0.706982
Si Si3 0.334241 0.124743 0.248123
Si Si4 0.333924 0.645219 0.396186
Si Si5 0.412539 0.281120 0.374603
Si Si6 0.835100 0.548952 0.402327
O O1 0.069635 0.875468 0.297510
O O2 0.121058 0.714418 0.299950
O O3 0.981106 0.738984 0.269275
O O4 0.064191 0.783015 0.049601
O O5 0.884315 0.456051 0.809950
O O6 0.862474 0.546691 0.574723
O O7 0.000000 0.500000 0.646088
O O8 0.250000 0.098244 0.261460
O O9 0.350230 0.208238 0.352984
O O10 0.356394 0.147441 0.073742
O O11 0.250000 0.671780 0.377686
O O12 0.348068 0.547188 0.328717
O O13 0.380142 0.374542 0.317420
O O14 0.750000 0.573224 0.402372
#
# Coordination Sequence:
#
# PCOD8183295 Si02
#       6
#     8   8   8   8   8   8
#     4  11  23  36  59  85 117 151 194 242 285 342
#     4  10  19  35  57  84 113 151 196 234 277 344
#     4  10  20  38  62  84 114 151 190 236 292 344
#     4   9  20  38  59  84 114 148 189 236 287 343
#     4  11  22  37  58  86 118 151 196 241 288 342
#     4   9  20  36  59  85 111 150 196 237 280 345
#
# _framework density 19.567739
#
# number of rings (size 3 to 8) (size 9 to 14) (size 15 to 20)
#    0.000    2.000    1.667    3.000    7.000    4.000 
#    0.000    5.000    0.000    0.000    0.000    0.000 
#    0.000    0.000    0.000    0.000    0.000    0.000 
#
# Total GULP energy -297500.977328 kJ/mol
# GULP energy per Si atom -12395.874055 kJ/mol
# Density = 1.952320 g / cm^3
# Si number density = 19.567739 Si / 1000 Ang^3
#
#
#
# Elastic Constant Matrix: (Units=GPa)
#
#
# Indices 1 2 3 4 5 6 
#
# 1 111.2262 64.1739 27.4412 0.0000 0.0000 0.0000
# 2 64.1739 162.0308 29.9053 0.0000 0.0000 0.0000
# 3 27.4412 29.9053 37.3841 0.0000 0.0000 0.0000
# 4 0.0000 0.0000 0.0000 27.3799 0.0000 0.0000
# 5 0.0000 0.0000 0.0000 0.0000 29.7689 0.0000
# 6 0.0000 0.0000 0.0000 0.0000 0.0000 43.3737
#
#
#
# Elastic Compliance Matrix: (Units=1/GPa)
#
#
# Indices 1 2 3 4 5 6 
#
# 1 0.012792 -0.003911 -0.006261 0.000000 0.000000 0.000000
# 2 -0.003911 0.008436 -0.003878 0.000000 0.000000 0.000000
# 3 -0.006261 -0.003878 0.034448 0.000000 0.000000 0.000000
# 4 0.000000 0.000000 0.000000 0.036523 0.000000 0.000000
# 5 0.000000 0.000000 0.000000 0.000000 0.033592 0.000000
# 6 0.000000 0.000000 0.000000 0.000000 0.000000 0.023055
#
#
# Mechanical properties :
#
#
# Convention : Reuss Voigt Hill
#
# Bulk Modulus (GPa) = 36.26382 61.52022 48.89202
# Shear Modulus (GPa) = 26.86179 32.71255 29.78717
#
# Velocity S-wave (km/s) = 3.70910 4.09315 3.90585
# Velocity P-wave (km/s) = 6.07584 7.33801 6.73655
#
# Compressibility (1/GPa) = 0.02757569
#
# Stress axis : x y z
#
# Youngs Moduli (GPa) = 78.17521 118.53567 29.02968
#
# Poissons Ratio (x) = 0.46356 0.18176
# Poissons Ratio (y) = 0.30572 0.11258
# Poissons Ratio (z) = 0.48947 0.45968
#
# Static dielectric constant tensor:
#      x y z
#    x 3.697020 0.000000 0.000000 
#    y 0.000000 4.292320 0.000000 
#    z 0.000000 0.000000 3.111090 
# 
# 
# High freq. dielectric constant tensor:
#      x y z
#    x 1.781530 0.000000 0.000000 
#    y 0.000000 1.787130 0.000000 
#    z 0.000000 0.000000 1.706590 
# 
# From -- ./inp_files/7420.got.cif
#   From: 2010.03.12/outbox.cif.g09.slc.cpg/sg40_4_cif.got.tgz:7420.got - 2010.04.14 01:38:03.
