data_PCOD8183569
_publ_section_title
;
Structure prediction by ZEFSAII (Michael W. Deem and Ramdas Pophale) SiO2 
 PCOD8183569
Probable space group: A M A 2
;
_chemical_formula_sum "Si O2"
_cell_formula_units_Z 64
_cell_length_a 8.449383
_cell_length_b 22.980796
_cell_length_c 18.957736
_cell_angle_alpha 90.000000
_cell_angle_beta 90.000000
_cell_angle_gamma 90.000000
_cell_volume 3681.090843
_symmetry_space_group_name_H-M "A M A 2"
_symmetry_group_IT_number 40
_symmetry_cell_setting 'orthorhombic'
loop_
_space_group_symop_operation_xyz
x,y,z
-x,-y,z
1/2-x,y,z
1/2+x,-y,z
x,1/2+y,1/2+z
-x,1/2-y,1/2+z
1/2-x,1/2+y,1/2+z
1/2+x,1/2-y,1/2+z
loop_
_atom_site_type_symbol
_atom_site_label
_atom_site_fract_x
_atom_site_fract_y
_atom_site_fract_z
Si Si1 0.065279 0.276629 0.415860
Si Si2 0.065681 0.937371 0.698968
Si Si3 0.566603 0.340821 0.290000
Si Si4 0.065681 0.437371 0.928020
Si Si5 0.434873 0.749480 0.563494
Si Si6 0.434721 0.776630 0.211127
Si Si7 0.566542 0.376528 0.063494
Si Si8 0.933397 0.340822 0.836987
O O1 0.250000 0.288436 0.408084
O O2 0.019746 0.212817 0.387515
O O3 0.973853 0.325358 0.370691
O O4 0.011992 0.281683 0.496287
O O5 0.250000 0.940360 0.680271
O O6 0.037014 0.895589 0.765727
O O7 0.969624 0.914613 0.631765
O O8 0.000000 0.000000 0.720256
O O9 0.750000 0.356740 0.282968
O O10 0.519746 0.287183 0.239473
O O11 0.250000 0.440360 0.946717
O O12 0.000000 0.500000 0.906733
O O13 0.037014 0.395590 0.861261
O O14 0.969624 0.414612 0.995223
O O15 0.250000 0.737529 0.563492
O O16 0.511987 0.718316 0.630700
O O17 0.463703 0.818324 0.563495
O O18 0.250000 0.788436 0.218902
O O19 0.526145 0.825359 0.256296
O O20 0.750000 0.358087 0.063494
O O21 0.750000 0.356740 0.844020
#
# Coordination Sequence:
#
# PCOD8183569 Si02
#       8
#     8   8   8   8   8   8   8   8
#     4  10  20  34  54  77 107 140 175 218 267 318
#     4  12  24  38  55  76 105 143 184 223 265 313
#     4  10  20  35  54  77 106 138 177 221 266 314
#     4  12  24  38  55  76 105 143 184 223 265 313
#     4  12  22  33  53  80 109 143 179 217 266 319
#     4  10  20  34  54  77 107 140 175 218 267 318
#     4  12  23  37  52  74 107 143 183 223 262 311
#     4  10  20  35  54  77 106 138 177 221 266 314
#
# _framework density 17.386149
#
# number of rings (size 3 to 8) (size 9 to 14) (size 15 to 20)
#    0.000    1.000    2.500    6.375    0.000    2.000 
#    0.000    0.000    0.000    0.000    0.000    0.875 
#    0.000    0.000    0.000    0.000    0.000    0.000 
#
# Total GULP energy -397037.818613 kJ/mol
# GULP energy per Si atom -12407.431832 kJ/mol
# Density = 1.734658 g / cm^3
# Si number density = 17.386149 Si / 1000 Ang^3
#
#
#
# Elastic Constant Matrix: (Units=GPa)
#
#
# Indices 1 2 3 4 5 6 
#
# 1 67.2538 15.8165 15.5194 0.0000 0.0000 0.0000
# 2 15.8165 69.1108 40.9156 0.0000 0.0000 0.0000
# 3 15.5194 40.9156 119.5670 0.0000 0.0000 0.0000
# 4 0.0000 0.0000 0.0000 8.0972 0.0000 0.0000
# 5 0.0000 0.0000 0.0000 0.0000 32.1111 0.0000
# 6 0.0000 0.0000 0.0000 0.0000 0.0000 26.0510
#
#
#
# Elastic Compliance Matrix: (Units=1/GPa)
#
#
# Indices 1 2 3 4 5 6 
#
# 1 0.015814 -0.003015 -0.001021 0.000000 0.000000 0.000000
# 2 -0.003015 0.018720 -0.006015 0.000000 0.000000 0.000000
# 3 -0.001021 -0.006015 0.010554 0.000000 0.000000 0.000000
# 4 0.000000 0.000000 0.000000 0.123499 0.000000 0.000000
# 5 0.000000 0.000000 0.000000 0.000000 0.031142 0.000000
# 6 0.000000 0.000000 0.000000 0.000000 0.000000 0.038386
#
#
# Mechanical properties :
#
#
# Convention : Reuss Voigt Hill
#
# Bulk Modulus (GPa) = 40.01997 44.49273 42.25635
# Shear Modulus (GPa) = 18.75855 25.49720 22.12787
#
# Velocity S-wave (km/s) = 3.28828 3.83368 3.57140
# Velocity P-wave (km/s) = 6.12253 6.72626 6.43148
#
# Compressibility (1/GPa) = 0.02498753
#
# Stress axis : x y z
#
# Youngs Moduli (GPa) = 63.23665 53.41774 94.74829
#
# Poissons Ratio (x) = 0.16103 0.09673
# Poissons Ratio (y) = 0.19063 0.56989
# Poissons Ratio (z) = 0.06456 0.32130
#
# Static dielectric constant tensor:
#      x y z
#    x 3.316610 0.000000 0.000000 
#    y 0.000000 3.061610 0.000000 
#    z 0.000000 0.000000 3.369210 
# 
# 
# High freq. dielectric constant tensor:
#      x y z
#    x 1.692170 0.000000 0.000000 
#    y 0.000000 1.640860 0.000000 
#    z 0.000000 0.000000 1.668850 
# 
# From -- ./inp_files/15644.got.cif
#   From: 2010.03.12/outbox.cif.g09.slc.cpg/sg40_8_cif.got.tgz:15644.got - 2010.04.14 01:38:03.
