data_PCOD8183168
_publ_section_title
;
Structure prediction by ZEFSAII (Michael W. Deem and Ramdas Pophale) SiO2 
 PCOD8183168
Probable space group: A M A 2
;
_chemical_formula_sum "Si O2"
_cell_formula_units_Z 64
_cell_length_a 9.174165
_cell_length_b 33.313973
_cell_length_c 11.283831
_cell_angle_alpha 90.000000
_cell_angle_beta 90.000000
_cell_angle_gamma 90.000000
_cell_volume 3448.653404
_symmetry_space_group_name_H-M "A M A 2"
_symmetry_group_IT_number 40
_symmetry_cell_setting 'orthorhombic'
loop_
_space_group_symop_operation_xyz
x,y,z
-x,-y,z
1/2-x,y,z
1/2+x,-y,z
x,1/2+y,1/2+z
-x,1/2-y,1/2+z
1/2-x,1/2+y,1/2+z
1/2+x,1/2-y,1/2+z
loop_
_atom_site_type_symbol
_atom_site_label
_atom_site_fract_x
_atom_site_fract_y
_atom_site_fract_z
Si Si1 0.909967 0.328356 0.917520
Si Si2 0.583683 0.606885 0.804249
Si Si3 0.083609 0.698412 0.175845
Si Si4 0.579694 0.458535 0.199612
Si Si5 0.078214 0.122407 0.832292
Si Si6 0.086815 0.222390 0.184629
Si Si7 0.919510 0.459689 0.928937
Si Si8 0.419956 0.847175 0.063540
O O1 0.750000 0.350070 0.925637
O O2 0.907784 0.297311 0.811943
O O3 0.040275 0.359414 0.899458
O O4 0.941230 0.304693 0.036467
O O5 0.750000 0.594456 0.825791
O O6 0.556137 0.622447 0.672033
O O7 0.477475 0.570254 0.829236
O O8 0.250000 0.708803 0.208221
O O9 0.036533 0.657004 0.238546
O O10 0.982982 0.734884 0.214858
O O11 0.500000 0.500000 0.236621
O O12 0.750000 0.466772 0.215793
O O13 0.528958 0.421012 0.280732
O O14 0.544277 0.446260 0.063756
O O15 0.250000 0.122324 0.858856
O O16 0.991602 0.130968 0.952152
O O17 0.250000 0.227399 0.132500
O O18 0.995043 0.195704 0.091059
O O19 0.750000 0.465941 0.909860
O O20 0.000000 0.500000 0.898430
O O21 0.250000 0.838985 0.039918
#
# Coordination Sequence:
#
# PCOD8183168 Si02
#       8
#     8   8   8   8   8   8   8   8
#     4   9  19  36  55  75 103 139 176 217 271 328
#     4  10  20  35  55  79 106 139 181 227 272 324
#     4  10  21  36  55  80 111 143 178 228 281 331
#     4   9  19  36  58  85 117 149 184 227 281 335
#     4  10  21  37  57  83 113 149 190 232 280 337
#     4  10  21  36  55  80 107 141 184 226 276 335
#     4  10  19  33  56  85 116 146 177 222 276 333
#     4  10  22  39  57  77 108 148 189 233 280 329
#
# _framework density 18.557969
#
# number of rings (size 3 to 8) (size 9 to 14) (size 15 to 20)
#    0.000    2.250    0.000    2.250    1.750    6.000 
#    0.000    1.875    0.000    1.500    0.000    0.000 
#    0.000    0.000    0.000    0.000    0.000    0.000 
#
# Total GULP energy -396756.949544 kJ/mol
# GULP energy per Si atom -12398.654673 kJ/mol
# Density = 1.851573 g / cm^3
# Si number density = 18.557969 Si / 1000 Ang^3
#
#
#
# Elastic Constant Matrix: (Units=GPa)
#
#
# Indices 1 2 3 4 5 6 
#
# 1 101.8399 67.2728 41.3797 0.0000 0.0000 0.0000
# 2 67.2728 126.8216 36.2778 0.0000 0.0000 0.0000
# 3 41.3797 36.2778 52.1269 0.0000 0.0000 0.0000
# 4 0.0000 0.0000 0.0000 20.3109 0.0000 0.0000
# 5 0.0000 0.0000 0.0000 0.0000 34.6625 0.0000
# 6 0.0000 0.0000 0.0000 0.0000 0.0000 38.4378
#
#
#
# Elastic Compliance Matrix: (Units=1/GPa)
#
#
# Indices 1 2 3 4 5 6 
#
# 1 0.018376 -0.006961 -0.009743 0.000000 0.000000 0.000000
# 2 -0.006961 0.012482 -0.003161 0.000000 0.000000 0.000000
# 3 -0.009743 -0.003161 0.029118 0.000000 0.000000 0.000000
# 4 0.000000 0.000000 0.000000 0.049235 0.000000 0.000000
# 5 0.000000 0.000000 0.000000 0.000000 0.028850 0.000000
# 6 0.000000 0.000000 0.000000 0.000000 0.000000 0.026016
#
#
# Mechanical properties :
#
#
# Convention : Reuss Voigt Hill
#
# Bulk Modulus (GPa) = 49.39183 63.40546 56.39865
# Shear Modulus (GPa) = 23.74675 27.73946 25.74310
#
# Velocity S-wave (km/s) = 3.58103 3.87039 3.72852
# Velocity P-wave (km/s) = 6.61597 7.36299 6.99945
#
# Compressibility (1/GPa) = 0.02024626
#
# Stress axis : x y z
#
# Youngs Moduli (GPa) = 54.41814 80.11792 34.34260
#
# Poissons Ratio (x) = 0.55767 0.33461
# Poissons Ratio (y) = 0.37878 0.10856
# Poissons Ratio (z) = 0.53021 0.25326
#
# Static dielectric constant tensor:
#      x y z
#    x 3.545340 0.000000 0.000000 
#    y 0.000000 2.847500 0.000000 
#    z 0.000000 0.000000 3.348560 
# 
# 
# High freq. dielectric constant tensor:
#      x y z
#    x 1.726340 0.000000 0.000000 
#    y 0.000000 1.720890 0.000000 
#    z 0.000000 0.000000 1.713620 
# 
# From -- ./inp_files/10593.got.cif
#   From: 2010.03.12/outbox.cif.g09.slc.cpg/sg40_6_cif.got.tgz:10593.got - 2010.04.14 01:38:03.
