data_PCOD8183954
_publ_section_title
;
Structure prediction by ZEFSAII (Michael W. Deem and Ramdas Pophale) SiO2 
 PCOD8183954
Probable space group: A M A 2
;
_chemical_formula_sum "Si O2"
_cell_formula_units_Z 44
_cell_length_a 14.208134
_cell_length_b 17.409132
_cell_length_c 8.642552
_cell_angle_alpha 90.000000
_cell_angle_beta 90.000000
_cell_angle_gamma 90.000000
_cell_volume 2137.746302
_symmetry_space_group_name_H-M "A M A 2"
_symmetry_group_IT_number 40
_symmetry_cell_setting 'orthorhombic'
loop_
_space_group_symop_operation_xyz
x,y,z
-x,-y,z
1/2-x,y,z
1/2+x,-y,z
x,1/2+y,1/2+z
-x,1/2-y,1/2+z
1/2-x,1/2+y,1/2+z
1/2+x,1/2-y,1/2+z
loop_
_atom_site_type_symbol
_atom_site_label
_atom_site_fract_x
_atom_site_fract_y
_atom_site_fract_z
Si Si1 0.750000 0.331639 0.946750
Si Si2 0.404689 0.744852 0.151995
Si Si3 0.250000 0.354526 0.717906
Si Si4 0.583198 0.800893 0.977627
Si Si5 0.750000 0.487526 0.783644
Si Si6 0.750000 0.725385 0.151529
Si Si7 0.892596 0.975258 0.016512
Si Si8 0.250000 0.419108 0.376067
O O1 0.750000 0.423785 0.917570
O O2 0.750000 0.290127 0.782920
O O3 0.655938 0.310019 0.039900
O O4 0.342779 0.805995 0.245677
O O5 0.445621 0.699082 0.296941
O O6 0.484954 0.789458 0.062560
O O7 0.250000 0.424028 0.843983
O O8 0.250000 0.370805 0.533324
O O9 0.624148 0.885395 0.995696
O O10 0.658482 0.738703 0.043278
O O11 0.844282 0.488574 0.681489
O O12 0.750000 0.639785 0.229734
O O13 0.842011 0.024940 0.879953
O O14 0.000000 0.000000 0.024927
#
# Coordination Sequence:
#
# PCOD8183954 Si02
#       8
#     4   8   4   8   4   4   8   4
#     4  11  21  41  63  92 128 163 207 275 317 383
#     4  11  24  39  64  92 131 167 214 263 326 377
#     4   9  19  39  62  90 125 166 205 259 312 382
#     4  12  24  40  64  96 125 171 216 268 320 389
#     4  10  20  38  63  95 119 168 211 260 313 380
#     4  12  21  40  67  93 129 160 216 271 327 379
#     4  10  21  37  65  93 129 171 222 250 312 395
#     4  10  21  38  63  96 123 171 207 263 315 386
#
# _framework density 20.582422999999999
#
# number of rings (size 3 to 8) (size 9 to 14) (size 15 to 20)
#    0.000    1.455    3.636    4.909    2.545    0.000 
#    0.000    3.636    0.000    0.000    0.000    0.000 
#    0.000    0.000    0.000    0.000    0.000    0.000 
#
# Total GULP energy -272560.505491 kJ/mol
# GULP energy per Si atom -12389.113886 kJ/mol
# Density = 2.053558 g / cm^3
# Si number density = 20.582423 Si / 1000 Ang^3
#
#
#
# Elastic Constant Matrix: (Units=GPa)
#
#
# Indices 1 2 3 4 5 6 
#
# 1 114.6130 34.2909 19.0903 0.0000 0.0000 0.0000
# 2 34.2909 118.4275 23.0179 0.0000 0.0000 0.0000
# 3 19.0903 23.0179 91.0672 0.0000 0.0000 0.0000
# 4 0.0000 0.0000 0.0000 24.0469 0.0000 0.0000
# 5 0.0000 0.0000 0.0000 0.0000 27.8870 0.0000
# 6 0.0000 0.0000 0.0000 0.0000 0.0000 -10.7541
#
#
#
# Elastic Compliance Matrix: (Units=1/GPa)
#
#
# Indices 1 2 3 4 5 6 
#
# 1 0.009718 -0.002543 -0.001394 0.000000 0.000000 0.000000
# 2 -0.002543 0.009546 -0.001880 0.000000 0.000000 0.000000
# 3 -0.001394 -0.001880 0.011748 0.000000 0.000000 0.000000
# 4 0.000000 0.000000 0.000000 0.041585 0.000000 0.000000
# 5 0.000000 0.000000 0.000000 0.000000 0.035859 0.000000
# 6 0.000000 0.000000 0.000000 0.000000 0.000000 -0.092988
#
#
# Mechanical properties :
#
#
# Convention : Reuss Voigt Hill
#
# Bulk Modulus (GPa) = 51.60485 52.98957 52.29721
# Shear Modulus (GPa) = 148.97934 24.74987 86.86460
#
# Velocity S-wave (km/s) = 8.51698 3.47144 6.50345
# Velocity P-wave (km/s) = 11.03836 6.47061 9.04749
#
# Compressibility (1/GPa) = 0.01937803
#
# Stress axis : x y z
#
# Youngs Moduli (GPa) = 102.90110 104.76018 85.11857
#
# Poissons Ratio (x) = 0.26639 0.11869
# Poissons Ratio (y) = 0.26166 0.15999
# Poissons Ratio (z) = 0.14349 0.19691
#
# Static dielectric constant tensor:
#      x y z
#    x 3.734390 0.000000 0.000000 
#    y 0.000000 4.117890 0.000000 
#    z 0.000000 0.000000 3.582190 
# 
# 
# High freq. dielectric constant tensor:
#      x y z
#    x 1.811250 0.000000 0.000000 
#    y 0.000000 1.814780 0.000000 
#    z 0.000000 0.000000 1.787940 
# 
# From -- ./inp_files/6411.got.cif
#   From: 2010.03.12/outbox.cif.g09.slc.cpg/sg40_4_cif.got.tgz:6411.got - 2010.04.14 01:38:03.
