data_PCOD8183236
_publ_section_title
;
Structure prediction by ZEFSAII (Michael W. Deem and Ramdas Pophale) SiO2 
 PCOD8183236
Probable space group: A M A 2
;
_chemical_formula_sum "Si O2"
_cell_formula_units_Z 64
_cell_length_a 8.860553
_cell_length_b 33.264186
_cell_length_c 11.507438
_cell_angle_alpha 90.000000
_cell_angle_beta 90.000000
_cell_angle_gamma 90.000000
_cell_volume 3391.691724
_symmetry_space_group_name_H-M "A M A 2"
_symmetry_group_IT_number 40
_symmetry_cell_setting 'orthorhombic'
loop_
_space_group_symop_operation_xyz
x,y,z
-x,-y,z
1/2-x,y,z
1/2+x,-y,z
x,1/2+y,1/2+z
-x,1/2-y,1/2+z
1/2-x,1/2+y,1/2+z
1/2+x,1/2-y,1/2+z
loop_
_atom_site_type_symbol
_atom_site_label
_atom_site_fract_x
_atom_site_fract_y
_atom_site_fract_z
Si Si1 0.572018 0.542151 0.512100
Si Si2 0.427210 0.623564 0.882040
Si Si3 0.571124 0.456904 0.753697
Si Si4 0.427491 0.151723 0.634643
Si Si5 0.580968 0.224410 0.754454
Si Si6 0.075963 0.807075 0.235617
Si Si7 0.076326 0.104405 0.860531
Si Si8 0.582964 0.672016 0.477365
O O1 0.500000 0.500000 0.482237
O O2 0.750000 0.538970 0.529179
O O3 0.498327 0.558520 0.631641
O O4 0.531699 0.568527 0.399801
O O5 0.250000 0.630257 0.872617
O O6 0.468147 0.577303 0.849309
O O7 0.503457 0.653977 0.793470
O O8 0.483808 0.633498 0.012416
O O9 0.500000 0.500000 0.790891
O O10 0.750000 0.462599 0.739503
O O11 0.250000 0.159579 0.636065
O O12 0.504033 0.194635 0.660795
O O13 0.472051 0.118820 0.732034
O O14 0.750000 0.232533 0.709422
O O15 0.495701 0.265751 0.776803
O O16 0.581116 0.206330 0.882107
O O17 0.250000 0.806858 0.269668
O O18 0.046402 0.807920 0.098974
O O19 0.250000 0.091040 0.865786
O O20 0.048001 0.140231 0.951366
O O21 0.750000 0.651209 0.479910
#
# Coordination Sequence:
#
# PCOD8183236 Si02
#       8
#     8   8   8   8   8   8   8   8
#     4  11  21  34  55  83 115 146 179 226 278 331
#     4  10  22  39  58  82 113 151 191 233 282 336
#     4  10  20  36  59  86 116 150 187 231 284 339
#     4   9  20  39  59  78 109 150 188 230 279 333
#     4  10  21  37  56  79 107 143 184 230 281 334
#     4  11  23  36  54  81 110 143 183 230 280 334
#     4  10  19  34  57  81 106 139 180 224 271 328
#     4   9  20  37  54  74 104 140 177 220 272 325
#
# _framework density 18.869641000000001
#
# number of rings (size 3 to 8) (size 9 to 14) (size 15 to 20)
#    0.000    2.000    0.000    4.125    1.750    5.500 
#    0.000    0.625    0.000    1.500    0.000    0.000 
#    0.000    0.000    0.000    0.000    0.000    0.000 
#
# Total GULP energy -396765.793925 kJ/mol
# GULP energy per Si atom -12398.931060 kJ/mol
# Density = 1.882669 g / cm^3
# Si number density = 18.869641 Si / 1000 Ang^3
#
#
#
# Elastic Constant Matrix: (Units=GPa)
#
#
# Indices 1 2 3 4 5 6 
#
# 1 81.8516 53.7578 41.9289 0.0000 0.0000 0.0000
# 2 53.7578 114.4291 51.6974 0.0000 0.0000 0.0000
# 3 41.9289 51.6974 81.5605 0.0000 0.0000 0.0000
# 4 0.0000 0.0000 0.0000 26.0596 0.0000 0.0000
# 5 0.0000 0.0000 0.0000 0.0000 4.2638 0.0000
# 6 0.0000 0.0000 0.0000 0.0000 0.0000 36.8829
#
#
#
# Elastic Compliance Matrix: (Units=1/GPa)
#
#
# Indices 1 2 3 4 5 6 
#
# 1 0.019512 -0.006495 -0.005914 0.000000 0.000000 0.000000
# 2 -0.006495 0.014408 -0.005793 0.000000 0.000000 0.000000
# 3 -0.005914 -0.005793 0.018973 0.000000 0.000000 0.000000
# 4 0.000000 0.000000 0.000000 0.038374 0.000000 0.000000
# 5 0.000000 0.000000 0.000000 0.000000 0.234535 0.000000
# 6 0.000000 0.000000 0.000000 0.000000 0.000000 0.027113
#
#
# Mechanical properties :
#
#
# Convention : Reuss Voigt Hill
#
# Bulk Modulus (GPa) = 60.64839 63.62328 62.13583
# Shear Modulus (GPa) = 12.66413 22.13840 17.40126
#
# Velocity S-wave (km/s) = 2.59344 3.42896 3.04004
# Velocity P-wave (km/s) = 6.41704 7.03331 6.73223
#
# Compressibility (1/GPa) = 0.01648848
#
# Stress axis : x y z
#
# Youngs Moduli (GPa) = 51.24937 69.40763 52.70509
#
# Poissons Ratio (x) = 0.45079 0.31171
# Poissons Ratio (y) = 0.33285 0.30535
# Poissons Ratio (z) = 0.30310 0.40211
#
# Static dielectric constant tensor:
#      x y z
#    x 3.589080 0.000000 0.000000 
#    y 0.000000 3.458740 0.000000 
#    z 0.000000 0.000000 3.553450 
# 
# 
# High freq. dielectric constant tensor:
#      x y z
#    x 1.741740 0.000000 0.000000 
#    y 0.000000 1.734500 0.000000 
#    z 0.000000 0.000000 1.728620 
# 
# From -- ./inp_files/10595.got.cif
#   From: 2010.03.12/outbox.cif.g09.slc.cpg/sg40_6_cif.got.tgz:10595.got - 2010.04.14 01:38:03.
