data_PCOD8183124
_publ_section_title
;
Structure prediction by ZEFSAII (Michael W. Deem and Ramdas Pophale) SiO2 
 PCOD8183124
Probable space group: A M A 2
;
_chemical_formula_sum "Si O2"
_cell_formula_units_Z 28
_cell_length_a 5.251785
_cell_length_b 8.599361
_cell_length_c 30.553423
_cell_angle_alpha 90.000000
_cell_angle_beta 90.000000
_cell_angle_gamma 90.000000
_cell_volume 1379.853540
_symmetry_space_group_name_H-M "A M A 2"
_symmetry_group_IT_number 40
_symmetry_cell_setting 'orthorhombic'
loop_
_space_group_symop_operation_xyz
x,y,z
-x,-y,z
1/2-x,y,z
1/2+x,-y,z
x,1/2+y,1/2+z
-x,1/2-y,1/2+z
1/2-x,1/2+y,1/2+z
1/2+x,1/2-y,1/2+z
loop_
_atom_site_type_symbol
_atom_site_label
_atom_site_fract_x
_atom_site_fract_y
_atom_site_fract_z
Si Si1 0.250000 0.894846 0.677810
Si Si2 0.750000 0.601250 0.082913
Si Si3 0.250000 0.575756 0.446035
Si Si4 0.750000 0.907584 0.234034
Si Si5 0.750000 0.908737 0.337547
Si Si6 0.750000 0.104415 0.487785
Si Si7 0.750000 0.557757 0.349776
O O1 0.250000 0.763144 0.714164
O O2 0.500000 0.000000 0.683837
O O3 0.250000 0.808344 0.629598
O O4 0.500000 0.500000 0.082939
O O5 0.750000 0.690275 0.036084
O O6 0.500000 0.500000 0.468291
O O7 0.250000 0.760875 0.451845
O O8 0.250000 0.541571 0.394451
O O9 0.750000 0.884421 0.285818
O O10 0.500000 0.000000 0.218374
O O11 0.750000 0.740257 0.360037
O O12 0.500000 0.000000 0.353467
O O13 0.500000 0.000000 0.481070
O O14 0.500000 0.500000 0.323005
#
# Coordination Sequence:
#
# PCOD8183124 Si02
#       7
#     4   4   4   4   4   4   4
#     4  10  19  33  54  80 107 141 181 215 255 310
#     4   8  16  30  50  76 105 135 175 219 251 299
#     4  10  21  38  53  77 111 136 166 221 274 310
#     4  10  21  36  53  78 112 140 172 220 266 309
#     4  10  21  38  58  78 103 142 182 214 258 320
#     4  10  19  35  58  79 102 141 183 215 257 315
#     4  10  21  38  56  78 108 135 167 222 273 309
#
# _framework density 20.292007000000002
#
# number of rings (size 3 to 8) (size 9 to 14) (size 15 to 20)
#    0.000    2.286    0.000    2.571    0.000    1.143 
#    0.000   18.571    0.000    0.000    0.000    0.000 
#    0.000    0.000    0.000    0.000    0.000    0.000 
#
# Total GULP energy -173458.936694 kJ/mol
# GULP energy per Si atom -12389.924050 kJ/mol
# Density = 2.024582 g / cm^3
# Si number density = 20.292007 Si / 1000 Ang^3
#
#
#
# Elastic Constant Matrix: (Units=GPa)
#
#
# Indices 1 2 3 4 5 6 
#
# 1 211.3846 60.3105 12.5606 0.0000 0.0000 0.0000
# 2 60.3105 115.7278 24.5253 0.0000 0.0000 0.0000
# 3 12.5606 24.5253 35.3946 0.0000 0.0000 0.0000
# 4 0.0000 0.0000 0.0000 22.8530 0.0000 0.0000
# 5 0.0000 0.0000 0.0000 0.0000 4.6900 0.0000
# 6 0.0000 0.0000 0.0000 0.0000 0.0000 36.7193
#
#
#
# Elastic Compliance Matrix: (Units=1/GPa)
#
#
# Indices 1 2 3 4 5 6 
#
# 1 0.005557 -0.002905 0.000041 0.000000 0.000000 0.000000
# 2 -0.002905 0.011646 -0.007039 0.000000 0.000000 0.000000
# 3 0.000041 -0.007039 0.033116 0.000000 0.000000 0.000000
# 4 0.000000 0.000000 0.000000 0.043758 0.000000 0.000000
# 5 0.000000 0.000000 0.000000 0.000000 0.213217 0.000000
# 6 0.000000 0.000000 0.000000 0.000000 0.000000 0.027234
#
#
# Mechanical properties :
#
#
# Convention : Reuss Voigt Hill
#
# Bulk Modulus (GPa) = 32.77277 61.92219 47.34748
# Shear Modulus (GPa) = 13.71720 30.52651 22.12186
#
# Velocity S-wave (km/s) = 2.60280 3.88282 3.30536
# Velocity P-wave (km/s) = 5.02179 7.11923 6.16043
#
# Compressibility (1/GPa) = 0.03051314
#
# Stress axis : x y z
#
# Youngs Moduli (GPa) = 179.95269 85.86333 30.19685
#
# Poissons Ratio (x) = 0.24940 -0.00123
# Poissons Ratio (y) = 0.52269 0.21256
# Poissons Ratio (z) = -0.00730 0.60441
#
# Static dielectric constant tensor:
#      x y z
#    x 6.236720 0.000000 0.000000 
#    y 0.000000 3.356410 0.000000 
#    z 0.000000 0.000000 3.832600 
# 
# 
# High freq. dielectric constant tensor:
#      x y z
#    x 1.833730 0.000000 0.000000 
#    y 0.000000 1.764400 0.000000 
#    z 0.000000 0.000000 1.775640 
# 
# From -- ./inp_files/25085.got.cif
#   From: 2010.03.12/outbox.cif.g09.slc.cpg/sg40_13_cif.got.tgz:25085.got - 2010.04.14 01:38:03.
