data_PCOD8183148
_publ_section_title
;
Structure prediction by ZEFSAII (Michael W. Deem and Ramdas Pophale) SiO2 
 PCOD8183148
Probable space group: A M A 2
;
_chemical_formula_sum "Si O2"
_cell_formula_units_Z 48
_cell_length_a 8.769465
_cell_length_b 19.141639
_cell_length_c 15.139486
_cell_angle_alpha 90.000000
_cell_angle_beta 90.000000
_cell_angle_gamma 90.000000
_cell_volume 2541.343388
_symmetry_space_group_name_H-M "A M A 2"
_symmetry_group_IT_number 40
_symmetry_cell_setting 'orthorhombic'
loop_
_space_group_symop_operation_xyz
x,y,z
-x,-y,z
1/2-x,y,z
1/2+x,-y,z
x,1/2+y,1/2+z
-x,1/2-y,1/2+z
1/2-x,1/2+y,1/2+z
1/2+x,1/2-y,1/2+z
loop_
_atom_site_type_symbol
_atom_site_label
_atom_site_fract_x
_atom_site_fract_y
_atom_site_fract_z
Si Si1 0.070009 0.073793 0.635140
Si Si2 0.929554 0.329488 0.297950
Si Si3 0.430767 0.327732 0.790832
Si Si4 0.068569 0.925321 0.449511
Si Si5 0.570010 0.072383 0.139552
Si Si6 0.570518 0.072726 0.939132
O O1 0.250000 0.064971 0.622711
O O2 0.027476 0.130927 0.708082
O O3 0.996274 0.099436 0.543677
O O4 0.000000 0.000000 0.665288
O O5 0.750000 0.331262 0.315101
O O6 0.994495 0.250926 0.291305
O O7 0.011217 0.364050 0.380849
O O8 0.250000 0.325707 0.788069
O O9 0.486231 0.368721 0.877835
O O10 0.492389 0.366364 0.702964
O O11 0.250000 0.931592 0.454364
O O12 0.000000 0.000000 0.422531
O O13 0.750000 0.065374 0.146817
O O14 0.500000 0.000000 0.173222
O O15 0.518620 0.088558 0.039472
O O16 0.750000 0.066293 0.930265
O O17 0.500000 0.000000 0.905287
#
# Coordination Sequence:
#
# PCOD8183148 Si02
#       6
#     8   8   8   8   8   8
#     4  10  20  34  54  76 100 132 170 212 254 299
#     4  10  21  36  53  74 104 140 172 206 253 306
#     4   9  19  35  53  75 105 139 169 203 255 309
#     4  10  19  33  55  78 102 133 170 212 254 300
#     4   9  18  34  55  77 102 133 170 210 253 302
#     4  10  20  34  55  80 104 133 170 213 255 298
#
# _framework density 18.887647999999999
#
# number of rings (size 3 to 8) (size 9 to 14) (size 15 to 20)
#    0.000    2.333    0.000    3.500    0.000    4.667 
#    0.000    5.000    0.000    0.000    0.000    0.000 
#    0.000    0.000    0.000    0.000    0.000    0.000 
#
# Total GULP energy -297642.109280 kJ/mol
# GULP energy per Si atom -12401.754553 kJ/mol
# Density = 1.884466 g / cm^3
# Si number density = 18.887648 Si / 1000 Ang^3
#
#
#
# Elastic Constant Matrix: (Units=GPa)
#
#
# Indices 1 2 3 4 5 6 
#
# 1 51.7875 38.1026 40.3486 0.0000 0.0000 0.0000
# 2 38.1026 176.2236 105.9725 0.0000 0.0000 0.0000
# 3 40.3486 105.9725 136.1109 0.0000 0.0000 0.0000
# 4 0.0000 0.0000 0.0000 6.9071 0.0000 0.0000
# 5 0.0000 0.0000 0.0000 0.0000 14.1693 0.0000
# 6 0.0000 0.0000 0.0000 0.0000 0.0000 24.1390
#
#
#
# Elastic Compliance Matrix: (Units=1/GPa)
#
#
# Indices 1 2 3 4 5 6 
#
# 1 0.025413 -0.001814 -0.006121 0.000000 0.000000 0.000000
# 2 -0.001814 0.010800 -0.007871 0.000000 0.000000 0.000000
# 3 -0.006121 -0.007871 0.015290 0.000000 0.000000 0.000000
# 4 0.000000 0.000000 0.000000 0.144779 0.000000 0.000000
# 5 0.000000 0.000000 0.000000 0.000000 0.070575 0.000000
# 6 0.000000 0.000000 0.000000 0.000000 0.000000 0.041427
#
#
# Mechanical properties :
#
#
# Convention : Reuss Voigt Hill
#
# Bulk Modulus (GPa) = 50.27407 81.44106 65.85757
# Shear Modulus (GPa) = 14.42893 21.02298 17.72595
#
# Velocity S-wave (km/s) = 2.76694 3.33987 3.06681
# Velocity P-wave (km/s) = 6.07315 7.62137 6.89088
#
# Compressibility (1/GPa) = 0.01989097
#
# Stress axis : x y z
#
# Youngs Moduli (GPa) = 39.34927 92.59295 65.40357
#
# Poissons Ratio (x) = 0.16793 0.40036
# Poissons Ratio (y) = 0.07137 0.51479
# Poissons Ratio (z) = 0.24087 0.72879
#
# Static dielectric constant tensor:
#      x y z
#    x 3.319440 0.000000 0.000000 
#    y 0.000000 3.669580 0.000000 
#    z 0.000000 0.000000 3.668110 
# 
# 
# High freq. dielectric constant tensor:
#      x y z
#    x 1.722080 0.000000 0.000000 
#    y 0.000000 1.731740 0.000000 
#    z 0.000000 0.000000 1.746880 
# 
# From -- ./inp_files/15053.got.cif
#   From: 2010.03.12/outbox.cif.g09.slc.cpg/sg40_8_cif.got.tgz:15053.got - 2010.04.14 01:38:03.
