data_PCOD8183286
_publ_section_title
;
Structure prediction by ZEFSAII (Michael W. Deem and Ramdas Pophale) SiO2 
 PCOD8183286
Probable space group: A M A 2
;
_chemical_formula_sum "Si O2"
_cell_formula_units_Z 60
_cell_length_a 9.194067
_cell_length_b 14.718730
_cell_length_c 24.072303
_cell_angle_alpha 90.000000
_cell_angle_beta 90.000000
_cell_angle_gamma 90.000000
_cell_volume 3257.584157
_symmetry_space_group_name_H-M "A M A 2"
_symmetry_group_IT_number 40
_symmetry_cell_setting 'orthorhombic'
loop_
_space_group_symop_operation_xyz
x,y,z
-x,-y,z
1/2-x,y,z
1/2+x,-y,z
x,1/2+y,1/2+z
-x,1/2-y,1/2+z
1/2-x,1/2+y,1/2+z
1/2+x,1/2-y,1/2+z
loop_
_atom_site_type_symbol
_atom_site_label
_atom_site_fract_x
_atom_site_fract_y
_atom_site_fract_z
Si Si1 0.584107 0.592534 0.764830
Si Si2 0.415516 0.764554 0.180380
Si Si3 0.578214 0.711642 0.866972
Si Si4 0.577341 0.597182 0.972730
Si Si5 0.911811 0.837030 0.574396
Si Si6 0.922893 0.913577 0.848303
Si Si7 0.589865 0.618743 0.240546
Si Si8 0.000000 0.000000 0.647157
O O1 0.500000 0.500000 0.769930
O O2 0.750000 0.570822 0.779774
O O3 0.570188 0.631435 0.701671
O O4 0.522382 0.664938 0.810075
O O5 0.250000 0.729743 0.191482
O O6 0.451105 0.748518 0.115010
O O7 0.528866 0.713560 0.219007
O O8 0.750000 0.716644 0.866350
O O9 0.523682 0.651854 0.918722
O O10 0.522486 0.816172 0.872524
O O11 0.500000 0.500000 0.973807
O O12 0.750000 0.582745 0.974311
O O13 0.529778 0.657599 0.025551
O O14 0.750000 0.824408 0.549267
O O15 0.910387 0.930128 0.609428
O O16 0.750000 0.925417 0.851715
O O17 0.974336 0.919460 0.784552
O O18 0.000000 0.000000 0.879513
O O19 0.750000 0.632253 0.267445
O O20 0.609856 0.553371 0.187388
#
# Coordination Sequence:
#
# PCOD8183286 Si02
#       8
#     8   8   8   8   8   8   8   4
#     4  10  19  35  56  80 109 146 184 225 271 323
#     4   9  19  35  53  73 107 145 177 216 274 324
#     4   9  20  38  57  76 108 148 182 221 276 324
#     4  11  22  37  57  81 108 144 184 226 272 323
#     4  10  20  34  53  78 108 144 179 217 266 325
#     4  11  21  36  55  78 110 144 180 222 271 329
#     4  11  20  29  47  76 108 141 176 212 258 318
#     4  10  20  30  48  74 116 142 174 210 266 312
#
# _framework density 18.418557
#
# number of rings (size 3 to 8) (size 9 to 14) (size 15 to 20)
#    0.000    1.867    2.667    2.000    0.000    3.733 
#    0.000    3.333    0.000    0.800    0.000    5.600 
#    0.000    0.000    0.000    0.000    0.000    0.000 
#
# Total GULP energy -371738.713385 kJ/mol
# GULP energy per Si atom -12391.290446 kJ/mol
# Density = 1.837664 g / cm^3
# Si number density = 18.418557 Si / 1000 Ang^3
#
#
#
# Elastic Constant Matrix: (Units=GPa)
#
#
# Indices 1 2 3 4 5 6 
#
# 1 79.0458 38.4089 27.6028 0.0000 0.0000 0.0000
# 2 38.4089 117.3736 49.3470 0.0000 0.0000 0.0000
# 3 27.6028 49.3470 97.0262 0.0000 0.0000 0.0000
# 4 0.0000 0.0000 0.0000 22.7222 0.0000 0.0000
# 5 0.0000 0.0000 0.0000 0.0000 14.7281 0.0000
# 6 0.0000 0.0000 0.0000 0.0000 0.0000 26.0704
#
#
#
# Elastic Compliance Matrix: (Units=1/GPa)
#
#
# Indices 1 2 3 4 5 6 
#
# 1 0.015442 -0.004078 -0.002319 0.000000 0.000000 0.000000
# 2 -0.004078 0.011914 -0.004899 0.000000 0.000000 0.000000
# 3 -0.002319 -0.004899 0.013458 0.000000 0.000000 0.000000
# 4 0.000000 0.000000 0.000000 0.044010 0.000000 0.000000
# 5 0.000000 0.000000 0.000000 0.000000 0.067897 0.000000
# 6 0.000000 0.000000 0.000000 0.000000 0.000000 0.038358
#
#
# Mechanical properties :
#
#
# Convention : Reuss Voigt Hill
#
# Bulk Modulus (GPa) = 54.88051 58.24031 56.56041
# Shear Modulus (GPa) = 22.75354 24.57662 23.66508
#
# Velocity S-wave (km/s) = 3.51858 3.65682 3.58837
# Velocity P-wave (km/s) = 6.80942 7.03697 6.92413
#
# Compressibility (1/GPa) = 0.01822141
#
# Stress axis : x y z
#
# Youngs Moduli (GPa) = 64.75689 83.93378 74.30566
#
# Poissons Ratio (x) = 0.34231 0.17231
# Poissons Ratio (y) = 0.26410 0.36404
# Poissons Ratio (z) = 0.15017 0.41121
#
# Static dielectric constant tensor:
#      x y z
#    x 3.287980 0.000000 0.000000 
#    y 0.000000 3.512450 0.000000 
#    z 0.000000 0.000000 3.444070 
# 
# 
# High freq. dielectric constant tensor:
#      x y z
#    x 1.706200 0.000000 0.000000 
#    y 0.000000 1.705640 0.000000 
#    z 0.000000 0.000000 1.690880 
# 
# From -- ./inp_files/24174.got.cif
#   From: 2010.03.12/outbox.cif.g09.slc.cpg/sg40_13_cif.got.tgz:24174.got - 2010.04.14 01:38:03.
