data_PCOD8183810
_publ_section_title
;
Structure prediction by ZEFSAII (Michael W. Deem and Ramdas Pophale) SiO2 
 PCOD8183810
Probable space group: A M A 2
;
_chemical_formula_sum "Si O2"
_cell_formula_units_Z 40
_cell_length_a 18.499528
_cell_length_b 12.408269
_cell_length_c 8.710892
_cell_angle_alpha 90.000000
_cell_angle_beta 90.000000
_cell_angle_gamma 90.000000
_cell_volume 1999.560169
_symmetry_space_group_name_H-M "A M A 2"
_symmetry_group_IT_number 40
_symmetry_cell_setting 'orthorhombic'
loop_
_space_group_symop_operation_xyz
x,y,z
-x,-y,z
1/2-x,y,z
1/2+x,-y,z
x,1/2+y,1/2+z
-x,1/2-y,1/2+z
1/2-x,1/2+y,1/2+z
1/2+x,1/2-y,1/2+z
loop_
_atom_site_type_symbol
_atom_site_label
_atom_site_fract_x
_atom_site_fract_y
_atom_site_fract_z
Si Si1 0.168049 0.819270 0.259320
Si Si2 0.430096 0.735722 0.833151
Si Si3 0.332471 0.114673 0.564387
Si Si4 0.666325 0.628183 0.105722
Si Si5 0.531846 0.615711 0.600856
O O1 0.250000 0.859766 0.228890
O O2 0.158244 0.695117 0.208034
O O3 0.148520 0.826312 0.437551
O O4 0.115307 0.894280 0.157151
O O5 0.379485 0.807347 0.727559
O O6 0.488607 0.671223 0.737531
O O7 0.381576 0.649311 0.922236
O O8 0.473708 0.812563 0.948668
O O9 0.250000 0.111589 0.505243
O O10 0.356828 0.996592 0.618264
O O11 0.750000 0.643713 0.147231
O O12 0.500000 0.500000 0.560695
#
# Coordination Sequence:
#
# PCOD8183810 Si02
#       5
#     8   8   8   8   8
#     4   9  19  38  61  84 113 148 189 235 281 337
#     4  11  23  37  57  84 117 152 192 235 281 338
#     4   9  19  37  60  86 117 152 189 233 282 334
#     4  10  20  36  60  87 115 151 192 233 281 334
#     4  11  24  40  59  85 116 151 190 234 287 339
#
# _framework density 20.0044
#
# number of rings (size 3 to 8) (size 9 to 14) (size 15 to 20)
#    0.000    2.000    0.000    3.000    0.000    5.600 
#    0.000    2.000    0.000   10.800    0.000    0.000 
#    0.000    0.000    0.000    0.000    0.000    0.000 
#
# Total GULP energy -248070.941817 kJ/mol
# GULP energy per Si atom -12403.547091 kJ/mol
# Density = 1.995887 g / cm^3
# Si number density = 20.004400 Si / 1000 Ang^3
#
#
#
# Elastic Constant Matrix: (Units=GPa)
#
#
# Indices 1 2 3 4 5 6 
#
# 1 62.8434 28.9988 10.1872 0.0000 0.0000 0.0000
# 2 28.9988 76.8312 11.0174 0.0000 0.0000 0.0000
# 3 10.1872 11.0174 47.7161 0.0000 0.0000 0.0000
# 4 0.0000 0.0000 0.0000 16.1557 0.0000 0.0000
# 5 0.0000 0.0000 0.0000 0.0000 50.9472 0.0000
# 6 0.0000 0.0000 0.0000 0.0000 0.0000 26.3522
#
#
#
# Elastic Compliance Matrix: (Units=1/GPa)
#
#
# Indices 1 2 3 4 5 6 
#
# 1 0.019565 -0.007018 -0.002557 0.000000 0.000000 0.000000
# 2 -0.007018 0.015979 -0.002191 0.000000 0.000000 0.000000
# 3 -0.002557 -0.002191 0.022009 0.000000 0.000000 0.000000
# 4 0.000000 0.000000 0.000000 0.061897 0.000000 0.000000
# 5 0.000000 0.000000 0.000000 0.000000 0.019628 0.000000
# 6 0.000000 0.000000 0.000000 0.000000 0.000000 0.037948
#
#
# Mechanical properties :
#
#
# Convention : Reuss Voigt Hill
#
# Bulk Modulus (GPa) = 29.39324 31.97751 30.68537
# Shear Modulus (GPa) = 23.59622 27.83685 25.71654
#
# Velocity S-wave (km/s) = 3.43819 3.73438 3.58934
# Velocity P-wave (km/s) = 5.52148 5.88337 5.70530
#
# Compressibility (1/GPa) = 0.03402143
#
# Stress axis : x y z
#
# Youngs Moduli (GPa) = 51.11046 62.58373 45.43592
#
# Poissons Ratio (x) = 0.43922 0.11617
# Poissons Ratio (y) = 0.35870 0.09955
# Poissons Ratio (z) = 0.13067 0.13712
#
# Static dielectric constant tensor:
#      x y z
#    x 3.737840 0.000000 0.000000 
#    y 0.000000 3.808710 0.000000 
#    z 0.000000 0.000000 3.651650 
# 
# 
# High freq. dielectric constant tensor:
#      x y z
#    x 1.792650 0.000000 0.000000 
#    y 0.000000 1.779160 0.000000 
#    z 0.000000 0.000000 1.782970 
# 
# From -- ./inp_files/7136.got.cif
#   From: 2010.03.12/outbox.cif.g09.slc.cpg/sg40_4_cif.got.tgz:7136.got - 2010.04.14 01:38:03.
