data_PCOD8183841
_publ_section_title
;
Structure prediction by ZEFSAII (Michael W. Deem and Ramdas Pophale) SiO2 
 PCOD8183841
Probable space group: A M A 2
;
_chemical_formula_sum "Si O2"
_cell_formula_units_Z 64
_cell_length_a 9.162056
_cell_length_b 24.866204
_cell_length_c 14.783987
_cell_angle_alpha 90.000000
_cell_angle_beta 90.000000
_cell_angle_gamma 90.000000
_cell_volume 3368.170022
_symmetry_space_group_name_H-M "A M A 2"
_symmetry_group_IT_number 40
_symmetry_cell_setting 'orthorhombic'
loop_
_space_group_symop_operation_xyz
x,y,z
-x,-y,z
1/2-x,y,z
1/2+x,-y,z
x,1/2+y,1/2+z
-x,1/2-y,1/2+z
1/2-x,1/2+y,1/2+z
1/2+x,1/2-y,1/2+z
loop_
_atom_site_type_symbol
_atom_site_label
_atom_site_fract_x
_atom_site_fract_y
_atom_site_fract_z
Si Si1 0.419159 0.869981 0.331810
Si Si2 0.924242 0.942690 0.470109
Si Si3 0.922813 0.654355 0.444330
Si Si4 0.083315 0.259545 0.921840
Si Si5 0.081453 0.828064 0.145425
Si Si6 0.080618 0.894756 0.639522
Si Si7 0.084912 0.274971 0.129977
Si Si8 0.420470 0.945673 0.828538
O O1 0.250000 0.882308 0.356638
O O2 0.524217 0.912754 0.379176
O O3 0.462050 0.809670 0.360222
O O4 0.446234 0.872658 0.223340
O O5 0.750000 0.948655 0.469861
O O6 0.974612 0.909806 0.557747
O O7 0.000000 0.000000 0.472948
O O8 0.750000 0.657614 0.436443
O O9 0.978216 0.650583 0.548818
O O10 0.981482 0.602004 0.392038
O O11 0.985901 0.707836 0.397136
O O12 0.250000 0.242909 0.905624
O O13 0.054375 0.278534 0.023535
O O14 0.250000 0.815108 0.135692
O O15 0.011455 0.771356 0.175039
O O16 0.250000 0.899806 0.608316
O O17 0.047711 0.833598 0.670617
O O18 0.046111 0.932982 0.723895
O O19 0.250000 0.258945 0.151067
O O20 0.250000 0.953711 0.844829
O O21 0.500000 0.000000 0.857362
#
# Coordination Sequence:
#
# PCOD8183841 Si02
#       8
#     8   8   8   8   8   8   8   8
#     4  10  20  37  57  81 116 153 188 231 282 333
#     4  12  25  40  60  84 112 149 190 236 285 341
#     4   9  19  36  55  80 112 145 187 234 282 328
#     4   9  17  31  52  78 108 145 181 221 275 330
#     4   9  19  34  55  81 115 152 186 231 278 330
#     4  10  20  37  57  81 115 152 186 227 282 338
#     4   9  17  31  52  78 113 149 180 220 273 333
#     4  10  22  38  57  79 108 147 190 236 283 331
#
# _framework density 19.001415999999999
#
# number of rings (size 3 to 8) (size 9 to 14) (size 15 to 20)
#    0.000    2.250    1.250    1.500    1.750    3.500 
#    0.000    0.625    0.000    1.500    0.000    0.000 
#    0.000    0.000    0.000    0.000    0.000    0.000 
#
# Total GULP energy -396800.027155 kJ/mol
# GULP energy per Si atom -12400.000849 kJ/mol
# Density = 1.895817 g / cm^3
# Si number density = 19.001416 Si / 1000 Ang^3
#
#
#
# Elastic Constant Matrix: (Units=GPa)
#
#
# Indices 1 2 3 4 5 6 
#
# 1 63.6197 30.4371 21.9274 0.0000 0.0000 0.0000
# 2 30.4371 71.6601 8.5240 0.0000 0.0000 0.0000
# 3 21.9274 8.5240 42.9917 0.0000 0.0000 0.0000
# 4 0.0000 0.0000 0.0000 28.8870 0.0000 0.0000
# 5 0.0000 0.0000 0.0000 0.0000 19.9479 0.0000
# 6 0.0000 0.0000 0.0000 0.0000 0.0000 36.0915
#
#
#
# Elastic Compliance Matrix: (Units=1/GPa)
#
#
# Indices 1 2 3 4 5 6 
#
# 1 0.023415 -0.008731 -0.010211 0.000000 0.000000 0.000000
# 2 -0.008731 0.017547 0.000974 0.000000 0.000000 0.000000
# 3 -0.010211 0.000974 0.028275 0.000000 0.000000 0.000000
# 4 0.000000 0.000000 0.000000 0.034618 0.000000 0.000000
# 5 0.000000 0.000000 0.000000 0.000000 0.050130 0.000000
# 6 0.000000 0.000000 0.000000 0.000000 0.000000 0.027707
#
#
# Mechanical properties :
#
#
# Convention : Reuss Voigt Hill
#
# Bulk Modulus (GPa) = 30.02909 33.33873 31.68391
# Shear Modulus (GPa) = 21.85988 24.81082 23.33535
#
# Velocity S-wave (km/s) = 3.39548 3.61742 3.50821
# Velocity P-wave (km/s) = 5.58662 5.91871 5.75506
#
# Compressibility (1/GPa) = 0.03330104
#
# Stress axis : x y z
#
# Youngs Moduli (GPa) = 42.70804 56.98920 35.36644
#
# Poissons Ratio (x) = 0.49755 0.36114
# Poissons Ratio (y) = 0.37287 -0.03444
# Poissons Ratio (z) = 0.43611 -0.05550
#
# Static dielectric constant tensor:
#      x y z
#    x 3.380690 0.000000 0.000000 
#    y 0.000000 3.496940 0.000000 
#    z 0.000000 0.000000 3.634770 
# 
# 
# High freq. dielectric constant tensor:
#      x y z
#    x 1.726300 0.000000 0.000000 
#    y 0.000000 1.731300 0.000000 
#    z 0.000000 0.000000 1.740090 
# 
# From -- ./inp_files/15653.got.cif
#   From: 2010.03.12/outbox.cif.g09.slc.cpg/sg40_8_cif.got.tgz:15653.got - 2010.04.14 01:38:03.
