data_PCOD8183621
_publ_section_title
;
Structure prediction by ZEFSAII (Michael W. Deem and Ramdas Pophale) SiO2 
 PCOD8183621
Probable space group: A M A 2
;
_chemical_formula_sum "Si O2"
_cell_formula_units_Z 64
_cell_length_a 15.198941
_cell_length_b 9.180605
_cell_length_c 22.851817
_cell_angle_alpha 90.000000
_cell_angle_beta 90.000000
_cell_angle_gamma 90.000000
_cell_volume 3188.639111
_symmetry_space_group_name_H-M "A M A 2"
_symmetry_group_IT_number 40
_symmetry_cell_setting 'orthorhombic'
loop_
_space_group_symop_operation_xyz
x,y,z
-x,-y,z
1/2-x,y,z
1/2+x,-y,z
x,1/2+y,1/2+z
-x,1/2-y,1/2+z
1/2-x,1/2+y,1/2+z
1/2+x,1/2-y,1/2+z
loop_
_atom_site_type_symbol
_atom_site_label
_atom_site_fract_x
_atom_site_fract_y
_atom_site_fract_z
Si Si1 0.966795 0.350986 0.290530
Si Si2 0.347347 0.377478 0.733098
Si Si3 0.347696 0.155959 0.020621
Si Si4 0.350496 0.216379 0.437072
Si Si5 0.582156 0.904721 0.326028
Si Si6 0.651255 0.466731 0.395133
Si Si7 0.089322 0.921042 0.108514
Si Si8 0.481114 0.161890 0.541784
O O1 0.909718 0.259941 0.244613
O O2 0.912257 0.393842 0.348133
O O3 0.000000 0.500000 0.259873
O O4 0.051868 0.256571 0.307405
O O5 0.250000 0.327523 0.749746
O O6 0.371377 0.518166 0.771474
O O7 0.349456 0.422538 0.665301
O O8 0.250000 0.212843 0.038729
O O9 0.421929 0.272375 0.034194
O O10 0.365130 0.003658 0.054288
O O11 0.350149 0.134689 0.951557
O O12 0.250000 0.218986 0.461818
O O13 0.352536 0.108269 0.381165
O O14 0.382011 0.374936 0.415471
O O15 0.421131 0.159009 0.483768
O O16 0.500000 0.000000 0.347202
O O17 0.750000 0.477910 0.369052
O O18 0.071339 0.754460 0.090087
O O19 0.000000 0.000000 0.127022
O O20 0.500000 0.000000 0.564712
#
# Coordination Sequence:
#
# PCOD8183621 Si02
#       8
#     8   8   8   8   8   8   8   8
#     4  11  21  36  60  85 121 160 203 250 305 365
#     4  11  24  42  62  88 120 158 207 257 306 365
#     4  10  21  39  65  92 119 161 210 256 301 363
#     4  11  21  35  58  91 131 168 204 249 307 371
#     4  10  21  37  58  85 120 164 206 251 304 363
#     4  10  20  34  58  91 124 158 205 250 296 359
#     4  10  21  41  67  87 116 159 212 251 298 364
#     4  11  24  39  61  94 128 161 196 255 321 376
#
# _framework density 20.071258
#
# number of rings (size 3 to 8) (size 9 to 14) (size 15 to 20)
#    0.000    1.500    2.500    3.375    0.000    2.500 
#    0.000    2.500    0.000    0.000    0.000    0.000 
#    0.000    0.000    0.000    0.000    0.000    0.000 
#
# Total GULP energy -396780.742654 kJ/mol
# GULP energy per Si atom -12399.398208 kJ/mol
# Density = 2.002557 g / cm^3
# Si number density = 20.071258 Si / 1000 Ang^3
#
#
#
# Elastic Constant Matrix: (Units=GPa)
#
#
# Indices 1 2 3 4 5 6 
#
# 1 104.1166 27.6997 27.3484 0.0000 0.0000 0.0000
# 2 27.6997 115.6021 29.2609 0.0000 0.0000 0.0000
# 3 27.3484 29.2609 81.8589 0.0000 0.0000 0.0000
# 4 0.0000 0.0000 0.0000 23.8735 0.0000 0.0000
# 5 0.0000 0.0000 0.0000 0.0000 25.1259 0.0000
# 6 0.0000 0.0000 0.0000 0.0000 0.0000 22.1236
#
#
#
# Elastic Compliance Matrix: (Units=1/GPa)
#
#
# Indices 1 2 3 4 5 6 
#
# 1 0.010879 -0.001854 -0.002972 0.000000 0.000000 0.000000
# 2 -0.001854 0.009827 -0.002893 0.000000 0.000000 0.000000
# 3 -0.002972 -0.002893 0.014243 0.000000 0.000000 0.000000
# 4 0.000000 0.000000 0.000000 0.041887 0.000000 0.000000
# 5 0.000000 0.000000 0.000000 0.000000 0.039799 0.000000
# 6 0.000000 0.000000 0.000000 0.000000 0.000000 0.045201
#
#
# Mechanical properties :
#
#
# Convention : Reuss Voigt Hill
#
# Bulk Modulus (GPa) = 51.25499 52.24394 51.74947
# Shear Modulus (GPa) = 27.20676 28.70920 27.95798
#
# Velocity S-wave (km/s) = 3.68572 3.78612 3.73625
# Velocity P-wave (km/s) = 6.61095 6.72299 6.66721
#
# Compressibility (1/GPa) = 0.01951030
#
# Stress axis : x y z
#
# Youngs Moduli (GPa) = 91.92422 101.76026 70.20950
#
# Poissons Ratio (x) = 0.18871 0.20863
# Poissons Ratio (y) = 0.17047 0.20313
# Poissons Ratio (z) = 0.27316 0.29441
#
# Static dielectric constant tensor:
#      x y z
#    x 3.831250 0.000000 0.000000 
#    y 0.000000 3.681690 0.000000 
#    z 0.000000 0.000000 3.437410 
# 
# 
# High freq. dielectric constant tensor:
#      x y z
#    x 1.794130 0.000000 0.000000 
#    y 0.000000 1.779600 0.000000 
#    z 0.000000 0.000000 1.768310 
# 
# From -- ./inp_files/24770.got.cif
#   From: 2010.03.12/outbox.cif.g09.slc.cpg/sg40_13_cif.got.tgz:24770.got - 2010.04.14 01:38:03.
