data_PCOD8183362
_publ_section_title
;
Structure prediction by ZEFSAII (Michael W. Deem and Ramdas Pophale) SiO2 
 PCOD8183362
Probable space group: A M A 2
;
_chemical_formula_sum "Si O2"
_cell_formula_units_Z 36
_cell_length_a 21.326619
_cell_length_b 7.682360
_cell_length_c 12.131160
_cell_angle_alpha 90.000000
_cell_angle_beta 90.000000
_cell_angle_gamma 90.000000
_cell_volume 1987.554269
_symmetry_space_group_name_H-M "A M A 2"
_symmetry_group_IT_number 40
_symmetry_cell_setting 'orthorhombic'
loop_
_space_group_symop_operation_xyz
x,y,z
-x,-y,z
1/2-x,y,z
1/2+x,-y,z
x,1/2+y,1/2+z
-x,1/2-y,1/2+z
1/2-x,1/2+y,1/2+z
1/2+x,1/2-y,1/2+z
loop_
_atom_site_type_symbol
_atom_site_label
_atom_site_fract_x
_atom_site_fract_y
_atom_site_fract_z
Si Si1 0.678950 0.429036 0.763650
Si Si2 0.596756 0.274099 0.929584
Si Si3 0.107876 0.388672 0.206750
Si Si4 0.500000 0.000000 0.549075
Si Si5 0.321307 0.726923 0.132045
O O1 0.750000 0.370053 0.785709
O O2 0.639948 0.427814 0.877869
O O3 0.647748 0.286631 0.680044
O O4 0.675739 0.623518 0.721882
O O5 0.585415 0.124726 0.836117
O O6 0.531600 0.355484 0.971047
O O7 0.636341 0.201508 0.032150
O O8 0.048618 0.397113 0.126223
O O9 0.151421 0.555394 0.189231
O O10 0.250000 0.693430 0.093140
#
# Coordination Sequence:
#
# PCOD8183362 Si02
#       5
#     8   8   8   4   8
#     4   9  19  38  59  85 114 145 187 239 291 338
#     4   9  21  38  57  81 117 149 190 235 281 337
#     4   9  21  39  56  83 115 149 190 238 281 334
#     4  10  20  40  56  82 114 158 198 230 282 342
#     4  10  19  36  60  84 115 146 183 234 291 346
#
# _framework density 18.112711000000001
#
# number of rings (size 3 to 8) (size 9 to 14) (size 15 to 20)
#    1.333    1.333    0.000    1.333    0.000    3.556 
#   12.000    0.000    0.000    0.000    0.000    0.000 
#    0.000    0.000    0.000    0.000    0.000    0.000 
#
# Total GULP energy -223015.719043 kJ/mol
# GULP energy per Si atom -12389.762169 kJ/mol
# Density = 1.807149 g / cm^3
# Si number density = 18.112711 Si / 1000 Ang^3
#
#
#
# Elastic Constant Matrix: (Units=GPa)
#
#
# Indices 1 2 3 4 5 6 
#
# 1 113.6818 35.8538 26.7323 0.0000 0.0000 0.0000
# 2 35.8538 75.9075 16.0223 0.0000 0.0000 0.0000
# 3 26.7323 16.0223 71.0649 0.0000 0.0000 0.0000
# 4 0.0000 0.0000 0.0000 30.0073 0.0000 0.0000
# 5 0.0000 0.0000 0.0000 0.0000 29.2245 0.0000
# 6 0.0000 0.0000 0.0000 0.0000 0.0000 14.9518
#
#
#
# Elastic Compliance Matrix: (Units=1/GPa)
#
#
# Indices 1 2 3 4 5 6 
#
# 1 0.010950 -0.004518 -0.003101 0.000000 0.000000 0.000000
# 2 -0.004518 0.015696 -0.001839 0.000000 0.000000 0.000000
# 3 -0.003101 -0.001839 0.015653 0.000000 0.000000 0.000000
# 4 0.000000 0.000000 0.000000 0.033325 0.000000 0.000000
# 5 0.000000 0.000000 0.000000 0.000000 0.034218 0.000000
# 6 0.000000 0.000000 0.000000 0.000000 0.000000 0.066881
#
#
# Mechanical properties :
#
#
# Convention : Reuss Voigt Hill
#
# Bulk Modulus (GPa) = 42.76500 46.43013 44.59756
# Shear Modulus (GPa) = 24.57799 26.97310 25.77554
#
# Velocity S-wave (km/s) = 3.68767 3.86318 3.77644
# Velocity P-wave (km/s) = 6.46480 6.75193 6.60992
#
# Compressibility (1/GPa) = 0.02338361
#
# Stress axis : x y z
#
# Youngs Moduli (GPa) = 91.32031 63.71004 63.88665
#
# Poissons Ratio (x) = 0.28783 0.19809
# Poissons Ratio (y) = 0.41257 0.11751
# Poissons Ratio (z) = 0.28315 0.11719
#
# Static dielectric constant tensor:
#      x y z
#    x 3.489500 0.000000 0.000000 
#    y 0.000000 3.021460 0.000000 
#    z 0.000000 0.000000 3.248790 
# 
# 
# High freq. dielectric constant tensor:
#      x y z
#    x 1.714840 0.000000 0.000000 
#    y 0.000000 1.684120 0.000000 
#    z 0.000000 0.000000 1.697060 
# 
# From -- ./inp_files/13380.got.cif
#   From: 2010.03.12/outbox.cif.g09.slc.cpg/sg40_7_cif.got.tgz:13380.got - 2010.04.14 01:38:03.
