data_PCOD8183444
_publ_section_title
;
Structure prediction by ZEFSAII (Michael W. Deem and Ramdas Pophale) SiO2 
 PCOD8183444
Probable space group: A M A 2
;
_chemical_formula_sum "Si O2"
_cell_formula_units_Z 60
_cell_length_a 8.962660
_cell_length_b 14.376099
_cell_length_c 23.945829
_cell_angle_alpha 90.000000
_cell_angle_beta 90.000000
_cell_angle_gamma 90.000000
_cell_volume 3085.374269
_symmetry_space_group_name_H-M "A M A 2"
_symmetry_group_IT_number 40
_symmetry_cell_setting 'orthorhombic'
loop_
_space_group_symop_operation_xyz
x,y,z
-x,-y,z
1/2-x,y,z
1/2+x,-y,z
x,1/2+y,1/2+z
-x,1/2-y,1/2+z
1/2-x,1/2+y,1/2+z
1/2+x,1/2-y,1/2+z
loop_
_atom_site_type_symbol
_atom_site_label
_atom_site_fract_x
_atom_site_fract_y
_atom_site_fract_z
Si Si1 0.426293 0.596423 0.798630
Si Si2 0.424389 0.787665 0.213606
Si Si3 0.577213 0.704214 0.895586
Si Si4 0.574973 0.599508 0.006987
Si Si5 0.583194 0.829063 0.610069
Si Si6 0.924065 0.914162 0.882119
Si Si7 0.585985 0.628675 0.271898
Si Si8 0.000000 0.000000 0.680980
O O1 0.500000 0.500000 0.817453
O O2 0.250000 0.585588 0.798805
O O3 0.482855 0.623166 0.735922
O O4 0.476690 0.674872 0.843014
O O5 0.250000 0.809996 0.217741
O O6 0.469279 0.755616 0.150844
O O7 0.463782 0.705026 0.255738
O O8 0.750000 0.684779 0.880939
O O9 0.552418 0.813169 0.910193
O O10 0.524881 0.646088 0.949214
O O11 0.500000 0.500000 0.013213
O O12 0.750000 0.585366 0.010128
O O13 0.526790 0.667139 0.057479
O O14 0.750000 0.808953 0.588577
O O15 0.588409 0.927338 0.642384
O O16 0.750000 0.933934 0.871784
O O17 0.018677 0.920499 0.825437
O O18 0.000000 0.000000 0.917736
O O19 0.750000 0.673047 0.283887
O O20 0.612158 0.555795 0.221405
#
# Coordination Sequence:
#
# PCOD8183444 Si02
#       8
#     8   8   8   8   8   8   8   4
#     4  12  24  38  61  89 119 158 202 246 296 352
#     4  10  21  37  55  80 117 152 188 234 288 343
#     4  10  23  42  60  82 117 158 198 248 300 349
#     4  11  23  39  60  85 114 152 198 245 297 353
#     4  10  21  36  56  83 116 154 190 233 288 344
#     4  11  22  36  56  81 116 152 191 239 291 350
#     4  11  20  30  49  78 112 149 187 222 275 340
#     4  10  20  30  50  78 120 152 184 224 278 340
#
# _framework density 19.446587000000001
#
# number of rings (size 3 to 8) (size 9 to 14) (size 15 to 20)
#    0.000    1.333    2.667    3.600    0.000    6.400 
#    0.000    0.000    0.000    0.800    0.000    3.733 
#    0.000    0.000    0.000    0.000    0.000    0.000 
#
# Total GULP energy -371859.650646 kJ/mol
# GULP energy per Si atom -12395.321688 kJ/mol
# Density = 1.940233 g / cm^3
# Si number density = 19.446587 Si / 1000 Ang^3
#
#
#
# Elastic Constant Matrix: (Units=GPa)
#
#
# Indices 1 2 3 4 5 6 
#
# 1 114.4704 33.9038 42.8734 0.0000 0.0000 0.0000
# 2 33.9038 76.5244 27.3152 0.0000 0.0000 0.0000
# 3 42.8734 27.3152 90.2608 0.0000 0.0000 0.0000
# 4 0.0000 0.0000 0.0000 25.8487 0.0000 0.0000
# 5 0.0000 0.0000 0.0000 0.0000 18.3249 0.0000
# 6 0.0000 0.0000 0.0000 0.0000 0.0000 29.7750
#
#
#
# Elastic Compliance Matrix: (Units=1/GPa)
#
#
# Indices 1 2 3 4 5 6 
#
# 1 0.011404 -0.003497 -0.004359 0.000000 0.000000 0.000000
# 2 -0.003497 0.015722 -0.003097 0.000000 0.000000 0.000000
# 3 -0.004359 -0.003097 0.014087 0.000000 0.000000 0.000000
# 4 0.000000 0.000000 0.000000 0.038687 0.000000 0.000000
# 5 0.000000 0.000000 0.000000 0.000000 0.054570 0.000000
# 6 0.000000 0.000000 0.000000 0.000000 0.000000 0.033585
#
#
# Mechanical properties :
#
#
# Convention : Reuss Voigt Hill
#
# Bulk Modulus (GPa) = 51.79159 54.38226 53.08693
# Shear Modulus (GPa) = 25.45872 26.60061 26.02967
#
# Velocity S-wave (km/s) = 3.62216 3.70250 3.66255
# Velocity P-wave (km/s) = 6.64710 6.80468 6.72635
#
# Compressibility (1/GPa) = 0.01930815
#
# Stress axis : x y z
#
# Youngs Moduli (GPa) = 87.68850 63.60348 70.98940
#
# Poissons Ratio (x) = 0.22240 0.30942
# Poissons Ratio (y) = 0.30662 0.21986
# Poissons Ratio (z) = 0.38220 0.19699
#
# Static dielectric constant tensor:
#      x y z
#    x 3.517580 0.000000 0.000000 
#    y 0.000000 3.700650 0.000000 
#    z 0.000000 0.000000 3.470980 
# 
# 
# High freq. dielectric constant tensor:
#      x y z
#    x 1.764270 0.000000 0.000000 
#    y 0.000000 1.752090 0.000000 
#    z 0.000000 0.000000 1.729360 
# 
# From -- ./inp_files/24175.got.cif
#   From: 2010.03.12/outbox.cif.g09.slc.cpg/sg40_13_cif.got.tgz:24175.got - 2010.04.14 01:38:03.
