data_PCOD8183752
_publ_section_title
;
Structure prediction by ZEFSAII (Michael W. Deem and Ramdas Pophale) SiO2 
 PCOD8183752
Probable space group: A M A 2
;
_chemical_formula_sum "Si O2"
_cell_formula_units_Z 64
_cell_length_a 8.757969
_cell_length_b 17.839673
_cell_length_c 20.594396
_cell_angle_alpha 90.000000
_cell_angle_beta 90.000000
_cell_angle_gamma 90.000000
_cell_volume 3217.654079
_symmetry_space_group_name_H-M "A M A 2"
_symmetry_group_IT_number 40
_symmetry_cell_setting 'orthorhombic'
loop_
_space_group_symop_operation_xyz
x,y,z
-x,-y,z
1/2-x,y,z
1/2+x,-y,z
x,1/2+y,1/2+z
-x,1/2-y,1/2+z
1/2-x,1/2+y,1/2+z
1/2+x,1/2-y,1/2+z
loop_
_atom_site_type_symbol
_atom_site_label
_atom_site_fract_x
_atom_site_fract_y
_atom_site_fract_z
Si Si1 0.926650 0.171271 0.950720
Si Si2 0.568639 0.580762 0.077588
Si Si3 0.431475 0.918647 0.326350
Si Si4 0.431305 0.661191 0.200287
Si Si5 0.931133 0.669096 0.700729
Si Si6 0.428492 0.918479 0.820931
Si Si7 0.068926 0.418597 0.575647
Si Si8 0.430166 0.331504 0.951590
O O1 0.750000 0.191833 0.957570
O O2 0.958055 0.116011 0.891317
O O3 0.016227 0.247566 0.940531
O O4 0.988025 0.130794 0.015192
O O5 0.500000 0.500000 0.062576
O O6 0.750000 0.574780 0.080516
O O7 0.507045 0.610508 0.145493
O O8 0.511851 0.635877 0.020217
O O9 0.250000 0.924636 0.325605
O O10 0.491674 0.866571 0.267591
O O11 0.493679 0.883125 0.393237
O O12 0.500000 0.000000 0.316783
O O13 0.250000 0.655073 0.194273
O O14 0.490921 0.746196 0.193074
O O15 0.484395 0.633155 0.270005
O O16 0.750000 0.669491 0.700121
O O17 0.994278 0.620402 0.640790
O O18 0.250000 0.922707 0.803644
O O19 0.500000 0.000000 0.819157
O O20 0.250000 0.425514 0.576008
O O21 0.000000 0.500000 0.569230
O O22 0.250000 0.332070 0.949031
#
# Coordination Sequence:
#
# PCOD8183752 Si02
#       8
#     8   8   8   8   8   8   8   8
#     4  10  22  38  58  83 114 149 189 234 280 331
#     4  11  23  39  58  84 115 149 189 236 285 340
#     4  10  20  36  56  82 112 145 184 226 272 327
#     4  11  22  39  62  84 110 149 188 233 288 342
#     4   9  19  35  57  82 111 145 184 227 274 328
#     4  11  23  39  58  84 115 149 189 236 285 340
#     4  10  20  36  56  82 112 145 184 226 272 327
#     4  10  22  38  58  83 114 149 189 234 280 331
#
# _framework density 19.890267000000001
#
# number of rings (size 3 to 8) (size 9 to 14) (size 15 to 20)
#    0.000    1.750    0.000    4.125    0.000    5.000 
#    0.000    2.500    0.000    0.000    0.000    0.000 
#    0.000    0.000    0.000    0.000    0.000    0.000 
#
# Total GULP energy -396943.064356 kJ/mol
# GULP energy per Si atom -12404.470761 kJ/mol
# Density = 1.984500 g / cm^3
# Si number density = 19.890267 Si / 1000 Ang^3
#
#
#
# Elastic Constant Matrix: (Units=GPa)
#
#
# Indices 1 2 3 4 5 6 
#
# 1 41.9262 28.6691 26.0583 0.0000 0.0000 0.0000
# 2 28.6691 118.9428 23.7068 0.0000 0.0000 0.0000
# 3 26.0583 23.7068 112.6644 0.0000 0.0000 0.0000
# 4 0.0000 0.0000 0.0000 43.8681 0.0000 0.0000
# 5 0.0000 0.0000 0.0000 0.0000 18.2481 0.0000
# 6 0.0000 0.0000 0.0000 0.0000 0.0000 36.5586
#
#
#
# Elastic Compliance Matrix: (Units=1/GPa)
#
#
# Indices 1 2 3 4 5 6 
#
# 1 0.032070 -0.006525 -0.006045 0.000000 0.000000 0.000000
# 2 -0.006525 0.010103 -0.000617 0.000000 0.000000 0.000000
# 3 -0.006045 -0.000617 0.010404 0.000000 0.000000 0.000000
# 4 0.000000 0.000000 0.000000 0.022796 0.000000 0.000000
# 5 0.000000 0.000000 0.000000 0.000000 0.054800 0.000000
# 6 0.000000 0.000000 0.000000 0.000000 0.000000 0.027353
#
#
# Mechanical properties :
#
#
# Convention : Reuss Voigt Hill
#
# Bulk Modulus (GPa) = 38.16177 47.82241 42.99209
# Shear Modulus (GPa) = 25.95599 32.74158 29.34879
#
# Velocity S-wave (km/s) = 3.61634 4.06163 3.84544
# Velocity P-wave (km/s) = 6.05517 6.78904 6.43258
#
# Compressibility (1/GPa) = 0.02620423
#
# Stress axis : x y z
#
# Youngs Moduli (GPa) = 31.18155 98.97950 96.11941
#
# Poissons Ratio (x) = 0.64586 0.58100
# Poissons Ratio (y) = 0.20347 0.05927
# Poissons Ratio (z) = 0.18848 0.06104
#
# Static dielectric constant tensor:
#      x y z
#    x 3.451280 0.000000 0.000000 
#    y 0.000000 3.698840 0.000000 
#    z 0.000000 0.000000 4.018190 
# 
# 
# High freq. dielectric constant tensor:
#      x y z
#    x 1.759040 0.000000 0.000000 
#    y 0.000000 1.792770 0.000000 
#    z 0.000000 0.000000 1.797080 
# 
# From -- ./inp_files/22420.got.cif
#   From: 2010.03.12/outbox.cif.g09.slc.cpg/sg40_12_cif.got.tgz:22420.got - 2010.04.14 01:38:03.
