data_PCOD8183422
_publ_section_title
;
Structure prediction by ZEFSAII (Michael W. Deem and Ramdas Pophale) SiO2 
 PCOD8183422
Probable space group: A M A 2
;
_chemical_formula_sum "Si O2"
_cell_formula_units_Z 64
_cell_length_a 16.984386
_cell_length_b 11.985897
_cell_length_c 15.003713
_cell_angle_alpha 90.000000
_cell_angle_beta 90.000000
_cell_angle_gamma 90.000000
_cell_volume 3054.352385
_symmetry_space_group_name_H-M "A M A 2"
_symmetry_group_IT_number 40
_symmetry_cell_setting 'orthorhombic'
loop_
_space_group_symop_operation_xyz
x,y,z
-x,-y,z
1/2-x,y,z
1/2+x,-y,z
x,1/2+y,1/2+z
-x,1/2-y,1/2+z
1/2-x,1/2+y,1/2+z
1/2+x,1/2-y,1/2+z
loop_
_atom_site_type_symbol
_atom_site_label
_atom_site_fract_x
_atom_site_fract_y
_atom_site_fract_z
Si Si1 0.096599 0.933312 0.154280
Si Si2 0.156339 0.582272 0.049848
Si Si3 0.660485 0.173137 0.569474
Si Si4 0.336834 0.726573 0.214088
Si Si5 0.925682 0.261715 0.906783
Si Si6 0.103957 0.209233 0.904887
Si Si7 0.569871 0.334463 0.705633
Si Si8 0.586827 0.025028 0.951059
O O1 0.168592 0.848535 0.167440
O O2 0.020152 0.860123 0.180647
O O3 0.112899 0.045048 0.210889
O O4 0.087310 0.980137 0.056441
O O5 0.250000 0.595129 0.033913
O O6 0.111105 0.639702 0.966768
O O7 0.130170 0.454304 0.062174
O O8 0.128820 0.640541 0.141703
O O9 0.750000 0.176435 0.605420
O O10 0.659592 0.217962 0.468265
O O11 0.606495 0.247038 0.635117
O O12 0.250000 0.689080 0.243376
O O13 0.390636 0.739035 0.301111
O O14 0.920436 0.286909 0.803490
O O15 0.015031 0.236151 0.937736
O O16 0.878701 0.144253 0.919283
O O17 0.134906 0.081475 0.915267
O O18 0.500000 0.000000 0.912739
#
# Coordination Sequence:
#
# PCOD8183422 Si02
#       8
#     8   8   8   8   8   8   8   8
#     4  11  20  42  63  92 127 160 216 264 312 381
#     4  10  25  45  64  91 134 175 214 265 318 390
#     4  11  25  44  63  93 132 170 212 264 326 386
#     4  11  24  43  64  90 127 169 212 263 321 383
#     4  11  23  40  66  96 126 167 213 257 321 383
#     4  11  23  41  66  97 122 164 214 267 319 379
#     4  11  23  39  65  94 126 167 205 267 320 371
#     4  10  19  38  64  90 125 157 203 271 307 358
#
# _framework density 20.953704999999999
#
# number of rings (size 3 to 8) (size 9 to 14) (size 15 to 20)
#    0.000    1.250    5.000    1.125    3.500    1.500 
#    0.000    1.250    0.000    0.000    0.000    0.000 
#    0.000    0.000    0.000    0.000    0.000    0.000 
#
# Total GULP energy -396596.422950 kJ/mol
# GULP energy per Si atom -12393.638217 kJ/mol
# Density = 2.090601 g / cm^3
# Si number density = 20.953705 Si / 1000 Ang^3
#
#
#
# Elastic Constant Matrix: (Units=GPa)
#
#
# Indices 1 2 3 4 5 6 
#
# 1 46.7099 31.9147 25.0088 0.0000 0.0000 0.0000
# 2 31.9147 167.6631 43.7891 0.0000 0.0000 0.0000
# 3 25.0088 43.7891 114.0976 0.0000 0.0000 0.0000
# 4 0.0000 0.0000 0.0000 34.2403 0.0000 0.0000
# 5 0.0000 0.0000 0.0000 0.0000 12.6239 0.0000
# 6 0.0000 0.0000 0.0000 0.0000 0.0000 24.8086
#
#
#
# Elastic Compliance Matrix: (Units=1/GPa)
#
#
# Indices 1 2 3 4 5 6 
#
# 1 0.026367 -0.003900 -0.004282 0.000000 0.000000 0.000000
# 2 -0.003900 0.007206 -0.001911 0.000000 0.000000 0.000000
# 3 -0.004282 -0.001911 0.010436 0.000000 0.000000 0.000000
# 4 0.000000 0.000000 0.000000 0.029205 0.000000 0.000000
# 5 0.000000 0.000000 0.000000 0.000000 0.079215 0.000000
# 6 0.000000 0.000000 0.000000 0.000000 0.000000 0.040309
#
#
# Mechanical properties :
#
#
# Convention : Reuss Voigt Hill
#
# Bulk Modulus (GPa) = 41.97795 58.87731 50.42763
# Shear Modulus (GPa) = 22.63831 29.51843 26.07837
#
# Velocity S-wave (km/s) = 3.29050 3.75740 3.53167
# Velocity P-wave (km/s) = 5.87484 6.85447 6.38348
#
# Compressibility (1/GPa) = 0.02382203
#
# Stress axis : x y z
#
# Youngs Moduli (GPa) = 37.92689 138.77753 95.81951
#
# Poissons Ratio (x) = 0.54130 0.41033
# Poissons Ratio (y) = 0.14793 0.18307
# Poissons Ratio (z) = 0.16241 0.26514
#
# Static dielectric constant tensor:
#      x y z
#    x 3.571890 0.000000 0.000000 
#    y 0.000000 4.177360 0.000000 
#    z 0.000000 0.000000 3.694160 
# 
# 
# High freq. dielectric constant tensor:
#      x y z
#    x 1.793650 0.000000 0.000000 
#    y 0.000000 1.843630 0.000000 
#    z 0.000000 0.000000 1.823080 
# 
# From -- ./inp_files/17882.got.cif
#   From: 2010.03.12/outbox.cif.g09.slc.cpg/sg40_9_cif.got.tgz:17882.got - 2010.04.14 01:38:03.
