data_PCOD8183586
_publ_section_title
;
Structure prediction by ZEFSAII (Michael W. Deem and Ramdas Pophale) SiO2 
 PCOD8183586
Probable space group: A M A 2
;
_chemical_formula_sum "Si O2"
_cell_formula_units_Z 56
_cell_length_a 8.966200
_cell_length_b 14.427168
_cell_length_c 21.916570
_cell_angle_alpha 90.000000
_cell_angle_beta 90.000000
_cell_angle_gamma 90.000000
_cell_volume 2835.058978
_symmetry_space_group_name_H-M "A M A 2"
_symmetry_group_IT_number 40
_symmetry_cell_setting 'orthorhombic'
loop_
_space_group_symop_operation_xyz
x,y,z
-x,-y,z
1/2-x,y,z
1/2+x,-y,z
x,1/2+y,1/2+z
-x,1/2-y,1/2+z
1/2-x,1/2+y,1/2+z
1/2+x,1/2-y,1/2+z
loop_
_atom_site_type_symbol
_atom_site_label
_atom_site_fract_x
_atom_site_fract_y
_atom_site_fract_z
Si Si1 0.574237 0.900601 0.905060
Si Si2 0.574461 0.904596 0.116581
Si Si3 0.423874 0.726116 0.290429
Si Si4 0.076739 0.093913 0.258363
Si Si5 0.423050 0.091487 0.547336
Si Si6 0.425446 0.592532 0.185425
Si Si7 0.425907 0.292940 0.515383
O O1 0.750000 0.913135 0.914297
O O2 0.534733 0.840900 0.845888
O O3 0.500000 0.000000 0.897432
O O4 0.507722 0.848609 0.962954
O O5 0.750000 0.907472 0.102390
O O6 0.540613 0.888131 0.187511
O O7 0.494150 0.822301 0.080335
O O8 0.500000 0.000000 0.094056
O O9 0.250000 0.750165 0.289540
O O10 0.513625 0.821371 0.297994
O O11 0.475962 0.677986 0.227515
O O12 0.250000 0.083955 0.271154
O O13 0.000000 0.000000 0.281291
O O14 0.250000 0.069438 0.548588
O O15 0.480415 0.110154 0.616341
O O16 0.457838 0.182842 0.507372
O O17 0.500000 0.000000 0.518851
O O18 0.500000 0.500000 0.211977
O O19 0.250000 0.578963 0.190115
O O20 0.250000 0.313525 0.514739
#
# Coordination Sequence:
#
# PCOD8183586 Si02
#       7
#     8   8   8   8   8   8   8
#     4  11  24  41  60  83 111 145 184 229 276 325
#     4  10  20  34  54  83 115 147 182 225 277 332
#     4  10  21  37  57  80 110 147 185 225 273 326
#     4  10  21  36  57  84 114 146 182 226 276 329
#     4   9  19  34  54  80 109 140 175 218 269 322
#     4   9  17  31  52  80 111 141 174 216 267 325
#     4  11  22  37  57  80 109 148 189 231 278 329
#
# _framework density 19.752676000000001
#
# number of rings (size 3 to 8) (size 9 to 14) (size 15 to 20)
#    0.000    2.000    0.000    3.429    0.000    5.714 
#    0.000    3.571    0.000    1.714    0.000    0.000 
#    0.000    0.000    0.000    0.000    0.000    0.000 
#
# Total GULP energy -347273.403947 kJ/mol
# GULP energy per Si atom -12402.621570 kJ/mol
# Density = 1.970772 g / cm^3
# Si number density = 19.752676 Si / 1000 Ang^3
#
#
#
# Elastic Constant Matrix: (Units=GPa)
#
#
# Indices 1 2 3 4 5 6 
#
# 1 90.5330 76.1447 41.7398 0.0000 0.0000 0.0000
# 2 76.1447 171.7271 50.9274 0.0000 0.0000 0.0000
# 3 41.7398 50.9274 56.2828 0.0000 0.0000 0.0000
# 4 0.0000 0.0000 0.0000 28.7012 0.0000 0.0000
# 5 0.0000 0.0000 0.0000 0.0000 -3.1669 0.0000
# 6 0.0000 0.0000 0.0000 0.0000 0.0000 41.0176
#
#
#
# Elastic Compliance Matrix: (Units=1/GPa)
#
#
# Indices 1 2 3 4 5 6 
#
# 1 0.020896 -0.006382 -0.009721 0.000000 0.000000 0.000000
# 2 -0.006382 0.009908 -0.004232 0.000000 0.000000 0.000000
# 3 -0.009721 -0.004232 0.028807 0.000000 0.000000 0.000000
# 4 0.000000 0.000000 0.000000 0.034842 0.000000 0.000000
# 5 0.000000 0.000000 0.000000 0.000000 -0.315770 0.000000
# 6 0.000000 0.000000 0.000000 0.000000 0.000000 0.024380
#
#
# Mechanical properties :
#
#
# Convention : Reuss Voigt Hill
#
# Bulk Modulus (GPa) = 52.80276 72.90744 62.85510
# Shear Modulus (GPa) = -33.34367 23.29245 -5.02561
#
# Velocity S-wave (km/s) = -4.11306 3.43768 -1.59681
# Velocity P-wave (km/s) = 2.05759 7.26272 5.33764
#
# Compressibility (1/GPa) = 0.01893840
#
# Stress axis : x y z
#
# Youngs Moduli (GPa) = 47.85692 100.92587 34.71437
#
# Poissons Ratio (x) = 0.64413 0.33747
# Poissons Ratio (y) = 0.30543 0.14692
# Poissons Ratio (z) = 0.46524 0.42715
#
# Static dielectric constant tensor:
#      x y z
#    x 3.581070 0.000000 0.000000 
#    y 0.000000 3.718910 0.000000 
#    z 0.000000 0.000000 3.463120 
# 
# 
# High freq. dielectric constant tensor:
#      x y z
#    x 1.773270 0.000000 0.000000 
#    y 0.000000 1.783400 0.000000 
#    z 0.000000 0.000000 1.749060 
# 
# From -- ./inp_files/22122.got.cif
#   From: 2010.03.12/outbox.cif.g09.slc.cpg/sg40_12_cif.got.tgz:22122.got - 2010.04.14 01:38:03.
