data_PCOD8183319
_publ_section_title
;
Structure prediction by ZEFSAII (Michael W. Deem and Ramdas Pophale) SiO2 
 PCOD8183319
Probable space group: A M A 2
;
_chemical_formula_sum "Si O2"
_cell_formula_units_Z 44
_cell_length_a 23.135991
_cell_length_b 9.900929
_cell_length_c 9.976045
_cell_angle_alpha 90.000000
_cell_angle_beta 90.000000
_cell_angle_gamma 90.000000
_cell_volume 2285.190723
_symmetry_space_group_name_H-M "A M A 2"
_symmetry_group_IT_number 40
_symmetry_cell_setting 'orthorhombic'
loop_
_space_group_symop_operation_xyz
x,y,z
-x,-y,z
1/2-x,y,z
1/2+x,-y,z
x,1/2+y,1/2+z
-x,1/2-y,1/2+z
1/2-x,1/2+y,1/2+z
1/2+x,1/2-y,1/2+z
loop_
_atom_site_type_symbol
_atom_site_label
_atom_site_fract_x
_atom_site_fract_y
_atom_site_fract_z
Si Si1 0.568090 0.508322 0.266910
Si Si2 0.750000 0.133606 0.574502
Si Si3 0.750000 0.623519 0.369301
Si Si4 0.750000 0.810349 0.829159
Si Si5 0.371521 0.792702 0.967482
Si Si6 0.374148 0.271963 0.766412
Si Si7 0.129498 0.983043 0.492886
O O1 0.500000 0.500000 0.274628
O O2 0.588235 0.626691 0.365634
O O3 0.595385 0.366254 0.312777
O O4 0.586661 0.544269 0.116110
O O5 0.750000 0.196637 0.724094
O O6 0.750000 0.266923 0.484146
O O7 0.805493 0.041328 0.543731
O O8 0.750000 0.469455 0.323473
O O9 0.694354 0.659370 0.455397
O O10 0.694370 0.751481 0.754335
O O11 0.394234 0.819359 0.118832
O O12 0.375748 0.633907 0.935743
O O13 0.390230 0.385173 0.873771
#
# Coordination Sequence:
#
# PCOD8183319 Si02
#       7
#     8   4   4   4   8   8   8
#     4  11  24  42  61  84 116 159 208 250 291 344
#     4  10  19  35  61  92 120 156 189 233 299 368
#     4  12  18  34  62  90 122 156 190 236 296 362
#     4  10  19  35  59  88 122 154 185 237 299 360
#     4  11  22  36  62  92 116 155 196 240 298 356
#     4  10  22  40  60  88 122 154 191 245 303 355
#     4  10  22  41  62  89 123 155 195 244 298 358
#
# _framework density 19.25441
#
# number of rings (size 3 to 8) (size 9 to 14) (size 15 to 20)
#    0.000    1.455    3.636    2.182    0.000    5.818 
#    0.000    0.909    0.000    0.000    0.000    0.000 
#    0.000    0.000    0.000    0.000    0.000    0.000 
#
# Total GULP energy -272865.528160 kJ/mol
# GULP energy per Si atom -12402.978553 kJ/mol
# Density = 1.921059 g / cm^3
# Si number density = 19.254410 Si / 1000 Ang^3
#
#
#
# Elastic Constant Matrix: (Units=GPa)
#
#
# Indices 1 2 3 4 5 6 
#
# 1 113.4772 29.0081 19.4842 0.0000 0.0000 0.0000
# 2 29.0081 97.1815 60.6135 0.0000 0.0000 0.0000
# 3 19.4842 60.6135 93.5746 0.0000 0.0000 0.0000
# 4 0.0000 0.0000 0.0000 38.7657 0.0000 0.0000
# 5 0.0000 0.0000 0.0000 0.0000 25.9660 0.0000
# 6 0.0000 0.0000 0.0000 0.0000 0.0000 11.8580
#
#
#
# Elastic Compliance Matrix: (Units=1/GPa)
#
#
# Indices 1 2 3 4 5 6 
#
# 1 0.009543 -0.002700 -0.000238 0.000000 0.000000 0.000000
# 2 -0.002700 0.018030 -0.011116 0.000000 0.000000 0.000000
# 3 -0.000238 -0.011116 0.017937 0.000000 0.000000 0.000000
# 4 0.000000 0.000000 0.000000 0.025796 0.000000 0.000000
# 5 0.000000 0.000000 0.000000 0.000000 0.038512 0.000000
# 6 0.000000 0.000000 0.000000 0.000000 0.000000 0.084331
#
#
# Mechanical properties :
#
#
# Convention : Reuss Voigt Hill
#
# Bulk Modulus (GPa) = 57.46967 58.04942 57.75954
# Shear Modulus (GPa) = 21.92418 28.32644 25.12531
#
# Velocity S-wave (km/s) = 3.37806 3.83974 3.61628
# Velocity P-wave (km/s) = 6.71769 7.06203 6.89201
#
# Compressibility (1/GPa) = 0.01740048
#
# Stress axis : x y z
#
# Youngs Moduli (GPa) = 104.78376 55.46462 55.75069
#
# Poissons Ratio (x) = 0.14976 0.01327
# Poissons Ratio (y) = 0.28293 0.61975
# Poissons Ratio (z) = 0.02495 0.61657
#
# Static dielectric constant tensor:
#      x y z
#    x 3.411140 0.000000 0.000000 
#    y 0.000000 3.544060 0.000000 
#    z 0.000000 0.000000 3.635090 
# 
# 
# High freq. dielectric constant tensor:
#      x y z
#    x 1.738180 0.000000 0.000000 
#    y 0.000000 1.751680 0.000000 
#    z 0.000000 0.000000 1.760050 
# 
# From -- ./inp_files/8688.got.cif
#   From: 2010.03.12/outbox.cif.g09.slc.cpg/sg40_5_cif.got.tgz:8688.got - 2010.04.14 01:38:03.
