data_PCOD8183994
_publ_section_title
;
Structure prediction by ZEFSAII (Michael W. Deem and Ramdas Pophale) SiO2 
 PCOD8183994
Probable space group: A M A 2
;
_chemical_formula_sum "Si O2"
_cell_formula_units_Z 64
_cell_length_a 22.004119
_cell_length_b 8.943216
_cell_length_c 15.735360
_cell_angle_alpha 90.000000
_cell_angle_beta 90.000000
_cell_angle_gamma 90.000000
_cell_volume 3096.523558
_symmetry_space_group_name_H-M "A M A 2"
_symmetry_group_IT_number 40
_symmetry_cell_setting 'orthorhombic'
loop_
_space_group_symop_operation_xyz
x,y,z
-x,-y,z
1/2-x,y,z
1/2+x,-y,z
x,1/2+y,1/2+z
-x,1/2-y,1/2+z
1/2-x,1/2+y,1/2+z
1/2+x,1/2-y,1/2+z
loop_
_atom_site_type_symbol
_atom_site_label
_atom_site_fract_x
_atom_site_fract_y
_atom_site_fract_z
Si Si1 0.490427 0.262712 0.444290
Si Si2 0.598548 0.974396 0.943286
Si Si3 0.436577 0.642500 0.110947
Si Si4 0.682608 0.438254 0.291590
Si Si5 0.888617 0.154866 0.679486
Si Si6 0.494360 0.172181 0.254475
Si Si7 0.319081 0.095509 0.090632
Si Si8 0.316691 0.786224 0.148745
O O1 0.548108 0.357818 0.475153
O O2 0.432321 0.366456 0.426479
O O3 0.475504 0.154873 0.524117
O O4 0.508359 0.182041 0.355622
O O5 0.629053 0.917183 0.857817
O O6 0.652686 0.988387 0.009805
O O7 0.433493 0.466508 0.135004
O O8 0.461187 0.733506 0.193011
O O9 0.369159 0.707968 0.092204
O O10 0.750000 0.470235 0.329633
O O11 0.665504 0.575704 0.230298
O O12 0.682595 0.281976 0.242565
O O13 0.926836 0.264070 0.740297
O O14 0.856465 0.255472 0.608802
O O15 0.500000 0.000000 0.225998
O O16 0.250000 0.142487 0.072446
O O17 0.324763 0.965549 0.161980
O O18 0.250000 0.755784 0.106007
#
# Coordination Sequence:
#
# PCOD8183994 Si02
#       8
#     8   8   8   8   8   8   8   8
#     4  11  24  41  63  97 133 169 214 269 328 388
#     4  11  22  38  63  95 129 165 216 260 323 394
#     4  11  23  42  67  91 129 173 214 267 334 390
#     4  10  20  39  65  92 126 171 214 266 324 387
#     4  11  23  40  62  93 127 168 218 268 324 394
#     4  12  26  41  65  95 131 168 217 274 332 398
#     4  11  22  39  63  94 127 166 216 265 316 384
#     4   9  19  36  61  91 121 159 210 258 314 381
#
# _framework density 20.668341000000002
#
# number of rings (size 3 to 8) (size 9 to 14) (size 15 to 20)
#    0.000    1.250    2.500    4.125    3.500    2.500 
#    0.000    0.000    0.000    0.000    0.000    0.000 
#    0.000    0.000    0.000    0.000    0.000    0.000 
#
# Total GULP energy -396665.055546 kJ/mol
# GULP energy per Si atom -12395.782986 kJ/mol
# Density = 2.062130 g / cm^3
# Si number density = 20.668341 Si / 1000 Ang^3
#
#
#
# Elastic Constant Matrix: (Units=GPa)
#
#
# Indices 1 2 3 4 5 6 
#
# 1 74.3083 36.1029 41.8584 0.0000 0.0000 0.0000
# 2 36.1029 128.8493 39.2129 0.0000 0.0000 0.0000
# 3 41.8584 39.2129 100.6394 0.0000 0.0000 0.0000
# 4 0.0000 0.0000 0.0000 26.3859 0.0000 0.0000
# 5 0.0000 0.0000 0.0000 0.0000 29.8740 0.0000
# 6 0.0000 0.0000 0.0000 0.0000 0.0000 33.5966
#
#
#
# Elastic Compliance Matrix: (Units=1/GPa)
#
#
# Indices 1 2 3 4 5 6 
#
# 1 0.018710 -0.003261 -0.006511 0.000000 0.000000 0.000000
# 2 -0.003261 0.009373 -0.002296 0.000000 0.000000 0.000000
# 3 -0.006511 -0.002296 0.013539 0.000000 0.000000 0.000000
# 4 0.000000 0.000000 0.000000 0.037899 0.000000 0.000000
# 5 0.000000 0.000000 0.000000 0.000000 0.033474 0.000000
# 6 0.000000 0.000000 0.000000 0.000000 0.000000 0.029765
#
#
# Mechanical properties :
#
#
# Convention : Reuss Voigt Hill
#
# Bulk Modulus (GPa) = 57.18795 59.79393 58.49094
# Shear Modulus (GPa) = 28.94779 30.41282 29.68031
#
# Velocity S-wave (km/s) = 3.74650 3.84013 3.79361
# Velocity P-wave (km/s) = 6.81502 6.97533 6.89564
#
# Compressibility (1/GPa) = 0.01748620
#
# Stress axis : x y z
#
# Youngs Moduli (GPa) = 53.44877 106.68497 73.85923
#
# Poissons Ratio (x) = 0.34787 0.48092
# Poissons Ratio (y) = 0.17428 0.16958
# Poissons Ratio (z) = 0.34802 0.24495
#
# Static dielectric constant tensor:
#      x y z
#    x 4.066890 0.000000 0.000000 
#    y 0.000000 3.705490 0.000000 
#    z 0.000000 0.000000 3.525640 
# 
# 
# High freq. dielectric constant tensor:
#      x y z
#    x 1.828820 0.000000 0.000000 
#    y 0.000000 1.807170 0.000000 
#    z 0.000000 0.000000 1.788310 
# 
# From -- ./inp_files/18539.got.cif
#   From: 2010.03.12/outbox.cif.g09.slc.cpg/sg40_10_cif.got.tgz:18539.got - 2010.04.14 01:38:03.
