data_PCOD8183451
_publ_section_title
;
Structure prediction by ZEFSAII (Michael W. Deem and Ramdas Pophale) SiO2 
 PCOD8183451
Probable space group: A M A 2
;
_chemical_formula_sum "Si O2"
_cell_formula_units_Z 64
_cell_length_a 17.728275
_cell_length_b 9.491092
_cell_length_c 21.508220
_cell_angle_alpha 90.000000
_cell_angle_beta 90.000000
_cell_angle_gamma 90.000000
_cell_volume 3618.987917
_symmetry_space_group_name_H-M "A M A 2"
_symmetry_group_IT_number 40
_symmetry_cell_setting 'orthorhombic'
loop_
_space_group_symop_operation_xyz
x,y,z
-x,-y,z
1/2-x,y,z
1/2+x,-y,z
x,1/2+y,1/2+z
-x,1/2-y,1/2+z
1/2-x,1/2+y,1/2+z
1/2+x,1/2-y,1/2+z
loop_
_atom_site_type_symbol
_atom_site_label
_atom_site_fract_x
_atom_site_fract_y
_atom_site_fract_z
Si Si1 0.436539 0.609269 0.019160
Si Si2 0.338767 0.756775 0.674547
Si Si3 0.337432 0.316383 0.700320
Si Si4 0.083692 0.046186 0.660390
Si Si5 0.162701 0.520268 0.584978
Si Si6 0.339166 0.686482 0.913620
Si Si7 0.160554 0.068577 0.283466
Si Si8 0.066659 0.402161 0.475371
O O1 0.500000 0.500000 0.998424
O O2 0.409213 0.585494 0.088603
O O3 0.469244 0.768200 0.012113
O O4 0.364083 0.592469 0.973240
O O5 0.250000 0.741998 0.677727
O O6 0.366042 0.668764 0.614041
O O7 0.373182 0.685888 0.736694
O O8 0.360880 0.917723 0.671927
O O9 0.250000 0.272413 0.706890
O O10 0.389373 0.177503 0.701902
O O11 0.349986 0.398386 0.635838
O O12 0.363477 0.413455 0.758821
O O13 0.000000 0.000000 0.679740
O O14 0.250000 0.526885 0.565654
O O15 0.115673 0.493283 0.523167
O O16 0.250000 0.709737 0.913330
O O17 0.368726 0.604056 0.852512
O O18 0.380279 0.840453 0.919578
O O19 0.250000 0.075852 0.282496
O O20 0.000000 0.500000 0.447941
#
# Coordination Sequence:
#
# PCOD8183451 Si02
#       8
#     8   8   8   8   8   8   8   8
#     4   9  21  35  51  75 110 144 175 216 274 324
#     4   9  19  32  51  74 104 138 168 212 270 316
#     4   9  16  31  54  77 102 136 176 218 264 315
#     4  11  21  32  47  76 112 141 168 213 267 323
#     4   9  17  30  49  78 105 133 180 220 253 314
#     4   9  18  35  60  80  99 136 188 229 260 313
#     4   8  16  34  58  78  98 132 177 223 265 311
#     4  10  20  31  55  78 106 146 173 214 269 323
#
# _framework density 17.684502999999999
#
# number of rings (size 3 to 8) (size 9 to 14) (size 15 to 20)
#    0.750    2.000    1.250    2.250    3.500    1.000 
#    0.000    3.750    2.750    0.000    0.000    0.000 
#    0.000    0.000    0.000    0.000    0.000    0.000 
#
# Total GULP energy -396507.424803 kJ/mol
# GULP energy per Si atom -12390.857025 kJ/mol
# Density = 1.764425 g / cm^3
# Si number density = 17.684503 Si / 1000 Ang^3
#
#
#
# Elastic Constant Matrix: (Units=GPa)
#
#
# Indices 1 2 3 4 5 6 
#
# 1 60.7826 38.1724 43.6687 0.0000 0.0000 0.0000
# 2 38.1724 119.9015 57.4421 0.0000 0.0000 0.0000
# 3 43.6687 57.4421 85.5222 0.0000 0.0000 0.0000
# 4 0.0000 0.0000 0.0000 23.3568 0.0000 0.0000
# 5 0.0000 0.0000 0.0000 0.0000 14.2862 0.0000
# 6 0.0000 0.0000 0.0000 0.0000 0.0000 34.7574
#
#
#
# Elastic Compliance Matrix: (Units=1/GPa)
#
#
# Indices 1 2 3 4 5 6 
#
# 1 0.026650 -0.002898 -0.011662 0.000000 0.000000 0.000000
# 2 -0.002898 0.012612 -0.006992 0.000000 0.000000 0.000000
# 3 -0.011662 -0.006992 0.022343 0.000000 0.000000 0.000000
# 4 0.000000 0.000000 0.000000 0.042814 0.000000 0.000000
# 5 0.000000 0.000000 0.000000 0.000000 0.069997 0.000000
# 6 0.000000 0.000000 0.000000 0.000000 0.000000 0.028771
#
#
# Mechanical properties :
#
#
# Convention : Reuss Voigt Hill
#
# Bulk Modulus (GPa) = 54.04236 60.53030 57.28633
# Shear Modulus (GPa) = 19.80532 22.94164 21.37348
#
# Velocity S-wave (km/s) = 3.35016 3.60568 3.48026
# Velocity P-wave (km/s) = 6.75206 7.18587 6.97234
#
# Compressibility (1/GPa) = 0.01850400
#
# Stress axis : x y z
#
# Youngs Moduli (GPa) = 37.52350 79.28847 44.75590
#
# Poissons Ratio (x) = 0.22975 0.52193
# Poissons Ratio (y) = 0.10873 0.31291
# Poissons Ratio (z) = 0.43758 0.55435
#
# Static dielectric constant tensor:
#      x y z
#    x 3.065040 0.000000 0.000000 
#    y 0.000000 3.582830 0.000000 
#    z 0.000000 0.000000 3.262610 
# 
# 
# High freq. dielectric constant tensor:
#      x y z
#    x 1.667980 0.000000 0.000000 
#    y 0.000000 1.684670 0.000000 
#    z 0.000000 0.000000 1.664470 
# 
# From -- ./inp_files/25020.got.cif
#   From: 2010.03.12/outbox.cif.g09.slc.cpg/sg40_13_cif.got.tgz:25020.got - 2010.04.14 01:38:03.
