data_PCOD8183593
_publ_section_title
;
Structure prediction by ZEFSAII (Michael W. Deem and Ramdas Pophale) SiO2 
 PCOD8183593
Probable space group: A M A 2
;
_chemical_formula_sum "Si O2"
_cell_formula_units_Z 48
_cell_length_a 13.564382
_cell_length_b 17.728220
_cell_length_c 10.102670
_cell_angle_alpha 90.000000
_cell_angle_beta 90.000000
_cell_angle_gamma 90.000000
_cell_volume 2429.412779
_symmetry_space_group_name_H-M "A M A 2"
_symmetry_group_IT_number 40
_symmetry_cell_setting 'orthorhombic'
loop_
_space_group_symop_operation_xyz
x,y,z
-x,-y,z
1/2-x,y,z
1/2+x,-y,z
x,1/2+y,1/2+z
-x,1/2-y,1/2+z
1/2-x,1/2+y,1/2+z
1/2+x,1/2-y,1/2+z
loop_
_atom_site_type_symbol
_atom_site_label
_atom_site_fract_x
_atom_site_fract_y
_atom_site_fract_z
Si Si1 0.141022 0.162183 0.018620
Si Si2 0.496519 0.652648 0.896341
Si Si3 0.361424 0.327262 0.123619
Si Si4 0.363043 0.546058 0.747696
Si Si5 0.135962 0.876396 0.176847
Si Si6 0.941442 0.683140 0.405758
O O1 0.250000 0.155493 0.953763
O O2 0.132164 0.237401 0.106281
O O3 0.119018 0.093384 0.115306
O O4 0.058028 0.162156 0.905135
O O5 0.427075 0.580957 0.867217
O O6 0.568654 0.674515 0.772963
O O7 0.429560 0.726473 0.922561
O O8 0.565151 0.631388 0.021615
O O9 0.250000 0.356421 0.099301
O O10 0.393372 0.347713 0.272107
O O11 0.250000 0.548900 0.793061
O O12 0.396147 0.461660 0.712807
O O13 0.250000 0.861463 0.208229
O O14 0.114956 0.857826 0.024906
#
# Coordination Sequence:
#
# PCOD8183593 Si02
#       6
#     8   8   8   8   8   8
#     4   9  18  34  56  83 117 157 198 247 304 361
#     4  11  20  37  58  87 121 164 201 244 303 373
#     4  10  20  34  55  85 124 158 196 256 316 357
#     4  10  20  37  62  87 116 159 203 250 300 355
#     4  11  23  37  62  92 119 154 211 259 294 359
#     4  11  20  35  57  91 121 157 203 255 311 356
#
# _framework density 19.757861999999999
#
# number of rings (size 3 to 8) (size 9 to 14) (size 15 to 20)
#    0.000    1.667    3.333    2.500    0.000    1.333 
#    0.000    0.833    7.333    0.000    0.000    0.000 
#    0.000    0.000    0.000    0.000    0.000    0.000 
#
# Total GULP energy -297618.297796 kJ/mol
# GULP energy per Si atom -12400.762408 kJ/mol
# Density = 1.971289 g / cm^3
# Si number density = 19.757862 Si / 1000 Ang^3
#
#
#
# Elastic Constant Matrix: (Units=GPa)
#
#
# Indices 1 2 3 4 5 6 
#
# 1 94.9996 42.8369 46.3142 0.0000 0.0000 0.0000
# 2 42.8369 78.3812 28.3806 0.0000 0.0000 0.0000
# 3 46.3142 28.3806 116.8251 0.0000 0.0000 0.0000
# 4 0.0000 0.0000 0.0000 29.4871 0.0000 0.0000
# 5 0.0000 0.0000 0.0000 0.0000 36.8585 0.0000
# 6 0.0000 0.0000 0.0000 0.0000 0.0000 24.2171
#
#
#
# Elastic Compliance Matrix: (Units=1/GPa)
#
#
# Indices 1 2 3 4 5 6 
#
# 1 0.015953 -0.007049 -0.004612 0.000000 0.000000 0.000000
# 2 -0.007049 0.017103 -0.001360 0.000000 0.000000 0.000000
# 3 -0.004612 -0.001360 0.010719 0.000000 0.000000 0.000000
# 4 0.000000 0.000000 0.000000 0.033913 0.000000 0.000000
# 5 0.000000 0.000000 0.000000 0.000000 0.027131 0.000000
# 6 0.000000 0.000000 0.000000 0.000000 0.000000 0.041293
#
#
# Mechanical properties :
#
#
# Convention : Reuss Voigt Hill
#
# Bulk Modulus (GPa) = 56.39431 58.36326 57.37878
# Shear Modulus (GPa) = 28.07953 29.62417 28.85185
#
# Velocity S-wave (km/s) = 3.77395 3.87636 3.82550
# Velocity P-wave (km/s) = 6.89891 7.04544 6.97256
#
# Compressibility (1/GPa) = 0.01773229
#
# Stress axis : x y z
#
# Youngs Moduli (GPa) = 62.68293 58.46904 93.29449
#
# Poissons Ratio (x) = 0.41214 0.43029
# Poissons Ratio (y) = 0.44184 0.12692
# Poissons Ratio (z) = 0.28910 0.07954
#
# Static dielectric constant tensor:
#      x y z
#    x 3.989180 0.000000 0.000000 
#    y 0.000000 3.489090 0.000000 
#    z 0.000000 0.000000 3.399480 
# 
# 
# High freq. dielectric constant tensor:
#      x y z
#    x 1.794020 0.000000 0.000000 
#    y 0.000000 1.747770 0.000000 
#    z 0.000000 0.000000 1.748330 
# 
# From -- ./inp_files/6453.got.cif
#   From: 2010.03.12/outbox.cif.g09.slc.cpg/sg40_4_cif.got.tgz:6453.got - 2010.04.14 01:38:03.
