data_PCOD8183521
_publ_section_title
;
Structure prediction by ZEFSAII (Michael W. Deem and Ramdas Pophale) SiO2 
 PCOD8183521
Probable space group: A M A 2
;
_chemical_formula_sum "Si O2"
_cell_formula_units_Z 64
_cell_length_a 8.872898
_cell_length_b 16.035674
_cell_length_c 22.522029
_cell_angle_alpha 90.000000
_cell_angle_beta 90.000000
_cell_angle_gamma 90.000000
_cell_volume 3204.499595
_symmetry_space_group_name_H-M "A M A 2"
_symmetry_group_IT_number 40
_symmetry_cell_setting 'orthorhombic'
loop_
_space_group_symop_operation_xyz
x,y,z
-x,-y,z
1/2-x,y,z
1/2+x,-y,z
x,1/2+y,1/2+z
-x,1/2-y,1/2+z
1/2-x,1/2+y,1/2+z
1/2+x,1/2-y,1/2+z
loop_
_atom_site_type_symbol
_atom_site_label
_atom_site_fract_x
_atom_site_fract_y
_atom_site_fract_z
Si Si1 0.428106 0.413985 0.703690
Si Si2 0.926542 0.247550 0.501969
Si Si3 0.577503 0.580204 0.293897
Si Si4 0.570192 0.587505 0.160074
Si Si5 0.072571 0.082017 0.455996
Si Si6 0.413837 0.197657 0.874230
Si Si7 0.071171 0.260547 0.620790
Si Si8 0.082501 0.385786 0.838086
O O1 0.500000 0.500000 0.678454
O O2 0.250000 0.421501 0.697662
O O3 0.483268 0.331897 0.667264
O O4 0.479262 0.403620 0.772081
O O5 0.750000 0.238895 0.516380
O O6 0.954148 0.303905 0.443850
O O7 0.993245 0.156751 0.489913
O O8 0.015436 0.291046 0.556026
O O9 0.500000 0.500000 0.322332
O O10 0.750000 0.560780 0.289396
O O11 0.515889 0.598584 0.228105
O O12 0.546950 0.655162 0.338297
O O13 0.500000 0.500000 0.135360
O O14 0.750000 0.585000 0.151965
O O15 0.505093 0.669922 0.128899
O O16 0.250000 0.086121 0.466252
O O17 0.036054 0.078749 0.385472
O O18 0.000000 0.000000 0.485638
O O19 0.250000 0.154287 0.864420
O O20 0.402881 0.288527 0.847583
O O21 0.250000 0.249822 0.623191
O O22 0.250000 0.425329 0.847608
#
# Coordination Sequence:
#
# PCOD8183521 Si02
#       8
#     8   8   8   8   8   8   8   8
#     4  10  22  38  58  84 115 150 191 236 284 335
#     4  10  22  40  58  78 105 141 184 229 275 328
#     4  10  20  33  53  81 112 142 178 222 272 329
#     4  10  21  37  58  87 119 152 187 228 278 337
#     4  11  21  34  54  82 114 146 179 220 268 325
#     4   9  18  34  56  79 108 142 176 219 277 334
#     4  11  23  40  60  83 112 150 193 239 285 332
#     4   9  18  34  55  82 114 147 179 219 273 332
#
# _framework density 19.971917000000001
#
# number of rings (size 3 to 8) (size 9 to 14) (size 15 to 20)
#    0.000    2.000    0.000    4.500    0.000    8.000 
#    0.000    3.125    0.000    1.500    0.000    0.000 
#    0.000    0.000    0.000    0.000    0.000    0.000 
#
# Total GULP energy -396690.802028 kJ/mol
# GULP energy per Si atom -12396.587563 kJ/mol
# Density = 1.992646 g / cm^3
# Si number density = 19.971917 Si / 1000 Ang^3
#
#
#
# Elastic Constant Matrix: (Units=GPa)
#
#
# Indices 1 2 3 4 5 6 
#
# 1 70.9142 23.6675 21.2822 0.0000 0.0000 0.0000
# 2 23.6675 66.3030 26.0752 0.0000 0.0000 0.0000
# 3 21.2822 26.0752 77.2700 0.0000 0.0000 0.0000
# 4 0.0000 0.0000 0.0000 5.7061 0.0000 0.0000
# 5 0.0000 0.0000 0.0000 0.0000 20.0692 0.0000
# 6 0.0000 0.0000 0.0000 0.0000 0.0000 35.7138
#
#
#
# Elastic Compliance Matrix: (Units=1/GPa)
#
#
# Indices 1 2 3 4 5 6 
#
# 1 0.016577 -0.004752 -0.002962 0.000000 0.000000 0.000000
# 2 -0.004752 0.018753 -0.005019 0.000000 0.000000 0.000000
# 3 -0.002962 -0.005019 0.015451 0.000000 0.000000 0.000000
# 4 0.000000 0.000000 0.000000 0.175250 0.000000 0.000000
# 5 0.000000 0.000000 0.000000 0.000000 0.049827 0.000000
# 6 0.000000 0.000000 0.000000 0.000000 0.000000 0.028000
#
#
# Mechanical properties :
#
#
# Convention : Reuss Voigt Hill
#
# Bulk Modulus (GPa) = 39.50484 39.61522 39.56003
# Shear Modulus (GPa) = 14.80329 21.86198 18.33263
#
# Velocity S-wave (km/s) = 2.72546 3.31212 3.03301
# Velocity P-wave (km/s) = 5.45228 5.87413 5.66713
#
# Compressibility (1/GPa) = 0.02531335
#
# Stress axis : x y z
#
# Youngs Moduli (GPa) = 60.32622 53.32600 64.71984
#
# Poissons Ratio (x) = 0.25342 0.19170
# Poissons Ratio (y) = 0.28669 0.32485
# Poissons Ratio (z) = 0.17868 0.26766
#
# Static dielectric constant tensor:
#      x y z
#    x 3.917210 0.000000 0.000000 
#    y 0.000000 3.687690 0.000000 
#    z 0.000000 0.000000 3.750200 
# 
# 
# High freq. dielectric constant tensor:
#      x y z
#    x 1.782070 0.000000 0.000000 
#    y 0.000000 1.771360 0.000000 
#    z 0.000000 0.000000 1.776860 
# 
# From -- ./inp_files/24280.got.cif
#   From: 2010.03.12/outbox.cif.g09.slc.cpg/sg40_13_cif.got.tgz:24280.got - 2010.04.14 01:38:03.
