data_PCOD8183405
_publ_section_title
;
Structure prediction by ZEFSAII (Michael W. Deem and Ramdas Pophale) SiO2 
 PCOD8183405
Probable space group: A M A 2
;
_chemical_formula_sum "Si O2"
_cell_formula_units_Z 56
_cell_length_a 8.813462
_cell_length_b 15.370453
_cell_length_c 19.371851
_cell_angle_alpha 90.000000
_cell_angle_beta 90.000000
_cell_angle_gamma 90.000000
_cell_volume 2624.244669
_symmetry_space_group_name_H-M "A M A 2"
_symmetry_group_IT_number 40
_symmetry_cell_setting 'orthorhombic'
loop_
_space_group_symop_operation_xyz
x,y,z
-x,-y,z
1/2-x,y,z
1/2+x,-y,z
x,1/2+y,1/2+z
-x,1/2-y,1/2+z
1/2-x,1/2+y,1/2+z
1/2+x,1/2-y,1/2+z
loop_
_atom_site_type_symbol
_atom_site_label
_atom_site_fract_x
_atom_site_fract_y
_atom_site_fract_z
Si Si1 0.577121 0.581846 0.094320
Si Si2 0.430569 0.093398 0.846675
Si Si3 0.915805 0.883031 0.465191
Si Si4 0.930118 0.273084 0.615931
Si Si5 0.572740 0.741145 0.757511
Si Si6 0.419688 0.583714 0.813655
Si Si7 0.925873 0.683330 0.476533
O O1 0.500000 0.500000 0.133283
O O2 0.750000 0.578139 0.114011
O O3 0.506529 0.673824 0.115771
O O4 0.547037 0.574352 0.012131
O O5 0.250000 0.086811 0.850380
O O6 0.479416 0.164747 0.788000
O O7 0.490530 0.120413 0.922288
O O8 0.500000 0.000000 0.825390
O O9 0.750000 0.889792 0.502850
O O10 0.906017 0.935578 0.394653
O O11 0.952357 0.781468 0.451538
O O12 0.750000 0.278683 0.606903
O O13 0.983226 0.299835 0.691747
O O14 0.005352 0.328656 0.554100
O O15 0.750000 0.742165 0.741634
O O16 0.527706 0.668004 0.812280
O O17 0.500000 0.500000 0.778076
O O18 0.250000 0.598013 0.782144
O O19 0.750000 0.656593 0.478492
#
# Coordination Sequence:
#
# PCOD8183405 Si02
#       7
#     8   8   8   8   8   8   8
#     4  10  20  32  50  78 113 151 192 239 291 353
#     4  11  24  41  65  96 130 170 219 271 325 385
#     4   9  18  32  54  83 115 151 187 232 289 347
#     4  10  22  39  60  85 118 163 207 255 317 379
#     4  11  24  42  63  90 124 165 211 263 318 380
#     4  11  22  37  58  87 120 156 196 243 301 363
#     4  10  19  37  63  91 122 158 204 255 309 369
#
# _framework density 21.339473999999999
#
# number of rings (size 3 to 8) (size 9 to 14) (size 15 to 20)
#    0.000    1.714    1.429    3.000    0.000    6.857 
#    0.000    3.571    0.000    0.000    0.000    0.000 
#    0.000    0.000    0.000    0.000    0.000    0.000 
#
# Total GULP energy -346989.520703 kJ/mol
# GULP energy per Si atom -12392.482882 kJ/mol
# Density = 2.129090 g / cm^3
# Si number density = 21.339474 Si / 1000 Ang^3
#
#
#
# Elastic Constant Matrix: (Units=GPa)
#
#
# Indices 1 2 3 4 5 6 
#
# 1 92.1663 31.1381 26.1959 0.0000 0.0000 0.0000
# 2 31.1381 89.0549 3.5289 0.0000 0.0000 0.0000
# 3 26.1959 3.5289 78.2460 0.0000 0.0000 0.0000
# 4 0.0000 0.0000 0.0000 14.7742 0.0000 0.0000
# 5 0.0000 0.0000 0.0000 0.0000 28.5972 0.0000
# 6 0.0000 0.0000 0.0000 0.0000 0.0000 34.5205
#
#
#
# Elastic Compliance Matrix: (Units=1/GPa)
#
#
# Indices 1 2 3 4 5 6 
#
# 1 0.013642 -0.004597 -0.004360 0.000000 0.000000 0.000000
# 2 -0.004597 0.012798 0.000962 0.000000 0.000000 0.000000
# 3 -0.004360 0.000962 0.014196 0.000000 0.000000 0.000000
# 4 0.000000 0.000000 0.000000 0.067685 0.000000 0.000000
# 5 0.000000 0.000000 0.000000 0.000000 0.034968 0.000000
# 6 0.000000 0.000000 0.000000 0.000000 0.000000 0.028968
#
#
# Mechanical properties :
#
#
# Convention : Reuss Voigt Hill
#
# Bulk Modulus (GPa) = 40.57368 42.35476 41.46422
# Shear Modulus (GPa) = 25.44976 28.81867 27.13422
#
# Velocity S-wave (km/s) = 3.45717 3.67888 3.56975
# Velocity P-wave (km/s) = 5.91530 6.15928 6.03852
#
# Compressibility (1/GPa) = 0.02464652
#
# Stress axis : x y z
#
# Youngs Moduli (GPa) = 73.30127 78.13503 70.43998
#
# Poissons Ratio (x) = 0.35921 0.30712
# Poissons Ratio (y) = 0.33699 -0.06776
# Poissons Ratio (z) = 0.31959 -0.07516
#
# Static dielectric constant tensor:
#      x y z
#    x 3.868110 0.000000 0.000000 
#    y 0.000000 3.888040 0.000000 
#    z 0.000000 0.000000 3.655790 
# 
# 
# High freq. dielectric constant tensor:
#      x y z
#    x 1.842590 0.000000 0.000000 
#    y 0.000000 1.830640 0.000000 
#    z 0.000000 0.000000 1.820080 
# 
# From -- ./inp_files/22151.got.cif
#   From: 2010.03.12/outbox.cif.g09.slc.cpg/sg40_12_cif.got.tgz:22151.got - 2010.04.14 01:38:03.
