data_PCOD8183952
_publ_section_title
;
Structure prediction by ZEFSAII (Michael W. Deem and Ramdas Pophale) SiO2 
 PCOD8183952
Probable space group: A M A 2
;
_chemical_formula_sum "Si O2"
_cell_formula_units_Z 64
_cell_length_a 16.111482
_cell_length_b 16.464318
_cell_length_c 11.882434
_cell_angle_alpha 90.000000
_cell_angle_beta 90.000000
_cell_angle_gamma 90.000000
_cell_volume 3151.988664
_symmetry_space_group_name_H-M "A M A 2"
_symmetry_group_IT_number 40
_symmetry_cell_setting 'orthorhombic'
loop_
_space_group_symop_operation_xyz
x,y,z
-x,-y,z
1/2-x,y,z
1/2+x,-y,z
x,1/2+y,1/2+z
-x,1/2-y,1/2+z
1/2-x,1/2+y,1/2+z
1/2+x,1/2-y,1/2+z
loop_
_atom_site_type_symbol
_atom_site_label
_atom_site_fract_x
_atom_site_fract_y
_atom_site_fract_z
Si Si1 0.089550 0.103198 0.085930
Si Si2 0.107260 0.777904 0.961207
Si Si3 0.895748 0.580305 0.607031
Si Si4 0.343593 0.874035 0.354257
Si Si5 0.406579 0.522078 0.986876
Si Si6 0.924280 0.296189 0.377438
Si Si7 0.651265 0.346999 0.145632
Si Si8 0.341221 0.642437 0.816844
O O1 0.134880 0.147701 0.187828
O O2 0.991969 0.104989 0.110472
O O3 0.120396 0.011318 0.068435
O O4 0.118255 0.154382 0.978468
O O5 0.163140 0.733918 0.867063
O O6 0.022348 0.799706 0.897214
O O7 0.146797 0.860527 0.013714
O O8 0.101344 0.716267 0.067097
O O9 0.858609 0.589723 0.730742
O O10 0.250000 0.843001 0.362163
O O11 0.358934 0.941149 0.449721
O O12 0.401611 0.797930 0.377949
O O13 0.500000 0.500000 0.019123
O O14 0.361265 0.562512 0.094668
O O15 0.406847 0.585922 0.882884
O O16 0.893607 0.341380 0.265379
O O17 0.750000 0.326984 0.152909
O O18 0.250000 0.603258 0.831594
#
# Coordination Sequence:
#
# PCOD8183952 Si02
#       8
#     8   8   8   8   8   8   8   8
#     4  10  22  40  62  90 127 163 208 260 327 380
#     4  10  21  38  65  91 125 165 220 262 318 381
#     4  10  20  38  63  92 116 162 213 269 303 378
#     4  12  22  36  62  95 123 157 212 269 313 366
#     4  11  22  40  64  93 123 164 218 265 318 385
#     4  11  24  40  64  94 130 171 213 263 322 393
#     4  11  23  43  66  96 135 174 214 268 335 394
#     4  11  22  37  62  94 130 165 208 267 333 386
#
# _framework density 20.304642000000001
#
# number of rings (size 3 to 8) (size 9 to 14) (size 15 to 20)
#    0.000    1.250    2.500    5.625    1.750    1.500 
#    4.500    0.000    0.000    1.500    0.000    0.000 
#    0.000    0.000    0.000    0.000    0.000    0.000 
#
# Total GULP energy -396716.587601 kJ/mol
# GULP energy per Si atom -12397.393363 kJ/mol
# Density = 2.025843 g / cm^3
# Si number density = 20.304642 Si / 1000 Ang^3
#
#
#
# Elastic Constant Matrix: (Units=GPa)
#
#
# Indices 1 2 3 4 5 6 
#
# 1 63.9672 5.3620 32.6657 0.0000 0.0000 0.0000
# 2 5.3620 103.3297 52.5233 0.0000 0.0000 0.0000
# 3 32.6657 52.5233 136.7132 0.0000 0.0000 0.0000
# 4 0.0000 0.0000 0.0000 38.9764 0.0000 0.0000
# 5 0.0000 0.0000 0.0000 0.0000 2.5199 0.0000
# 6 0.0000 0.0000 0.0000 0.0000 0.0000 18.0783
#
#
#
# Elastic Compliance Matrix: (Units=1/GPa)
#
#
# Indices 1 2 3 4 5 6 
#
# 1 0.018005 0.001556 -0.004900 0.000000 0.000000 0.000000
# 2 0.001556 0.012161 -0.005044 0.000000 0.000000 0.000000
# 3 -0.004900 -0.005044 0.010423 0.000000 0.000000 0.000000
# 4 0.000000 0.000000 0.000000 0.025657 0.000000 0.000000
# 5 0.000000 0.000000 0.000000 0.000000 0.396838 0.000000
# 6 0.000000 0.000000 0.000000 0.000000 0.000000 0.055315
#
#
# Mechanical properties :
#
#
# Convention : Reuss Voigt Hill
#
# Bulk Modulus (GPa) = 41.99239 53.90137 47.94688
# Shear Modulus (GPa) = 9.20623 26.14554 17.67588
#
# Velocity S-wave (km/s) = 2.13164 3.59230 2.95368
# Velocity P-wave (km/s) = 5.17538 6.61892 5.94116
#
# Compressibility (1/GPa) = 0.02381384
#
# Stress axis : x y z
#
# Youngs Moduli (GPa) = 55.54085 82.23102 95.94027
#
# Poissons Ratio (x) = -0.12798 0.47010
# Poissons Ratio (y) = -0.08644 0.48391
# Poissons Ratio (z) = 0.27215 0.41477
#
# Static dielectric constant tensor:
#      x y z
#    x 3.679700 0.000000 0.000000 
#    y 0.000000 3.935930 0.000000 
#    z 0.000000 0.000000 3.747710 
# 
# 
# High freq. dielectric constant tensor:
#      x y z
#    x 1.786950 0.000000 0.000000 
#    y 0.000000 1.797400 0.000000 
#    z 0.000000 0.000000 1.787240 
# 
# From -- ./inp_files/12483.got.cif
#   From: 2010.03.12/outbox.cif.g09.slc.cpg/sg40_7_cif.got.tgz:12483.got - 2010.04.14 01:38:03.
