data_PCOD8183102
_publ_section_title
;
Structure prediction by ZEFSAII (Michael W. Deem and Ramdas Pophale) SiO2 
 PCOD8183102
Probable space group: A M A 2
;
_chemical_formula_sum "Si O2"
_cell_formula_units_Z 48
_cell_length_a 17.051958
_cell_length_b 8.951811
_cell_length_c 15.918971
_cell_angle_alpha 90.000000
_cell_angle_beta 90.000000
_cell_angle_gamma 90.000000
_cell_volume 2429.965738
_symmetry_space_group_name_H-M "A M A 2"
_symmetry_group_IT_number 40
_symmetry_cell_setting 'orthorhombic'
loop_
_space_group_symop_operation_xyz
x,y,z
-x,-y,z
1/2-x,y,z
1/2+x,-y,z
x,1/2+y,1/2+z
-x,1/2-y,1/2+z
1/2-x,1/2+y,1/2+z
1/2+x,1/2-y,1/2+z
loop_
_atom_site_type_symbol
_atom_site_label
_atom_site_fract_x
_atom_site_fract_y
_atom_site_fract_z
Si Si1 0.838610 0.021487 0.099570
Si Si2 0.436305 0.703281 0.502377
Si Si3 0.115487 0.284699 0.454963
Si Si4 0.158399 0.798704 0.258891
Si Si5 0.414029 0.025583 0.833942
Si Si6 0.659570 0.052778 0.431367
O O1 0.750000 0.960168 0.118734
O O2 0.874658 0.116683 0.177083
O O3 0.900774 0.887229 0.082052
O O4 0.828724 0.130173 0.019669
O O5 0.530013 0.715406 0.500278
O O6 0.410558 0.614653 0.420482
O O7 0.394998 0.865532 0.500345
O O8 0.119363 0.363240 0.362109
O O9 0.147948 0.121705 0.439852
O O10 0.250000 0.791450 0.250035
O O11 0.131249 0.624392 0.264675
O O12 0.131490 0.894714 0.339269
O O13 0.500000 0.000000 0.796492
O O14 0.750000 0.096660 0.446849
#
# Coordination Sequence:
#
# PCOD8183102 Si02
#       6
#     8   8   8   8   8   8
#     4  10  19  34  54  76 103 138 174 214 263 317
#     4   9  18  34  53  74 103 139 178 216 255 310
#     4  10  19  33  53  78 104 135 176 219 261 312
#     4   9  19  34  53  77 106 136 173 218 266 318
#     4   8  16  32  52  73 100 136 175 211 256 313
#     4  10  19  33  54  80 105 136 176 220 265 312
#
# _framework density 19.753364999999999
#
# number of rings (size 3 to 8) (size 9 to 14) (size 15 to 20)
#    0.000    2.667    0.000    3.000    0.000    4.667 
#    0.000   13.333    0.000    4.000    0.000    0.000 
#    0.000    0.000    0.000    0.000    0.000    0.000 
#
# Total GULP energy -297377.440382 kJ/mol
# GULP energy per Si atom -12390.726683 kJ/mol
# Density = 1.970841 g / cm^3
# Si number density = 19.753365 Si / 1000 Ang^3
#
#
#
# Elastic Constant Matrix: (Units=GPa)
#
#
# Indices 1 2 3 4 5 6 
#
# 1 57.0781 11.3519 21.0359 0.0000 0.0000 0.0000
# 2 11.3519 80.6771 24.0602 0.0000 0.0000 0.0000
# 3 21.0359 24.0602 66.9254 0.0000 0.0000 0.0000
# 4 0.0000 0.0000 0.0000 34.5247 0.0000 0.0000
# 5 0.0000 0.0000 0.0000 0.0000 15.0333 0.0000
# 6 0.0000 0.0000 0.0000 0.0000 0.0000 38.2231
#
#
#
# Elastic Compliance Matrix: (Units=1/GPa)
#
#
# Indices 1 2 3 4 5 6 
#
# 1 0.019894 -0.001047 -0.005877 0.000000 0.000000 0.000000
# 2 -0.001047 0.013939 -0.004682 0.000000 0.000000 0.000000
# 3 -0.005877 -0.004682 0.018472 0.000000 0.000000 0.000000
# 4 0.000000 0.000000 0.000000 0.028965 0.000000 0.000000
# 5 0.000000 0.000000 0.000000 0.000000 0.066519 0.000000
# 6 0.000000 0.000000 0.000000 0.000000 0.000000 0.026162
#
#
# Mechanical properties :
#
#
# Convention : Reuss Voigt Hill
#
# Bulk Modulus (GPa) = 34.37124 35.28627 34.82876
# Shear Modulus (GPa) = 24.17095 27.43839 25.80467
#
# Velocity S-wave (km/s) = 3.50185 3.73104 3.61826
# Velocity P-wave (km/s) = 5.81279 6.03847 5.92670
#
# Compressibility (1/GPa) = 0.02909409
#
# Stress axis : x y z
#
# Youngs Moduli (GPa) = 50.26682 71.74272 54.13469
#
# Poissons Ratio (x) = 0.07509 0.31814
# Poissons Ratio (y) = 0.05261 0.25346
# Poissons Ratio (z) = 0.29540 0.33591
#
# Static dielectric constant tensor:
#      x y z
#    x 3.583270 0.000000 0.000000 
#    y 0.000000 3.921080 0.000000 
#    z 0.000000 0.000000 3.515260 
# 
# 
# High freq. dielectric constant tensor:
#      x y z
#    x 1.770080 0.000000 0.000000 
#    y 0.000000 1.773160 0.000000 
#    z 0.000000 0.000000 1.733320 
# 
# From -- ./inp_files/17601.got.cif
#   From: 2010.03.12/outbox.cif.g09.slc.cpg/sg40_9_cif.got.tgz:17601.got - 2010.04.14 01:38:03.
