data_PCOD8183416
_publ_section_title
;
Structure prediction by ZEFSAII (Michael W. Deem and Ramdas Pophale) SiO2 
 PCOD8183416
Probable space group: A M A 2
;
_chemical_formula_sum "Si O2"
_cell_formula_units_Z 32
_cell_length_a 17.308134
_cell_length_b 9.890153
_cell_length_c 9.615962
_cell_angle_alpha 90.000000
_cell_angle_beta 90.000000
_cell_angle_gamma 90.000000
_cell_volume 1646.061273
_symmetry_space_group_name_H-M "A M A 2"
_symmetry_group_IT_number 40
_symmetry_cell_setting 'orthorhombic'
loop_
_space_group_symop_operation_xyz
x,y,z
-x,-y,z
1/2-x,y,z
1/2+x,-y,z
x,1/2+y,1/2+z
-x,1/2-y,1/2+z
1/2-x,1/2+y,1/2+z
1/2+x,1/2-y,1/2+z
loop_
_atom_site_type_symbol
_atom_site_label
_atom_site_fract_x
_atom_site_fract_y
_atom_site_fract_z
Si Si1 0.100670 0.896192 0.561580
Si Si2 0.837068 0.295249 0.777906
Si Si3 0.912995 0.056268 0.256196
Si Si4 0.069248 0.196536 0.557379
O O1 0.160056 0.824529 0.665040
O O2 0.127060 0.900645 0.401497
O O3 0.022864 0.807463 0.558386
O O4 0.095642 0.050881 0.615963
O O5 0.750000 0.303237 0.836012
O O6 0.861119 0.433191 0.697885
O O7 0.896832 0.272081 0.904618
O O8 0.904639 0.181681 0.154656
O O9 0.000000 0.000000 0.282423
#
# Coordination Sequence:
#
# PCOD8183416 Si02
#       4
#     8   8   8   8
#     4  10  19  38  61  91 118 159 203 247 297 359
#     4  11  24  40  59  90 128 157 196 258 308 345
#     4  11  20  39  64  92 117 156 207 246 294 362
#     4  10  20  38  62  88 119 156 207 243 296 363
#
# _framework density 19.440345000000001
#
# number of rings (size 3 to 8) (size 9 to 14) (size 15 to 20)
#    0.000    1.500    7.500    0.000    0.000    7.000 
#    4.500    0.000    0.000    0.000    0.000    0.000 
#    0.000    0.000    0.000    0.000    0.000    0.000 
#
# Total GULP energy -198293.539490 kJ/mol
# GULP energy per Si atom -12393.346218 kJ/mol
# Density = 1.939610 g / cm^3
# Si number density = 19.440345 Si / 1000 Ang^3
#
#
#
# Elastic Constant Matrix: (Units=GPa)
#
#
# Indices 1 2 3 4 5 6 
#
# 1 65.0637 21.8456 22.6496 0.0000 0.0000 0.0000
# 2 21.8456 120.4184 67.4014 0.0000 0.0000 0.0000
# 3 22.6496 67.4014 83.6551 0.0000 0.0000 0.0000
# 4 0.0000 0.0000 0.0000 41.6903 0.0000 0.0000
# 5 0.0000 0.0000 0.0000 0.0000 13.0578 0.0000
# 6 0.0000 0.0000 0.0000 0.0000 0.0000 18.3328
#
#
#
# Elastic Compliance Matrix: (Units=1/GPa)
#
#
# Indices 1 2 3 4 5 6 
#
# 1 0.017025 -0.000926 -0.003863 0.000000 0.000000 0.000000
# 2 -0.000926 0.015176 -0.011977 0.000000 0.000000 0.000000
# 3 -0.003863 -0.011977 0.022650 0.000000 0.000000 0.000000
# 4 0.000000 0.000000 0.000000 0.023986 0.000000 0.000000
# 5 0.000000 0.000000 0.000000 0.000000 0.076583 0.000000
# 6 0.000000 0.000000 0.000000 0.000000 0.000000 0.054547
#
#
# Mechanical properties :
#
#
# Convention : Reuss Voigt Hill
#
# Bulk Modulus (GPa) = 46.90763 54.77005 50.83884
# Shear Modulus (GPa) = 19.95164 25.09887 22.52526
#
# Velocity S-wave (km/s) = 3.20707 3.59705 3.40764
# Velocity P-wave (km/s) = 6.15590 6.74435 6.45683
#
# Compressibility (1/GPa) = 0.02131849
#
# Stress axis : x y z
#
# Youngs Moduli (GPa) = 58.73560 65.89317 44.15102
#
# Poissons Ratio (x) = 0.06103 0.17057
# Poissons Ratio (y) = 0.05440 0.52878
# Poissons Ratio (z) = 0.22692 0.78918
#
# Static dielectric constant tensor:
#      x y z
#    x 3.330960 0.000000 0.000000 
#    y 0.000000 3.777740 0.000000 
#    z 0.000000 0.000000 3.357290 
# 
# 
# High freq. dielectric constant tensor:
#      x y z
#    x 1.734770 0.000000 0.000000 
#    y 0.000000 1.770780 0.000000 
#    z 0.000000 0.000000 1.743450 
# 
# From -- ./inp_files/7097.got.cif
#   From: 2010.03.12/outbox.cif.g09.slc.cpg/sg40_4_cif.got.tgz:7097.got - 2010.04.14 01:38:03.
