data_PCOD8183029
_publ_section_title
;
Structure prediction by ZEFSAII (Michael W. Deem and Ramdas Pophale) SiO2 
 PCOD8183029
Probable space group: A M A 2
;
_chemical_formula_sum "Si O2"
_cell_formula_units_Z 64
_cell_length_a 8.939758
_cell_length_b 19.603991
_cell_length_c 20.564169
_cell_angle_alpha 90.000000
_cell_angle_beta 90.000000
_cell_angle_gamma 90.000000
_cell_volume 3603.972109
_symmetry_space_group_name_H-M "A M A 2"
_symmetry_group_IT_number 40
_symmetry_cell_setting 'orthorhombic'
loop_
_space_group_symop_operation_xyz
x,y,z
-x,-y,z
1/2-x,y,z
1/2+x,-y,z
x,1/2+y,1/2+z
-x,1/2-y,1/2+z
1/2-x,1/2+y,1/2+z
1/2+x,1/2-y,1/2+z
loop_
_atom_site_type_symbol
_atom_site_label
_atom_site_fract_x
_atom_site_fract_y
_atom_site_fract_z
Si Si1 0.926042 0.932382 0.861290
Si Si2 0.425588 0.569123 0.823470
Si Si3 0.577524 0.789977 0.526416
Si Si4 0.072340 0.931076 0.722236
Si Si5 0.577321 0.302136 0.172762
Si Si6 0.076153 0.211605 0.915516
Si Si7 0.426617 0.794606 0.290310
Si Si8 0.575540 0.431928 0.974007
O O1 0.750000 0.943587 0.849423
O O2 0.957122 0.868659 0.908067
O O3 0.004552 0.916944 0.793090
O O4 0.000000 0.000000 0.893104
O O5 0.500000 0.500000 0.796255
O O6 0.250000 0.565033 0.811627
O O7 0.492100 0.632982 0.784559
O O8 0.467803 0.578560 0.898875
O O9 0.750000 0.789194 0.506268
O O10 0.552976 0.769967 0.601457
O O11 0.497619 0.733987 0.482556
O O12 0.514102 0.866035 0.512566
O O13 0.250000 0.938340 0.725964
O O14 0.026277 0.868629 0.676499
O O15 0.000000 0.000000 0.693054
O O16 0.750000 0.323731 0.183476
O O17 0.527740 0.247001 0.226011
O O18 0.250000 0.226241 0.920719
O O19 0.013503 0.253366 0.853386
O O20 0.250000 0.806262 0.293945
O O21 0.500000 0.500000 0.002536
O O22 0.750000 0.441786 0.984114
#
# Coordination Sequence:
#
# PCOD8183029 Si02
#       8
#     8   8   8   8   8   8   8   8
#     4  10  19  34  54  81 110 140 176 221 272 319
#     4  10  19  32  52  79 108 135 171 219 263 312
#     4  10  21  36  54  77 107 142 179 220 263 315
#     4  11  21  33  52  77 108 145 183 223 264 316
#     4  10  21  38  55  75 109 146 180 219 269 321
#     4  10  20  34  55  79 107 140 176 222 269 314
#     4  10  19  34  55  78 105 141 177 218 266 312
#     4   9  18  31  47  72 102 135 172 208 250 300
#
# _framework density 17.758182999999999
#
# number of rings (size 3 to 8) (size 9 to 14) (size 15 to 20)
#    0.000    2.000    2.500    2.625    0.000    3.500 
#    0.000    1.250    0.000    0.750    0.000    1.750 
#    0.000    0.000    0.000    0.000    0.000    0.000 
#
# Total GULP energy -396855.364351 kJ/mol
# GULP energy per Si atom -12401.730136 kJ/mol
# Density = 1.771776 g / cm^3
# Si number density = 17.758183 Si / 1000 Ang^3
#
#
#
# Elastic Constant Matrix: (Units=GPa)
#
#
# Indices 1 2 3 4 5 6 
#
# 1 75.7547 54.8234 35.0993 0.0000 0.0000 0.0000
# 2 54.8234 131.9032 58.4259 0.0000 0.0000 0.0000
# 3 35.0993 58.4259 86.8414 0.0000 0.0000 0.0000
# 4 0.0000 0.0000 0.0000 24.4249 0.0000 0.0000
# 5 0.0000 0.0000 0.0000 0.0000 18.8922 0.0000
# 6 0.0000 0.0000 0.0000 0.0000 0.0000 34.2186
#
#
#
# Elastic Compliance Matrix: (Units=1/GPa)
#
#
# Indices 1 2 3 4 5 6 
#
# 1 0.019589 -0.006602 -0.003475 0.000000 0.000000 0.000000
# 2 -0.006602 0.013025 -0.006095 0.000000 0.000000 0.000000
# 3 -0.003475 -0.006095 0.017020 0.000000 0.000000 0.000000
# 4 0.000000 0.000000 0.000000 0.040942 0.000000 0.000000
# 5 0.000000 0.000000 0.000000 0.000000 0.052932 0.000000
# 6 0.000000 0.000000 0.000000 0.000000 0.000000 0.029224
#
#
# Mechanical properties :
#
#
# Convention : Reuss Voigt Hill
#
# Bulk Modulus (GPa) = 57.83843 65.68849 61.76346
# Shear Modulus (GPa) = 23.71471 25.25051 24.48261
#
# Velocity S-wave (km/s) = 3.65831 3.77491 3.71707
# Velocity P-wave (km/s) = 7.10528 7.48804 7.29917
#
# Compressibility (1/GPa) = 0.01728954
#
# Stress axis : x y z
#
# Youngs Moduli (GPa) = 51.04944 76.77509 58.75352
#
# Poissons Ratio (x) = 0.50690 0.20419
# Poissons Ratio (y) = 0.33705 0.35808
# Poissons Ratio (z) = 0.17741 0.46791
#
# Static dielectric constant tensor:
#      x y z
#    x 3.247560 0.000000 0.000000 
#    y 0.000000 3.423350 0.000000 
#    z 0.000000 0.000000 3.049870 
# 
# 
# High freq. dielectric constant tensor:
#      x y z
#    x 1.686780 0.000000 0.000000 
#    y 0.000000 1.692630 0.000000 
#    z 0.000000 0.000000 1.657470 
# 
# From -- ./inp_files/19563.got.cif
#   From: 2010.03.12/outbox.cif.g09.slc.cpg/sg40_10_cif.got.tgz:19563.got - 2010.04.14 01:38:03.
