data_PCOD8183062
_publ_section_title
;
Structure prediction by ZEFSAII (Michael W. Deem and Ramdas Pophale) SiO2 
 PCOD8183062
Probable space group: A M A 2
;
_chemical_formula_sum "Si O2"
_cell_formula_units_Z 44
_cell_length_a 10.246484
_cell_length_b 16.600914
_cell_length_c 13.449770
_cell_angle_alpha 90.000000
_cell_angle_beta 90.000000
_cell_angle_gamma 90.000000
_cell_volume 2287.819323
_symmetry_space_group_name_H-M "A M A 2"
_symmetry_group_IT_number 40
_symmetry_cell_setting 'orthorhombic'
loop_
_space_group_symop_operation_xyz
x,y,z
-x,-y,z
1/2-x,y,z
1/2+x,-y,z
x,1/2+y,1/2+z
-x,1/2-y,1/2+z
1/2-x,1/2+y,1/2+z
1/2+x,1/2-y,1/2+z
loop_
_atom_site_type_symbol
_atom_site_label
_atom_site_fract_x
_atom_site_fract_y
_atom_site_fract_z
Si Si1 0.895898 0.558188 0.290920
Si Si2 0.500000 0.500000 0.914984
Si Si3 0.399693 0.386747 0.082844
Si Si4 0.100430 0.149790 0.308425
Si Si5 0.398206 0.796401 0.933170
Si Si6 0.906236 0.294690 0.593806
O O1 0.750000 0.519946 0.293540
O O2 0.953181 0.567071 0.179085
O O3 0.892704 0.645466 0.339070
O O4 0.000000 0.500000 0.346051
O O5 0.415915 0.557049 0.842335
O O6 0.416233 0.440170 0.983681
O O7 0.250000 0.371317 0.102694
O O8 0.458663 0.297094 0.081297
O O9 0.250000 0.172532 0.300500
O O10 0.044177 0.211071 0.391466
O O11 0.045068 0.166730 0.197989
O O12 0.250000 0.787821 0.977998
O O13 0.501784 0.836003 0.010337
O O14 0.750000 0.306604 0.574384
#
# Coordination Sequence:
#
# PCOD8183062 Si02
#       6
#     8   4   8   8   8   8
#     4  10  20  36  58  84 116 147 186 239 294 347
#     4  12  20  34  58  88 116 148 200 252 290 338
#     4  10  19  32  55  85 113 144 185 235 290 345
#     4  10  21  37  59  84 117 156 194 242 301 353
#     4  10  20  38  61  84 112 152 198 241 291 349
#     4  10  20  39  60  80 113 157 194 231 293 359
#
# _framework density 19.232288
#
# number of rings (size 3 to 8) (size 9 to 14) (size 15 to 20)
#    0.000    1.818    4.545    0.545    0.000    0.727 
#    1.636    3.636    0.000    0.000    0.000    0.000 
#    0.000    0.000    0.000    0.000    0.000    0.000 
#
# Total GULP energy -272537.598175 kJ/mol
# GULP energy per Si atom -12388.072644 kJ/mol
# Density = 1.918851 g / cm^3
# Si number density = 19.232288 Si / 1000 Ang^3
#
#
#
# Elastic Constant Matrix: (Units=GPa)
#
#
# Indices 1 2 3 4 5 6 
#
# 1 68.3486 18.9431 40.5377 0.0000 0.0000 0.0000
# 2 18.9431 90.6536 35.9070 0.0000 0.0000 0.0000
# 3 40.5377 35.9070 124.2082 0.0000 0.0000 0.0000
# 4 0.0000 0.0000 0.0000 34.0242 0.0000 0.0000
# 5 0.0000 0.0000 0.0000 0.0000 27.6760 0.0000
# 6 0.0000 0.0000 0.0000 0.0000 0.0000 26.6663
#
#
#
# Elastic Compliance Matrix: (Units=1/GPa)
#
#
# Indices 1 2 3 4 5 6 
#
# 1 0.018359 -0.001652 -0.005514 0.000000 0.000000 0.000000
# 2 -0.001652 0.012606 -0.003105 0.000000 0.000000 0.000000
# 3 -0.005514 -0.003105 0.010748 0.000000 0.000000 0.000000
# 4 0.000000 0.000000 0.000000 0.029391 0.000000 0.000000
# 5 0.000000 0.000000 0.000000 0.000000 0.036132 0.000000
# 6 0.000000 0.000000 0.000000 0.000000 0.000000 0.037501
#
#
# Mechanical properties :
#
#
# Convention : Reuss Voigt Hill
#
# Bulk Modulus (GPa) = 47.23511 52.66509 49.95010
# Shear Modulus (GPa) = 29.01283 30.19480 29.60381
#
# Velocity S-wave (km/s) = 3.88822 3.96663 3.92762
# Velocity P-wave (km/s) = 6.69113 6.95859 6.82617
#
# Compressibility (1/GPa) = 0.02117069
#
# Stress axis : x y z
#
# Youngs Moduli (GPa) = 54.46818 79.32647 93.03779
#
# Poissons Ratio (x) = 0.13107 0.51304
# Poissons Ratio (y) = 0.08999 0.28889
# Poissons Ratio (z) = 0.30035 0.24631
#
# Static dielectric constant tensor:
#      x y z
#    x 3.271840 0.000000 0.000000 
#    y 0.000000 3.465900 0.000000 
#    z 0.000000 0.000000 3.543230 
# 
# 
# High freq. dielectric constant tensor:
#      x y z
#    x 1.728070 0.000000 0.000000 
#    y 0.000000 1.744840 0.000000 
#    z 0.000000 0.000000 1.747820 
# 
# From -- ./inp_files/11173.got.cif
#   From: 2010.03.12/outbox.cif.g09.slc.cpg/sg40_6_cif.got.tgz:11173.got - 2010.04.14 01:38:03.
