data_PCOD8183590
_publ_section_title
;
Structure prediction by ZEFSAII (Michael W. Deem and Ramdas Pophale) SiO2 
 PCOD8183590
Probable space group: A M A 2
;
_chemical_formula_sum "Si O2"
_cell_formula_units_Z 56
_cell_length_a 8.705344
_cell_length_b 14.429215
_cell_length_c 21.936402
_cell_angle_alpha 90.000000
_cell_angle_beta 90.000000
_cell_angle_gamma 90.000000
_cell_volume 2755.459539
_symmetry_space_group_name_H-M "A M A 2"
_symmetry_group_IT_number 40
_symmetry_cell_setting 'orthorhombic'
loop_
_space_group_symop_operation_xyz
x,y,z
-x,-y,z
1/2-x,y,z
1/2+x,-y,z
x,1/2+y,1/2+z
-x,1/2-y,1/2+z
1/2-x,1/2+y,1/2+z
1/2+x,1/2-y,1/2+z
loop_
_atom_site_type_symbol
_atom_site_label
_atom_site_fract_x
_atom_site_fract_y
_atom_site_fract_z
Si Si1 0.568152 0.717310 0.726840
Si Si2 0.072005 0.407823 0.493807
Si Si3 0.429857 0.403339 0.198149
Si Si4 0.927090 0.790879 0.453231
Si Si5 0.430504 0.398551 0.842720
Si Si6 0.931735 0.404082 0.625164
Si Si7 0.069658 0.403200 0.056453
O O1 0.750000 0.716449 0.721313
O O2 0.509133 0.821882 0.736836
O O3 0.509335 0.655035 0.783047
O O4 0.494015 0.680247 0.664899
O O5 0.250000 0.425243 0.509431
O O6 0.051513 0.320405 0.448934
O O7 0.000000 0.500000 0.462399
O O8 0.982340 0.388145 0.556106
O O9 0.500000 0.500000 0.221104
O O10 0.250000 0.403576 0.210989
O O11 0.468295 0.387885 0.127135
O O12 0.750000 0.819017 0.445673
O O13 0.025308 0.839304 0.401409
O O14 0.987245 0.821830 0.519384
O O15 0.500000 0.500000 0.845667
O O16 0.250000 0.409443 0.841056
O O17 0.750000 0.406538 0.629645
O O18 0.000000 0.500000 0.651387
O O19 0.250000 0.402267 0.043263
O O20 0.000000 0.500000 0.033200
#
# Coordination Sequence:
#
# PCOD8183590 Si02
#       7
#     8   8   8   8   8   8   8
#     4  11  23  39  59  84 114 151 193 237 285 338
#     4  10  21  37  58  85 116 150 187 232 282 335
#     4  10  21  37  59  87 118 153 190 234 284 336
#     4  11  23  38  58  83 113 150 190 233 282 334
#     4  11  25  43  63  85 112 147 187 233 282 333
#     4  11  21  34  56  86 119 154 189 232 285 341
#     4  10  20  34  55  84 117 151 187 229 280 335
#
# _framework density 20.323288999999999
#
# number of rings (size 3 to 8) (size 9 to 14) (size 15 to 20)
#    0.000    1.429    0.000    6.429    0.000    9.714 
#    0.000    0.714    0.000    1.714    0.000    0.000 
#    0.000    0.000    0.000    0.000    0.000    0.000 
#
# Total GULP energy -347339.617665 kJ/mol
# GULP energy per Si atom -12404.986345 kJ/mol
# Density = 2.027703 g / cm^3
# Si number density = 20.323289 Si / 1000 Ang^3
#
#
#
# Elastic Constant Matrix: (Units=GPa)
#
#
# Indices 1 2 3 4 5 6 
#
# 1 89.6972 46.4665 23.4501 0.0000 0.0000 0.0000
# 2 46.4665 155.4497 45.3792 0.0000 0.0000 0.0000
# 3 23.4501 45.3792 54.2703 0.0000 0.0000 0.0000
# 4 0.0000 0.0000 0.0000 33.2300 0.0000 0.0000
# 5 0.0000 0.0000 0.0000 0.0000 9.2365 0.0000
# 6 0.0000 0.0000 0.0000 0.0000 0.0000 40.8715
#
#
#
# Elastic Compliance Matrix: (Units=1/GPa)
#
#
# Indices 1 2 3 4 5 6 
#
# 1 0.013619 -0.003113 -0.003282 0.000000 0.000000 0.000000
# 2 -0.003113 0.009222 -0.006366 0.000000 0.000000 0.000000
# 3 -0.003282 -0.006366 0.025167 0.000000 0.000000 0.000000
# 4 0.000000 0.000000 0.000000 0.030093 0.000000 0.000000
# 5 0.000000 0.000000 0.000000 0.000000 0.108266 0.000000
# 6 0.000000 0.000000 0.000000 0.000000 0.000000 0.024467
#
#
# Mechanical properties :
#
#
# Convention : Reuss Voigt Hill
#
# Bulk Modulus (GPa) = 44.47028 58.88988 51.68008
# Shear Modulus (GPa) = 20.50424 28.94235 24.72329
#
# Velocity S-wave (km/s) = 3.17977 3.77782 3.49162
# Velocity P-wave (km/s) = 5.95065 6.93316 6.46061
#
# Compressibility (1/GPa) = 0.02248693
#
# Stress axis : x y z
#
# Youngs Moduli (GPa) = 73.42542 108.43856 39.73395
#
# Poissons Ratio (x) = 0.33757 0.13040
# Poissons Ratio (y) = 0.22857 0.25294
# Poissons Ratio (z) = 0.24097 0.69031
#
# Static dielectric constant tensor:
#      x y z
#    x 3.753670 0.000000 0.000000 
#    y 0.000000 4.043490 0.000000 
#    z 0.000000 0.000000 3.458890 
# 
# 
# High freq. dielectric constant tensor:
#      x y z
#    x 1.809820 0.000000 0.000000 
#    y 0.000000 1.813250 0.000000 
#    z 0.000000 0.000000 1.766290 
# 
# From -- ./inp_files/22212.got.cif
#   From: 2010.03.12/outbox.cif.g09.slc.cpg/sg40_12_cif.got.tgz:22212.got - 2010.04.14 01:38:03.
