data_PCOD8183672
_publ_section_title
;
Structure prediction by ZEFSAII (Michael W. Deem and Ramdas Pophale) SiO2 
 PCOD8183672
Probable space group: A M A 2
;
_chemical_formula_sum "Si O2"
_cell_formula_units_Z 56
_cell_length_a 8.539090
_cell_length_b 21.306111
_cell_length_c 14.404190
_cell_angle_alpha 90.000000
_cell_angle_beta 90.000000
_cell_angle_gamma 90.000000
_cell_volume 2620.623418
_symmetry_space_group_name_H-M "A M A 2"
_symmetry_group_IT_number 40
_symmetry_cell_setting 'orthorhombic'
loop_
_space_group_symop_operation_xyz
x,y,z
-x,-y,z
1/2-x,y,z
1/2+x,-y,z
x,1/2+y,1/2+z
-x,1/2-y,1/2+z
1/2-x,1/2+y,1/2+z
1/2+x,1/2-y,1/2+z
loop_
_atom_site_type_symbol
_atom_site_label
_atom_site_fract_x
_atom_site_fract_y
_atom_site_fract_z
Si Si1 0.571582 0.062340 0.538190
Si Si2 0.932043 0.256428 0.036466
Si Si3 0.565815 0.067073 0.841973
Si Si4 0.064759 0.382769 0.535519
Si Si5 0.064442 0.431887 0.733204
Si Si6 0.068662 0.644545 0.891493
Si Si7 0.568840 0.857229 0.683569
O O1 0.750000 0.057299 0.572087
O O2 0.557479 0.108659 0.452858
O O3 0.459692 0.080414 0.623476
O O4 0.500000 0.000000 0.496010
O O5 0.750000 0.252940 0.060096
O O6 0.009183 0.187534 0.039763
O O7 0.002993 0.299804 0.120879
O O8 0.953580 0.284349 0.930978
O O9 0.750000 0.061840 0.840659
O O10 0.517238 0.127911 0.780437
O O11 0.500000 0.000000 0.807031
O O12 0.500134 0.080665 0.945611
O O13 0.250000 0.375551 0.527529
O O14 0.016276 0.421840 0.626231
O O15 0.250000 0.429603 0.748395
O O16 0.000000 0.500000 0.765648
O O17 0.983868 0.372647 0.786936
O O18 0.250000 0.624327 0.906532
O O19 0.750000 0.846875 0.704861
#
# Coordination Sequence:
#
# PCOD8183672 Si02
#       7
#     8   8   8   8   8   8   8
#     4  11  20  32  51  77 110 145 184 227 275 331
#     4   8  17  36  59  83 113 147 182 224 280 338
#     4  11  22  37  58  83 113 148 190 235 280 331
#     4   9  20  38  59  82 110 148 190 235 282 329
#     4  11  22  37  58  83 113 148 190 235 280 331
#     4  10  20  35  56  82 113 146 181 225 278 335
#     4  10  20  35  56  82 113 146 181 225 278 335
#
# _framework density 21.368960999999999
#
# number of rings (size 3 to 8) (size 9 to 14) (size 15 to 20)
#    0.000    2.000    0.000    5.143    0.000    1.143 
#    0.000    2.143    0.000   18.857    0.000    0.000 
#    0.000    0.000    0.000    0.000    0.000    0.000 
#
# Total GULP energy -346888.405883 kJ/mol
# GULP energy per Si atom -12388.871639 kJ/mol
# Density = 2.132032 g / cm^3
# Si number density = 21.368961 Si / 1000 Ang^3
#
#
#
# Elastic Constant Matrix: (Units=GPa)
#
#
# Indices 1 2 3 4 5 6 
#
# 1 54.1820 21.0376 12.1160 0.0000 0.0000 0.0000
# 2 21.0376 92.1185 20.4641 0.0000 0.0000 0.0000
# 3 12.1160 20.4641 108.0628 0.0000 0.0000 0.0000
# 4 0.0000 0.0000 0.0000 13.3400 0.0000 0.0000
# 5 0.0000 0.0000 0.0000 0.0000 29.2822 0.0000
# 6 0.0000 0.0000 0.0000 0.0000 0.0000 15.7593
#
#
#
# Elastic Compliance Matrix: (Units=1/GPa)
#
#
# Indices 1 2 3 4 5 6 
#
# 1 0.020474 -0.004349 -0.001472 0.000000 0.000000 0.000000
# 2 -0.004349 0.012256 -0.001833 0.000000 0.000000 0.000000
# 3 -0.001472 -0.001833 0.009766 0.000000 0.000000 0.000000
# 4 0.000000 0.000000 0.000000 0.074963 0.000000 0.000000
# 5 0.000000 0.000000 0.000000 0.000000 0.034150 0.000000
# 6 0.000000 0.000000 0.000000 0.000000 0.000000 0.063455
#
#
# Mechanical properties :
#
#
# Convention : Reuss Voigt Hill
#
# Bulk Modulus (GPa) = 36.78112 40.17764 38.47938
# Shear Modulus (GPa) = 20.88251 25.05933 22.97092
#
# Velocity S-wave (km/s) = 3.12947 3.42818 3.28223
# Velocity P-wave (km/s) = 5.50526 5.87474 5.69300
#
# Compressibility (1/GPa) = 0.02718786
#
# Stress axis : x y z
#
# Youngs Moduli (GPa) = 48.84241 81.59263 102.39496
#
# Poissons Ratio (x) = 0.35483 0.15073
# Poissons Ratio (y) = 0.21240 0.18773
# Poissons Ratio (z) = 0.07190 0.14959
#
# Static dielectric constant tensor:
#      x y z
#    x 3.516910 0.000000 0.000000 
#    y 0.000000 4.708220 0.000000 
#    z 0.000000 0.000000 4.128820 
# 
# 
# High freq. dielectric constant tensor:
#      x y z
#    x 1.812480 0.000000 0.000000 
#    y 0.000000 1.832110 0.000000 
#    z 0.000000 0.000000 1.841720 
# 
# From -- ./inp_files/15298.got.cif
#   From: 2010.03.12/outbox.cif.g09.slc.cpg/sg40_8_cif.got.tgz:15298.got - 2010.04.14 01:38:03.
