data_PCOD8183988
_publ_section_title
;
Structure prediction by ZEFSAII (Michael W. Deem and Ramdas Pophale) SiO2 
 PCOD8183988
Probable space group: A M A 2
;
_chemical_formula_sum "Si O2"
_cell_formula_units_Z 56
_cell_length_a 19.286341
_cell_length_b 15.221416
_cell_length_c 9.513568
_cell_angle_alpha 90.000000
_cell_angle_beta 90.000000
_cell_angle_gamma 90.000000
_cell_volume 2792.854581
_symmetry_space_group_name_H-M "A M A 2"
_symmetry_group_IT_number 40
_symmetry_cell_setting 'orthorhombic'
loop_
_space_group_symop_operation_xyz
x,y,z
-x,-y,z
1/2-x,y,z
1/2+x,-y,z
x,1/2+y,1/2+z
-x,1/2-y,1/2+z
1/2-x,1/2+y,1/2+z
1/2+x,1/2-y,1/2+z
loop_
_atom_site_type_symbol
_atom_site_label
_atom_site_fract_x
_atom_site_fract_y
_atom_site_fract_z
Si Si1 0.325702 0.727421 0.185680
Si Si2 0.054838 0.144116 0.339319
Si Si3 0.328235 0.868067 0.634056
Si Si4 0.077001 0.766252 0.433401
Si Si5 0.830225 0.440362 0.025426
Si Si6 0.625456 0.687270 0.417901
Si Si7 0.996061 0.400340 0.536154
O O1 0.250000 0.740778 0.255185
O O2 0.382976 0.771254 0.284873
O O3 0.340663 0.624201 0.158891
O O4 0.322554 0.769717 0.029667
O O5 0.111790 0.079763 0.407680
O O6 0.089419 0.239193 0.319201
O O7 0.029226 0.099893 0.196559
O O8 0.986987 0.164738 0.434990
O O9 0.250000 0.842967 0.597552
O O10 0.374642 0.793397 0.562204
O O11 0.336655 0.873358 0.803490
O O12 0.348074 0.962531 0.574678
O O13 0.054823 0.664181 0.449674
O O14 0.750000 0.433205 0.969079
O O15 0.573349 0.634552 0.517344
O O16 0.000000 0.500000 0.478673
#
# Coordination Sequence:
#
# PCOD8183988 Si02
#       7
#     8   8   8   8   8   8   8
#     4  10  20  39  64  88 124 165 204 252 314 380
#     4  10  21  41  62  87 127 160 209 258 310 374
#     4  11  23  41  64  95 127 161 211 258 307 378
#     4  11  23  40  61  93 121 165 207 257 315 365
#     4   9  22  39  63  92 124 165 207 256 317 378
#     4  10  21  40  62  89 123 165 202 253 315 373
#     4  11  24  39  59  89 123 161 208 262 307 367
#
# _framework density 20.051168000000001
#
# number of rings (size 3 to 8) (size 9 to 14) (size 15 to 20)
#    0.000    1.714    2.857    0.857    4.000    0.571 
#    0.000    0.000    0.000    0.857    0.000    0.000 
#    0.000    0.000    0.000    0.000    0.000    0.000 
#
# Total GULP energy -346997.002873 kJ/mol
# GULP energy per Si atom -12392.750103 kJ/mol
# Density = 2.000553 g / cm^3
# Si number density = 20.051168 Si / 1000 Ang^3
#
#
#
# Elastic Constant Matrix: (Units=GPa)
#
#
# Indices 1 2 3 4 5 6 
#
# 1 103.8218 47.7390 43.3855 0.0000 0.0000 0.0000
# 2 47.7390 97.3824 37.0777 0.0000 0.0000 0.0000
# 3 43.3855 37.0777 97.5694 0.0000 0.0000 0.0000
# 4 0.0000 0.0000 0.0000 26.8122 0.0000 0.0000
# 5 0.0000 0.0000 0.0000 0.0000 32.2683 0.0000
# 6 0.0000 0.0000 0.0000 0.0000 0.0000 17.0603
#
#
#
# Elastic Compliance Matrix: (Units=1/GPa)
#
#
# Indices 1 2 3 4 5 6 
#
# 1 0.013736 -0.005154 -0.004149 0.000000 0.000000 0.000000
# 2 -0.005154 0.013940 -0.003006 0.000000 0.000000 0.000000
# 3 -0.004149 -0.003006 0.013236 0.000000 0.000000 0.000000
# 4 0.000000 0.000000 0.000000 0.037296 0.000000 0.000000
# 5 0.000000 0.000000 0.000000 0.000000 0.030990 0.000000
# 6 0.000000 0.000000 0.000000 0.000000 0.000000 0.058615
#
#
# Mechanical properties :
#
#
# Convention : Reuss Voigt Hill
#
# Bulk Modulus (GPa) = 61.37058 61.68645 61.52852
# Shear Modulus (GPa) = 25.27014 26.59960 25.93487
#
# Velocity S-wave (km/s) = 3.55390 3.64618 3.60034
# Velocity P-wave (km/s) = 6.89302 6.96832 6.93077
#
# Compressibility (1/GPa) = 0.01629445
#
# Stress axis : x y z
#
# Youngs Moduli (GPa) = 72.80393 71.73812 75.54992
#
# Poissons Ratio (x) = 0.36971 0.31347
# Poissons Ratio (y) = 0.37521 0.22707
# Poissons Ratio (z) = 0.30208 0.21562
#
# Static dielectric constant tensor:
#      x y z
#    x 3.724120 0.000000 0.000000 
#    y 0.000000 3.630560 0.000000 
#    z 0.000000 0.000000 3.374010 
# 
# 
# High freq. dielectric constant tensor:
#      x y z
#    x 1.792830 0.000000 0.000000 
#    y 0.000000 1.776560 0.000000 
#    z 0.000000 0.000000 1.769950 
# 
# From -- ./inp_files/8330.got.cif
#   From: 2010.03.12/outbox.cif.g09.slc.cpg/sg40_5_cif.got.tgz:8330.got - 2010.04.14 01:38:03.
