data_PCOD8183565
_publ_section_title
;
Structure prediction by ZEFSAII (Michael W. Deem and Ramdas Pophale) SiO2 
 PCOD8183565
Probable space group: A M A 2
;
_chemical_formula_sum "Si O2"
_cell_formula_units_Z 64
_cell_length_a 8.909041
_cell_length_b 16.037812
_cell_length_c 22.510060
_cell_angle_alpha 90.000000
_cell_angle_beta 90.000000
_cell_angle_gamma 90.000000
_cell_volume 3216.271693
_symmetry_space_group_name_H-M "A M A 2"
_symmetry_group_IT_number 40
_symmetry_cell_setting 'orthorhombic'
loop_
_space_group_symop_operation_xyz
x,y,z
-x,-y,z
1/2-x,y,z
1/2+x,-y,z
x,1/2+y,1/2+z
-x,1/2-y,1/2+z
1/2-x,1/2+y,1/2+z
1/2+x,1/2-y,1/2+z
loop_
_atom_site_type_symbol
_atom_site_label
_atom_site_fract_x
_atom_site_fract_y
_atom_site_fract_z
Si Si1 0.928859 0.089902 0.152570
Si Si2 0.920710 0.870462 0.812727
Si Si3 0.915526 0.781031 0.366846
Si Si4 0.918459 0.921208 0.942738
Si Si5 0.924725 0.242615 0.612157
Si Si6 0.075915 0.257551 0.978368
Si Si7 0.916727 0.921597 0.273018
Si Si8 0.571996 0.085816 0.691896
O O1 0.750000 0.084630 0.147124
O O2 0.986511 0.170099 0.115852
O O3 0.981285 0.111752 0.219211
O O4 0.000000 0.000000 0.132639
O O5 0.750000 0.866305 0.789107
O O6 0.932343 0.927508 0.871230
O O7 0.972774 0.779330 0.832121
O O8 0.025338 0.905488 0.760575
O O9 0.750000 0.740380 0.375438
O O10 0.899841 0.860434 0.326745
O O11 0.982432 0.811093 0.430453
O O12 0.750000 0.927118 0.965042
O O13 0.987961 0.836515 0.969114
O O14 0.000000 0.000000 0.971855
O O15 0.750000 0.261141 0.625135
O O16 0.949484 0.209755 0.544912
O O17 0.982770 0.167997 0.655230
O O18 0.250000 0.260565 0.960265
O O19 0.750000 0.943700 0.247999
O O20 0.000000 0.000000 0.301264
O O21 0.750000 0.077415 0.687533
O O22 0.500000 0.000000 0.666089
#
# Coordination Sequence:
#
# PCOD8183565 Si02
#       8
#     8   8   8   8   8   8   8   8
#     4  11  22  36  58  87 118 151 186 228 277 334
#     4  10  20  34  54  80 110 144 179 215 266 333
#     4  10  20  34  54  81 110 139 176 224 276 328
#     4   9  18  31  49  75 104 134 167 206 255 313
#     4  10  22  41  60  79 109 150 194 238 282 329
#     4   9  20  38  56  74 102 142 185 226 270 324
#     4  10  20  34  53  79 110 141 175 220 273 330
#     4  11  23  38  58  83 112 147 188 237 288 337
#
# _framework density 19.898816
#
# number of rings (size 3 to 8) (size 9 to 14) (size 15 to 20)
#    0.000    2.000    0.000    5.250    0.000   10.500 
#    0.000    1.875    0.000    3.000    0.000    0.000 
#    0.000    0.000    0.000    0.000    0.000    0.000 
#
# Total GULP energy -396600.622377 kJ/mol
# GULP energy per Si atom -12393.769449 kJ/mol
# Density = 1.985353 g / cm^3
# Si number density = 19.898816 Si / 1000 Ang^3
#
#
#
# Elastic Constant Matrix: (Units=GPa)
#
#
# Indices 1 2 3 4 5 6 
#
# 1 97.1487 34.5997 24.3046 0.0000 0.0000 0.0000
# 2 34.5997 70.1469 21.2376 0.0000 0.0000 0.0000
# 3 24.3046 21.2376 60.3085 0.0000 0.0000 0.0000
# 4 0.0000 0.0000 0.0000 14.1585 0.0000 0.0000
# 5 0.0000 0.0000 0.0000 0.0000 12.8547 0.0000
# 6 0.0000 0.0000 0.0000 0.0000 0.0000 27.8338
#
#
#
# Elastic Compliance Matrix: (Units=1/GPa)
#
#
# Indices 1 2 3 4 5 6 
#
# 1 0.013066 -0.005430 -0.003354 0.000000 0.000000 0.000000
# 2 -0.005430 0.018213 -0.004226 0.000000 0.000000 0.000000
# 3 -0.003354 -0.004226 0.019421 0.000000 0.000000 0.000000
# 4 0.000000 0.000000 0.000000 0.070629 0.000000 0.000000
# 5 0.000000 0.000000 0.000000 0.000000 0.077793 0.000000
# 6 0.000000 0.000000 0.000000 0.000000 0.000000 0.035927
#
#
# Mechanical properties :
#
#
# Convention : Reuss Voigt Hill
#
# Bulk Modulus (GPa) = 40.51421 43.09863 41.80642
# Shear Modulus (GPa) = 18.56699 20.80022 19.68360
#
# Velocity S-wave (km/s) = 3.05793 3.23662 3.14854
# Velocity P-wave (km/s) = 5.73343 5.97273 5.85430
#
# Compressibility (1/GPa) = 0.02468270
#
# Stress axis : x y z
#
# Youngs Moduli (GPa) = 76.53293 54.90510 51.49055
#
# Poissons Ratio (x) = 0.29811 0.17269
# Poissons Ratio (y) = 0.41554 0.21758
# Poissons Ratio (z) = 0.25667 0.23201
#
# Static dielectric constant tensor:
#      x y z
#    x 3.874910 0.000000 0.000000 
#    y 0.000000 3.611150 0.000000 
#    z 0.000000 0.000000 3.562500 
# 
# 
# High freq. dielectric constant tensor:
#      x y z
#    x 1.782790 0.000000 0.000000 
#    y 0.000000 1.763680 0.000000 
#    z 0.000000 0.000000 1.766320 
# 
# From -- ./inp_files/22396.got.cif
#   From: 2010.03.12/outbox.cif.g09.slc.cpg/sg40_12_cif.got.tgz:22396.got - 2010.04.14 01:38:03.
