data_PCOD8183901
_publ_section_title
;
Structure prediction by ZEFSAII (Michael W. Deem and Ramdas Pophale) SiO2 
 PCOD8183901
Probable space group: A M A 2
;
_chemical_formula_sum "Si O2"
_cell_formula_units_Z 64
_cell_length_a 14.133244
_cell_length_b 9.496558
_cell_length_c 23.080900
_cell_angle_alpha 90.000000
_cell_angle_beta 90.000000
_cell_angle_gamma 90.000000
_cell_volume 3097.853111
_symmetry_space_group_name_H-M "A M A 2"
_symmetry_group_IT_number 40
_symmetry_cell_setting 'orthorhombic'
loop_
_space_group_symop_operation_xyz
x,y,z
-x,-y,z
1/2-x,y,z
1/2+x,-y,z
x,1/2+y,1/2+z
-x,1/2-y,1/2+z
1/2-x,1/2+y,1/2+z
1/2+x,1/2-y,1/2+z
loop_
_atom_site_type_symbol
_atom_site_label
_atom_site_fract_x
_atom_site_fract_y
_atom_site_fract_z
Si Si1 0.640196 0.115764 0.237280
Si Si2 0.857722 0.459999 0.399468
Si Si3 0.642621 0.365618 0.528118
Si Si4 0.523412 0.851572 0.792602
Si Si5 0.642545 0.772014 0.435694
Si Si6 0.359671 0.875706 0.106557
Si Si7 0.479718 0.159787 0.545916
Si Si8 0.642292 0.356217 0.813127
O O1 0.750000 0.141021 0.247940
O O2 0.590179 0.262188 0.251172
O O3 0.618212 0.070315 0.171381
O O4 0.602874 0.993688 0.280134
O O5 0.750000 0.457031 0.376045
O O6 0.866192 0.378151 0.459520
O O7 0.925761 0.382651 0.354077
O O8 0.890302 0.620417 0.410999
O O9 0.750000 0.335680 0.547666
O O10 0.606261 0.507370 0.560197
O O11 0.581201 0.233785 0.547083
O O12 0.422868 0.775964 0.799057
O O13 0.500000 0.000000 0.761786
O O14 0.750000 0.759222 0.460678
O O15 0.571924 0.827771 0.484108
O O16 0.639596 0.883137 0.382459
O O17 0.250000 0.842116 0.098525
O O18 0.414784 0.730908 0.094835
O O19 0.500000 0.000000 0.562623
O O20 0.750000 0.321745 0.793140
#
# Coordination Sequence:
#
# PCOD8183901 Si02
#       8
#     8   8   8   8   8   8   8   8
#     4  10  24  45  66  90 121 162 214 261 310 371
#     4  10  20  37  62  92 126 163 210 256 303 365
#     4  10  22  39  64  92 121 164 214 258 300 363
#     4  12  23  35  61  92 126 163 205 256 311 372
#     4  10  20  38  62  90 129 170 207 251 312 374
#     4  10  22  45  71  89 115 163 216 261 307 370
#     4  12  25  37  61  97 130 162 198 257 324 382
#     4  10  22  39  59  87 126 169 210 256 307 365
#
# _framework density 20.659469000000001
#
# number of rings (size 3 to 8) (size 9 to 14) (size 15 to 20)
#    0.000    1.500    2.500    2.250    0.000    6.000 
#    0.000    2.500    0.000    3.000    0.000    0.000 
#    0.000    0.000    0.000    0.000    0.000    0.000 
#
# Total GULP energy -396840.010828 kJ/mol
# GULP energy per Si atom -12401.250338 kJ/mol
# Density = 2.061245 g / cm^3
# Si number density = 20.659469 Si / 1000 Ang^3
#
#
#
# Elastic Constant Matrix: (Units=GPa)
#
#
# Indices 1 2 3 4 5 6 
#
# 1 91.8683 57.1149 29.1052 0.0000 0.0000 0.0000
# 2 57.1149 131.1239 29.7578 0.0000 0.0000 0.0000
# 3 29.1052 29.7578 69.6152 0.0000 0.0000 0.0000
# 4 0.0000 0.0000 0.0000 30.2846 0.0000 0.0000
# 5 0.0000 0.0000 0.0000 0.0000 21.7860 0.0000
# 6 0.0000 0.0000 0.0000 0.0000 0.0000 34.0116
#
#
#
# Elastic Compliance Matrix: (Units=1/GPa)
#
#
# Indices 1 2 3 4 5 6 
#
# 1 0.015912 -0.006004 -0.004086 0.000000 0.000000 0.000000
# 2 -0.006004 0.010711 -0.002068 0.000000 0.000000 0.000000
# 3 -0.004086 -0.002068 0.016957 0.000000 0.000000 0.000000
# 4 0.000000 0.000000 0.000000 0.033020 0.000000 0.000000
# 5 0.000000 0.000000 0.000000 0.000000 0.045901 0.000000
# 6 0.000000 0.000000 0.000000 0.000000 0.000000 0.029402
#
#
# Mechanical properties :
#
#
# Convention : Reuss Voigt Hill
#
# Bulk Modulus (GPa) = 51.91166 58.28482 55.09824
# Shear Modulus (GPa) = 27.37604 28.99173 28.18388
#
# Velocity S-wave (km/s) = 3.64415 3.75015 3.69753
# Velocity P-wave (km/s) = 6.54892 6.85747 6.70497
#
# Compressibility (1/GPa) = 0.01926349
#
# Stress axis : x y z
#
# Youngs Moduli (GPa) = 62.84444 93.36299 58.97162
#
# Poissons Ratio (x) = 0.56052 0.24098
# Poissons Ratio (y) = 0.37730 0.12198
# Poissons Ratio (z) = 0.25681 0.19311
#
# Static dielectric constant tensor:
#      x y z
#    x 3.938920 0.000000 0.000000 
#    y 0.000000 3.653860 0.000000 
#    z 0.000000 0.000000 3.756410 
# 
# 
# High freq. dielectric constant tensor:
#      x y z
#    x 1.829950 0.000000 0.000000 
#    y 0.000000 1.790510 0.000000 
#    z 0.000000 0.000000 1.796390 
# 
# From -- ./inp_files/24782.got.cif
#   From: 2010.03.12/outbox.cif.g09.slc.cpg/sg40_13_cif.got.tgz:24782.got - 2010.04.14 01:38:03.
