data_PCOD8183879
_publ_section_title
;
Structure prediction by ZEFSAII (Michael W. Deem and Ramdas Pophale) SiO2 
 PCOD8183879
Probable space group: A M A 2
;
_chemical_formula_sum "Si O2"
_cell_formula_units_Z 64
_cell_length_a 17.522646
_cell_length_b 17.901707
_cell_length_c 9.942010
_cell_angle_alpha 90.000000
_cell_angle_beta 90.000000
_cell_angle_gamma 90.000000
_cell_volume 3118.662136
_symmetry_space_group_name_H-M "A M A 2"
_symmetry_group_IT_number 40
_symmetry_cell_setting 'orthorhombic'
loop_
_space_group_symop_operation_xyz
x,y,z
-x,-y,z
1/2-x,y,z
1/2+x,-y,z
x,1/2+y,1/2+z
-x,1/2-y,1/2+z
1/2-x,1/2+y,1/2+z
1/2+x,1/2-y,1/2+z
loop_
_atom_site_type_symbol
_atom_site_label
_atom_site_fract_x
_atom_site_fract_y
_atom_site_fract_z
Si Si1 0.415183 0.022712 0.320450
Si Si2 0.840533 0.968260 0.761962
Si Si3 0.165567 0.024580 0.064515
Si Si4 0.661491 0.574370 0.025708
Si Si5 0.914916 0.721019 0.905227
Si Si6 0.410099 0.694590 0.883285
Si Si7 0.833244 0.804034 0.121541
Si Si8 0.659478 0.805173 0.671344
O O1 0.394529 0.990039 0.171261
O O2 0.412241 0.110024 0.337229
O O3 0.500000 0.000000 0.361439
O O4 0.350582 0.990712 0.418253
O O5 0.750000 0.962033 0.759501
O O6 0.872145 0.887628 0.712024
O O7 0.866845 0.037995 0.668087
O O8 0.869079 0.982555 0.914408
O O9 0.250000 0.986300 0.069544
O O10 0.176042 0.107765 0.119440
O O11 0.750000 0.597198 0.032598
O O12 0.611227 0.644229 0.976858
O O13 0.876847 0.738451 0.760783
O O14 0.005183 0.726061 0.892091
O O15 0.890904 0.787616 0.001826
O O16 0.364304 0.732730 0.760224
O O17 0.364393 0.710578 0.018835
O O18 0.750000 0.767253 0.095619
O O19 0.750000 0.800401 0.686979
#
# Coordination Sequence:
#
# PCOD8183879 Si02
#       8
#     8   8   8   8   8   8   8   8
#     4  11  21  38  56  85 123 161 200 246 304 367
#     4   9  18  35  60  88 111 148 209 258 290 350
#     4   9  18  35  61  85 108 149 207 256 291 354
#     4  11  22  37  61  89 122 161 202 249 310 371
#     4  12  23  39  59  91 128 162 193 255 330 373
#     4  11  23  38  61  88 123 160 205 255 311 370
#     4  10  20  37  61  87 116 156 208 256 305 364
#     4  11  21  38  63  89 118 158 214 259 298 367
#
# _framework density 20.521619999999999
#
# number of rings (size 3 to 8) (size 9 to 14) (size 15 to 20)
#    0.000    1.500    3.750    2.625    0.000    1.000 
#    0.000    3.125    0.000    1.500    0.000    0.000 
#    0.000    0.000    0.000    0.000    0.000    0.000 
#
# Total GULP energy -396586.802721 kJ/mol
# GULP energy per Si atom -12393.337585 kJ/mol
# Density = 2.047491 g / cm^3
# Si number density = 20.521620 Si / 1000 Ang^3
#
#
#
# Elastic Constant Matrix: (Units=GPa)
#
#
# Indices 1 2 3 4 5 6 
#
# 1 57.5569 13.7973 20.8359 0.0000 0.0000 0.0000
# 2 13.7973 27.3003 4.5080 0.0000 0.0000 0.0000
# 3 20.8359 4.5080 144.6973 0.0000 0.0000 0.0000
# 4 0.0000 0.0000 0.0000 36.3390 0.0000 0.0000
# 5 0.0000 0.0000 0.0000 0.0000 40.4043 0.0000
# 6 0.0000 0.0000 0.0000 0.0000 0.0000 19.3525
#
#
#
# Elastic Compliance Matrix: (Units=1/GPa)
#
#
# Indices 1 2 3 4 5 6 
#
# 1 0.020751 -0.010045 -0.002675 0.000000 0.000000 0.000000
# 2 -0.010045 0.041682 0.000148 0.000000 0.000000 0.000000
# 3 -0.002675 0.000148 0.007292 0.000000 0.000000 0.000000
# 4 0.000000 0.000000 0.000000 0.027519 0.000000 0.000000
# 5 0.000000 0.000000 0.000000 0.000000 0.024750 0.000000
# 6 0.000000 0.000000 0.000000 0.000000 0.000000 0.051673
#
#
# Mechanical properties :
#
#
# Convention : Reuss Voigt Hill
#
# Bulk Modulus (GPa) = 22.43202 34.20408 28.31805
# Shear Modulus (GPa) = 23.40052 31.91338 27.65695
#
# Velocity S-wave (km/s) = 3.38048 3.94777 3.67508
# Velocity P-wave (km/s) = 5.11776 6.12236 5.64246
#
# Compressibility (1/GPa) = 0.04457914
#
# Stress axis : x y z
#
# Youngs Moduli (GPa) = 48.19146 23.99109 137.14474
#
# Poissons Ratio (x) = 0.24100 0.36687
# Poissons Ratio (y) = 0.48410 -0.02029
# Poissons Ratio (z) = 0.12891 -0.00355
#
# Static dielectric constant tensor:
#      x y z
#    x 2.228260 0.000000 0.000000 
#    y 0.000000 3.548990 0.000000 
#    z 0.000000 0.000000 4.102350 
# 
# 
# High freq. dielectric constant tensor:
#      x y z
#    x 1.794880 0.000000 0.000000 
#    y 0.000000 1.776040 0.000000 
#    z 0.000000 0.000000 1.819730 
# 
# From -- ./inp_files/7816.got.cif
#   From: 2010.03.12/outbox.cif.g09.slc.cpg/sg40_4_cif.got.tgz:7816.got - 2010.04.14 01:38:03.
