data_PCOD8183026
_publ_section_title
;
Structure prediction by ZEFSAII (Michael W. Deem and Ramdas Pophale) SiO2 
 PCOD8183026
Probable space group: A M A 2
;
_chemical_formula_sum "Si O2"
_cell_formula_units_Z 56
_cell_length_a 9.007135
_cell_length_b 23.790112
_cell_length_c 13.615093
_cell_angle_alpha 90.000000
_cell_angle_beta 90.000000
_cell_angle_gamma 90.000000
_cell_volume 2917.452345
_symmetry_space_group_name_H-M "A M A 2"
_symmetry_group_IT_number 40
_symmetry_cell_setting 'orthorhombic'
loop_
_space_group_symop_operation_xyz
x,y,z
-x,-y,z
1/2-x,y,z
1/2+x,-y,z
x,1/2+y,1/2+z
-x,1/2-y,1/2+z
1/2-x,1/2+y,1/2+z
1/2+x,1/2-y,1/2+z
loop_
_atom_site_type_symbol
_atom_site_label
_atom_site_fract_x
_atom_site_fract_y
_atom_site_fract_z
Si Si1 0.923865 0.440884 0.398770
Si Si2 0.078574 0.628499 0.587039
Si Si3 0.424333 0.442819 0.976865
Si Si4 0.076585 0.840626 0.800486
Si Si5 0.423528 0.272406 0.489287
Si Si6 0.074656 0.557332 0.773305
Si Si7 0.420830 0.329007 0.079606
O O1 0.750000 0.448263 0.383622
O O2 0.964477 0.418962 0.507605
O O3 0.000000 0.500000 0.380477
O O4 0.984241 0.397013 0.319016
O O5 0.250000 0.644857 0.576172
O O6 0.041012 0.605775 0.694769
O O7 0.985851 0.684882 0.570668
O O8 0.500000 0.500000 0.016489
O O9 0.250000 0.453405 0.959875
O O10 0.454306 0.394029 0.055469
O O11 0.499965 0.424148 0.874966
O O12 0.250000 0.855918 0.807925
O O13 0.035382 0.817677 0.692744
O O14 0.032545 0.792889 0.879753
O O15 0.250000 0.269598 0.503008
O O16 0.486799 0.210508 0.507059
O O17 0.250000 0.547915 0.787044
O O18 0.000000 0.500000 0.735081
O O19 0.250000 0.314735 0.060816
#
# Coordination Sequence:
#
# PCOD8183026 Si02
#       7
#     8   8   8   8   8   8   8
#     4  10  19  32  52  79 110 144 180 221 266 315
#     4   9  19  34  52  76 109 147 182 217 265 317
#     4  10  21  37  56  79 107 140 177 221 266 312
#     4   9  20  39  57  77 106 140 178 220 263 312
#     4  10  21  36  57  82 107 136 176 223 265 310
#     4  10  19  32  52  78 109 145 181 221 266 315
#     4  10  22  40  60  79 106 142 176 213 264 319
#
# _framework density 19.194831000000001
#
# number of rings (size 3 to 8) (size 9 to 14) (size 15 to 20)
#    0.000    2.286    0.000    3.000    0.000    5.714 
#    0.000    5.714    0.000    0.000    0.000    0.000 
#    0.000    0.000    0.000    0.000    0.000    0.000 
#
# Total GULP energy -347265.264485 kJ/mol
# GULP energy per Si atom -12402.330874 kJ/mol
# Density = 1.915114 g / cm^3
# Si number density = 19.194831 Si / 1000 Ang^3
#
#
#
# Elastic Constant Matrix: (Units=GPa)
#
#
# Indices 1 2 3 4 5 6 
#
# 1 86.7732 52.8966 42.0030 0.0000 0.0000 0.0000
# 2 52.8966 115.4223 55.9177 0.0000 0.0000 0.0000
# 3 42.0030 55.9177 94.1857 0.0000 0.0000 0.0000
# 4 0.0000 0.0000 0.0000 23.2275 0.0000 0.0000
# 5 0.0000 0.0000 0.0000 0.0000 18.5710 0.0000
# 6 0.0000 0.0000 0.0000 0.0000 0.0000 39.1051
#
#
#
# Elastic Compliance Matrix: (Units=1/GPa)
#
#
# Indices 1 2 3 4 5 6 
#
# 1 0.017084 -0.005809 -0.004170 0.000000 0.000000 0.000000
# 2 -0.005809 0.014137 -0.005803 0.000000 0.000000 0.000000
# 3 -0.004170 -0.005803 0.015922 0.000000 0.000000 0.000000
# 4 0.000000 0.000000 0.000000 0.043052 0.000000 0.000000
# 5 0.000000 0.000000 0.000000 0.000000 0.053847 0.000000
# 6 0.000000 0.000000 0.000000 0.000000 0.000000 0.025572
#
#
# Mechanical properties :
#
#
# Convention : Reuss Voigt Hill
#
# Bulk Modulus (GPa) = 64.18553 66.44622 65.31587
# Shear Modulus (GPa) = 24.22811 25.88495 25.05653
#
# Velocity S-wave (km/s) = 3.55663 3.67623 3.61692
# Velocity P-wave (km/s) = 7.09773 7.26026 7.17945
#
# Compressibility (1/GPa) = 0.01557983
#
# Stress axis : x y z
#
# Youngs Moduli (GPa) = 58.53410 70.73508 62.80675
#
# Poissons Ratio (x) = 0.41092 0.26190
# Poissons Ratio (y) = 0.34004 0.36444
# Poissons Ratio (z) = 0.24408 0.41044
#
# Static dielectric constant tensor:
#      x y z
#    x 3.559140 0.000000 0.000000 
#    y 0.000000 3.429570 0.000000 
#    z 0.000000 0.000000 3.491290 
# 
# 
# High freq. dielectric constant tensor:
#      x y z
#    x 1.752760 0.000000 0.000000 
#    y 0.000000 1.744150 0.000000 
#    z 0.000000 0.000000 1.742920 
# 
# From -- ./inp_files/15348.got.cif
#   From: 2010.03.12/outbox.cif.g09.slc.cpg/sg40_8_cif.got.tgz:15348.got - 2010.04.14 01:38:03.
