data_PCOD8183358
_publ_section_title
;
Structure prediction by ZEFSAII (Michael W. Deem and Ramdas Pophale) SiO2 
 PCOD8183358
Probable space group: A M A 2
;
_chemical_formula_sum "Si O2"
_cell_formula_units_Z 64
_cell_length_a 14.655093
_cell_length_b 22.849838
_cell_length_c 8.919489
_cell_angle_alpha 90.000000
_cell_angle_beta 90.000000
_cell_angle_gamma 90.000000
_cell_volume 2986.838071
_symmetry_space_group_name_H-M "A M A 2"
_symmetry_group_IT_number 40
_symmetry_cell_setting 'orthorhombic'
loop_
_space_group_symop_operation_xyz
x,y,z
-x,-y,z
1/2-x,y,z
1/2+x,-y,z
x,1/2+y,1/2+z
-x,1/2-y,1/2+z
1/2-x,1/2+y,1/2+z
1/2+x,1/2-y,1/2+z
loop_
_atom_site_type_symbol
_atom_site_label
_atom_site_fract_x
_atom_site_fract_y
_atom_site_fract_z
Si Si1 0.354004 0.779713 0.826240
Si Si2 0.051888 0.055681 0.815740
Si Si3 0.854973 0.655925 0.632057
Si Si4 0.351862 0.486480 0.053734
Si Si5 0.854434 0.029959 0.233138
Si Si6 0.569222 0.630386 0.118454
Si Si7 0.479469 0.170388 0.316612
Si Si8 0.145356 0.592224 0.598852
O O1 0.250000 0.757327 0.813357
O O2 0.383334 0.809077 0.668837
O O3 0.419184 0.725685 0.862424
O O4 0.363452 0.827053 0.959087
O O5 0.989381 0.107775 0.757419
O O6 0.098263 0.028345 0.668959
O O7 0.117674 0.093071 0.924517
O O8 0.000000 0.000000 0.893911
O O9 0.750000 0.665538 0.687170
O O10 0.891207 0.588851 0.653208
O O11 0.927303 0.692262 0.733174
O O12 0.250000 0.510869 0.047090
O O13 0.352083 0.417944 0.096642
O O14 0.401456 0.488400 0.890703
O O15 0.750000 0.043136 0.272590
O O16 0.867057 0.976634 0.123012
O O17 0.507937 0.638057 0.969507
O O18 0.419301 0.129471 0.207089
O O19 0.250000 0.613122 0.620932
#
# Coordination Sequence:
#
# PCOD8183358 Si02
#       8
#     8   8   8   8   8   8   8   8
#     4  11  25  44  65  92 128 173 225 284 339 393
#     4  10  23  36  58  94 132 169 214 267 337 399
#     4  10  22  41  66  95 127 166 219 277 331 394
#     4  10  19  36  59  90 131 166 205 262 329 405
#     4   9  19  35  60  93 123 162 212 261 324 390
#     4  11  23  39  62  93 123 168 217 272 333 397
#     4  12  24  42  68  92 132 171 225 275 336 398
#     4  11  24  40  62  92 130 175 217 267 333 404
#
# _framework density 21.427340999999998
#
# number of rings (size 3 to 8) (size 9 to 14) (size 15 to 20)
#    0.000    1.500    1.250    3.375    5.250    0.500 
#    0.000    1.875    0.000    4.500    0.000    0.000 
#    0.000    0.000    0.000    0.000    0.000    0.000 
#
# Total GULP energy -396538.196832 kJ/mol
# GULP energy per Si atom -12391.818651 kJ/mol
# Density = 2.137857 g / cm^3
# Si number density = 21.427341 Si / 1000 Ang^3
#
#
#
# Elastic Constant Matrix: (Units=GPa)
#
#
# Indices 1 2 3 4 5 6 
#
# 1 117.9570 32.2958 43.7940 0.0000 0.0000 0.0000
# 2 32.2958 53.7188 24.9456 0.0000 0.0000 0.0000
# 3 43.7940 24.9456 105.5746 0.0000 0.0000 0.0000
# 4 0.0000 0.0000 0.0000 29.8784 0.0000 0.0000
# 5 0.0000 0.0000 0.0000 0.0000 23.3245 0.0000
# 6 0.0000 0.0000 0.0000 0.0000 0.0000 26.2804
#
#
#
# Elastic Compliance Matrix: (Units=1/GPa)
#
#
# Indices 1 2 3 4 5 6 
#
# 1 0.011146 -0.005115 -0.003415 0.000000 0.000000 0.000000
# 2 -0.005115 0.023257 -0.003373 0.000000 0.000000 0.000000
# 3 -0.003415 -0.003373 0.011686 0.000000 0.000000 0.000000
# 4 0.000000 0.000000 0.000000 0.033469 0.000000 0.000000
# 5 0.000000 0.000000 0.000000 0.000000 0.042873 0.000000
# 6 0.000000 0.000000 0.000000 0.000000 0.000000 0.038051
#
#
# Mechanical properties :
#
#
# Convention : Reuss Voigt Hill
#
# Bulk Modulus (GPa) = 44.87970 53.25791 49.06880
# Shear Modulus (GPa) = 26.08012 27.64432 26.86222
#
# Velocity S-wave (km/s) = 3.49254 3.59575 3.54452
# Velocity P-wave (km/s) = 6.10363 6.49217 6.30090
#
# Compressibility (1/GPa) = 0.02228179
#
# Stress axis : x y z
#
# Youngs Moduli (GPa) = 89.71800 42.99726 85.57525
#
# Poissons Ratio (x) = 0.21994 0.29223
# Poissons Ratio (y) = 0.45893 0.28868
# Poissons Ratio (z) = 0.30638 0.14505
#
# Static dielectric constant tensor:
#      x y z
#    x 4.066110 0.000000 0.000000 
#    y 0.000000 3.639250 0.000000 
#    z 0.000000 0.000000 3.856110 
# 
# 
# High freq. dielectric constant tensor:
#      x y z
#    x 1.848500 0.000000 0.000000 
#    y 0.000000 1.821030 0.000000 
#    z 0.000000 0.000000 1.849780 
# 
# From -- ./inp_files/6893.got.cif
#   From: 2010.03.12/outbox.cif.g09.slc.cpg/sg40_4_cif.got.tgz:6893.got - 2010.04.14 01:38:03.
