data_PCOD8183094
_publ_section_title
;
Structure prediction by ZEFSAII (Michael W. Deem and Ramdas Pophale) SiO2 
 PCOD8183094
Probable space group: A M A 2
;
_chemical_formula_sum "Si O2"
_cell_formula_units_Z 56
_cell_length_a 8.738029
_cell_length_b 23.958563
_cell_length_c 13.732952
_cell_angle_alpha 90.000000
_cell_angle_beta 90.000000
_cell_angle_gamma 90.000000
_cell_volume 2875.001992
_symmetry_space_group_name_H-M "A M A 2"
_symmetry_group_IT_number 40
_symmetry_cell_setting 'orthorhombic'
loop_
_space_group_symop_operation_xyz
x,y,z
-x,-y,z
1/2-x,y,z
1/2+x,-y,z
x,1/2+y,1/2+z
-x,1/2-y,1/2+z
1/2-x,1/2+y,1/2+z
1/2+x,1/2-y,1/2+z
loop_
_atom_site_type_symbol
_atom_site_label
_atom_site_fract_x
_atom_site_fract_y
_atom_site_fract_z
Si Si1 0.069947 0.374122 0.072850
Si Si2 0.431799 0.940915 0.975193
Si Si3 0.932003 0.834526 0.070984
Si Si4 0.572078 0.557210 0.255577
Si Si5 0.431807 0.729282 0.975137
Si Si6 0.069999 0.666101 0.787868
Si Si7 0.930952 0.441335 0.902310
O O1 0.250000 0.366719 0.055828
O O2 0.031133 0.392016 0.183440
O O3 0.987041 0.315328 0.055175
O O4 0.006459 0.422543 0.003372
O O5 0.250000 0.940983 0.987261
O O6 0.484127 0.927758 0.864279
O O7 0.500000 0.000000 0.008793
O O8 0.505485 0.894882 0.043977
O O9 0.750000 0.834573 0.066321
O O10 0.993482 0.820794 0.180207
O O11 0.997548 0.789305 0.996474
O O12 0.500000 0.500000 0.216823
O O13 0.750000 0.545641 0.256790
O O14 0.250000 0.733079 0.978648
O O15 0.492469 0.709880 0.868444
O O16 0.250000 0.671962 0.786514
O O17 0.025014 0.603300 0.819059
O O18 0.750000 0.445818 0.917534
O O19 0.000000 0.500000 0.868494
#
# Coordination Sequence:
#
# PCOD8183094 Si02
#       7
#     8   8   8   8   8   8   8
#     4  10  19  33  53  80 110 145 184 226 270 319
#     4  10  21  39  58  81 111 144 180 223 268 318
#     4  11  22  39  61  84 107 140 180 221 267 320
#     4   9  19  33  52  77 110 147 183 221 269 320
#     4  10  21  39  58  80 109 143 179 222 269 320
#     4   8  19  38  57  76 107 144 180 220 267 318
#     4  10  19  33  52  78 110 147 184 225 272 321
#
# _framework density 19.478247
#
# number of rings (size 3 to 8) (size 9 to 14) (size 15 to 20)
#    0.000    2.286    0.000    3.429    0.000    4.571 
#    0.000   15.714    0.000    0.000    0.000    0.000 
#    0.000    0.000    0.000    0.000    0.000    0.000 
#
# Total GULP energy -347199.592478 kJ/mol
# GULP energy per Si atom -12399.985446 kJ/mol
# Density = 1.943391 g / cm^3
# Si number density = 19.478247 Si / 1000 Ang^3
#
#
#
# Elastic Constant Matrix: (Units=GPa)
#
#
# Indices 1 2 3 4 5 6 
#
# 1 73.5066 43.2023 39.8094 0.0000 0.0000 0.0000
# 2 43.2023 137.1989 67.7281 0.0000 0.0000 0.0000
# 3 39.8094 67.7281 112.2175 0.0000 0.0000 0.0000
# 4 0.0000 0.0000 0.0000 19.0957 0.0000 0.0000
# 5 0.0000 0.0000 0.0000 0.0000 20.9111 0.0000
# 6 0.0000 0.0000 0.0000 0.0000 0.0000 38.5831
#
#
#
# Elastic Compliance Matrix: (Units=1/GPa)
#
#
# Indices 1 2 3 4 5 6 
#
# 1 0.017996 -0.003583 -0.004222 0.000000 0.000000 0.000000
# 2 -0.003583 0.011095 -0.005425 0.000000 0.000000 0.000000
# 3 -0.004222 -0.005425 0.013683 0.000000 0.000000 0.000000
# 4 0.000000 0.000000 0.000000 0.052368 0.000000 0.000000
# 5 0.000000 0.000000 0.000000 0.000000 0.047822 0.000000
# 6 0.000000 0.000000 0.000000 0.000000 0.000000 0.025918
#
#
# Mechanical properties :
#
#
# Convention : Reuss Voigt Hill
#
# Bulk Modulus (GPa) = 61.29373 69.37806 65.33589
# Shear Modulus (GPa) = 24.90279 27.19685 26.04982
#
# Velocity S-wave (km/s) = 3.57948 3.74072 3.66099
# Velocity P-wave (km/s) = 6.97278 7.37244 7.17539
#
# Compressibility (1/GPa) = 0.01631488
#
# Stress axis : x y z
#
# Youngs Moduli (GPa) = 55.56666 90.13007 73.08089
#
# Poissons Ratio (x) = 0.32291 0.30854
# Poissons Ratio (y) = 0.19908 0.39649
# Poissons Ratio (z) = 0.23460 0.48899
#
# Static dielectric constant tensor:
#      x y z
#    x 3.491020 0.000000 0.000000 
#    y 0.000000 3.516590 0.000000 
#    z 0.000000 0.000000 3.904960 
# 
# 
# High freq. dielectric constant tensor:
#      x y z
#    x 1.755650 0.000000 0.000000 
#    y 0.000000 1.758580 0.000000 
#    z 0.000000 0.000000 1.757950 
# 
# From -- ./inp_files/15308.got.cif
#   From: 2010.03.12/outbox.cif.g09.slc.cpg/sg40_8_cif.got.tgz:15308.got - 2010.04.14 01:38:03.
