data_PCOD8183979
_publ_section_title
;
Structure prediction by ZEFSAII (Michael W. Deem and Ramdas Pophale) SiO2 
 PCOD8183979
Probable space group: A M A 2
;
_chemical_formula_sum "Si O2"
_cell_formula_units_Z 56
_cell_length_a 14.118724
_cell_length_b 19.739772
_cell_length_c 9.434183
_cell_angle_alpha 90.000000
_cell_angle_beta 90.000000
_cell_angle_gamma 90.000000
_cell_volume 2629.310507
_symmetry_space_group_name_H-M "A M A 2"
_symmetry_group_IT_number 40
_symmetry_cell_setting 'orthorhombic'
loop_
_space_group_symop_operation_xyz
x,y,z
-x,-y,z
1/2-x,y,z
1/2+x,-y,z
x,1/2+y,1/2+z
-x,1/2-y,1/2+z
1/2-x,1/2+y,1/2+z
1/2+x,1/2-y,1/2+z
loop_
_atom_site_type_symbol
_atom_site_label
_atom_site_fract_x
_atom_site_fract_y
_atom_site_fract_z
Si Si1 0.857987 0.168932 0.295410
Si Si2 0.856806 0.656288 0.463941
Si Si3 0.455237 0.192128 0.865601
Si Si4 0.567675 0.437209 0.182655
Si Si5 0.353399 0.989437 0.911874
Si Si6 0.978455 0.925146 0.364702
Si Si7 0.636946 0.391902 0.602060
O O1 0.750000 0.166518 0.354604
O O2 0.901285 0.243132 0.307795
O O3 0.922642 0.115658 0.382600
O O4 0.858966 0.148986 0.131951
O O5 0.750000 0.675230 0.410847
O O6 0.900174 0.585135 0.401776
O O7 0.934649 0.710027 0.406246
O O8 0.456336 0.136944 0.740421
O O9 0.400620 0.170004 0.007899
O O10 0.500000 0.500000 0.231252
O O11 0.659251 0.467246 0.264801
O O12 0.576197 0.431561 0.014380
O O13 0.250000 0.970388 0.968923
O O14 0.400310 0.038486 0.029373
O O15 0.908787 0.886435 0.257546
O O16 0.000000 0.000000 0.307821
O O17 0.750000 0.388304 0.613484
#
# Coordination Sequence:
#
# PCOD8183979 Si02
#       7
#     8   8   8   8   8   8   8
#     4  11  25  44  67  97 133 177 227 281 338 402
#     4  10  20  38  68  98 124 169 230 278 327 391
#     4  11  22  40  69  92 133 178 223 276 332 396
#     4  10  21  37  60  97 134 168 214 272 337 392
#     4   9  18  35  63  95 126 167 218 273 323 389
#     4  11  24  40  64  95 132 177 217 276 343 403
#     4  10  21  37  62  95 128 169 222 268 323 398
#
# _framework density 21.298358
#
# number of rings (size 3 to 8) (size 9 to 14) (size 15 to 20)
#    0.000    1.714    2.857    1.286    2.000    2.857 
#    0.000    3.571    0.000    0.000    0.000    0.000 
#    0.000    0.000    0.000    0.000    0.000    0.000 
#
# Total GULP energy -346907.652846 kJ/mol
# GULP energy per Si atom -12389.559030 kJ/mol
# Density = 2.124988 g / cm^3
# Si number density = 21.298358 Si / 1000 Ang^3
#
#
#
# Elastic Constant Matrix: (Units=GPa)
#
#
# Indices 1 2 3 4 5 6 
#
# 1 124.2116 42.9791 34.1136 0.0000 0.0000 0.0000
# 2 42.9791 108.3011 33.7294 0.0000 0.0000 0.0000
# 3 34.1136 33.7294 108.7836 0.0000 0.0000 0.0000
# 4 0.0000 0.0000 0.0000 17.0159 0.0000 0.0000
# 5 0.0000 0.0000 0.0000 0.0000 20.4047 0.0000
# 6 0.0000 0.0000 0.0000 0.0000 0.0000 28.4698
#
#
#
# Elastic Compliance Matrix: (Units=1/GPa)
#
#
# Indices 1 2 3 4 5 6 
#
# 1 0.009729 -0.003222 -0.002052 0.000000 0.000000 0.000000
# 2 -0.003222 0.011287 -0.002489 0.000000 0.000000 0.000000
# 3 -0.002052 -0.002489 0.010608 0.000000 0.000000 0.000000
# 4 0.000000 0.000000 0.000000 0.058769 0.000000 0.000000
# 5 0.000000 0.000000 0.000000 0.000000 0.049008 0.000000
# 6 0.000000 0.000000 0.000000 0.000000 0.000000 0.035125
#
#
# Mechanical properties :
#
#
# Convention : Reuss Voigt Hill
#
# Bulk Modulus (GPa) = 62.12006 62.54895 62.33451
# Shear Modulus (GPa) = 25.58606 28.54303 27.06455
#
# Velocity S-wave (km/s) = 3.46976 3.66478 3.56860
# Velocity P-wave (km/s) = 6.72921 6.88035 6.80520
#
# Compressibility (1/GPa) = 0.01609786
#
# Stress axis : x y z
#
# Youngs Moduli (GPa) = 102.78357 88.59406 94.26929
#
# Poissons Ratio (x) = 0.28544 0.19344
# Poissons Ratio (y) = 0.33116 0.23467
# Poissons Ratio (z) = 0.21091 0.22055
#
# Static dielectric constant tensor:
#      x y z
#    x 3.996370 0.000000 0.000000 
#    y 0.000000 3.806110 0.000000 
#    z 0.000000 0.000000 3.638850 
# 
# 
# High freq. dielectric constant tensor:
#      x y z
#    x 1.840420 0.000000 0.000000 
#    y 0.000000 1.830140 0.000000 
#    z 0.000000 0.000000 1.823880 
# 
# From -- ./inp_files/6694.got.cif
#   From: 2010.03.12/outbox.cif.g09.slc.cpg/sg40_4_cif.got.tgz:6694.got - 2010.04.14 01:38:03.
