data_PCOD8183081
_publ_section_title
;
Structure prediction by ZEFSAII (Michael W. Deem and Ramdas Pophale) SiO2 
 PCOD8183081
Probable space group: A M A 2
;
_chemical_formula_sum "Si O2"
_cell_formula_units_Z 64
_cell_length_a 8.646960
_cell_length_b 14.649448
_cell_length_c 27.416699
_cell_angle_alpha 90.000000
_cell_angle_beta 90.000000
_cell_angle_gamma 90.000000
_cell_volume 3472.960746
_symmetry_space_group_name_H-M "A M A 2"
_symmetry_group_IT_number 40
_symmetry_cell_setting 'orthorhombic'
loop_
_space_group_symop_operation_xyz
x,y,z
-x,-y,z
1/2-x,y,z
1/2+x,-y,z
x,1/2+y,1/2+z
-x,1/2-y,1/2+z
1/2-x,1/2+y,1/2+z
1/2+x,1/2-y,1/2+z
loop_
_atom_site_type_symbol
_atom_site_label
_atom_site_fract_x
_atom_site_fract_y
_atom_site_fract_z
Si Si1 0.934715 0.721740 0.274800
Si Si2 0.929718 0.903853 0.696278
Si Si3 0.920076 0.350205 0.909192
Si Si4 0.932265 0.219052 0.503501
Si Si5 0.435153 0.406952 0.472389
Si Si6 0.432393 0.906318 0.312293
Si Si7 0.569487 0.403568 0.082744
Si Si8 0.082604 0.852391 0.871749
O O1 0.750000 0.726466 0.278244
O O2 0.001672 0.656273 0.319057
O O3 0.988463 0.679392 0.224047
O O4 0.999633 0.823500 0.280427
O O5 0.750000 0.904414 0.708914
O O6 0.962137 0.887068 0.639623
O O7 0.000000 0.000000 0.713552
O O8 0.750000 0.396594 0.914936
O O9 0.894175 0.248891 0.891158
O O10 0.020951 0.403448 0.869315
O O11 0.006105 0.348337 0.961168
O O12 0.750000 0.227214 0.499021
O O13 0.003378 0.320462 0.502039
O O14 0.981347 0.177011 0.555053
O O15 0.500000 0.500000 0.496563
O O16 0.250000 0.404518 0.472826
O O17 0.502513 0.405072 0.416084
O O18 0.250000 0.904783 0.307360
O O19 0.500000 0.000000 0.289859
O O20 0.500000 0.500000 0.065995
O O21 0.750000 0.401653 0.070069
O O22 0.250000 0.898655 0.863384
#
# Coordination Sequence:
#
# PCOD8183081 Si02
#       8
#     8   8   8   8   8   8   8   8
#     4  10  19  34  55  79 108 142 179 219 264 313
#     4  10  21  37  57  81 107 136 172 216 267 321
#     4   9  17  32  50  71 101 136 174 215 258 302
#     4  11  21  34  54  80 107 139 179 220 266 319
#     4  10  19  33  51  74 107 145 183 221 260 305
#     4  11  21  34  52  77 109 145 184 222 262 310
#     4  10  21  38  58  80 106 135 170 216 269 322
#     4   7  14  28  46  68  97 132 168 207 248 292
#
# _framework density 18.428080000000001
#
# number of rings (size 3 to 8) (size 9 to 14) (size 15 to 20)
#    0.000    2.250    0.000    5.625    0.000    2.500 
#    0.000    5.625    0.000    0.750    0.000    0.000 
#    0.000    0.000    0.000    0.000    0.000    0.000 
#
# Total GULP energy -396607.049369 kJ/mol
# GULP energy per Si atom -12393.970293 kJ/mol
# Density = 1.838614 g / cm^3
# Si number density = 18.428080 Si / 1000 Ang^3
#
#
#
# Elastic Constant Matrix: (Units=GPa)
#
#
# Indices 1 2 3 4 5 6 
#
# 1 123.8486 50.5445 40.1533 0.0000 0.0000 0.0000
# 2 50.5445 119.7670 52.9319 0.0000 0.0000 0.0000
# 3 40.1533 52.9319 72.9187 0.0000 0.0000 0.0000
# 4 0.0000 0.0000 0.0000 18.9580 0.0000 0.0000
# 5 0.0000 0.0000 0.0000 0.0000 25.0511 0.0000
# 6 0.0000 0.0000 0.0000 0.0000 0.0000 30.9908
#
#
#
# Elastic Compliance Matrix: (Units=1/GPa)
#
#
# Indices 1 2 3 4 5 6 
#
# 1 0.010405 -0.002737 -0.003743 0.000000 0.000000 0.000000
# 2 -0.002737 0.013013 -0.007939 0.000000 0.000000 0.000000
# 3 -0.003743 -0.007939 0.021538 0.000000 0.000000 0.000000
# 4 0.000000 0.000000 0.000000 0.052748 0.000000 0.000000
# 5 0.000000 0.000000 0.000000 0.000000 0.039918 0.000000
# 6 0.000000 0.000000 0.000000 0.000000 0.000000 0.032268
#
#
# Mechanical properties :
#
#
# Convention : Reuss Voigt Hill
#
# Bulk Modulus (GPa) = 62.04157 67.08819 64.56488
# Shear Modulus (GPa) = 24.49763 26.52698 25.51230
#
# Velocity S-wave (km/s) = 3.65000 3.79817 3.72482
# Velocity P-wave (km/s) = 7.17658 7.46453 7.32197
#
# Compressibility (1/GPa) = 0.01611822
#
# Stress axis : x y z
#
# Youngs Moduli (GPa) = 96.10944 76.84349 46.42938
#
# Poissons Ratio (x) = 0.21032 0.17377
# Poissons Ratio (y) = 0.26305 0.36862
# Poissons Ratio (z) = 0.35971 0.61009
#
# Static dielectric constant tensor:
#      x y z
#    x 3.434030 0.000000 0.000000 
#    y 0.000000 3.399000 0.000000 
#    z 0.000000 0.000000 3.364600 
# 
# 
# High freq. dielectric constant tensor:
#      x y z
#    x 1.721450 0.000000 0.000000 
#    y 0.000000 1.708010 0.000000 
#    z 0.000000 0.000000 1.693380 
# 
# From -- ./inp_files/24223.got.cif
#   From: 2010.03.12/outbox.cif.g09.slc.cpg/sg40_13_cif.got.tgz:24223.got - 2010.04.14 01:38:03.
