data_PCOD8183823
_publ_section_title
;
Structure prediction by ZEFSAII (Michael W. Deem and Ramdas Pophale) SiO2 
 PCOD8183823
Probable space group: A M A 2
;
_chemical_formula_sum "Si O2"
_cell_formula_units_Z 48
_cell_length_a 9.026594
_cell_length_b 27.709608
_cell_length_c 9.650716
_cell_angle_alpha 90.000000
_cell_angle_beta 90.000000
_cell_angle_gamma 90.000000
_cell_volume 2413.869718
_symmetry_space_group_name_H-M "A M A 2"
_symmetry_group_IT_number 40
_symmetry_cell_setting 'orthorhombic'
loop_
_space_group_symop_operation_xyz
x,y,z
-x,-y,z
1/2-x,y,z
1/2+x,-y,z
x,1/2+y,1/2+z
-x,1/2-y,1/2+z
1/2-x,1/2+y,1/2+z
1/2+x,1/2-y,1/2+z
loop_
_atom_site_type_symbol
_atom_site_label
_atom_site_fract_x
_atom_site_fract_y
_atom_site_fract_z
Si Si1 0.582751 0.893639 0.798070
Si Si2 0.084710 0.545993 0.033951
Si Si3 0.074922 0.206847 0.397764
Si Si4 0.074397 0.448212 0.531002
Si Si5 0.425586 0.603970 0.775647
Si Si6 0.924809 0.288344 0.215749
O O1 0.750000 0.899901 0.857718
O O2 0.577420 0.909806 0.639205
O O3 0.534657 0.837900 0.795517
O O4 0.469161 0.927005 0.881808
O O5 0.250000 0.527909 0.011881
O O6 0.000000 0.500000 0.092565
O O7 0.022197 0.564431 0.887754
O O8 0.250000 0.212930 0.394247
O O9 0.026673 0.156074 0.331800
O O10 0.017662 0.211038 0.556492
O O11 0.003666 0.247057 0.301575
O O12 0.250000 0.454325 0.541337
O O13 0.000000 0.500000 0.557264
O O14 0.015566 0.408195 0.637777
O O15 0.250000 0.601859 0.747702
O O16 0.750000 0.279901 0.217340
#
# Coordination Sequence:
#
# PCOD8183823 Si02
#       6
#     8   8   8   8   8   8
#     4  10  21  41  64  87 121 162 201 247 305 362
#     4  10  20  36  61  88 115 151 194 243 297 358
#     4  10  22  41  64  91 124 161 202 250 304 364
#     4  12  26  42  61  90 125 163 206 253 301 362
#     4  10  21  41  64  87 121 162 201 247 305 362
#     4  10  22  41  64  91 124 161 202 250 304 364
#
# _framework density 19.885085
#
# number of rings (size 3 to 8) (size 9 to 14) (size 15 to 20)
#    0.000    1.667    1.667    2.500    2.333    6.000 
#    0.000    0.000    0.000    0.000    0.000    0.000 
#    0.000    0.000    0.000    0.000    0.000    0.000 
#
# Total GULP energy -297623.627977 kJ/mol
# GULP energy per Si atom -12400.984499 kJ/mol
# Density = 1.983983 g / cm^3
# Si number density = 19.885085 Si / 1000 Ang^3
#
#
#
# Elastic Constant Matrix: (Units=GPa)
#
#
# Indices 1 2 3 4 5 6 
#
# 1 66.1892 46.1051 26.3693 0.0000 0.0000 0.0000
# 2 46.1051 127.7247 33.4323 0.0000 0.0000 0.0000
# 3 26.3693 33.4323 80.5086 0.0000 0.0000 0.0000
# 4 0.0000 0.0000 0.0000 35.4415 0.0000 0.0000
# 5 0.0000 0.0000 0.0000 0.0000 32.4714 0.0000
# 6 0.0000 0.0000 0.0000 0.0000 0.0000 36.5541
#
#
#
# Elastic Compliance Matrix: (Units=1/GPa)
#
#
# Indices 1 2 3 4 5 6 
#
# 1 0.021415 -0.006613 -0.004268 0.000000 0.000000 0.000000
# 2 -0.006613 0.010826 -0.002330 0.000000 0.000000 0.000000
# 3 -0.004268 -0.002330 0.014786 0.000000 0.000000 0.000000
# 4 0.000000 0.000000 0.000000 0.028215 0.000000 0.000000
# 5 0.000000 0.000000 0.000000 0.000000 0.030796 0.000000
# 6 0.000000 0.000000 0.000000 0.000000 0.000000 0.027357
#
#
# Mechanical properties :
#
#
# Convention : Reuss Voigt Hill
#
# Bulk Modulus (GPa) = 48.52939 54.02622 51.27781
# Shear Modulus (GPa) = 29.99643 32.12778 31.06211
#
# Velocity S-wave (km/s) = 3.88814 4.02390 3.95660
# Velocity P-wave (km/s) = 6.67943 6.98694 6.83491
#
# Compressibility (1/GPa) = 0.02060607
#
# Stress axis : x y z
#
# Youngs Moduli (GPa) = 46.69633 92.36772 67.62972
#
# Poissons Ratio (x) = 0.61083 0.28864
# Poissons Ratio (y) = 0.30881 0.15756
# Poissons Ratio (z) = 0.19930 0.21519
#
# Static dielectric constant tensor:
#      x y z
#    x 3.423460 0.000000 0.000000 
#    y 0.000000 3.667870 0.000000 
#    z 0.000000 0.000000 3.684830 
# 
# 
# High freq. dielectric constant tensor:
#      x y z
#    x 1.758800 0.000000 0.000000 
#    y 0.000000 1.788430 0.000000 
#    z 0.000000 0.000000 1.786800 
# 
# From -- ./inp_files/4560.got.cif
#   From: 2010.03.12/outbox.cif.g09.slc.cpg/sg40_3_cif.got.tgz:4560.got - 2010.04.14 01:38:03.
