data_PCOD8183393
_publ_section_title
;
Structure prediction by ZEFSAII (Michael W. Deem and Ramdas Pophale) SiO2 
 PCOD8183393
Probable space group: A M A 2
;
_chemical_formula_sum "Si O2"
_cell_formula_units_Z 60
_cell_length_a 33.169119
_cell_length_b 10.592714
_cell_length_c 8.605022
_cell_angle_alpha 90.000000
_cell_angle_beta 90.000000
_cell_angle_gamma 90.000000
_cell_volume 3023.383009
_symmetry_space_group_name_H-M "A M A 2"
_symmetry_group_IT_number 40
_symmetry_cell_setting 'orthorhombic'
loop_
_space_group_symop_operation_xyz
x,y,z
-x,-y,z
1/2-x,y,z
1/2+x,-y,z
x,1/2+y,1/2+z
-x,1/2-y,1/2+z
1/2-x,1/2+y,1/2+z
1/2+x,1/2-y,1/2+z
loop_
_atom_site_type_symbol
_atom_site_label
_atom_site_fract_x
_atom_site_fract_y
_atom_site_fract_z
Si Si1 0.528168 0.706561 0.379710
Si Si2 0.160610 0.054654 0.240765
Si Si3 0.797188 0.947436 0.566191
Si Si4 0.071317 0.063802 0.328887
Si Si5 0.794931 0.674364 0.595603
Si Si6 0.000000 0.000000 0.104014
Si Si7 0.969708 0.114888 0.529690
Si Si8 0.795256 0.199767 0.729180
O O1 0.565267 0.802517 0.420986
O O2 0.527753 0.589448 0.496624
O O3 0.485422 0.777140 0.411350
O O4 0.535991 0.664340 0.203019
O O5 0.175765 0.041966 0.414830
O O6 0.112489 0.061472 0.233820
O O7 0.177960 0.183794 0.164890
O O8 0.173528 0.930581 0.146710
O O9 0.750000 0.953530 0.519549
O O10 0.805396 0.815699 0.660042
O O11 0.811098 0.065006 0.670120
O O12 0.070399 0.944577 0.448526
O O13 0.032901 0.068836 0.211440
O O14 0.750000 0.632791 0.649305
O O15 0.796750 0.693407 0.412728
O O16 0.000000 0.000000 0.538000
O O17 0.750000 0.224370 0.668928
#
# Coordination Sequence:
#
# PCOD8183393 Si02
#       8
#     8   8   8   8   8   4   8   8
#     4  11  20  38  65  82 108 146 196 244 299 347
#     4  11  22  36  58  86 123 158 187 241 300 350
#     4   9  19  37  59  84 116 156 201 242 284 343
#     4  11  24  39  56  85 123 148 194 246 296 356
#     4   9  18  35  60  85 115 156 199 239 287 346
#     4  12  22  38  62  86 108 156 200 250 296 356
#     4  10  19  37  61  85 106 143 190 243 291 350
#     4   9  19  37  60  86 117 154 200 244 286 343
#
# _framework density 19.845319
#
# number of rings (size 3 to 8) (size 9 to 14) (size 15 to 20)
#    0.000    1.867    4.000    2.000    0.000    4.267 
#    0.000    2.667    2.933    0.000    0.000    0.000 
#    0.000    0.000    0.000    0.000    0.000    0.000 
#
# Total GULP energy -371729.190781 kJ/mol
# GULP energy per Si atom -12390.973026 kJ/mol
# Density = 1.980015 g / cm^3
# Si number density = 19.845319 Si / 1000 Ang^3
#
#
#
# Elastic Constant Matrix: (Units=GPa)
#
#
# Indices 1 2 3 4 5 6 
#
# 1 79.7419 29.3901 16.3030 0.0000 0.0000 0.0000
# 2 29.3901 133.9803 33.3868 0.0000 0.0000 0.0000
# 3 16.3030 33.3868 61.0192 0.0000 0.0000 0.0000
# 4 0.0000 0.0000 0.0000 35.2813 0.0000 0.0000
# 5 0.0000 0.0000 0.0000 0.0000 15.9192 0.0000
# 6 0.0000 0.0000 0.0000 0.0000 0.0000 15.9696
#
#
#
# Elastic Compliance Matrix: (Units=1/GPa)
#
#
# Indices 1 2 3 4 5 6 
#
# 1 0.013934 -0.002465 -0.002374 0.000000 0.000000 0.000000
# 2 -0.002465 0.009078 -0.004309 0.000000 0.000000 0.000000
# 3 -0.002374 -0.004309 0.019380 0.000000 0.000000 0.000000
# 4 0.000000 0.000000 0.000000 0.028344 0.000000 0.000000
# 5 0.000000 0.000000 0.000000 0.000000 0.062817 0.000000
# 6 0.000000 0.000000 0.000000 0.000000 0.000000 0.062619
#
#
# Mechanical properties :
#
#
# Convention : Reuss Voigt Hill
#
# Bulk Modulus (GPa) = 41.49890 48.10015 44.79952
# Shear Modulus (GPa) = 22.47187 26.47811 24.47499
#
# Velocity S-wave (km/s) = 3.36869 3.65667 3.51563
# Velocity P-wave (km/s) = 6.00728 6.48987 6.25323
#
# Compressibility (1/GPa) = 0.02409702
#
# Stress axis : x y z
#
# Youngs Moduli (GPa) = 71.76487 110.15434 51.59942
#
# Poissons Ratio (x) = 0.27153 0.12251
# Poissons Ratio (y) = 0.17690 0.22232
# Poissons Ratio (z) = 0.17039 0.47460
#
# Static dielectric constant tensor:
#      x y z
#    x 3.369880 0.000000 0.000000 
#    y 0.000000 4.270420 0.000000 
#    z 0.000000 0.000000 3.490640 
# 
# 
# High freq. dielectric constant tensor:
#      x y z
#    x 1.739360 0.000000 0.000000 
#    y 0.000000 1.802630 0.000000 
#    z 0.000000 0.000000 1.756220 
# 
# From -- ./inp_files/9412.got.cif
#   From: 2010.03.12/outbox.cif.g09.slc.cpg/sg40_5_cif.got.tgz:9412.got - 2010.04.14 01:38:03.
