data_PCOD8183005
_publ_section_title
;
Structure prediction by ZEFSAII (Michael W. Deem and Ramdas Pophale) SiO2 
 PCOD8183005
Probable space group: A M A 2
;
_chemical_formula_sum "Si O2"
_cell_formula_units_Z 48
_cell_length_a 9.076752
_cell_length_b 9.586179
_cell_length_c 30.831379
_cell_angle_alpha 90.000000
_cell_angle_beta 90.000000
_cell_angle_gamma 90.000000
_cell_volume 2682.680508
_symmetry_space_group_name_H-M "A M A 2"
_symmetry_group_IT_number 40
_symmetry_cell_setting 'orthorhombic'
loop_
_space_group_symop_operation_xyz
x,y,z
-x,-y,z
1/2-x,y,z
1/2+x,-y,z
x,1/2+y,1/2+z
-x,1/2-y,1/2+z
1/2-x,1/2+y,1/2+z
1/2+x,1/2-y,1/2+z
loop_
_atom_site_type_symbol
_atom_site_label
_atom_site_fract_x
_atom_site_fract_y
_atom_site_fract_z
Si Si1 0.423747 0.350475 0.783630
Si Si2 0.923837 0.851424 0.520519
Si Si3 0.918373 0.642805 0.690054
Si Si4 0.576570 0.642929 0.347912
Si Si5 0.422981 0.350935 0.596018
Si Si6 0.579191 0.640671 0.447458
O O1 0.500000 0.500000 0.784228
O O2 0.250000 0.363344 0.794078
O O3 0.449581 0.277134 0.735763
O O4 0.504228 0.262955 0.819993
O O5 0.750000 0.875048 0.522677
O O6 0.981246 0.760686 0.561273
O O7 0.971609 0.770515 0.476804
O O8 0.000000 0.000000 0.521084
O O9 0.750000 0.600165 0.688540
O O10 0.959127 0.716180 0.644051
O O11 0.000000 0.500000 0.692226
O O12 0.500000 0.500000 0.333914
O O13 0.750000 0.632666 0.338840
O O14 0.541389 0.677898 0.397896
O O15 0.500000 0.500000 0.589277
O O16 0.250000 0.376067 0.589307
O O17 0.500000 0.500000 0.462898
O O18 0.750000 0.610536 0.454055
#
# Coordination Sequence:
#
# PCOD8183005 Si02
#       6
#     8   8   8   8   8   8
#     4  10  19  32  51  75 103 134 168 206 249 294
#     4  10  21  35  50  72 102 131 160 197 242 291
#     4   8  15  28  47  71  98 127 161 202 242 283
#     4  10  20  35  53  74 101 131 166 206 249 297
#     4   9  17  31  52  75  98 126 163 203 241 286
#     4   9  19  35  54  75  97 125 163 204 243 289
#
# _framework density 17.892551999999998
#
# number of rings (size 3 to 8) (size 9 to 14) (size 15 to 20)
#    0.000    2.667    0.000    1.500    0.000    3.333 
#    0.000    2.500    0.000    2.000    0.000    0.000 
#    0.000    0.000    0.000    0.000    0.000    0.000 
#
# Total GULP energy -297366.215385 kJ/mol
# GULP energy per Si atom -12390.258974 kJ/mol
# Density = 1.785183 g / cm^3
# Si number density = 17.892552 Si / 1000 Ang^3
#
#
#
# Elastic Constant Matrix: (Units=GPa)
#
#
# Indices 1 2 3 4 5 6 
#
# 1 62.2122 46.1410 49.2146 0.0000 0.0000 0.0000
# 2 46.1410 116.1492 81.5037 0.0000 0.0000 0.0000
# 3 49.2146 81.5037 136.5565 0.0000 0.0000 0.0000
# 4 0.0000 0.0000 0.0000 25.6004 0.0000 0.0000
# 5 0.0000 0.0000 0.0000 0.0000 22.7063 0.0000
# 6 0.0000 0.0000 0.0000 0.0000 0.0000 33.7881
#
#
#
# Elastic Compliance Matrix: (Units=1/GPa)
#
#
# Indices 1 2 3 4 5 6 
#
# 1 0.024807 -0.006162 -0.005263 0.000000 0.000000 0.000000
# 2 -0.006162 0.016345 -0.007535 0.000000 0.000000 0.000000
# 3 -0.005263 -0.007535 0.013717 0.000000 0.000000 0.000000
# 4 0.000000 0.000000 0.000000 0.039062 0.000000 0.000000
# 5 0.000000 0.000000 0.000000 0.000000 0.044041 0.000000
# 6 0.000000 0.000000 0.000000 0.000000 0.000000 0.029596
#
#
# Mechanical properties :
#
#
# Convention : Reuss Voigt Hill
#
# Bulk Modulus (GPa) = 58.99639 74.29293 66.64466
# Shear Modulus (GPa) = 23.68143 25.62285 24.65214
#
# Velocity S-wave (km/s) = 3.64199 3.78834 3.71588
# Velocity P-wave (km/s) = 7.12247 7.79405 7.46582
#
# Compressibility (1/GPa) = 0.01695019
#
# Stress axis : x y z
#
# Youngs Moduli (GPa) = 40.31054 61.18246 72.90410
#
# Poissons Ratio (x) = 0.37700 0.38368
# Poissons Ratio (y) = 0.24839 0.54930
# Poissons Ratio (z) = 0.21215 0.46098
#
# Static dielectric constant tensor:
#      x y z
#    x 3.365650 0.000000 0.000000 
#    y 0.000000 2.970870 0.000000 
#    z 0.000000 0.000000 4.051000 
# 
# 
# High freq. dielectric constant tensor:
#      x y z
#    x 1.696220 0.000000 0.000000 
#    y 0.000000 1.659950 0.000000 
#    z 0.000000 0.000000 1.717720 
# 
# From -- ./inp_files/26118.got.cif
#   From: 2010.03.12/outbox.cif.g09.slc.cpg/sg40_14_cif.got.tgz:26118.got - 2010.04.14 01:38:03.
