data_PCOD8183350
_publ_section_title
;
Structure prediction by ZEFSAII (Michael W. Deem and Ramdas Pophale) SiO2 
 PCOD8183350
Probable space group: A M A 2
;
_chemical_formula_sum "Si O2"
_cell_formula_units_Z 60
_cell_length_a 23.541922
_cell_length_b 8.445750
_cell_length_c 15.692829
_cell_angle_alpha 90.000000
_cell_angle_beta 90.000000
_cell_angle_gamma 90.000000
_cell_volume 3120.192443
_symmetry_space_group_name_H-M "A M A 2"
_symmetry_group_IT_number 40
_symmetry_cell_setting 'orthorhombic'
loop_
_space_group_symop_operation_xyz
x,y,z
-x,-y,z
1/2-x,y,z
1/2+x,-y,z
x,1/2+y,1/2+z
-x,1/2-y,1/2+z
1/2-x,1/2+y,1/2+z
1/2+x,1/2-y,1/2+z
loop_
_atom_site_type_symbol
_atom_site_label
_atom_site_fract_x
_atom_site_fract_y
_atom_site_fract_z
Si Si1 0.313925 0.753625 0.164450
Si Si2 0.813126 0.085862 0.982469
Si Si3 0.990650 0.683947 0.803138
Si Si4 0.390318 0.514438 0.085478
Si Si5 0.500000 0.500000 0.189832
Si Si6 0.865966 0.108444 0.326930
Si Si7 0.400995 0.194074 0.412608
Si Si8 0.185842 0.273102 0.990242
O O1 0.250000 0.716273 0.195285
O O2 0.350603 0.594226 0.157506
O O3 0.344262 0.871916 0.230642
O O4 0.313786 0.823442 0.070786
O O5 0.750000 0.101207 0.940811
O O6 0.860942 0.150715 0.917345
O O7 0.827611 0.908203 0.005990
O O8 0.927992 0.684666 0.843256
O O9 0.000000 0.500000 0.766779
O O10 0.991900 0.832303 0.738501
O O11 0.036313 0.727892 0.876151
O O12 0.446765 0.459157 0.131439
O O13 0.407696 0.627274 0.007510
O O14 0.357605 0.363796 0.049918
O O15 0.822168 0.192034 0.390368
O O16 0.868099 0.922732 0.348422
O O17 0.250000 0.319741 0.015664
#
# Coordination Sequence:
#
# PCOD8183350 Si02
#       8
#     8   8   8   8   4   8   8   8
#     4  10  19  36  58  83 116 150 190 239 292 353
#     4   9  20  37  58  87 119 150 196 245 297 361
#     4  10  23  41  60  86 124 157 198 253 295 358
#     4  10  22  38  59  85 114 155 201 241 296 358
#     4  12  24  40  64  86 120 160 202 248 304 350
#     4  10  20  36  58  85 114 153 196 239 298 352
#     4   9  21  38  61  79 120 155 197 245 298 349
#     4  10  21  37  58  86 118 152 195 246 295 355
#
# _framework density 19.229585
#
# number of rings (size 3 to 8) (size 9 to 14) (size 15 to 20)
#    0.000    2.133    1.333    0.800    6.533    5.867 
#    0.000    0.000    0.000    4.000    0.000    0.000 
#    0.000    0.000    0.000    0.000    0.000    0.000 
#
# Total GULP energy -371798.396113 kJ/mol
# GULP energy per Si atom -12393.279870 kJ/mol
# Density = 1.918582 g / cm^3
# Si number density = 19.229585 Si / 1000 Ang^3
#
#
#
# Elastic Constant Matrix: (Units=GPa)
#
#
# Indices 1 2 3 4 5 6 
#
# 1 145.4229 54.4997 43.9013 0.0000 0.0000 0.0000
# 2 54.4997 85.0507 25.9302 0.0000 0.0000 0.0000
# 3 43.9013 25.9302 58.5894 0.0000 0.0000 0.0000
# 4 0.0000 0.0000 0.0000 20.2071 0.0000 0.0000
# 5 0.0000 0.0000 0.0000 0.0000 36.9063 0.0000
# 6 0.0000 0.0000 0.0000 0.0000 0.0000 26.8257
#
#
#
# Elastic Compliance Matrix: (Units=1/GPa)
#
#
# Indices 1 2 3 4 5 6 
#
# 1 0.010437 -0.004975 -0.005619 0.000000 0.000000 0.000000
# 2 -0.004975 0.015963 -0.003337 0.000000 0.000000 0.000000
# 3 -0.005619 -0.003337 0.022755 0.000000 0.000000 0.000000
# 4 0.000000 0.000000 0.000000 0.049487 0.000000 0.000000
# 5 0.000000 0.000000 0.000000 0.000000 0.027096 0.000000
# 6 0.000000 0.000000 0.000000 0.000000 0.000000 0.037278
#
#
# Mechanical properties :
#
#
# Convention : Reuss Voigt Hill
#
# Bulk Modulus (GPa) = 46.96266 59.74726 53.35496
# Shear Modulus (GPa) = 25.25562 27.76994 26.51278
#
# Velocity S-wave (km/s) = 3.62798 3.80429 3.71718
# Velocity P-wave (km/s) = 6.48265 7.10174 6.79925
#
# Compressibility (1/GPa) = 0.02129351
#
# Stress axis : x y z
#
# Youngs Moduli (GPa) = 95.81089 62.64475 43.94635
#
# Poissons Ratio (x) = 0.31166 0.24693
# Poissons Ratio (y) = 0.47666 0.14665
# Poissons Ratio (z) = 0.53835 0.20905
#
# Static dielectric constant tensor:
#      x y z
#    x 3.820300 0.000000 0.000000 
#    y 0.000000 3.587720 0.000000 
#    z 0.000000 0.000000 3.383330 
# 
# 
# High freq. dielectric constant tensor:
#      x y z
#    x 1.767490 0.000000 0.000000 
#    y 0.000000 1.745110 0.000000 
#    z 0.000000 0.000000 1.732380 
# 
# From -- ./inp_files/18473.got.cif
#   From: 2010.03.12/outbox.cif.g09.slc.cpg/sg40_10_cif.got.tgz:18473.got - 2010.04.14 01:38:03.
