data_PCOD8183755
_publ_section_title
;
Structure prediction by ZEFSAII (Michael W. Deem and Ramdas Pophale) SiO2 
 PCOD8183755
Probable space group: A M A 2
;
_chemical_formula_sum "Si O2"
_cell_formula_units_Z 64
_cell_length_a 14.243842
_cell_length_b 23.302516
_cell_length_c 8.900759
_cell_angle_alpha 90.000000
_cell_angle_beta 90.000000
_cell_angle_gamma 90.000000
_cell_volume 2954.316395
_symmetry_space_group_name_H-M "A M A 2"
_symmetry_group_IT_number 40
_symmetry_cell_setting 'orthorhombic'
loop_
_space_group_symop_operation_xyz
x,y,z
-x,-y,z
1/2-x,y,z
1/2+x,-y,z
x,1/2+y,1/2+z
-x,1/2-y,1/2+z
1/2-x,1/2+y,1/2+z
1/2+x,1/2-y,1/2+z
loop_
_atom_site_type_symbol
_atom_site_label
_atom_site_fract_x
_atom_site_fract_y
_atom_site_fract_z
Si Si1 0.358253 0.285157 0.848830
Si Si2 0.899633 0.520296 0.098976
Si Si3 0.473134 0.363798 0.045996
Si Si4 0.639816 0.916682 0.051494
Si Si5 0.142108 0.344506 0.538347
Si Si6 0.473343 0.174357 0.864866
Si Si7 0.854146 0.412884 0.899897
Si Si8 0.853483 0.033375 0.928315
O O1 0.250000 0.272347 0.888771
O O2 0.365665 0.331101 0.714386
O O3 0.410757 0.226780 0.804258
O O4 0.411554 0.309816 0.994318
O O5 0.912569 0.579355 0.006360
O O6 0.840654 0.533504 0.248114
O O7 0.000000 0.500000 0.159029
O O8 0.854676 0.473326 0.989138
O O9 0.493989 0.362717 0.222701
O O10 0.573607 0.366258 0.963679
O O11 0.750000 0.910052 0.014005
O O12 0.620143 0.922282 0.227463
O O13 0.588398 0.862129 0.981080
O O14 0.595330 0.974763 0.979623
O O15 0.250000 0.335771 0.482382
O O16 0.101938 0.408545 0.498906
O O17 0.069056 0.303620 0.448257
O O18 0.750000 0.386534 0.916763
O O19 0.750000 0.031734 0.000512
#
# Coordination Sequence:
#
# PCOD8183755 Si02
#       8
#     8   8   8   8   8   8   8   8
#     4  11  26  45  67  94 127 172 224 282 341 398
#     4  10  20  36  56  92 132 169 213 261 328 400
#     4  11  24  41  62  96 128 171 221 269 336 400
#     4  10  22  38  63  97 130 172 220 270 331 397
#     4  10  23  42  64  94 128 168 219 273 334 399
#     4  12  23  44  69  91 131 171 227 277 334 398
#     4  10  22  39  61  95 136 174 216 269 333 400
#     4  10  20  36  60  92 126 164 211 264 327 397
#
# _framework density 21.663217
#
# number of rings (size 3 to 8) (size 9 to 14) (size 15 to 20)
#    0.000    1.500    1.250    3.750    1.750    3.500 
#    2.250    0.625    0.000    0.000    0.000    0.000 
#    0.000    0.000    0.000    0.000    0.000    0.000 
#
# Total GULP energy -396741.785931 kJ/mol
# GULP energy per Si atom -12398.180810 kJ/mol
# Density = 2.161391 g / cm^3
# Si number density = 21.663217 Si / 1000 Ang^3
#
#
#
# Elastic Constant Matrix: (Units=GPa)
#
#
# Indices 1 2 3 4 5 6 
#
# 1 112.6646 35.2298 42.7953 0.0000 0.0000 0.0000
# 2 35.2298 87.1450 32.1056 0.0000 0.0000 0.0000
# 3 42.7953 32.1056 118.2821 0.0000 0.0000 0.0000
# 4 0.0000 0.0000 0.0000 30.6846 0.0000 0.0000
# 5 0.0000 0.0000 0.0000 0.0000 31.0997 0.0000
# 6 0.0000 0.0000 0.0000 0.0000 0.0000 29.2363
#
#
#
# Elastic Compliance Matrix: (Units=1/GPa)
#
#
# Indices 1 2 3 4 5 6 
#
# 1 0.011102 -0.003343 -0.003110 0.000000 0.000000 0.000000
# 2 -0.003343 0.013757 -0.002525 0.000000 0.000000 0.000000
# 3 -0.003110 -0.002525 0.010265 0.000000 0.000000 0.000000
# 4 0.000000 0.000000 0.000000 0.032590 0.000000 0.000000
# 5 0.000000 0.000000 0.000000 0.000000 0.032155 0.000000
# 6 0.000000 0.000000 0.000000 0.000000 0.000000 0.034204
#
#
# Mechanical properties :
#
#
# Convention : Reuss Voigt Hill
#
# Bulk Modulus (GPa) = 58.24148 59.81700 59.02924
# Shear Modulus (GPa) = 31.69596 32.06819 31.88208
#
# Velocity S-wave (km/s) = 3.82923 3.85165 3.84046
# Velocity P-wave (km/s) = 6.81865 6.88857 6.85370
#
# Compressibility (1/GPa) = 0.01716989
#
# Stress axis : x y z
#
# Youngs Moduli (GPa) = 90.07137 72.69262 97.42140
#
# Poissons Ratio (x) = 0.24299 0.30294
# Poissons Ratio (y) = 0.30108 0.24595
# Poissons Ratio (z) = 0.28008 0.18352
#
# Static dielectric constant tensor:
#      x y z
#    x 4.040180 0.000000 0.000000 
#    y 0.000000 3.822070 0.000000 
#    z 0.000000 0.000000 3.688660 
# 
# 
# High freq. dielectric constant tensor:
#      x y z
#    x 1.865820 0.000000 0.000000 
#    y 0.000000 1.837790 0.000000 
#    z 0.000000 0.000000 1.847340 
# 
# From -- ./inp_files/6885.got.cif
#   From: 2010.03.12/outbox.cif.g09.slc.cpg/sg40_4_cif.got.tgz:6885.got - 2010.04.14 01:38:03.
