data_PCOD8183551
_publ_section_title
;
Structure prediction by ZEFSAII (Michael W. Deem and Ramdas Pophale) SiO2 
 PCOD8183551
Probable space group: A M A 2
;
_chemical_formula_sum "Si O2"
_cell_formula_units_Z 64
_cell_length_a 8.840934
_cell_length_b 20.363730
_cell_length_c 19.749267
_cell_angle_alpha 90.000000
_cell_angle_beta 90.000000
_cell_angle_gamma 90.000000
_cell_volume 3555.547295
_symmetry_space_group_name_H-M "A M A 2"
_symmetry_group_IT_number 40
_symmetry_cell_setting 'orthorhombic'
loop_
_space_group_symop_operation_xyz
x,y,z
-x,-y,z
1/2-x,y,z
1/2+x,-y,z
x,1/2+y,1/2+z
-x,1/2-y,1/2+z
1/2-x,1/2+y,1/2+z
1/2+x,1/2-y,1/2+z
loop_
_atom_site_type_symbol
_atom_site_label
_atom_site_fract_x
_atom_site_fract_y
_atom_site_fract_z
Si Si1 0.070623 0.567765 0.948190
Si Si2 0.072481 0.567317 0.101958
Si Si3 0.428781 0.431787 0.602909
Si Si4 0.072574 0.432976 0.448204
Si Si5 0.070377 0.323673 0.343566
Si Si6 0.070623 0.682065 0.201701
Si Si7 0.570832 0.821338 0.195290
Si Si8 0.927821 0.322881 0.848402
O O1 0.250000 0.563009 0.941607
O O2 0.000903 0.625454 0.901155
O O3 0.000000 0.500000 0.921951
O O4 0.020083 0.582150 0.025143
O O5 0.250000 0.557924 0.106227
O O6 0.018579 0.627512 0.147933
O O7 0.000000 0.500000 0.129049
O O8 0.500000 0.500000 0.628832
O O9 0.250000 0.435407 0.612060
O O10 0.476853 0.418907 0.525238
O O11 0.494156 0.372483 0.645658
O O12 0.250000 0.441386 0.442569
O O13 0.015900 0.373102 0.401880
O O14 0.000000 0.500000 0.420860
O O15 0.250000 0.326229 0.330875
O O16 0.018225 0.250827 0.366297
O O17 0.986719 0.342739 0.274443
O O18 0.250000 0.692201 0.202704
O O19 0.991575 0.749258 0.178698
O O20 0.750000 0.821576 0.185026
O O21 0.524780 0.840892 0.271835
O O22 0.750000 0.326304 0.856116
#
# Coordination Sequence:
#
# PCOD8183551 Si02
#       8
#     8   8   8   8   8   8   8   8
#     4   9  17  32  51  71  95 125 159 199 241 288
#     4   9  19  33  51  73  99 130 165 204 248 294
#     4  10  20  35  54  77 104 136 172 213 257 306
#     4   9  19  34  53  75 101 132 168 209 255 305
#     4   9  18  34  53  73  97 131 169 206 249 299
#     4  10  20  34  51  75 103 133 169 211 254 300
#     4  10  20  35  53  75 103 136 170 209 255 305
#     4   8  16  31  51  71  94 125 163 201 242 291
#
# _framework density 18.000043000000002
#
# number of rings (size 3 to 8) (size 9 to 14) (size 15 to 20)
#    0.000    2.750    0.000    1.875    0.000    4.000 
#    0.000   10.625    0.000    0.000    0.000    0.000 
#    0.000    0.000    0.000    0.000    0.000    0.000 
#
# Total GULP energy -396793.181394 kJ/mol
# GULP energy per Si atom -12399.786919 kJ/mol
# Density = 1.795907 g / cm^3
# Si number density = 18.000043 Si / 1000 Ang^3
#
#
#
# Elastic Constant Matrix: (Units=GPa)
#
#
# Indices 1 2 3 4 5 6 
#
# 1 41.3183 43.7345 32.0674 0.0000 0.0000 0.0000
# 2 43.7345 160.6486 104.3953 0.0000 0.0000 0.0000
# 3 32.0674 104.3953 109.0352 0.0000 0.0000 0.0000
# 4 0.0000 0.0000 0.0000 30.7259 0.0000 0.0000
# 5 0.0000 0.0000 0.0000 0.0000 24.7897 0.0000
# 6 0.0000 0.0000 0.0000 0.0000 0.0000 32.8602
#
#
#
# Elastic Compliance Matrix: (Units=1/GPa)
#
#
# Indices 1 2 3 4 5 6 
#
# 1 0.034377 -0.007381 -0.003043 0.000000 0.000000 0.000000
# 2 -0.007381 0.018060 -0.015121 0.000000 0.000000 0.000000
# 3 -0.003043 -0.015121 0.024544 0.000000 0.000000 0.000000
# 4 0.000000 0.000000 0.000000 0.032546 0.000000 0.000000
# 5 0.000000 0.000000 0.000000 0.000000 0.040339 0.000000
# 6 0.000000 0.000000 0.000000 0.000000 0.000000 0.030432
#
#
# Mechanical properties :
#
#
# Convention : Reuss Voigt Hill
#
# Bulk Modulus (GPa) = 38.62434 74.59960 56.61197
# Shear Modulus (GPa) = 20.83164 26.39549 23.61356
#
# Velocity S-wave (km/s) = 3.40562 3.83353 3.62589
# Velocity P-wave (km/s) = 6.08020 7.81849 7.00348
#
# Compressibility (1/GPa) = 0.02589041
#
# Stress axis : x y z
#
# Youngs Moduli (GPa) = 29.08929 55.36983 40.74305
#
# Poissons Ratio (x) = 0.40868 0.12400
# Poissons Ratio (y) = 0.21471 0.61608
# Poissons Ratio (z) = 0.08853 0.83725
#
# Static dielectric constant tensor:
#      x y z
#    x 3.197520 0.000000 0.000000 
#    y 0.000000 3.579030 0.000000 
#    z 0.000000 0.000000 3.500530 
# 
# 
# High freq. dielectric constant tensor:
#      x y z
#    x 1.686330 0.000000 0.000000 
#    y 0.000000 1.705320 0.000000 
#    z 0.000000 0.000000 1.696180 
# 
# From -- ./inp_files/19603.got.cif
#   From: 2010.03.12/outbox.cif.g09.slc.cpg/sg40_10_cif.got.tgz:19603.got - 2010.04.14 01:38:03.
