data_PCOD8183654
_publ_section_title
;
Structure prediction by ZEFSAII (Michael W. Deem and Ramdas Pophale) SiO2 
 PCOD8183654
Probable space group: A M A 2
;
_chemical_formula_sum "Si O2"
_cell_formula_units_Z 64
_cell_length_a 8.798083
_cell_length_b 20.000689
_cell_length_c 19.757936
_cell_angle_alpha 90.000000
_cell_angle_beta 90.000000
_cell_angle_gamma 90.000000
_cell_volume 3476.758987
_symmetry_space_group_name_H-M "A M A 2"
_symmetry_group_IT_number 40
_symmetry_cell_setting 'orthorhombic'
loop_
_space_group_symop_operation_xyz
x,y,z
-x,-y,z
1/2-x,y,z
1/2+x,-y,z
x,1/2+y,1/2+z
-x,1/2-y,1/2+z
1/2-x,1/2+y,1/2+z
1/2+x,1/2-y,1/2+z
loop_
_atom_site_type_symbol
_atom_site_label
_atom_site_fract_x
_atom_site_fract_y
_atom_site_fract_z
Si Si1 0.572203 0.676274 0.064170
Si Si2 0.571261 0.568501 0.303162
Si Si3 0.071155 0.931927 0.957134
Si Si4 0.423463 0.828324 0.208450
Si Si5 0.429470 0.429744 0.949944
Si Si6 0.073334 0.173764 0.706271
Si Si7 0.070810 0.070519 0.307532
Si Si8 0.427139 0.315240 0.554304
O O1 0.750000 0.675053 0.080180
O O2 0.482954 0.655294 0.131466
O O3 0.523971 0.749391 0.039080
O O4 0.527262 0.624608 0.005820
O O5 0.500000 0.500000 0.274504
O O6 0.750000 0.561969 0.297392
O O7 0.517697 0.580467 0.380247
O O8 0.516753 0.631229 0.260696
O O9 0.250000 0.938741 0.962944
O O10 0.012585 0.870671 0.002304
O O11 0.000000 0.000000 0.985924
O O12 0.250000 0.845740 0.227546
O O13 0.458781 0.750918 0.223470
O O14 0.535977 0.873545 0.251861
O O15 0.454869 0.842858 0.129680
O O16 0.500000 0.500000 0.973344
O O17 0.250000 0.437630 0.940845
O O18 0.500694 0.406341 0.878900
O O19 0.250000 0.156471 0.710456
O O20 0.250000 0.062020 0.315273
O O21 0.000000 0.000000 0.284205
O O22 0.250000 0.297606 0.544048
#
# Coordination Sequence:
#
# PCOD8183654 Si02
#       8
#     8   8   8   8   8   8   8   8
#     4  10  21  36  55  80 108 138 175 218 262 314
#     4  10  20  35  55  79 109 142 179 222 264 313
#     4   9  19  35  54  78 107 139 176 218 263 311
#     4   9  19  36  55  77 108 141 174 216 265 316
#     4  10  21  37  56  79 107 138 174 217 263 313
#     4  10  21  37  57  79 107 142 177 219 267 313
#     4  11  22  36  56  79 106 140 177 219 264 314
#     4   9  19  36  56  79 108 140 175 217 264 312
#
# _framework density 18.407948000000001
#
# number of rings (size 3 to 8) (size 9 to 14) (size 15 to 20)
#    0.000    2.250    0.000    4.125    0.000    7.500 
#    0.000    5.000    0.000    0.000    0.000    0.000 
#    0.000    0.000    0.000    0.000    0.000    0.000 
#
# Total GULP energy -396912.294898 kJ/mol
# GULP energy per Si atom -12403.509216 kJ/mol
# Density = 1.836605 g / cm^3
# Si number density = 18.407948 Si / 1000 Ang^3
#
#
#
# Elastic Constant Matrix: (Units=GPa)
#
#
# Indices 1 2 3 4 5 6 
#
# 1 77.5604 42.1613 40.2545 0.0000 0.0000 0.0000
# 2 42.1613 107.1809 76.5188 0.0000 0.0000 0.0000
# 3 40.2545 76.5188 96.4941 0.0000 0.0000 0.0000
# 4 0.0000 0.0000 0.0000 32.3739 0.0000 0.0000
# 5 0.0000 0.0000 0.0000 0.0000 39.9363 0.0000
# 6 0.0000 0.0000 0.0000 0.0000 0.0000 35.7814
#
#
#
# Elastic Compliance Matrix: (Units=1/GPa)
#
#
# Indices 1 2 3 4 5 6 
#
# 1 0.017090 -0.003763 -0.004145 0.000000 0.000000 0.000000
# 2 -0.003763 0.022333 -0.016140 0.000000 0.000000 0.000000
# 3 -0.004145 -0.016140 0.024891 0.000000 0.000000 0.000000
# 4 0.000000 0.000000 0.000000 0.030889 0.000000 0.000000
# 5 0.000000 0.000000 0.000000 0.000000 0.025040 0.000000
# 6 0.000000 0.000000 0.000000 0.000000 0.000000 0.027948
#
#
# Mechanical properties :
#
#
# Convention : Reuss Voigt Hill
#
# Bulk Modulus (GPa) = 61.66108 66.56719 64.11414
# Shear Modulus (GPa) = 24.79001 29.77170 27.28085
#
# Velocity S-wave (km/s) = 3.67372 4.02596 3.85387
# Velocity P-wave (km/s) = 7.18086 7.60604 7.39651
#
# Compressibility (1/GPa) = 0.01621769
#
# Stress axis : x y z
#
# Youngs Moduli (GPa) = 58.51258 44.77675 40.17455
#
# Poissons Ratio (x) = 0.16851 0.16654
# Poissons Ratio (y) = 0.22020 0.64841
# Poissons Ratio (z) = 0.24255 0.72269
#
# Static dielectric constant tensor:
#      x y z
#    x 2.768400 0.000000 0.000000 
#    y 0.000000 3.415130 0.000000 
#    z 0.000000 0.000000 3.427840 
# 
# 
# High freq. dielectric constant tensor:
#      x y z
#    x 1.721480 0.000000 0.000000 
#    y 0.000000 1.716870 0.000000 
#    z 0.000000 0.000000 1.714490 
# 
# From -- ./inp_files/22379.got.cif
#   From: 2010.03.12/outbox.cif.g09.slc.cpg/sg40_12_cif.got.tgz:22379.got - 2010.04.14 01:38:03.
