data_PCOD8183736
_publ_section_title
;
Structure prediction by ZEFSAII (Michael W. Deem and Ramdas Pophale) SiO2 
 PCOD8183736
Probable space group: A M A 2
;
_chemical_formula_sum "Si O2"
_cell_formula_units_Z 40
_cell_length_a 9.040982
_cell_length_b 28.878937
_cell_length_c 7.917770
_cell_angle_alpha 90.000000
_cell_angle_beta 90.000000
_cell_angle_gamma 90.000000
_cell_volume 2067.281841
_symmetry_space_group_name_H-M "A M A 2"
_symmetry_group_IT_number 40
_symmetry_cell_setting 'orthorhombic'
loop_
_space_group_symop_operation_xyz
x,y,z
-x,-y,z
1/2-x,y,z
1/2+x,-y,z
x,1/2+y,1/2+z
-x,1/2-y,1/2+z
1/2-x,1/2+y,1/2+z
1/2+x,1/2-y,1/2+z
loop_
_atom_site_type_symbol
_atom_site_label
_atom_site_fract_x
_atom_site_fract_y
_atom_site_fract_z
Si Si1 0.577604 0.105670 0.006150
Si Si2 0.923190 0.201772 0.151986
Si Si3 0.574239 0.049197 0.322508
Si Si4 0.924213 0.613025 0.134861
Si Si5 0.924771 0.299593 0.004036
O O1 0.750000 0.099604 0.032474
O O2 0.535763 0.159647 0.027565
O O3 0.507551 0.073320 0.152771
O O4 0.531243 0.090325 0.816489
O O5 0.750000 0.202754 0.196995
O O6 0.013747 0.192121 0.319295
O O7 0.976223 0.249208 0.067019
O O8 0.750000 0.043332 0.317616
O O9 0.525606 0.079421 0.484471
O O10 0.500000 0.000000 0.343178
O O11 0.750000 0.623215 0.127526
O O12 0.007515 0.661847 0.126204
O O13 0.750000 0.304201 0.002802
#
# Coordination Sequence:
#
# PCOD8183736 Si02
#       5
#     8   8   8   8   8
#     4   9  18  36  60  83 108 150 199 229 277 353
#     4  10  20  36  55  79 116 155 192 234 283 346
#     4  10  21  38  60  85 113 152 196 240 291 344
#     4  10  20  38  62  82 114 158 191 232 290 351
#     4  11  22  34  55  87 118 150 194 243 285 335
#
# _framework density 19.349079
#
# number of rings (size 3 to 8) (size 9 to 14) (size 15 to 20)
#    0.000    2.000    2.000    1.800    0.000    4.800 
#    0.000    2.000    0.000    0.000    0.000    0.000 
#    0.000    0.000    0.000    0.000    0.000    0.000 
#
# Total GULP energy -247975.944567 kJ/mol
# GULP energy per Si atom -12398.797228 kJ/mol
# Density = 1.930504 g / cm^3
# Si number density = 19.349079 Si / 1000 Ang^3
#
#
#
# Elastic Constant Matrix: (Units=GPa)
#
#
# Indices 1 2 3 4 5 6 
#
# 1 27.2439 26.5764 20.5682 0.0000 0.0000 0.0000
# 2 26.5764 129.5022 56.6322 0.0000 0.0000 0.0000
# 3 20.5682 56.6322 145.0377 0.0000 0.0000 0.0000
# 4 0.0000 0.0000 0.0000 28.9383 0.0000 0.0000
# 5 0.0000 0.0000 0.0000 0.0000 16.8870 0.0000
# 6 0.0000 0.0000 0.0000 0.0000 0.0000 31.3988
#
#
#
# Elastic Compliance Matrix: (Units=1/GPa)
#
#
# Indices 1 2 3 4 5 6 
#
# 1 0.047338 -0.008175 -0.003521 0.000000 0.000000 0.000000
# 2 -0.008175 0.010724 -0.003028 0.000000 0.000000 0.000000
# 3 -0.003521 -0.003028 0.008576 0.000000 0.000000 0.000000
# 4 0.000000 0.000000 0.000000 0.034556 0.000000 0.000000
# 5 0.000000 0.000000 0.000000 0.000000 0.059217 0.000000
# 6 0.000000 0.000000 0.000000 0.000000 0.000000 0.031848
#
#
# Mechanical properties :
#
#
# Convention : Reuss Voigt Hill
#
# Bulk Modulus (GPa) = 26.88864 56.59305 41.74085
# Shear Modulus (GPa) = 21.35793 28.64529 25.00161
#
# Velocity S-wave (km/s) = 3.32599 3.85183 3.59853
# Velocity P-wave (km/s) = 5.35503 7.00672 6.23580
#
# Compressibility (1/GPa) = 0.03719042
#
# Stress axis : x y z
#
# Youngs Moduli (GPa) = 21.12450 93.25174 116.59914
#
# Poissons Ratio (x) = 0.76233 0.41056
# Poissons Ratio (y) = 0.17269 0.35305
# Poissons Ratio (z) = 0.07438 0.28236
#
# Static dielectric constant tensor:
#      x y z
#    x 3.266100 0.000000 0.000000 
#    y 0.000000 3.657600 0.000000 
#    z 0.000000 0.000000 3.914190 
# 
# 
# High freq. dielectric constant tensor:
#      x y z
#    x 1.723040 0.000000 0.000000 
#    y 0.000000 1.753500 0.000000 
#    z 0.000000 0.000000 1.770350 
# 
# From -- ./inp_files/4222.got.cif
#   From: 2010.03.12/outbox.cif.g09.slc.cpg/sg40_3_cif.got.tgz:4222.got - 2010.04.14 01:38:03.
