data_PCOD8183179
_publ_section_title
;
Structure prediction by ZEFSAII (Michael W. Deem and Ramdas Pophale) SiO2 
 PCOD8183179
Probable space group: A M A 2
;
_chemical_formula_sum "Si O2"
_cell_formula_units_Z 64
_cell_length_a 8.980920
_cell_length_b 29.368266
_cell_length_c 12.830375
_cell_angle_alpha 90.000000
_cell_angle_beta 90.000000
_cell_angle_gamma 90.000000
_cell_volume 3384.063337
_symmetry_space_group_name_H-M "A M A 2"
_symmetry_group_IT_number 40
_symmetry_cell_setting 'orthorhombic'
loop_
_space_group_symop_operation_xyz
x,y,z
-x,-y,z
1/2-x,y,z
1/2+x,-y,z
x,1/2+y,1/2+z
-x,1/2-y,1/2+z
1/2-x,1/2+y,1/2+z
1/2+x,1/2-y,1/2+z
loop_
_atom_site_type_symbol
_atom_site_label
_atom_site_fract_x
_atom_site_fract_y
_atom_site_fract_z
Si Si1 0.425634 0.379676 0.478710
Si Si2 0.085065 0.700627 0.583874
Si Si3 0.575461 0.744198 0.266427
Si Si4 0.426328 0.356995 0.249459
Si Si5 0.575568 0.452005 0.867326
Si Si6 0.088021 0.284719 0.947714
Si Si7 0.574991 0.951748 0.130544
Si Si8 0.924656 0.616524 0.024965
O O1 0.250000 0.386537 0.492372
O O2 0.470312 0.329790 0.519618
O O3 0.474196 0.382746 0.356658
O O4 0.510713 0.416775 0.546870
O O5 0.250000 0.676792 0.586730
O O6 0.017681 0.712687 0.697328
O O7 0.106002 0.752217 0.545852
O O8 0.750000 0.740026 0.253803
O O9 0.503312 0.694114 0.245333
O O10 0.536003 0.759862 0.381106
O O11 0.250000 0.351561 0.249227
O O12 0.474910 0.386076 0.147253
O O13 0.500000 0.500000 0.887841
O O14 0.750000 0.457994 0.883046
O O15 0.540015 0.434954 0.749043
O O16 0.516056 0.417980 0.954406
O O17 0.250000 0.288850 0.891240
O O18 0.033086 0.333596 0.985218
O O19 0.750000 0.956908 0.112767
O O20 0.500000 0.000000 0.109246
O O21 0.750000 0.605932 0.013662
#
# Coordination Sequence:
#
# PCOD8183179 Si02
#       8
#     8   8   8   8   8   8   8   8
#     4  11  22  36  58  85 114 150 195 236 279 336
#     4  10  20  34  52  76 111 153 193 234 283 330
#     4  10  19  34  52  71 106 152 193 234 280 326
#     4   9  18  35  56  79 110 153 195 232 277 326
#     4  10  22  41  64  89 114 142 178 225 282 340
#     4  10  20  33  51  78 110 147 191 234 277 326
#     4  10  22  42  65  88 116 144 178 227 285 341
#     4  10  20  37  59  82 113 151 190 232 280 334
#
# _framework density 18.912175999999999
#
# number of rings (size 3 to 8) (size 9 to 14) (size 15 to 20)
#    0.000    2.000    2.500    1.125    1.750    2.500 
#    0.000    2.500    0.000    0.000    0.000    0.000 
#    0.000    0.000    0.000    0.000    0.000    0.000 
#
# Total GULP energy -396524.140672 kJ/mol
# GULP energy per Si atom -12391.379396 kJ/mol
# Density = 1.886913 g / cm^3
# Si number density = 18.912176 Si / 1000 Ang^3
#
#
#
# Elastic Constant Matrix: (Units=GPa)
#
#
# Indices 1 2 3 4 5 6 
#
# 1 63.0802 46.7063 50.6867 0.0000 0.0000 0.0000
# 2 46.7063 108.4448 73.1975 0.0000 0.0000 0.0000
# 3 50.6867 73.1975 134.2771 0.0000 0.0000 0.0000
# 4 0.0000 0.0000 0.0000 32.1814 0.0000 0.0000
# 5 0.0000 0.0000 0.0000 0.0000 29.0064 0.0000
# 6 0.0000 0.0000 0.0000 0.0000 0.0000 31.2835
#
#
#
# Elastic Compliance Matrix: (Units=1/GPa)
#
#
# Indices 1 2 3 4 5 6 
#
# 1 0.025881 -0.007203 -0.005843 0.000000 0.000000 0.000000
# 2 -0.007203 0.016594 -0.006327 0.000000 0.000000 0.000000
# 3 -0.005843 -0.006327 0.013102 0.000000 0.000000 0.000000
# 4 0.000000 0.000000 0.000000 0.031074 0.000000 0.000000
# 5 0.000000 0.000000 0.000000 0.000000 0.034475 0.000000
# 6 0.000000 0.000000 0.000000 0.000000 0.000000 0.031966
#
#
# Mechanical properties :
#
#
# Convention : Reuss Voigt Hill
#
# Bulk Modulus (GPa) = 59.41299 71.88701 65.65000
# Shear Modulus (GPa) = 25.32316 27.50835 26.41576
#
# Velocity S-wave (km/s) = 3.66319 3.81797 3.74138
# Velocity P-wave (km/s) = 7.02676 7.58481 7.31111
#
# Compressibility (1/GPa) = 0.01683133
#
# Stress axis : x y z
#
# Youngs Moduli (GPa) = 38.63818 60.26308 76.32513
#
# Poissons Ratio (x) = 0.43406 0.44598
# Poissons Ratio (y) = 0.27830 0.48289
# Poissons Ratio (z) = 0.22577 0.38127
#
# Static dielectric constant tensor:
#      x y z
#    x 3.330630 0.000000 0.000000 
#    y 0.000000 3.370970 0.000000 
#    z 0.000000 0.000000 3.748000 
# 
# 
# High freq. dielectric constant tensor:
#      x y z
#    x 1.719970 0.000000 0.000000 
#    y 0.000000 1.723460 0.000000 
#    z 0.000000 0.000000 1.746560 
# 
# From -- ./inp_files/10664.got.cif
#   From: 2010.03.12/outbox.cif.g09.slc.cpg/sg40_6_cif.got.tgz:10664.got - 2010.04.14 01:38:03.
