data_PCOD8183310
_publ_section_title
;
Structure prediction by ZEFSAII (Michael W. Deem and Ramdas Pophale) SiO2 
 PCOD8183310
Probable space group: A M A 2
;
_chemical_formula_sum "Si O2"
_cell_formula_units_Z 48
_cell_length_a 9.104456
_cell_length_b 28.083487
_cell_length_c 10.124072
_cell_angle_alpha 90.000000
_cell_angle_beta 90.000000
_cell_angle_gamma 90.000000
_cell_volume 2588.572051
_symmetry_space_group_name_H-M "A M A 2"
_symmetry_group_IT_number 40
_symmetry_cell_setting 'orthorhombic'
loop_
_space_group_symop_operation_xyz
x,y,z
-x,-y,z
1/2-x,y,z
1/2+x,-y,z
x,1/2+y,1/2+z
-x,1/2-y,1/2+z
1/2-x,1/2+y,1/2+z
1/2+x,1/2-y,1/2+z
loop_
_atom_site_type_symbol
_atom_site_label
_atom_site_fract_x
_atom_site_fract_y
_atom_site_fract_z
Si Si1 0.922733 0.141895 0.427960
Si Si2 0.578162 0.855245 0.939858
Si Si3 0.079459 0.308622 0.200169
Si Si4 0.577882 0.800538 0.200924
Si Si5 0.922445 0.451968 0.869816
Si Si6 0.420693 0.547041 0.561967
O O1 0.750000 0.132821 0.411144
O O2 0.959828 0.174038 0.554016
O O3 0.982177 0.168847 0.300404
O O4 0.004914 0.091782 0.447551
O O5 0.750000 0.857207 0.914325
O O6 0.503183 0.841184 0.804270
O O7 0.540322 0.816960 0.052755
O O8 0.519809 0.907254 0.982946
O O9 0.250000 0.313799 0.229675
O O10 0.029474 0.254079 0.213932
O O11 0.750000 0.808785 0.231693
O O12 0.750000 0.454487 0.900861
O O13 0.954965 0.444284 0.715440
O O14 0.000000 0.500000 0.920568
O O15 0.500000 0.500000 0.507770
O O16 0.250000 0.539385 0.538373
#
# Coordination Sequence:
#
# PCOD8183310 Si02
#       6
#     8   8   8   8   8   8
#     4  11  22  37  57  84 115 149 189 231 278 334
#     4  10  20  37  58  81 111 147 184 226 280 335
#     4  10  23  38  54  80 115 150 186 231 279 331
#     4  10  20  38  59  80 110 147 189 236 280 327
#     4  10  19  35  58  85 114 144 183 232 280 329
#     4   9  18  33  55  82 109 139 176 224 274 322
#
# _framework density 18.543042
#
# number of rings (size 3 to 8) (size 9 to 14) (size 15 to 20)
#    0.000    2.000    1.667    2.000    0.000    5.333 
#    0.000    0.833    0.000    2.000    0.000    0.000 
#    0.000    0.000    0.000    0.000    0.000    0.000 
#
# Total GULP energy -297688.258206 kJ/mol
# GULP energy per Si atom -12403.677425 kJ/mol
# Density = 1.850084 g / cm^3
# Si number density = 18.543042 Si / 1000 Ang^3
#
#
#
# Elastic Constant Matrix: (Units=GPa)
#
#
# Indices 1 2 3 4 5 6 
#
# 1 64.4667 46.3963 28.5362 0.0000 0.0000 0.0000
# 2 46.3963 130.0337 18.3667 0.0000 0.0000 0.0000
# 3 28.5362 18.3667 47.4148 0.0000 0.0000 0.0000
# 4 0.0000 0.0000 0.0000 17.7268 0.0000 0.0000
# 5 0.0000 0.0000 0.0000 0.0000 26.6501 0.0000
# 6 0.0000 0.0000 0.0000 0.0000 0.0000 36.5077
#
#
#
# Elastic Compliance Matrix: (Units=1/GPa)
#
#
# Indices 1 2 3 4 5 6 
#
# 1 0.026932 -0.007744 -0.013209 0.000000 0.000000 0.000000
# 2 -0.007744 0.010362 0.000647 0.000000 0.000000 0.000000
# 3 -0.013209 0.000647 0.028790 0.000000 0.000000 0.000000
# 4 0.000000 0.000000 0.000000 0.056412 0.000000 0.000000
# 5 0.000000 0.000000 0.000000 0.000000 0.037523 0.000000
# 6 0.000000 0.000000 0.000000 0.000000 0.000000 0.027391
#
#
# Mechanical properties :
#
#
# Convention : Reuss Voigt Hill
#
# Bulk Modulus (GPa) = 39.25984 47.61263 43.43623
# Shear Modulus (GPa) = 21.14043 26.08464 23.61254
#
# Velocity S-wave (km/s) = 3.38016 3.75468 3.57233
# Velocity P-wave (km/s) = 6.03757 6.67303 6.36324
#
# Compressibility (1/GPa) = 0.02547132
#
# Stress axis : x y z
#
# Youngs Moduli (GPa) = 37.13044 96.50704 34.73439
#
# Poissons Ratio (x) = 0.74732 0.45882
# Poissons Ratio (y) = 0.28753 -0.02246
# Poissons Ratio (z) = 0.49047 -0.06241
#
# Static dielectric constant tensor:
#      x y z
#    x 3.368600 0.000000 0.000000 
#    y 0.000000 3.737160 0.000000 
#    z 0.000000 0.000000 3.202390 
# 
# 
# High freq. dielectric constant tensor:
#      x y z
#    x 1.718130 0.000000 0.000000 
#    y 0.000000 1.738370 0.000000 
#    z 0.000000 0.000000 1.701510 
# 
# From -- ./inp_files/4599.got.cif
#   From: 2010.03.12/outbox.cif.g09.slc.cpg/sg40_3_cif.got.tgz:4599.got - 2010.04.14 01:38:03.
