data_PCOD8183965
_publ_section_title
;
Structure prediction by ZEFSAII (Michael W. Deem and Ramdas Pophale) SiO2 
 PCOD8183965
Probable space group: A M A 2
;
_chemical_formula_sum "Si O2"
_cell_formula_units_Z 64
_cell_length_a 8.405224
_cell_length_b 15.342601
_cell_length_c 23.404523
_cell_angle_alpha 90.000000
_cell_angle_beta 90.000000
_cell_angle_gamma 90.000000
_cell_volume 3018.200434
_symmetry_space_group_name_H-M "A M A 2"
_symmetry_group_IT_number 40
_symmetry_cell_setting 'orthorhombic'
loop_
_space_group_symop_operation_xyz
x,y,z
-x,-y,z
1/2-x,y,z
1/2+x,-y,z
x,1/2+y,1/2+z
-x,1/2-y,1/2+z
1/2-x,1/2+y,1/2+z
1/2+x,1/2-y,1/2+z
loop_
_atom_site_type_symbol
_atom_site_label
_atom_site_fract_x
_atom_site_fract_y
_atom_site_fract_z
Si Si1 0.937870 0.092264 0.470970
Si Si2 0.563881 0.757759 0.039818
Si Si3 0.434043 0.651604 0.345754
Si Si4 0.935243 0.090814 0.727187
Si Si5 0.065282 0.591443 0.731050
Si Si6 0.934892 0.093103 0.961447
Si Si7 0.436985 0.854083 0.346654
Si Si8 0.066975 0.749193 0.162374
O O1 0.750000 0.094311 0.470471
O O2 0.000878 0.167474 0.512999
O O3 0.000348 0.109681 0.406978
O O4 0.000000 0.000000 0.493999
O O5 0.750000 0.752890 0.053356
O O6 0.469587 0.775957 0.097714
O O7 0.533100 0.834193 0.995064
O O8 0.250000 0.638263 0.361707
O O9 0.469375 0.608925 0.285087
O O10 0.538981 0.604706 0.393816
O O11 0.479038 0.752641 0.342966
O O12 0.750000 0.084937 0.741085
O O13 0.963305 0.165946 0.680572
O O14 0.000000 0.000000 0.701397
O O15 0.250000 0.600655 0.716214
O O16 0.000000 0.500000 0.706809
O O17 0.036542 0.595013 0.798917
O O18 0.968642 0.669045 0.702335
O O19 0.750000 0.100856 0.976402
O O20 0.000000 0.000000 0.981695
O O21 0.250000 0.870772 0.337403
O O22 0.250000 0.724011 0.169978
#
# Coordination Sequence:
#
# PCOD8183965 Si02
#       8
#     8   8   8   8   8   8   8   8
#     4  10  22  40  64  94 129 167 207 255 311 371
#     4  11  24  46  68  92 127 169 217 269 322 378
#     4  11  21  39  66  96 134 172 210 262 322 387
#     4  12  25  43  67  98 131 171 216 265 324 386
#     4  12  25  42  66  97 131 171 214 263 320 383
#     4  12  25  42  66  97 131 170 216 265 322 388
#     4  10  20  38  64  95 131 171 209 258 320 380
#     4  12  26  46  68  95 128 167 216 271 325 383
#
# _framework density 21.204688000000001
#
# number of rings (size 3 to 8) (size 9 to 14) (size 15 to 20)
#    0.000    0.750    2.500    6.000    0.000    4.000 
#    0.000    3.750    0.000    0.000    0.000    0.000 
#    0.000    0.000    0.000    0.000    0.000    0.000 
#
# Total GULP energy -397077.418381 kJ/mol
# GULP energy per Si atom -12408.669324 kJ/mol
# Density = 2.115642 g / cm^3
# Si number density = 21.204688 Si / 1000 Ang^3
#
#
#
# Elastic Constant Matrix: (Units=GPa)
#
#
# Indices 1 2 3 4 5 6 
#
# 1 75.9534 26.9515 14.7642 0.0000 0.0000 0.0000
# 2 26.9515 135.1575 15.7449 0.0000 0.0000 0.0000
# 3 14.7642 15.7449 81.0613 0.0000 0.0000 0.0000
# 4 0.0000 0.0000 0.0000 19.1240 0.0000 0.0000
# 5 0.0000 0.0000 0.0000 0.0000 31.2133 0.0000
# 6 0.0000 0.0000 0.0000 0.0000 0.0000 33.4791
#
#
#
# Elastic Compliance Matrix: (Units=1/GPa)
#
#
# Indices 1 2 3 4 5 6 
#
# 1 0.014519 -0.002647 -0.002130 0.000000 0.000000 0.000000
# 2 -0.002647 0.008053 -0.001082 0.000000 0.000000 0.000000
# 3 -0.002130 -0.001082 0.012935 0.000000 0.000000 0.000000
# 4 0.000000 0.000000 0.000000 0.052290 0.000000 0.000000
# 5 0.000000 0.000000 0.000000 0.000000 0.032038 0.000000
# 6 0.000000 0.000000 0.000000 0.000000 0.000000 0.029869
#
#
# Mechanical properties :
#
#
# Convention : Reuss Voigt Hill
#
# Bulk Modulus (GPa) = 42.03853 45.23261 43.63557
# Shear Modulus (GPa) = 29.52434 32.41075 30.96754
#
# Velocity S-wave (km/s) = 3.73547 3.91381 3.82568
# Velocity P-wave (km/s) = 6.20267 6.46541 6.33540
#
# Compressibility (1/GPa) = 0.02378770
#
# Stress axis : x y z
#
# Youngs Moduli (GPa) = 68.87347 124.18236 77.31258
#
# Poissons Ratio (x) = 0.32872 0.16470
# Poissons Ratio (y) = 0.18232 0.08365
# Poissons Ratio (z) = 0.14672 0.13436
#
# Static dielectric constant tensor:
#      x y z
#    x 3.718640 0.000000 0.000000 
#    y 0.000000 1.801600 0.000000 
#    z 0.000000 0.000000 3.735240 
# 
# 
# High freq. dielectric constant tensor:
#      x y z
#    x 1.833290 0.000000 0.000000 
#    y 0.000000 1.847880 0.000000 
#    z 0.000000 0.000000 1.825330 
# 
# From -- ./inp_files/24272.got.cif
#   From: 2010.03.12/outbox.cif.g09.slc.cpg/sg40_13_cif.got.tgz:24272.got - 2010.04.14 01:38:03.
