data_PCOD8183709
_publ_section_title
;
Structure prediction by ZEFSAII (Michael W. Deem and Ramdas Pophale) SiO2 
 PCOD8183709
Probable space group: A M A 2
;
_chemical_formula_sum "Si O2"
_cell_formula_units_Z 64
_cell_length_a 8.510958
_cell_length_b 32.612568
_cell_length_c 11.792167
_cell_angle_alpha 90.000000
_cell_angle_beta 90.000000
_cell_angle_gamma 90.000000
_cell_volume 3273.083359
_symmetry_space_group_name_H-M "A M A 2"
_symmetry_group_IT_number 40
_symmetry_cell_setting 'orthorhombic'
loop_
_space_group_symop_operation_xyz
x,y,z
-x,-y,z
1/2-x,y,z
1/2+x,-y,z
x,1/2+y,1/2+z
-x,1/2-y,1/2+z
1/2-x,1/2+y,1/2+z
1/2+x,1/2-y,1/2+z
loop_
_atom_site_type_symbol
_atom_site_label
_atom_site_fract_x
_atom_site_fract_y
_atom_site_fract_z
Si Si1 0.933422 0.358296 0.972150
Si Si2 0.433667 0.877868 0.228060
Si Si3 0.565669 0.811751 0.059736
Si Si4 0.568537 0.823035 0.813379
Si Si5 0.067697 0.545857 0.595541
Si Si6 0.064719 0.224243 0.598196
Si Si7 0.431144 0.043791 0.842182
Si Si8 0.430372 0.395062 0.184605
O O1 0.750000 0.364799 0.991579
O O2 0.977524 0.368076 0.844374
O O3 0.978581 0.311549 0.007530
O O4 0.022119 0.390954 0.053178
O O5 0.250000 0.878878 0.252784
O O6 0.471709 0.840367 0.145201
O O7 0.484479 0.921909 0.179278
O O8 0.750000 0.822338 0.069793
O O9 0.539749 0.763837 0.079337
O O10 0.488972 0.819644 0.935989
O O11 0.750000 0.815699 0.833723
O O12 0.508236 0.789799 0.723115
O O13 0.541373 0.867552 0.762831
O O14 0.250000 0.543748 0.627775
O O15 0.047488 0.564170 0.467408
O O16 0.000000 0.500000 0.612345
O O17 0.250000 0.234184 0.593311
O O18 0.250000 0.043453 0.805089
O O19 0.535487 0.060749 0.738178
O O20 0.500000 0.000000 0.864834
O O21 0.250000 0.382749 0.199113
#
# Coordination Sequence:
#
# PCOD8183709 Si02
#       8
#     8   8   8   8   8   8   8   8
#     4  10  22  42  63  83 114 156 199 245 299 356
#     4  12  25  40  60  88 121 158 203 250 299 357
#     4  11  23  37  57  85 116 153 196 244 295 350
#     4   9  20  38  56  77 109 149 190 235 286 340
#     4  10  21  39  63  91 124 160 200 246 302 358
#     4   9  20  38  58  82 111 147 190 244 301 352
#     4  10  20  35  58  88 121 155 191 239 292 349
#     4  11  21  35  58  86 114 148 190 235 287 348
#
# _framework density 19.553429000000001
#
# number of rings (size 3 to 8) (size 9 to 14) (size 15 to 20)
#    0.000    1.750    0.000    5.250    1.750    8.000 
#    0.000    0.625    0.000    0.000    0.000    0.000 
#    0.000    0.000    0.000    0.000    0.000    0.000 
#
# Total GULP energy -396681.525803 kJ/mol
# GULP energy per Si atom -12396.297681 kJ/mol
# Density = 1.950892 g / cm^3
# Si number density = 19.553429 Si / 1000 Ang^3
#
#
#
# Elastic Constant Matrix: (Units=GPa)
#
#
# Indices 1 2 3 4 5 6 
#
# 1 45.1816 15.5417 11.0681 0.0000 0.0000 0.0000
# 2 15.5417 73.7342 43.0338 0.0000 0.0000 0.0000
# 3 11.0681 43.0338 128.1771 0.0000 0.0000 0.0000
# 4 0.0000 0.0000 0.0000 27.0230 0.0000 0.0000
# 5 0.0000 0.0000 0.0000 0.0000 23.3877 0.0000
# 6 0.0000 0.0000 0.0000 0.0000 0.0000 34.3176
#
#
#
# Elastic Compliance Matrix: (Units=1/GPa)
#
#
# Indices 1 2 3 4 5 6 
#
# 1 0.023885 -0.004764 -0.000463 0.000000 0.000000 0.000000
# 2 -0.004764 0.017818 -0.005571 0.000000 0.000000 0.000000
# 3 -0.000463 -0.005571 0.009712 0.000000 0.000000 0.000000
# 4 0.000000 0.000000 0.000000 0.037006 0.000000 0.000000
# 5 0.000000 0.000000 0.000000 0.000000 0.042757 0.000000
# 6 0.000000 0.000000 0.000000 0.000000 0.000000 0.029140
#
#
# Mechanical properties :
#
#
# Convention : Reuss Voigt Hill
#
# Bulk Modulus (GPa) = 33.53572 42.93113 38.23343
# Shear Modulus (GPa) = 26.06163 28.77560 27.41862
#
# Velocity S-wave (km/s) = 3.65477 3.84036 3.74871
# Velocity P-wave (km/s) = 5.91590 6.45507 6.19136
#
# Compressibility (1/GPa) = 0.02981895
#
# Stress axis : x y z
#
# Youngs Moduli (GPa) = 41.86702 56.12402 102.96587
#
# Poissons Ratio (x) = 0.26739 0.04767
# Poissons Ratio (y) = 0.19947 0.57359
# Poissons Ratio (z) = 0.01938 0.31265
#
# Static dielectric constant tensor:
#      x y z
#    x 3.509370 0.000000 0.000000 
#    y 0.000000 3.532300 0.000000 
#    z 0.000000 0.000000 3.900690 
# 
# 
# High freq. dielectric constant tensor:
#      x y z
#    x 1.765330 0.000000 0.000000 
#    y 0.000000 1.757140 0.000000 
#    z 0.000000 0.000000 1.767900 
# 
# From -- ./inp_files/10580.got.cif
#   From: 2010.03.12/outbox.cif.g09.slc.cpg/sg40_6_cif.got.tgz:10580.got - 2010.04.14 01:38:03.
