data_PCOD8183657
_publ_section_title
;
Structure prediction by ZEFSAII (Michael W. Deem and Ramdas Pophale) SiO2 
 PCOD8183657
Probable space group: A M A 2
;
_chemical_formula_sum "Si O2"
_cell_formula_units_Z 64
_cell_length_a 17.348416
_cell_length_b 8.763725
_cell_length_c 21.108029
_cell_angle_alpha 90.000000
_cell_angle_beta 90.000000
_cell_angle_gamma 90.000000
_cell_volume 3209.196065
_symmetry_space_group_name_H-M "A M A 2"
_symmetry_group_IT_number 40
_symmetry_cell_setting 'orthorhombic'
loop_
_space_group_symop_operation_xyz
x,y,z
-x,-y,z
1/2-x,y,z
1/2+x,-y,z
x,1/2+y,1/2+z
-x,1/2-y,1/2+z
1/2-x,1/2+y,1/2+z
1/2+x,1/2-y,1/2+z
loop_
_atom_site_type_symbol
_atom_site_label
_atom_site_fract_x
_atom_site_fract_y
_atom_site_fract_z
Si Si1 0.084176 0.561886 0.888810
Si Si2 0.412411 0.552364 0.024212
Si Si3 0.418858 0.923530 0.901920
Si Si4 0.661398 0.069417 0.775773
Si Si5 0.661250 0.920359 0.261795
Si Si6 0.582943 0.932205 0.660241
Si Si7 0.580984 0.073450 0.145092
Si Si8 0.160120 0.875397 0.023615
O O1 0.075311 0.742604 0.895350
O O2 0.141081 0.516691 0.831975
O O3 0.000000 0.500000 0.873062
O O4 0.120098 0.493595 0.955728
O O5 0.500000 0.500000 0.022902
O O6 0.382247 0.495995 0.093527
O O7 0.398240 0.732947 0.024353
O O8 0.386243 0.990849 0.836146
O O9 0.500000 0.000000 0.916809
O O10 0.361125 0.968759 0.959823
O O11 0.750000 0.053525 0.794100
O O12 0.640811 0.242419 0.757892
O O13 0.643327 0.965495 0.715333
O O14 0.750000 0.954772 0.248183
O O15 0.610219 0.004582 0.210498
O O16 0.572050 0.752871 0.654121
O O17 0.500000 0.000000 0.678066
O O18 0.640723 0.031989 0.088053
O O19 0.500000 0.000000 0.126463
O O20 0.250000 0.827722 0.022717
#
# Coordination Sequence:
#
# PCOD8183657 Si02
#       8
#     8   8   8   8   8   8   8   8
#     4   9  18  34  55  78 104 139 181 224 271 325
#     4   8  17  33  54  80 109 140 178 226 272 324
#     4  10  20  35  56  81 108 142 185 229 273 327
#     4  10  21  36  54  78 110 146 183 228 281 331
#     4  10  21  36  54  79 112 147 183 228 283 334
#     4  10  20  35  55  80 108 141 182 227 274 328
#     4  11  22  36  57  82 110 146 186 229 278 333
#     4  10  20  35  57  84 112 143 184 231 277 328
#
# _framework density 19.942689999999999
#
# number of rings (size 3 to 8) (size 9 to 14) (size 15 to 20)
#    0.000    2.250    0.000    2.625    0.000    8.500 
#    0.000    1.250    0.000    0.750    0.000   12.250 
#    0.000    0.000    0.000    0.000    0.000    0.000 
#
# Total GULP energy -396428.327324 kJ/mol
# GULP energy per Si atom -12388.385229 kJ/mol
# Density = 1.989730 g / cm^3
# Si number density = 19.942690 Si / 1000 Ang^3
#
#
#
# Elastic Constant Matrix: (Units=GPa)
#
#
# Indices 1 2 3 4 5 6 
#
# 1 86.3694 33.8517 51.5537 0.0000 0.0000 0.0000
# 2 33.8517 41.6356 33.8953 0.0000 0.0000 0.0000
# 3 51.5537 33.8953 173.6529 0.0000 0.0000 0.0000
# 4 0.0000 0.0000 0.0000 21.7327 0.0000 0.0000
# 5 0.0000 0.0000 0.0000 0.0000 30.3628 0.0000
# 6 0.0000 0.0000 0.0000 0.0000 0.0000 24.9660
#
#
#
# Elastic Compliance Matrix: (Units=1/GPa)
#
#
# Indices 1 2 3 4 5 6 
#
# 1 0.018214 -0.012373 -0.002992 0.000000 0.000000 0.000000
# 2 -0.012373 0.036960 -0.003541 0.000000 0.000000 0.000000
# 3 -0.002992 -0.003541 0.007338 0.000000 0.000000 0.000000
# 4 0.000000 0.000000 0.000000 0.046014 0.000000 0.000000
# 5 0.000000 0.000000 0.000000 0.000000 0.032935 0.000000
# 6 0.000000 0.000000 0.000000 0.000000 0.000000 0.040054
#
#
# Mechanical properties :
#
#
# Convention : Reuss Voigt Hill
#
# Bulk Modulus (GPa) = 40.48561 60.02880 50.25721
# Shear Modulus (GPa) = 21.97223 27.56944 24.77084
#
# Velocity S-wave (km/s) = 3.32289 3.72214 3.52817
# Velocity P-wave (km/s) = 5.92176 6.97413 6.46938
#
# Compressibility (1/GPa) = 0.02470013
#
# Stress axis : x y z
#
# Youngs Moduli (GPa) = 54.90433 27.05615 136.27459
#
# Poissons Ratio (x) = 0.33475 0.40776
# Poissons Ratio (y) = 0.67930 0.48257
# Poissons Ratio (z) = 0.16428 0.09581
#
# Static dielectric constant tensor:
#      x y z
#    x 3.486300 0.000000 0.000000 
#    y 0.000000 3.422300 0.000000 
#    z 0.000000 0.000000 4.459700 
# 
# 
# High freq. dielectric constant tensor:
#      x y z
#    x 1.762900 0.000000 0.000000 
#    y 0.000000 1.742820 0.000000 
#    z 0.000000 0.000000 1.816870 
# 
# From -- ./inp_files/21399.got.cif
#   From: 2010.03.12/outbox.cif.g09.slc.cpg/sg40_11_cif.got.tgz:21399.got - 2010.04.14 01:38:03.
