data_PCOD8183135
_publ_section_title
;
Structure prediction by ZEFSAII (Michael W. Deem and Ramdas Pophale) SiO2 
 PCOD8183135
Probable space group: A M A 2
;
_chemical_formula_sum "Si O2"
_cell_formula_units_Z 56
_cell_length_a 8.869626
_cell_length_b 14.426381
_cell_length_c 22.140470
_cell_angle_alpha 90.000000
_cell_angle_beta 90.000000
_cell_angle_gamma 90.000000
_cell_volume 2833.019352
_symmetry_space_group_name_H-M "A M A 2"
_symmetry_group_IT_number 40
_symmetry_cell_setting 'orthorhombic'
loop_
_space_group_symop_operation_xyz
x,y,z
-x,-y,z
1/2-x,y,z
1/2+x,-y,z
x,1/2+y,1/2+z
-x,1/2-y,1/2+z
1/2-x,1/2+y,1/2+z
1/2+x,1/2-y,1/2+z
loop_
_atom_site_type_symbol
_atom_site_label
_atom_site_fract_x
_atom_site_fract_y
_atom_site_fract_z
Si Si1 0.926845 0.100252 0.800890
Si Si2 0.572643 0.226329 0.689656
Si Si3 0.571078 0.096670 0.148870
Si Si4 0.927068 0.593096 0.084185
Si Si5 0.924581 0.907208 0.021732
Si Si6 0.927364 0.593522 0.947856
Si Si7 0.577298 0.289543 0.405448
O O1 0.750000 0.085105 0.800051
O O2 0.981255 0.160932 0.744193
O O3 0.970124 0.153657 0.861711
O O4 0.000000 0.000000 0.798305
O O5 0.750000 0.246655 0.693271
O O6 0.482667 0.322852 0.694463
O O7 0.526511 0.178414 0.626569
O O8 0.750000 0.088914 0.148830
O O9 0.510562 0.122064 0.082345
O O10 0.500000 0.000000 0.171241
O O11 0.750000 0.578759 0.085816
O O12 0.000000 0.500000 0.110951
O O13 0.986246 0.611109 0.016187
O O14 0.750000 0.926374 0.037617
O O15 0.940849 0.825702 0.973618
O O16 0.000000 0.000000 0.994479
O O17 0.750000 0.580195 0.948421
O O18 0.971980 0.681478 0.906472
O O19 0.000000 0.500000 0.920524
O O20 0.750000 0.301125 0.383975
#
# Coordination Sequence:
#
# PCOD8183135 Si02
#       7
#     8   8   8   8   8   8   8
#     4  11  24  40  60  84 112 145 183 228 275 324
#     4  10  21  38  57  79 110 148 186 225 271 325
#     4  11  22  36  57  84 113 145 181 227 278 331
#     4   9  17  31  53  80 111 142 175 217 268 325
#     4  10  19  33  54  81 113 147 182 225 277 333
#     4   9  18  33  53  79 108 140 176 219 270 323
#     4  10  21  37  57  79 109 149 190 231 277 327
#
# _framework density 19.766895000000002
#
# number of rings (size 3 to 8) (size 9 to 14) (size 15 to 20)
#    0.000    2.000    0.000    4.714    0.000    6.857 
#    0.000    3.571    0.000    1.714    0.000    0.000 
#    0.000    0.000    0.000    0.000    0.000    0.000 
#
# Total GULP energy -347243.013746 kJ/mol
# GULP energy per Si atom -12401.536205 kJ/mol
# Density = 1.972191 g / cm^3
# Si number density = 19.766895 Si / 1000 Ang^3
#
#
#
# Elastic Constant Matrix: (Units=GPa)
#
#
# Indices 1 2 3 4 5 6 
#
# 1 83.2509 61.2818 35.0957 0.0000 0.0000 0.0000
# 2 61.2818 171.3215 57.2068 0.0000 0.0000 0.0000
# 3 35.0957 57.2068 64.1763 0.0000 0.0000 0.0000
# 4 0.0000 0.0000 0.0000 27.1639 0.0000 0.0000
# 5 0.0000 0.0000 0.0000 0.0000 16.5625 0.0000
# 6 0.0000 0.0000 0.0000 0.0000 0.0000 36.5852
#
#
#
# Elastic Compliance Matrix: (Units=1/GPa)
#
#
# Indices 1 2 3 4 5 6 
#
# 1 0.017674 -0.004406 -0.005738 0.000000 0.000000 0.000000
# 2 -0.004406 0.009409 -0.005978 0.000000 0.000000 0.000000
# 3 -0.005738 -0.005978 0.024048 0.000000 0.000000 0.000000
# 4 0.000000 0.000000 0.000000 0.036814 0.000000 0.000000
# 5 0.000000 0.000000 0.000000 0.000000 0.060377 0.000000
# 6 0.000000 0.000000 0.000000 0.000000 0.000000 0.027333
#
#
# Mechanical properties :
#
#
# Convention : Reuss Voigt Hill
#
# Bulk Modulus (GPa) = 52.94238 69.54637 61.24438
# Shear Modulus (GPa) = 23.34321 27.07329 25.20825
#
# Velocity S-wave (km/s) = 3.44019 3.70486 3.57497
# Velocity P-wave (km/s) = 6.52850 7.31854 6.93478
#
# Compressibility (1/GPa) = 0.01888846
#
# Stress axis : x y z
#
# Youngs Moduli (GPa) = 56.57998 106.27991 41.58290
#
# Poissons Ratio (x) = 0.46828 0.23859
# Poissons Ratio (y) = 0.24930 0.24857
# Poissons Ratio (z) = 0.32464 0.63531
#
# Static dielectric constant tensor:
#      x y z
#    x 3.563010 0.000000 0.000000 
#    y 0.000000 3.829350 0.000000 
#    z 0.000000 0.000000 3.456470 
# 
# 
# High freq. dielectric constant tensor:
#      x y z
#    x 1.766310 0.000000 0.000000 
#    y 0.000000 1.786640 0.000000 
#    z 0.000000 0.000000 1.747980 
# 
# From -- ./inp_files/22120.got.cif
#   From: 2010.03.12/outbox.cif.g09.slc.cpg/sg40_12_cif.got.tgz:22120.got - 2010.04.14 01:38:03.
