data_PCOD8183038
_publ_section_title
;
Structure prediction by ZEFSAII (Michael W. Deem and Ramdas Pophale) SiO2 
 PCOD8183038
Probable space group: A M A 2
;
_chemical_formula_sum "Si O2"
_cell_formula_units_Z 64
_cell_length_a 9.279228
_cell_length_b 32.458257
_cell_length_c 11.663607
_cell_angle_alpha 90.000000
_cell_angle_beta 90.000000
_cell_angle_gamma 90.000000
_cell_volume 3512.933417
_symmetry_space_group_name_H-M "A M A 2"
_symmetry_group_IT_number 40
_symmetry_cell_setting 'orthorhombic'
loop_
_space_group_symop_operation_xyz
x,y,z
-x,-y,z
1/2-x,y,z
1/2+x,-y,z
x,1/2+y,1/2+z
-x,1/2-y,1/2+z
1/2-x,1/2+y,1/2+z
1/2+x,1/2-y,1/2+z
loop_
_atom_site_type_symbol
_atom_site_label
_atom_site_fract_x
_atom_site_fract_y
_atom_site_fract_z
Si Si1 0.416347 0.279182 0.681580
Si Si2 0.411187 0.100512 0.119032
Si Si3 0.080713 0.374498 0.075069
Si Si4 0.081234 0.361220 0.812175
Si Si5 0.419331 0.958673 0.954858
Si Si6 0.091840 0.185224 0.991141
Si Si7 0.582502 0.041248 0.690177
Si Si8 0.418374 0.687095 0.238621
O O1 0.250000 0.282692 0.653063
O O2 0.460309 0.314852 0.772275
O O3 0.493023 0.282671 0.558427
O O4 0.458831 0.235189 0.732229
O O5 0.250000 0.081045 0.133194
O O6 0.490033 0.104838 0.241614
O O7 0.513648 0.075905 0.034286
O O8 0.395392 0.145078 0.066517
O O9 0.250000 0.370119 0.095617
O O10 0.029062 0.419995 0.114646
O O11 0.005125 0.339166 0.147462
O O12 0.037459 0.367240 0.943783
O O13 0.250000 0.369980 0.792425
O O14 0.250000 0.963002 0.979211
O O15 0.450370 0.947849 0.822448
O O16 0.500000 0.000000 0.990182
O O17 0.250000 0.205623 0.974714
O O18 0.030940 0.173724 0.865764
O O19 0.750000 0.032292 0.670653
O O20 0.500000 0.000000 0.650963
O O21 0.250000 0.678970 0.216838
#
# Coordination Sequence:
#
# PCOD8183038 Si02
#       8
#     8   8   8   8   8   8   8   8
#     4   9  19  34  51  73 101 136 177 219 264 315
#     4  10  19  33  53  77 103 135 175 217 263 318
#     4  10  21  36  56  81 106 141 186 225 267 326
#     4   9  19  36  55  73 102 145 183 220 265 317
#     4  10  19  32  53  80 110 139 169 216 267 320
#     4   9  19  34  52  73 100 134 171 213 262 315
#     4   9  19  35  55  82 111 140 177 219 269 324
#     4  10  21  34  51  77 107 136 173 221 271 321
#
# _framework density 18.218392999999999
#
# number of rings (size 3 to 8) (size 9 to 14) (size 15 to 20)
#    0.000    2.500    0.000    1.500    1.750    3.000 
#    0.000    0.625    0.000    1.500    0.000    0.000 
#    0.000    0.000    0.000    0.000    0.000    0.000 
#
# Total GULP energy -396754.064856 kJ/mol
# GULP energy per Si atom -12398.564527 kJ/mol
# Density = 1.817693 g / cm^3
# Si number density = 18.218393 Si / 1000 Ang^3
#
#
#
# Elastic Constant Matrix: (Units=GPa)
#
#
# Indices 1 2 3 4 5 6 
#
# 1 72.2080 41.8639 51.5615 0.0000 0.0000 0.0000
# 2 41.8639 82.5153 47.8712 0.0000 0.0000 0.0000
# 3 51.5615 47.8712 130.0897 0.0000 0.0000 0.0000
# 4 0.0000 0.0000 0.0000 21.0479 0.0000 0.0000
# 5 0.0000 0.0000 0.0000 0.0000 29.6131 0.0000
# 6 0.0000 0.0000 0.0000 0.0000 0.0000 30.0260
#
#
#
# Elastic Compliance Matrix: (Units=1/GPa)
#
#
# Indices 1 2 3 4 5 6 
#
# 1 0.022884 -0.008071 -0.006100 0.000000 0.000000 0.000000
# 2 -0.008071 0.018255 -0.003519 0.000000 0.000000 0.000000
# 3 -0.006100 -0.003519 0.011400 0.000000 0.000000 0.000000
# 4 0.000000 0.000000 0.000000 0.047511 0.000000 0.000000
# 5 0.000000 0.000000 0.000000 0.000000 0.033769 0.000000
# 6 0.000000 0.000000 0.000000 0.000000 0.000000 0.033304
#
#
# Mechanical properties :
#
#
# Convention : Reuss Voigt Hill
#
# Bulk Modulus (GPa) = 58.27819 63.04514 60.66166
# Shear Modulus (GPa) = 24.01274 25.70515 24.85895
#
# Velocity S-wave (km/s) = 3.63443 3.76033 3.69792
# Velocity P-wave (km/s) = 7.04771 7.31668 7.18345
#
# Compressibility (1/GPa) = 0.01715908
#
# Stress axis : x y z
#
# Youngs Moduli (GPa) = 43.69812 54.77888 87.72230
#
# Poissons Ratio (x) = 0.44214 0.53512
# Poissons Ratio (y) = 0.35270 0.30866
# Poissons Ratio (z) = 0.26657 0.19274
#
# Static dielectric constant tensor:
#      x y z
#    x 3.601060 0.000000 0.000000 
#    y 0.000000 3.406430 0.000000 
#    z 0.000000 0.000000 3.392690 
# 
# 
# High freq. dielectric constant tensor:
#      x y z
#    x 1.706540 0.000000 0.000000 
#    y 0.000000 1.698850 0.000000 
#    z 0.000000 0.000000 1.706270 
# 
# From -- ./inp_files/10614.got.cif
#   From: 2010.03.12/outbox.cif.g09.slc.cpg/sg40_6_cif.got.tgz:10614.got - 2010.04.14 01:38:03.
