data_PCOD8183154
_publ_section_title
;
Structure prediction by ZEFSAII (Michael W. Deem and Ramdas Pophale) SiO2 
 PCOD8183154
Probable space group: A M A 2
;
_chemical_formula_sum "Si O2"
_cell_formula_units_Z 48
_cell_length_a 9.279059
_cell_length_b 22.863258
_cell_length_c 11.531242
_cell_angle_alpha 90.000000
_cell_angle_beta 90.000000
_cell_angle_gamma 90.000000
_cell_volume 2446.347454
_symmetry_space_group_name_H-M "A M A 2"
_symmetry_group_IT_number 40
_symmetry_cell_setting 'orthorhombic'
loop_
_space_group_symop_operation_xyz
x,y,z
-x,-y,z
1/2-x,y,z
1/2+x,-y,z
x,1/2+y,1/2+z
-x,1/2-y,1/2+z
1/2-x,1/2+y,1/2+z
1/2+x,1/2-y,1/2+z
loop_
_atom_site_type_symbol
_atom_site_label
_atom_site_fract_x
_atom_site_fract_y
_atom_site_fract_z
Si Si1 0.410131 0.140045 0.504110
Si Si2 0.911138 0.445283 0.789141
Si Si3 0.913801 0.720420 0.854178
Si Si4 0.419946 0.860096 0.143960
Si Si5 0.919423 0.938314 0.714110
Si Si6 0.414251 0.650979 0.413092
O O1 0.250000 0.161466 0.539692
O O2 0.403543 0.099593 0.392806
O O3 0.501376 0.196964 0.467795
O O4 0.478200 0.103188 0.610375
O O5 0.750000 0.463028 0.749274
O O6 0.000000 0.500000 0.836501
O O7 0.997905 0.419174 0.680268
O O8 0.750000 0.702830 0.878709
O O9 0.963935 0.691451 0.733223
O O10 0.934015 0.789799 0.838447
O O11 0.250000 0.871522 0.141264
O O12 0.474089 0.843752 0.017204
O O13 0.750000 0.950199 0.696336
O O14 0.951353 0.904924 0.834167
O O15 0.000000 0.000000 0.714183
O O16 0.250000 0.646624 0.459537
#
# Coordination Sequence:
#
# PCOD8183154 Si02
#       6
#     8   8   8   8   8   8
#     4   9  19  35  58  86 114 148 186 234 288 337
#     4  10  19  33  55  83 113 146 185 231 281 333
#     4   9  20  37  58  84 113 146 187 237 290 343
#     4  10  21  37  57  82 110 145 189 233 281 342
#     4  10  22  39  59  83 117 156 194 236 285 341
#     4  10  22  39  57  80 114 153 188 234 291 341
#
# _framework density 19.621088
#
# number of rings (size 3 to 8) (size 9 to 14) (size 15 to 20)
#    0.000    2.333    0.000    1.500    2.333    4.000 
#    0.000    1.667    0.000    0.000    0.000    0.000 
#    0.000    0.000    0.000    0.000    0.000    0.000 
#
# Total GULP energy -297585.596972 kJ/mol
# GULP energy per Si atom -12399.399874 kJ/mol
# Density = 1.957643 g / cm^3
# Si number density = 19.621088 Si / 1000 Ang^3
#
#
#
# Elastic Constant Matrix: (Units=GPa)
#
#
# Indices 1 2 3 4 5 6 
#
# 1 90.7303 33.7006 38.7441 0.0000 0.0000 0.0000
# 2 33.7006 76.4563 25.0353 0.0000 0.0000 0.0000
# 3 38.7441 25.0353 93.3267 0.0000 0.0000 0.0000
# 4 0.0000 0.0000 0.0000 26.6216 0.0000 0.0000
# 5 0.0000 0.0000 0.0000 0.0000 28.0434 0.0000
# 6 0.0000 0.0000 0.0000 0.0000 0.0000 32.4660
#
#
#
# Elastic Compliance Matrix: (Units=1/GPa)
#
#
# Indices 1 2 3 4 5 6 
#
# 1 0.014957 -0.004999 -0.004869 0.000000 0.000000 0.000000
# 2 -0.004999 0.016009 -0.002219 0.000000 0.000000 0.000000
# 3 -0.004869 -0.002219 0.013332 0.000000 0.000000 0.000000
# 4 0.000000 0.000000 0.000000 0.037564 0.000000 0.000000
# 5 0.000000 0.000000 0.000000 0.000000 0.035659 0.000000
# 6 0.000000 0.000000 0.000000 0.000000 0.000000 0.030801
#
#
# Mechanical properties :
#
#
# Convention : Reuss Voigt Hill
#
# Bulk Modulus (GPa) = 49.68946 50.60817 50.14881
# Shear Modulus (GPa) = 27.90113 28.29507 28.09810
#
# Velocity S-wave (km/s) = 3.77503 3.80159 3.78833
# Velocity P-wave (km/s) = 6.66188 6.71700 6.68950
#
# Compressibility (1/GPa) = 0.02012499
#
# Stress axis : x y z
#
# Youngs Moduli (GPa) = 66.85655 62.46300 75.01002
#
# Poissons Ratio (x) = 0.31224 0.36519
# Poissons Ratio (y) = 0.33420 0.16648
# Poissons Ratio (z) = 0.32549 0.13863
#
# Static dielectric constant tensor:
#      x y z
#    x 3.752910 0.000000 0.000000 
#    y 0.000000 3.563170 0.000000 
#    z 0.000000 0.000000 3.456030 
# 
# 
# High freq. dielectric constant tensor:
#      x y z
#    x 1.762060 0.000000 0.000000 
#    y 0.000000 1.764920 0.000000 
#    z 0.000000 0.000000 1.758000 
# 
# From -- ./inp_files/10228.got.cif
#   From: 2010.03.12/outbox.cif.g09.slc.cpg/sg40_6_cif.got.tgz:10228.got - 2010.04.14 01:38:03.
