data_PCOD8183949
_publ_section_title
;
Structure prediction by ZEFSAII (Michael W. Deem and Ramdas Pophale) SiO2 
 PCOD8183949
Probable space group: A M A 2
;
_chemical_formula_sum "Si O2"
_cell_formula_units_Z 64
_cell_length_a 28.166183
_cell_length_b 5.718948
_cell_length_c 18.249877
_cell_angle_alpha 90.000000
_cell_angle_beta 90.000000
_cell_angle_gamma 90.000000
_cell_volume 2939.707268
_symmetry_space_group_name_H-M "A M A 2"
_symmetry_group_IT_number 40
_symmetry_cell_setting 'orthorhombic'
loop_
_space_group_symop_operation_xyz
x,y,z
-x,-y,z
1/2-x,y,z
1/2+x,-y,z
x,1/2+y,1/2+z
-x,1/2-y,1/2+z
1/2-x,1/2+y,1/2+z
1/2+x,1/2-y,1/2+z
loop_
_atom_site_type_symbol
_atom_site_label
_atom_site_fract_x
_atom_site_fract_y
_atom_site_fract_z
Si Si1 0.523418 0.247774 0.778630
Si Si2 0.920940 0.669086 0.151273
Si Si3 0.891048 0.948661 0.513225
Si Si4 0.196941 0.228623 0.996631
Si Si5 0.388619 0.069753 0.351913
Si Si6 0.640951 0.328884 0.242695
Si Si7 0.851005 0.559761 0.607664
Si Si8 0.195025 0.907535 0.858860
O O1 0.500000 0.500000 0.802096
O O2 0.529306 0.245609 0.689510
O O3 0.576927 0.246452 0.811617
O O4 0.500000 0.000000 0.805467
O O5 0.927507 0.582920 0.067581
O O6 0.902093 0.463238 0.204082
O O7 0.884067 0.879534 0.151211
O O8 0.912730 0.969922 0.431907
O O9 0.883123 0.690533 0.546015
O O10 0.838885 0.063284 0.512565
O O11 0.250000 0.330646 0.992470
O O12 0.183616 0.095801 0.921718
O O13 0.193322 0.052829 0.065542
O O14 0.336704 0.176669 0.369729
O O15 0.383262 0.838766 0.303289
O O16 0.680818 0.487016 0.280501
O O17 0.669364 0.211538 0.174881
O O18 0.250000 0.831759 0.859326
#
# Coordination Sequence:
#
# PCOD8183949 Si02
#       8
#     8   8   8   8   8   8   8   8
#     4  12  27  46  79 108 138 184 236 290 363 432
#     4  10  22  43  67  96 128 174 228 278 348 430
#     4  10  22  38  68  91 128 183 222 274 359 402
#     4  10  21  36  56  94 136 175 234 284 335 414
#     4  12  23  43  69  98 140 180 227 296 349 422
#     4  11  20  39  66  90 133 180 225 286 346 407
#     4  10  20  38  63  91 118 181 222 269 351 407
#     4  11  23  37  61  98 136 184 236 284 346 414
#
# _framework density 21.770876000000001
#
# number of rings (size 3 to 8) (size 9 to 14) (size 15 to 20)
#    0.000    1.250    5.000    0.750    1.750    2.000 
#    0.000    9.375    0.000    0.000    0.000    0.000 
#    0.000    0.000    0.000    0.000    0.000    0.000 
#
# Total GULP energy -396520.567701 kJ/mol
# GULP energy per Si atom -12391.267741 kJ/mol
# Density = 2.172132 g / cm^3
# Si number density = 21.770876 Si / 1000 Ang^3
#
#
#
# Elastic Constant Matrix: (Units=GPa)
#
#
# Indices 1 2 3 4 5 6 
#
# 1 50.0001 12.1577 8.1630 0.0000 0.0000 0.0000
# 2 12.1577 85.4237 27.1096 0.0000 0.0000 0.0000
# 3 8.1630 27.1096 133.1862 0.0000 0.0000 0.0000
# 4 0.0000 0.0000 0.0000 42.5013 0.0000 0.0000
# 5 0.0000 0.0000 0.0000 0.0000 22.4818 0.0000
# 6 0.0000 0.0000 0.0000 0.0000 0.0000 22.4777
#
#
#
# Elastic Compliance Matrix: (Units=1/GPa)
#
#
# Indices 1 2 3 4 5 6 
#
# 1 0.020781 -0.002730 -0.000718 0.000000 0.000000 0.000000
# 2 -0.002730 0.012873 -0.002453 0.000000 0.000000 0.000000
# 3 -0.000718 -0.002453 0.008052 0.000000 0.000000 0.000000
# 4 0.000000 0.000000 0.000000 0.023529 0.000000 0.000000
# 5 0.000000 0.000000 0.000000 0.000000 0.044480 0.000000
# 6 0.000000 0.000000 0.000000 0.000000 0.000000 0.044489
#
#
# Mechanical properties :
#
#
# Convention : Reuss Voigt Hill
#
# Bulk Modulus (GPa) = 33.44001 40.38562 36.91281
# Shear Modulus (GPa) = 28.41344 32.23749 30.32547
#
# Velocity S-wave (km/s) = 3.61655 3.85224 3.73626
# Velocity P-wave (km/s) = 5.72997 6.19491 5.96697
#
# Compressibility (1/GPa) = 0.02990430
#
# Stress axis : x y z
#
# Youngs Moduli (GPa) = 48.12109 77.67996 124.19894
#
# Poissons Ratio (x) = 0.21204 0.08918
# Poissons Ratio (y) = 0.13136 0.30466
# Poissons Ratio (z) = 0.03455 0.19055
#
# Static dielectric constant tensor:
#      x y z
#    x 3.561650 0.000000 0.000000 
#    y 0.000000 4.029370 0.000000 
#    z 0.000000 0.000000 4.366820 
# 
# 
# High freq. dielectric constant tensor:
#      x y z
#    x 1.812820 0.000000 0.000000 
#    y 0.000000 1.863640 0.000000 
#    z 0.000000 0.000000 1.876830 
# 
# From -- ./inp_files/21675.got.cif
#   From: 2010.03.12/outbox.cif.g09.slc.cpg/sg40_11_cif.got.tgz:21675.got - 2010.04.14 01:38:03.
