data_PCOD8183363
_publ_section_title
;
Structure prediction by ZEFSAII (Michael W. Deem and Ramdas Pophale) SiO2 
 PCOD8183363
Probable space group: A M A 2
;
_chemical_formula_sum "Si O2"
_cell_formula_units_Z 48
_cell_length_a 17.045595
_cell_length_b 10.315270
_cell_length_c 15.182630
_cell_angle_alpha 90.000000
_cell_angle_beta 90.000000
_cell_angle_gamma 90.000000
_cell_volume 2669.560538
_symmetry_space_group_name_H-M "A M A 2"
_symmetry_group_IT_number 40
_symmetry_cell_setting 'orthorhombic'
loop_
_space_group_symop_operation_xyz
x,y,z
-x,-y,z
1/2-x,y,z
1/2+x,-y,z
x,1/2+y,1/2+z
-x,1/2-y,1/2+z
1/2-x,1/2+y,1/2+z
1/2+x,1/2-y,1/2+z
loop_
_atom_site_type_symbol
_atom_site_label
_atom_site_fract_x
_atom_site_fract_y
_atom_site_fract_z
Si Si1 0.339717 0.728219 0.435850
Si Si2 0.555291 0.877987 0.280837
Si Si3 0.842002 0.264402 0.636152
Si Si4 0.449264 0.127471 0.792275
Si Si5 0.590136 0.485341 0.117908
Si Si6 0.340839 0.529011 0.935021
O O1 0.250000 0.702895 0.412581
O O2 0.357893 0.690123 0.536366
O O3 0.388943 0.636638 0.372287
O O4 0.360992 0.878345 0.420509
O O5 0.614829 0.866707 0.199007
O O6 0.503718 0.751486 0.290571
O O7 0.605783 0.888930 0.369651
O O8 0.500000 0.000000 0.263684
O O9 0.750000 0.262519 0.657681
O O10 0.876104 0.121501 0.652162
O O11 0.403386 0.115842 0.698995
O O12 0.500000 0.000000 0.807617
O O13 0.500000 0.500000 0.087797
O O14 0.639465 0.431150 0.035533
O O15 0.250000 0.559330 0.917003
#
# Coordination Sequence:
#
# PCOD8183363 Si02
#       6
#     8   8   8   8   8   8
#     4   9  20  38  60  84 116 156 192 238 296 351
#     4  12  22  37  62  88 119 154 194 246 292 343
#     4  10  21  39  61  86 119 158 197 239 297 357
#     4  11  22  38  58  89 118 149 194 240 291 346
#     4  10  19  36  60  87 116 153 200 239 285 353
#     4  10  21  37  60  87 116 155 200 241 289 351
#
# _framework density 17.980487
#
# number of rings (size 3 to 8) (size 9 to 14) (size 15 to 20)
#    0.000    1.667    5.000    2.500    2.333    2.000 
#    0.000    0.000    0.000    2.000    0.000    0.000 
#    0.000    0.000    0.000    0.000    0.000    0.000 
#
# Total GULP energy -297642.276084 kJ/mol
# GULP energy per Si atom -12401.761503 kJ/mol
# Density = 1.793956 g / cm^3
# Si number density = 17.980487 Si / 1000 Ang^3
#
#
#
# Elastic Constant Matrix: (Units=GPa)
#
#
# Indices 1 2 3 4 5 6 
#
# 1 106.0642 59.5087 69.6082 0.0000 0.0000 0.0000
# 2 59.5087 98.4533 63.8245 0.0000 0.0000 0.0000
# 3 69.6082 63.8245 139.4275 0.0000 0.0000 0.0000
# 4 0.0000 0.0000 0.0000 34.4139 0.0000 0.0000
# 5 0.0000 0.0000 0.0000 0.0000 42.6310 0.0000
# 6 0.0000 0.0000 0.0000 0.0000 0.0000 31.3143
#
#
#
# Elastic Compliance Matrix: (Units=1/GPa)
#
#
# Indices 1 2 3 4 5 6 
#
# 1 0.016591 -0.006624 -0.005250 0.000000 0.000000 0.000000
# 2 -0.006624 0.017088 -0.004515 0.000000 0.000000 0.000000
# 3 -0.005250 -0.004515 0.011860 0.000000 0.000000 0.000000
# 4 0.000000 0.000000 0.000000 0.029058 0.000000 0.000000
# 5 0.000000 0.000000 0.000000 0.000000 0.023457 0.000000
# 6 0.000000 0.000000 0.000000 0.000000 0.000000 0.031934
#
#
# Mechanical properties :
#
#
# Convention : Reuss Voigt Hill
#
# Bulk Modulus (GPa) = 78.37402 81.09197 79.73300
# Shear Modulus (GPa) = 29.93630 31.73874 30.83752
#
# Velocity S-wave (km/s) = 4.08479 4.20596 4.14581
# Velocity P-wave (km/s) = 8.11975 8.29365 8.20716
#
# Compressibility (1/GPa) = 0.01275933
#
# Stress axis : x y z
#
# Youngs Moduli (GPa) = 60.27483 58.52031 84.31502
#
# Poissons Ratio (x) = 0.38766 0.44269
# Poissons Ratio (y) = 0.39928 0.38069
# Poissons Ratio (z) = 0.31647 0.26423
#
# Static dielectric constant tensor:
#      x y z
#    x 3.452430 0.000000 0.000000 
#    y 0.000000 2.986840 0.000000 
#    z 0.000000 0.000000 3.489750 
# 
# 
# High freq. dielectric constant tensor:
#      x y z
#    x 1.710320 0.000000 0.000000 
#    y 0.000000 1.672010 0.000000 
#    z 0.000000 0.000000 1.707810 
# 
# From -- ./inp_files/16992.got.cif
#   From: 2010.03.12/outbox.cif.g09.slc.cpg/sg40_9_cif.got.tgz:16992.got - 2010.04.14 01:38:03.
