data_PCOD8183231
_publ_section_title
;
Structure prediction by ZEFSAII (Michael W. Deem and Ramdas Pophale) SiO2 
 PCOD8183231
Probable space group: A M A 2
;
_chemical_formula_sum "Si O2"
_cell_formula_units_Z 64
_cell_length_a 9.066652
_cell_length_b 24.430102
_cell_length_c 15.215789
_cell_angle_alpha 90.000000
_cell_angle_beta 90.000000
_cell_angle_gamma 90.000000
_cell_volume 3370.285595
_symmetry_space_group_name_H-M "A M A 2"
_symmetry_group_IT_number 40
_symmetry_cell_setting 'orthorhombic'
loop_
_space_group_symop_operation_xyz
x,y,z
-x,-y,z
1/2-x,y,z
1/2+x,-y,z
x,1/2+y,1/2+z
-x,1/2-y,1/2+z
1/2-x,1/2+y,1/2+z
1/2+x,1/2-y,1/2+z
loop_
_atom_site_type_symbol
_atom_site_label
_atom_site_fract_x
_atom_site_fract_y
_atom_site_fract_z
Si Si1 0.080567 0.103714 0.814240
Si Si2 0.919555 0.853966 0.141911
Si Si3 0.919657 0.360029 0.022894
Si Si4 0.423302 0.057413 0.003798
Si Si5 0.418720 0.170330 0.331752
Si Si6 0.079545 0.265478 0.545481
Si Si7 0.420170 0.223021 0.867219
Si Si8 0.575156 0.056838 0.647736
O O1 0.250000 0.087604 0.794057
O O2 0.032782 0.083202 0.910409
O O3 0.060313 0.169149 0.807225
O O4 0.975625 0.074934 0.744333
O O5 0.750000 0.842840 0.117444
O O6 0.937497 0.868028 0.245829
O O7 0.009080 0.798068 0.126400
O O8 0.980982 0.903265 0.082212
O O9 0.750000 0.378186 0.037356
O O10 0.945189 0.298981 0.059266
O O11 0.028089 0.399397 0.074867
O O12 0.964704 0.362571 0.919592
O O13 0.250000 0.048659 0.011137
O O14 0.500000 0.000000 0.017543
O O15 0.250000 0.189902 0.344312
O O16 0.514756 0.224744 0.317112
O O17 0.250000 0.280020 0.538710
O O18 0.002455 0.287497 0.458130
O O19 0.250000 0.233655 0.888476
O O20 0.750000 0.050272 0.647270
O O21 0.500000 0.000000 0.621804
#
# Coordination Sequence:
#
# PCOD8183231 Si02
#       8
#     8   8   8   8   8   8   8   8
#     4  10  21  38  58  84 119 156 191 235 292 347
#     4  10  20  37  58  84 120 157 194 236 290 347
#     4   9  20  40  60  83 117 152 191 242 295 344
#     4  10  21  38  58  82 114 155 194 234 284 338
#     4   9  20  37  59  86 119 156 193 239 290 347
#     4  10  20  34  56  86 119 154 193 235 284 341
#     4  10  19  34  56  83 119 156 190 233 286 343
#     4  12  26  42  62  86 112 150 198 248 297 351
#
# _framework density 18.989488999999999
#
# number of rings (size 3 to 8) (size 9 to 14) (size 15 to 20)
#    0.000    2.000    1.250    3.000    1.750    6.000 
#    0.000    0.625    0.000    1.500    0.000    0.000 
#    0.000    0.000    0.000    0.000    0.000    0.000 
#
# Total GULP energy -396838.833312 kJ/mol
# GULP energy per Si atom -12401.213541 kJ/mol
# Density = 1.894627 g / cm^3
# Si number density = 18.989489 Si / 1000 Ang^3
#
#
#
# Elastic Constant Matrix: (Units=GPa)
#
#
# Indices 1 2 3 4 5 6 
#
# 1 102.8629 56.7054 48.1937 0.0000 0.0000 0.0000
# 2 56.7054 103.0754 62.5242 0.0000 0.0000 0.0000
# 3 48.1937 62.5242 126.0058 0.0000 0.0000 0.0000
# 4 0.0000 0.0000 0.0000 25.4013 0.0000 0.0000
# 5 0.0000 0.0000 0.0000 0.0000 25.9924 0.0000
# 6 0.0000 0.0000 0.0000 0.0000 0.0000 33.8128
#
#
#
# Elastic Compliance Matrix: (Units=1/GPa)
#
#
# Indices 1 2 3 4 5 6 
#
# 1 0.014387 -0.006548 -0.002254 0.000000 0.000000 0.000000
# 2 -0.006548 0.016859 -0.005861 0.000000 0.000000 0.000000
# 3 -0.002254 -0.005861 0.011706 0.000000 0.000000 0.000000
# 4 0.000000 0.000000 0.000000 0.039368 0.000000 0.000000
# 5 0.000000 0.000000 0.000000 0.000000 0.038473 0.000000
# 6 0.000000 0.000000 0.000000 0.000000 0.000000 0.029575
#
#
# Mechanical properties :
#
#
# Convention : Reuss Voigt Hill
#
# Bulk Modulus (GPa) = 73.38140 74.08786 73.73463
# Shear Modulus (GPa) = 27.13911 28.00937 27.57424
#
# Velocity S-wave (km/s) = 3.78453 3.84473 3.81475
# Velocity P-wave (km/s) = 7.60421 7.66871 7.63653
#
# Compressibility (1/GPa) = 0.01362743
#
# Stress axis : x y z
#
# Youngs Moduli (GPa) = 69.50610 59.31494 85.42338
#
# Poissons Ratio (x) = 0.38839 0.19251
# Poissons Ratio (y) = 0.45512 0.50068
# Poissons Ratio (z) = 0.15664 0.34765
#
# Static dielectric constant tensor:
#      x y z
#    x 3.466140 0.000000 0.000000 
#    y 0.000000 3.407030 0.000000 
#    z 0.000000 0.000000 3.555510 
# 
# 
# High freq. dielectric constant tensor:
#      x y z
#    x 1.737160 0.000000 0.000000 
#    y 0.000000 1.725760 0.000000 
#    z 0.000000 0.000000 1.742730 
# 
# From -- ./inp_files/15558.got.cif
#   From: 2010.03.12/outbox.cif.g09.slc.cpg/sg40_8_cif.got.tgz:15558.got - 2010.04.14 01:38:03.
