data_PCOD8183181
_publ_section_title
;
Structure prediction by ZEFSAII (Michael W. Deem and Ramdas Pophale) SiO2 
 PCOD8183181
Probable space group: A M A 2
;
_chemical_formula_sum "Si O2"
_cell_formula_units_Z 64
_cell_length_a 14.455364
_cell_length_b 21.728374
_cell_length_c 10.950945
_cell_angle_alpha 90.000000
_cell_angle_beta 90.000000
_cell_angle_gamma 90.000000
_cell_volume 3439.599347
_symmetry_space_group_name_H-M "A M A 2"
_symmetry_group_IT_number 40
_symmetry_cell_setting 'orthorhombic'
loop_
_space_group_symop_operation_xyz
x,y,z
-x,-y,z
1/2-x,y,z
1/2+x,-y,z
x,1/2+y,1/2+z
-x,1/2-y,1/2+z
1/2-x,1/2+y,1/2+z
1/2+x,1/2-y,1/2+z
loop_
_atom_site_type_symbol
_atom_site_label
_atom_site_fract_x
_atom_site_fract_y
_atom_site_fract_z
Si Si1 0.352356 0.728925 0.986590
Si Si2 0.507067 0.170229 0.058385
Si Si3 0.647488 0.016861 0.913987
Si Si4 0.645688 0.403913 0.104106
Si Si5 0.971531 0.411275 0.340976
Si Si6 0.641973 0.333017 0.741495
Si Si7 0.577442 0.046046 0.155396
Si Si8 0.858363 0.460958 0.855840
O O1 0.250000 0.759027 0.993793
O O2 0.379895 0.717063 0.846143
O O3 0.423161 0.772966 0.055523
O O4 0.349784 0.663262 0.049273
O O5 0.411583 0.190651 0.121756
O O6 0.548690 0.117220 0.146996
O O7 0.486187 0.150685 0.918968
O O8 0.750000 0.022400 0.854454
O O9 0.572489 0.056286 0.836292
O O10 0.609915 0.947452 0.910981
O O11 0.658632 0.037897 0.055254
O O12 0.750000 0.420805 0.152316
O O13 0.565458 0.401927 0.204660
O O14 0.614777 0.452952 0.998650
O O15 0.750000 0.334964 0.711128
O O16 0.606767 0.401590 0.779657
O O17 0.500000 0.000000 0.101575
O O18 0.600889 0.023609 0.294029
O O19 0.750000 0.465014 0.845378
#
# Coordination Sequence:
#
# PCOD8183181 Si02
#       8
#     8   8   8   8   8   8   8   8
#     4   9  21  38  55  76 108 147 188 231 284 339
#     4  11  21  32  57  83 112 142 185 236 290 331
#     4  10  19  34  52  77 117 145 173 226 278 336
#     4   9  19  37  57  79 110 150 193 231 275 337
#     4  10  20  34  52  86 110 143 192 222 278 336
#     4   9  18  35  55  78 104 139 186 230 271 325
#     4  11  18  33  49  85 114 136 181 227 290 335
#     4   9  17  32  56  80 107 145 182 225 278 332
#
# _framework density 18.606819000000002
#
# number of rings (size 3 to 8) (size 9 to 14) (size 15 to 20)
#    0.000    2.250    3.750    2.250    1.750    4.500 
#    2.250    0.000    0.000    0.000    0.000    2.625 
#    0.000    0.000    0.000    0.000    0.000    0.000 
#
# Total GULP energy -396424.017920 kJ/mol
# GULP energy per Si atom -12388.250560 kJ/mol
# Density = 1.856447 g / cm^3
# Si number density = 18.606819 Si / 1000 Ang^3
#
#
#
# Elastic Constant Matrix: (Units=GPa)
#
#
# Indices 1 2 3 4 5 6 
#
# 1 90.5439 20.1806 45.5823 0.0000 0.0000 0.0000
# 2 20.1806 53.7857 26.4727 0.0000 0.0000 0.0000
# 3 45.5823 26.4727 103.7701 0.0000 0.0000 0.0000
# 4 0.0000 0.0000 0.0000 18.7497 0.0000 0.0000
# 5 0.0000 0.0000 0.0000 0.0000 27.6101 0.0000
# 6 0.0000 0.0000 0.0000 0.0000 0.0000 18.8728
#
#
#
# Elastic Compliance Matrix: (Units=1/GPa)
#
#
# Indices 1 2 3 4 5 6 
#
# 1 0.014500 -0.002637 -0.005697 0.000000 0.000000 0.000000
# 2 -0.002637 0.021741 -0.004388 0.000000 0.000000 0.000000
# 3 -0.005697 -0.004388 0.013259 0.000000 0.000000 0.000000
# 4 0.000000 0.000000 0.000000 0.053334 0.000000 0.000000
# 5 0.000000 0.000000 0.000000 0.000000 0.036219 0.000000
# 6 0.000000 0.000000 0.000000 0.000000 0.000000 0.052986
#
#
# Mechanical properties :
#
#
# Convention : Reuss Voigt Hill
#
# Bulk Modulus (GPa) = 41.56832 48.06343 44.81587
# Shear Modulus (GPa) = 22.17285 23.43744 22.80515
#
# Velocity S-wave (km/s) = 3.45578 3.55296 3.50470
# Velocity P-wave (km/s) = 6.18967 6.53594 6.36516
#
# Compressibility (1/GPa) = 0.02405678
#
# Stress axis : x y z
#
# Youngs Moduli (GPa) = 68.96618 45.99519 75.42329
#
# Poissons Ratio (x) = 0.12127 0.42966
# Poissons Ratio (y) = 0.18183 0.33098
# Poissons Ratio (z) = 0.39288 0.20184
#
# Static dielectric constant tensor:
#      x y z
#    x 3.489170 0.000000 0.000000 
#    y 0.000000 3.182670 0.000000 
#    z 0.000000 0.000000 3.483070 
# 
# 
# High freq. dielectric constant tensor:
#      x y z
#    x 1.725460 0.000000 0.000000 
#    y 0.000000 1.692660 0.000000 
#    z 0.000000 0.000000 1.712810 
# 
# From -- ./inp_files/6883.got.cif
#   From: 2010.03.12/outbox.cif.g09.slc.cpg/sg40_4_cif.got.tgz:6883.got - 2010.04.14 01:38:03.
