data_PCOD8183640
_publ_section_title
;
Structure prediction by ZEFSAII (Michael W. Deem and Ramdas Pophale) SiO2 
 PCOD8183640
Probable space group: A M A 2
;
_chemical_formula_sum "Si O2"
_cell_formula_units_Z 64
_cell_length_a 8.418861
_cell_length_b 20.215077
_cell_length_c 19.866667
_cell_angle_alpha 90.000000
_cell_angle_beta 90.000000
_cell_angle_gamma 90.000000
_cell_volume 3381.066801
_symmetry_space_group_name_H-M "A M A 2"
_symmetry_group_IT_number 40
_symmetry_cell_setting 'orthorhombic'
loop_
_space_group_symop_operation_xyz
x,y,z
-x,-y,z
1/2-x,y,z
1/2+x,-y,z
x,1/2+y,1/2+z
-x,1/2-y,1/2+z
1/2-x,1/2+y,1/2+z
1/2+x,1/2-y,1/2+z
loop_
_atom_site_type_symbol
_atom_site_label
_atom_site_fract_x
_atom_site_fract_y
_atom_site_fract_z
Si Si1 0.438637 0.569845 0.331050
Si Si2 0.936331 0.316093 0.081534
Si Si3 0.063648 0.572269 0.833046
Si Si4 0.437662 0.569737 0.179559
Si Si5 0.564615 0.570127 0.687653
Si Si6 0.937558 0.322798 0.432802
Si Si7 0.063616 0.324709 0.938343
Si Si8 0.935523 0.827169 0.084205
O O1 0.500000 0.500000 0.359063
O O2 0.250000 0.570809 0.332973
O O3 0.501967 0.581675 0.255315
O O4 0.512609 0.626787 0.378774
O O5 0.750000 0.303078 0.090226
O O6 0.000908 0.371361 0.132886
O O7 0.030083 0.249402 0.099747
O O8 0.972212 0.342860 0.006795
O O9 0.250000 0.575793 0.845887
O O10 0.000000 0.500000 0.851848
O O11 0.025415 0.590038 0.755989
O O12 0.976370 0.624440 0.880089
O O13 0.500000 0.500000 0.151091
O O14 0.250000 0.567797 0.178444
O O15 0.500000 0.500000 0.660178
O O16 0.750000 0.563431 0.703890
O O17 0.536833 0.626287 0.632645
O O18 0.750000 0.327216 0.428987
O O19 0.992554 0.248406 0.414949
O O20 0.992075 0.342506 0.508056
O O21 0.250000 0.325167 0.954103
O O22 0.750000 0.841577 0.094893
#
# Coordination Sequence:
#
# PCOD8183640 Si02
#       8
#     8   8   8   8   8   8   8   8
#     4   9  17  33  52  74 101 133 170 211 255 306
#     4  10  20  35  53  78 108 143 184 227 271 321
#     4  11  22  38  58  82 110 141 177 222 270 326
#     4   9  19  33  52  75 103 136 174 217 265 316
#     4  11  22  38  58  81 109 143 180 223 271 326
#     4   8  17  33  54  76 105 141 177 214 260 315
#     4  10  20  36  56  79 106 142 180 221 271 322
#     4  10  20  36  55  79 109 143 180 223 272 324
#
# _framework density 18.928936
#
# number of rings (size 3 to 8) (size 9 to 14) (size 15 to 20)
#    0.000    2.250    0.000    4.875    0.000    3.000 
#    0.000    8.750    0.000    0.000    0.000    0.000 
#    0.000    0.000    0.000    0.000    0.000    0.000 
#
# Total GULP energy -396841.770164 kJ/mol
# GULP energy per Si atom -12401.305318 kJ/mol
# Density = 1.888585 g / cm^3
# Si number density = 18.928936 Si / 1000 Ang^3
#
#
#
# Elastic Constant Matrix: (Units=GPa)
#
#
# Indices 1 2 3 4 5 6 
#
# 1 41.6953 10.2176 4.7632 0.0000 0.0000 0.0000
# 2 10.2176 132.5052 89.6862 0.0000 0.0000 0.0000
# 3 4.7632 89.6862 102.9400 0.0000 0.0000 0.0000
# 4 0.0000 0.0000 0.0000 46.4865 0.0000 0.0000
# 5 0.0000 0.0000 0.0000 0.0000 23.0772 0.0000
# 6 0.0000 0.0000 0.0000 0.0000 0.0000 30.9701
#
#
#
# Elastic Compliance Matrix: (Units=1/GPa)
#
#
# Indices 1 2 3 4 5 6 
#
# 1 0.024511 -0.002736 0.001249 0.000000 0.000000 0.000000
# 2 -0.002736 0.018699 -0.016165 0.000000 0.000000 0.000000
# 3 0.001249 -0.016165 0.023740 0.000000 0.000000 0.000000
# 4 0.000000 0.000000 0.000000 0.021512 0.000000 0.000000
# 5 0.000000 0.000000 0.000000 0.000000 0.043333 0.000000
# 6 0.000000 0.000000 0.000000 0.000000 0.000000 0.032289
#
#
# Mechanical properties :
#
#
# Convention : Reuss Voigt Hill
#
# Bulk Modulus (GPa) = 31.59769 54.05272 42.82521
# Shear Modulus (GPa) = 23.81677 31.60499 27.71088
#
# Velocity S-wave (km/s) = 3.55099 4.09059 3.83030
# Velocity P-wave (km/s) = 5.79152 7.13639 6.49884
#
# Compressibility (1/GPa) = 0.03164788
#
# Stress axis : x y z
#
# Youngs Moduli (GPa) = 40.79767 53.47860 42.12257
#
# Poissons Ratio (x) = 0.14630 -0.05262
# Poissons Ratio (y) = 0.11161 0.68091
# Poissons Ratio (z) = -0.05097 0.86448
#
# Static dielectric constant tensor:
#      x y z
#    x 3.350850 0.000000 0.000000 
#    y 0.000000 3.375400 0.000000 
#    z 0.000000 0.000000 3.620850 
# 
# 
# High freq. dielectric constant tensor:
#      x y z
#    x 1.731170 0.000000 0.000000 
#    y 0.000000 1.740950 0.000000 
#    z 0.000000 0.000000 1.734960 
# 
# From -- ./inp_files/19644.got.cif
#   From: 2010.03.12/outbox.cif.g09.slc.cpg/sg40_10_cif.got.tgz:19644.got - 2010.04.14 01:38:03.
