data_PCOD8183466
_publ_section_title
;
Structure prediction by ZEFSAII (Michael W. Deem and Ramdas Pophale) SiO2 
 PCOD8183466
Probable space group: A M A 2
;
_chemical_formula_sum "Si O2"
_cell_formula_units_Z 48
_cell_length_a 8.728523
_cell_length_b 23.690944
_cell_length_c 13.522665
_cell_angle_alpha 90.000000
_cell_angle_beta 90.000000
_cell_angle_gamma 90.000000
_cell_volume 2796.310646
_symmetry_space_group_name_H-M "A M A 2"
_symmetry_group_IT_number 40
_symmetry_cell_setting 'orthorhombic'
loop_
_space_group_symop_operation_xyz
x,y,z
-x,-y,z
1/2-x,y,z
1/2+x,-y,z
x,1/2+y,1/2+z
-x,1/2-y,1/2+z
1/2-x,1/2+y,1/2+z
1/2+x,1/2-y,1/2+z
loop_
_atom_site_type_symbol
_atom_site_label
_atom_site_fract_x
_atom_site_fract_y
_atom_site_fract_z
Si Si1 0.927998 0.228306 0.048250
Si Si2 0.430874 0.832262 0.439229
Si Si3 0.071776 0.557879 0.257945
Si Si4 0.925159 0.663096 0.351502
Si Si5 0.432032 0.559431 0.032588
Si Si6 0.570409 0.279030 0.754241
O O1 0.750000 0.234983 0.074912
O O2 0.021552 0.207230 0.142993
O O3 0.954538 0.181553 0.964188
O O4 0.988199 0.288736 0.013160
O O5 0.250000 0.827471 0.453003
O O6 0.488838 0.894317 0.464285
O O7 0.476748 0.820084 0.326258
O O8 0.250000 0.548770 0.261698
O O9 0.000000 0.500000 0.298424
O O10 0.028082 0.609280 0.328895
O O11 0.017897 0.570678 0.146056
O O12 0.750000 0.645907 0.334203
O O13 0.971319 0.714217 0.278885
O O14 0.500000 0.500000 0.996815
O O15 0.250000 0.560586 0.018799
O O16 0.750000 0.289979 0.770700
#
# Coordination Sequence:
#
# PCOD8183466 Si02
#       6
#     8   8   8   8   8   8
#     4  10  20  34  51  74 103 134 167 207 251 298
#     4  11  21  33  51  75 103 136 169 205 249 298
#     4  10  20  32  50  73  99 130 164 202 245 292
#     4   9  19  33  49  71 101 131 162 201 245 291
#     4  10  20  34  51  74 102 132 167 208 251 299
#     4  10  20  34  52  75 102 133 167 207 251 298
#
# _framework density 17.165475000000001
#
# number of rings (size 3 to 8) (size 9 to 14) (size 15 to 20)
#    0.000    2.000    0.000    5.500    0.000    8.667 
#    0.000    0.000    0.000    1.000    0.000    2.333 
#    0.000    0.000    0.000    0.000    0.000    0.000 
#
# Total GULP energy -297704.131766 kJ/mol
# GULP energy per Si atom -12404.338824 kJ/mol
# Density = 1.712641 g / cm^3
# Si number density = 17.165475 Si / 1000 Ang^3
#
#
#
# Elastic Constant Matrix: (Units=GPa)
#
#
# Indices 1 2 3 4 5 6 
#
# 1 62.4220 35.2358 18.3713 0.0000 0.0000 0.0000
# 2 35.2358 113.2824 40.0009 0.0000 0.0000 0.0000
# 3 18.3713 40.0009 81.1932 0.0000 0.0000 0.0000
# 4 0.0000 0.0000 0.0000 18.4564 0.0000 0.0000
# 5 0.0000 0.0000 0.0000 0.0000 30.6315 0.0000
# 6 0.0000 0.0000 0.0000 0.0000 0.0000 32.8885
#
#
#
# Elastic Compliance Matrix: (Units=1/GPa)
#
#
# Indices 1 2 3 4 5 6 
#
# 1 0.019632 -0.005493 -0.001736 0.000000 0.000000 0.000000
# 2 -0.005493 0.012224 -0.004779 0.000000 0.000000 0.000000
# 3 -0.001736 -0.004779 0.015064 0.000000 0.000000 0.000000
# 4 0.000000 0.000000 0.000000 0.054182 0.000000 0.000000
# 5 0.000000 0.000000 0.000000 0.000000 0.032646 0.000000
# 6 0.000000 0.000000 0.000000 0.000000 0.000000 0.030406
#
#
# Mechanical properties :
#
#
# Convention : Reuss Voigt Hill
#
# Bulk Modulus (GPa) = 43.66332 49.34597 46.50464
# Shear Modulus (GPa) = 25.53581 27.28125 26.40853
#
# Velocity S-wave (km/s) = 3.86116 3.99094 3.92659
# Velocity P-wave (km/s) = 6.73573 7.07435 6.90711
#
# Compressibility (1/GPa) = 0.02290252
#
# Stress axis : x y z
#
# Youngs Moduli (GPa) = 50.93794 81.80771 66.38546
#
# Poissons Ratio (x) = 0.44941 0.11522
# Poissons Ratio (y) = 0.27983 0.31727
# Poissons Ratio (z) = 0.08841 0.39098
#
# Static dielectric constant tensor:
#      x y z
#    x 3.290020 0.000000 0.000000 
#    y 0.000000 3.089560 0.000000 
#    z 0.000000 0.000000 3.170990 
# 
# 
# High freq. dielectric constant tensor:
#      x y z
#    x 1.678830 0.000000 0.000000 
#    y 0.000000 1.652860 0.000000 
#    z 0.000000 0.000000 1.651410 
# 
# From -- ./inp_files/10240.got.cif
#   From: 2010.03.12/outbox.cif.g09.slc.cpg/sg40_6_cif.got.tgz:10240.got - 2010.04.14 01:38:03.
