data_PCOD8183660
_publ_section_title
;
Structure prediction by ZEFSAII (Michael W. Deem and Ramdas Pophale) SiO2 
 PCOD8183660
Probable space group: A M A 2
;
_chemical_formula_sum "Si O2"
_cell_formula_units_Z 64
_cell_length_a 8.744686
_cell_length_b 33.460759
_cell_length_c 11.451086
_cell_angle_alpha 90.000000
_cell_angle_beta 90.000000
_cell_angle_gamma 90.000000
_cell_volume 3350.631630
_symmetry_space_group_name_H-M "A M A 2"
_symmetry_group_IT_number 40
_symmetry_cell_setting 'orthorhombic'
loop_
_space_group_symop_operation_xyz
x,y,z
-x,-y,z
1/2-x,y,z
1/2+x,-y,z
x,1/2+y,1/2+z
-x,1/2-y,1/2+z
1/2-x,1/2+y,1/2+z
1/2+x,1/2-y,1/2+z
loop_
_atom_site_type_symbol
_atom_site_label
_atom_site_fract_x
_atom_site_fract_y
_atom_site_fract_z
Si Si1 0.070265 0.621226 0.512450
Si Si2 0.922693 0.613226 0.039741
Si Si3 0.572909 0.276847 0.141306
Si Si4 0.572541 0.687213 0.676150
Si Si5 0.931703 0.543154 0.621779
Si Si6 0.578186 0.819901 0.412472
Si Si7 0.924573 0.650540 0.276880
Si Si8 0.925455 0.040097 0.383530
O O1 0.250000 0.615051 0.519720
O O2 0.021845 0.655000 0.604084
O O3 0.992544 0.578575 0.539114
O O4 0.026659 0.636796 0.384495
O O5 0.750000 0.626651 0.003276
O O6 0.959158 0.569987 0.988937
O O7 0.054827 0.640258 0.986438
O O8 0.937387 0.615433 0.179887
O O9 0.750000 0.280763 0.177974
O O10 0.511118 0.231948 0.155222
O O11 0.478098 0.307066 0.222853
O O12 0.550098 0.284023 0.003194
O O13 0.750000 0.682567 0.643775
O O14 0.548203 0.679699 0.812636
O O15 0.750000 0.541491 0.608282
O O16 0.985908 0.553526 0.754981
O O17 0.000000 0.500000 0.584081
O O18 0.750000 0.818776 0.360913
O O19 0.750000 0.656093 0.318843
O O20 0.750000 0.031320 0.365619
O O21 0.000000 0.000000 0.428424
#
# Coordination Sequence:
#
# PCOD8183660 Si02
#       8
#     8   8   8   8   8   8   8   8
#     4  12  25  40  59  86 117 154 202 249 297 356
#     4   9  18  35  57  80 108 147 187 227 278 343
#     4   9  21  39  57  81 113 148 188 237 290 346
#     4  11  23  38  57  83 114 150 190 238 293 349
#     4  10  20  37  61  89 122 157 193 241 298 355
#     4  10  20  35  55  81 109 141 183 232 281 336
#     4  10  21  38  60  82 112 154 197 241 292 349
#     4   9  18  32  54  84 115 143 178 225 280 340
#
# _framework density 19.100876
#
# number of rings (size 3 to 8) (size 9 to 14) (size 15 to 20)
#    0.000    2.000    0.000    3.375    1.750    4.000 
#    0.000    0.625    0.000    1.500    0.000    0.000 
#    0.000    0.000    0.000    0.000    0.000    0.000 
#
# Total GULP energy -396714.257720 kJ/mol
# GULP energy per Si atom -12397.320554 kJ/mol
# Density = 1.905740 g / cm^3
# Si number density = 19.100876 Si / 1000 Ang^3
#
#
#
# Elastic Constant Matrix: (Units=GPa)
#
#
# Indices 1 2 3 4 5 6 
#
# 1 71.8885 40.2573 30.8395 0.0000 0.0000 0.0000
# 2 40.2573 114.0713 50.3647 0.0000 0.0000 0.0000
# 3 30.8395 50.3647 93.2294 0.0000 0.0000 0.0000
# 4 0.0000 0.0000 0.0000 17.3486 0.0000 0.0000
# 5 0.0000 0.0000 0.0000 0.0000 28.2598 0.0000
# 6 0.0000 0.0000 0.0000 0.0000 0.0000 31.4591
#
#
#
# Elastic Compliance Matrix: (Units=1/GPa)
#
#
# Indices 1 2 3 4 5 6 
#
# 1 0.018091 -0.004915 -0.003329 0.000000 0.000000 0.000000
# 2 -0.004915 0.012847 -0.005315 0.000000 0.000000 0.000000
# 3 -0.003329 -0.005315 0.014699 0.000000 0.000000 0.000000
# 4 0.000000 0.000000 0.000000 0.057642 0.000000 0.000000
# 5 0.000000 0.000000 0.000000 0.000000 0.035386 0.000000
# 6 0.000000 0.000000 0.000000 0.000000 0.000000 0.031787
#
#
# Mechanical properties :
#
#
# Convention : Reuss Voigt Hill
#
# Bulk Modulus (GPa) = 53.99675 58.01246 56.00461
# Shear Modulus (GPa) = 24.54080 25.92868 25.23474
#
# Velocity S-wave (km/s) = 3.58830 3.68837 3.63868
# Velocity P-wave (km/s) = 6.74526 6.96967 6.85838
#
# Compressibility (1/GPa) = 0.01851963
#
# Stress axis : x y z
#
# Youngs Moduli (GPa) = 55.27671 77.83656 68.03306
#
# Poissons Ratio (x) = 0.38253 0.22651
# Poissons Ratio (y) = 0.27166 0.36158
# Poissons Ratio (z) = 0.18404 0.41369
#
# Static dielectric constant tensor:
#      x y z
#    x 3.524930 0.000000 0.000000 
#    y 0.000000 3.507840 0.000000 
#    z 0.000000 0.000000 3.531970 
# 
# 
# High freq. dielectric constant tensor:
#      x y z
#    x 1.748490 0.000000 0.000000 
#    y 0.000000 1.740990 0.000000 
#    z 0.000000 0.000000 1.739450 
# 
# From -- ./inp_files/10550.got.cif
#   From: 2010.03.12/outbox.cif.g09.slc.cpg/sg40_6_cif.got.tgz:10550.got - 2010.04.14 01:38:03.
