data_PCOD8183769
_publ_section_title
;
Structure prediction by ZEFSAII (Michael W. Deem and Ramdas Pophale) SiO2 
 PCOD8183769
Probable space group: A M A 2
;
_chemical_formula_sum "Si O2"
_cell_formula_units_Z 64
_cell_length_a 37.117304
_cell_length_b 16.176174
_cell_length_c 5.149752
_cell_angle_alpha 90.000000
_cell_angle_beta 90.000000
_cell_angle_gamma 90.000000
_cell_volume 3091.993332
_symmetry_space_group_name_H-M "A M A 2"
_symmetry_group_IT_number 40
_symmetry_cell_setting 'orthorhombic'
loop_
_space_group_symop_operation_xyz
x,y,z
-x,-y,z
1/2-x,y,z
1/2+x,-y,z
x,1/2+y,1/2+z
-x,1/2-y,1/2+z
1/2-x,1/2+y,1/2+z
1/2+x,1/2-y,1/2+z
loop_
_atom_site_type_symbol
_atom_site_label
_atom_site_fract_x
_atom_site_fract_y
_atom_site_fract_z
Si Si1 0.477275 0.154140 0.211050
Si Si2 0.790514 0.848452 0.750543
Si Si3 0.405148 0.553367 0.712515
Si Si4 0.333179 0.651785 0.750078
Si Si5 0.022725 0.845862 0.711050
Si Si6 0.790514 0.651542 0.750545
Si Si7 0.333179 0.848221 0.750080
Si Si8 0.094852 0.446637 0.212515
O O1 0.442064 0.101035 0.258638
O O2 0.505986 0.131412 0.433159
O O3 0.466465 0.250000 0.226811
O O4 0.494014 0.131412 0.933159
O O5 0.750000 0.884217 0.752494
O O6 0.811230 0.881202 0.497861
O O7 0.789188 0.749997 0.752086
O O8 0.811874 0.881783 0.999987
O O9 0.373175 0.617279 0.758633
O O10 0.402744 0.520300 0.419691
O O11 0.402743 0.479704 0.919691
O O12 0.335992 0.750003 0.748561
O O13 0.057936 0.898967 0.758637
O O14 0.750000 0.615776 0.752492
O O15 0.811230 0.618792 0.497866
O O16 0.811874 0.618211 0.999992
O O17 0.373174 0.882726 0.758633
#
# Coordination Sequence:
#
# PCOD8183769 Si02
#       8
#     8   8   8   8   8   8   8   8
#     4  10  22  41  64  88 114 146 187 233 280 333
#     4   9  17  31  56  87 111 138 186 243 287 326
#     4  12  25  39  58  84 118 154 188 230 277 333
#     4  10  20  36  58  82 112 149 189 233 281 335
#     4  10  22  41  64  88 114 146 187 233 280 333
#     4   9  17  31  56  87 111 138 186 243 287 326
#     4  10  20  36  58  82 112 149 189 233 281 335
#     4  12  25  39  58  84 118 154 188 230 277 333
#
# _framework density 20.698623999999999
#
# number of rings (size 3 to 8) (size 9 to 14) (size 15 to 20)
#    0.000    1.750    0.000    4.500    0.000    6.000 
#    0.000   10.000    0.000   15.000    0.000    0.000 
#    0.000    0.000    0.000    0.000    0.000    0.000 
#
# Total GULP energy -396967.631254 kJ/mol
# GULP energy per Si atom -12405.238477 kJ/mol
# Density = 2.065151 g / cm^3
# Si number density = 20.698624 Si / 1000 Ang^3
#
#
#
# Elastic Constant Matrix: (Units=GPa)
#
#
# Indices 1 2 3 4 5 6 
#
# 1 126.1342 39.5263 35.6547 0.0000 0.0000 0.0000
# 2 39.5263 34.8655 22.0828 0.0000 0.0000 0.0000
# 3 35.6547 22.0828 139.6428 0.0000 0.0000 0.0000
# 4 0.0000 0.0000 0.0000 15.5346 0.0000 0.0000
# 5 0.0000 0.0000 0.0000 0.0000 31.4320 0.0000
# 6 0.0000 0.0000 0.0000 0.0000 0.0000 -0.2690
#
#
#
# Elastic Compliance Matrix: (Units=1/GPa)
#
#
# Indices 1 2 3 4 5 6 
#
# 1 0.012434 -0.013430 -0.001051 0.000000 0.000000 0.000000
# 2 -0.013430 0.046381 -0.003905 0.000000 0.000000 0.000000
# 3 -0.001051 -0.003905 0.008047 0.000000 0.000000 0.000000
# 4 0.000000 0.000000 0.000000 0.064373 0.000000 0.000000
# 5 0.000000 0.000000 0.000000 0.000000 0.031815 0.000000
# 6 0.000000 0.000000 0.000000 0.000000 0.000000 -3.717080
#
#
# Mechanical properties :
#
#
# Convention : Reuss Voigt Hill
#
# Bulk Modulus (GPa) = 33.23531 55.01890 44.12711
# Shear Modulus (GPa) = -1.42563 22.89809 10.73623
#
# Velocity S-wave (km/s) = -0.83081 3.32966 2.27995
# Velocity P-wave (km/s) = 3.89504 6.43590 5.31940
#
# Compressibility (1/GPa) = 0.03008848
#
# Stress axis : x y z
#
# Youngs Moduli (GPa) = 80.42653 21.56066 124.26946
#
# Poissons Ratio (x) = 0.28957 0.13059
# Poissons Ratio (y) = 1.08015 0.48532
# Poissons Ratio (z) = 0.08452 0.08420
#
# Static dielectric constant tensor:
#      x y z
#    x 3.802380 0.000000 0.000000 
#    y 0.000000 3.433870 0.000000 
#    z 0.000000 0.000000 4.072280 
# 
# 
# High freq. dielectric constant tensor:
#      x y z
#    x 1.825400 0.000000 0.000000 
#    y 0.000000 1.786920 0.000000 
#    z 0.000000 0.000000 1.828810 
# 
# From -- ./inp_files/3476.got.cif
#   From: 2010.03.12/outbox.cif.g09.slc.cpg/sg40_2_cif.got.tgz:3476.got - 2010.04.14 01:38:03.
