data_PCOD8183394
_publ_section_title
;
Structure prediction by ZEFSAII (Michael W. Deem and Ramdas Pophale) SiO2 
 PCOD8183394
Probable space group: A M A 2
;
_chemical_formula_sum "Si O2"
_cell_formula_units_Z 64
_cell_length_a 8.949738
_cell_length_b 15.344916
_cell_length_c 23.462701
_cell_angle_alpha 90.000000
_cell_angle_beta 90.000000
_cell_angle_gamma 90.000000
_cell_volume 3222.202596
_symmetry_space_group_name_H-M "A M A 2"
_symmetry_group_IT_number 40
_symmetry_cell_setting 'orthorhombic'
loop_
_space_group_symop_operation_xyz
x,y,z
-x,-y,z
1/2-x,y,z
1/2+x,-y,z
x,1/2+y,1/2+z
-x,1/2-y,1/2+z
1/2-x,1/2+y,1/2+z
1/2+x,1/2-y,1/2+z
loop_
_atom_site_type_symbol
_atom_site_label
_atom_site_fract_x
_atom_site_fract_y
_atom_site_fract_z
Si Si1 0.925278 0.413255 0.222480
Si Si2 0.424354 0.411705 0.704827
Si Si3 0.926152 0.090920 0.958226
Si Si4 0.077256 0.837761 0.324385
Si Si5 0.927031 0.749200 0.018532
Si Si6 0.574894 0.155192 0.833169
Si Si7 0.575428 0.759017 0.636654
Si Si8 0.920845 0.587344 0.945054
O O1 0.750000 0.427701 0.226689
O O2 0.966323 0.331572 0.183133
O O3 0.000000 0.500000 0.196247
O O4 0.987716 0.398534 0.285598
O O5 0.500000 0.500000 0.683139
O O6 0.250000 0.428180 0.704936
O O7 0.478955 0.388180 0.768467
O O8 0.468652 0.334500 0.662217
O O9 0.750000 0.085460 0.967599
O O10 0.968615 0.113584 0.893517
O O11 0.000000 0.000000 0.975453
O O12 0.991151 0.162701 0.000774
O O13 0.250000 0.807261 0.317615
O O14 0.056412 0.901957 0.377532
O O15 0.974367 0.754850 0.333709
O O16 0.750000 0.762360 0.013679
O O17 0.973596 0.723579 0.082165
O O18 0.984974 0.671735 0.977529
O O19 0.750000 0.149505 0.820826
O O20 0.750000 0.763480 0.620491
O O21 0.750000 0.576219 0.961917
O O22 0.000000 0.500000 0.966452
#
# Coordination Sequence:
#
# PCOD8183394 Si02
#       8
#     8   8   8   8   8   8   8   8
#     4  11  23  41  64  90 124 163 202 250 304 362
#     4  10  21  38  61  89 119 157 196 238 298 355
#     4  11  24  41  63  92 124 160 201 248 305 366
#     4  10  19  37  61  87 124 160 193 241 302 364
#     4  11  24  42  64  89 119 159 206 256 305 355
#     4  11  22  36  61  95 125 159 200 245 303 366
#     4  10  23  43  63  84 119 163 203 250 305 356
#     4  10  22  38  61  90 122 159 197 244 300 358
#
# _framework density 19.862190999999999
#
# number of rings (size 3 to 8) (size 9 to 14) (size 15 to 20)
#    0.000    1.500    2.500    2.250    0.000    7.000 
#    0.000    3.750    0.000    0.000    0.000    0.000 
#    0.000    0.000    0.000    0.000    0.000    0.000 
#
# Total GULP energy -396983.458122 kJ/mol
# GULP energy per Si atom -12405.733066 kJ/mol
# Density = 1.981698 g / cm^3
# Si number density = 19.862191 Si / 1000 Ang^3
#
#
#
# Elastic Constant Matrix: (Units=GPa)
#
#
# Indices 1 2 3 4 5 6 
#
# 1 61.8755 37.3764 28.7442 0.0000 0.0000 0.0000
# 2 37.3764 123.2828 11.8033 0.0000 0.0000 0.0000
# 3 28.7442 11.8033 73.8443 0.0000 0.0000 0.0000
# 4 0.0000 0.0000 0.0000 12.8541 0.0000 0.0000
# 5 0.0000 0.0000 0.0000 0.0000 32.1072 0.0000
# 6 0.0000 0.0000 0.0000 0.0000 0.0000 40.9665
#
#
#
# Elastic Compliance Matrix: (Units=1/GPa)
#
#
# Indices 1 2 3 4 5 6 
#
# 1 0.023904 -0.006455 -0.008273 0.000000 0.000000 0.000000
# 2 -0.006455 0.009981 0.000917 0.000000 0.000000 0.000000
# 3 -0.008273 0.000917 0.016616 0.000000 0.000000 0.000000
# 4 0.000000 0.000000 0.000000 0.077796 0.000000 0.000000
# 5 0.000000 0.000000 0.000000 0.000000 0.031146 0.000000
# 6 0.000000 0.000000 0.000000 0.000000 0.000000 0.024410
#
#
# Mechanical properties :
#
#
# Convention : Reuss Voigt Hill
#
# Bulk Modulus (GPa) = 43.70833 46.09450 44.90142
# Shear Modulus (GPa) = 22.82066 29.25749 26.03907
#
# Velocity S-wave (km/s) = 3.39329 3.84216 3.62468
# Velocity P-wave (km/s) = 6.11606 6.55290 6.33824
#
# Compressibility (1/GPa) = 0.02287893
#
# Stress axis : x y z
#
# Youngs Moduli (GPa) = 41.83424 100.19425 60.18424
#
# Poissons Ratio (x) = 0.64676 0.49790
# Poissons Ratio (y) = 0.27004 -0.05521
# Poissons Ratio (z) = 0.34609 -0.09191
#
# Static dielectric constant tensor:
#      x y z
#    x 3.555300 0.000000 0.000000 
#    y 0.000000 3.704340 0.000000 
#    z 0.000000 0.000000 3.613430 
# 
# 
# High freq. dielectric constant tensor:
#      x y z
#    x 1.772850 0.000000 0.000000 
#    y 0.000000 1.786850 0.000000 
#    z 0.000000 0.000000 1.773920 
# 
# From -- ./inp_files/24244.got.cif
#   From: 2010.03.12/outbox.cif.g09.slc.cpg/sg40_13_cif.got.tgz:24244.got - 2010.04.14 01:38:03.
