data_PCOD8183814
_publ_section_title
;
Structure prediction by ZEFSAII (Michael W. Deem and Ramdas Pophale) SiO2 
 PCOD8183814
Probable space group: A M A 2
;
_chemical_formula_sum "Si O2"
_cell_formula_units_Z 40
_cell_length_a 9.025647
_cell_length_b 19.013782
_cell_length_c 10.559557
_cell_angle_alpha 90.000000
_cell_angle_beta 90.000000
_cell_angle_gamma 90.000000
_cell_volume 1812.143364
_symmetry_space_group_name_H-M "A M A 2"
_symmetry_group_IT_number 40
_symmetry_cell_setting 'orthorhombic'
loop_
_space_group_symop_operation_xyz
x,y,z
-x,-y,z
1/2-x,y,z
1/2+x,-y,z
x,1/2+y,1/2+z
-x,1/2-y,1/2+z
1/2-x,1/2+y,1/2+z
1/2+x,1/2-y,1/2+z
loop_
_atom_site_type_symbol
_atom_site_label
_atom_site_fract_x
_atom_site_fract_y
_atom_site_fract_z
Si Si1 0.580658 0.427120 0.788960
Si Si2 0.421748 0.425510 0.548917
Si Si3 0.082519 0.216818 0.398572
Si Si4 0.578835 0.074436 0.769080
Si Si5 0.422454 0.204061 0.678895
O O1 0.500000 0.500000 0.828202
O O2 0.750000 0.446018 0.758228
O O3 0.506059 0.388430 0.665650
O O4 0.568809 0.368573 0.898562
O O5 0.500000 0.500000 0.539835
O O6 0.250000 0.432728 0.584202
O O7 0.440662 0.390798 0.410290
O O8 0.250000 0.239450 0.361515
O O9 0.047145 0.241863 0.542755
O O10 0.971914 0.248903 0.296618
O O11 0.750000 0.062576 0.736644
O O12 0.508127 0.130023 0.673944
O O13 0.500000 0.000000 0.755245
O O14 0.250000 0.188208 0.694678
#
# Coordination Sequence:
#
# PCOD8183814 Si02
#       5
#     8   8   8   8   8
#     4  10  20  36  60  89 125 161 204 258 311 371
#     4   9  17  30  52  85 122 158 198 245 299 360
#     4  10  25  46  64  92 129 166 213 265 318 384
#     4  10  21  38  62  93 130 166 210 264 315 376
#     4  11  25  44  67  93 126 169 215 264 322 383
#
# _framework density 22.073309999999999
#
# number of rings (size 3 to 8) (size 9 to 14) (size 15 to 20)
#    0.000    2.000    0.000    3.600    2.800    6.400 
#    0.000    2.000    0.000    0.000    0.000    0.000 
#    0.000    0.000    0.000    0.000    0.000    0.000 
#
# Total GULP energy -247865.899695 kJ/mol
# GULP energy per Si atom -12393.294985 kJ/mol
# Density = 2.202307 g / cm^3
# Si number density = 22.073310 Si / 1000 Ang^3
#
#
#
# Elastic Constant Matrix: (Units=GPa)
#
#
# Indices 1 2 3 4 5 6 
#
# 1 157.3124 36.6630 56.5231 0.0000 0.0000 0.0000
# 2 36.6630 56.5980 28.6018 0.0000 0.0000 0.0000
# 3 56.5231 28.6018 103.0880 0.0000 0.0000 0.0000
# 4 0.0000 0.0000 0.0000 36.3726 0.0000 0.0000
# 5 0.0000 0.0000 0.0000 0.0000 48.0982 0.0000
# 6 0.0000 0.0000 0.0000 0.0000 0.0000 30.1806
#
#
#
# Elastic Compliance Matrix: (Units=1/GPa)
#
#
# Indices 1 2 3 4 5 6 
#
# 1 0.008527 -0.003676 -0.003655 0.000000 0.000000 0.000000
# 2 -0.003676 0.022135 -0.004126 0.000000 0.000000 0.000000
# 3 -0.003655 -0.004126 0.012849 0.000000 0.000000 0.000000
# 4 0.000000 0.000000 0.000000 0.027493 0.000000 0.000000
# 5 0.000000 0.000000 0.000000 0.000000 0.020791 0.000000
# 6 0.000000 0.000000 0.000000 0.000000 0.000000 0.033134
#
#
# Mechanical properties :
#
#
# Convention : Reuss Voigt Hill
#
# Bulk Modulus (GPa) = 48.55181 62.28606 55.41893
# Shear Modulus (GPa) = 32.31875 35.94431 34.13153
#
# Velocity S-wave (km/s) = 3.83058 4.03973 3.93654
# Velocity P-wave (km/s) = 6.45042 7.07377 6.76928
#
# Compressibility (1/GPa) = 0.02059655
#
# Stress axis : x y z
#
# Youngs Moduli (GPa) = 117.27506 45.17772 77.82527
#
# Poissons Ratio (x) = 0.16609 0.28448
# Poissons Ratio (y) = 0.43115 0.32107
# Poissons Ratio (z) = 0.42868 0.18638
#
# Static dielectric constant tensor:
#      x y z
#    x 3.599210 0.000000 0.000000 
#    y 0.000000 3.760230 0.000000 
#    z 0.000000 0.000000 4.615010 
# 
# 
# High freq. dielectric constant tensor:
#      x y z
#    x 1.874630 0.000000 0.000000 
#    y 0.000000 1.864130 0.000000 
#    z 0.000000 0.000000 1.866760 
# 
# From -- ./inp_files/10131.got.cif
#   From: 2010.03.12/outbox.cif.g09.slc.cpg/sg40_6_cif.got.tgz:10131.got - 2010.04.14 01:38:03.
