data_PCOD8183888
_publ_section_title
;
Structure prediction by ZEFSAII (Michael W. Deem and Ramdas Pophale) SiO2 
 PCOD8183888
Probable space group: A M A 2
;
_chemical_formula_sum "Si O2"
_cell_formula_units_Z 64
_cell_length_a 8.721195
_cell_length_b 30.614444
_cell_length_c 11.955822
_cell_angle_alpha 90.000000
_cell_angle_beta 90.000000
_cell_angle_gamma 90.000000
_cell_volume 3192.139147
_symmetry_space_group_name_H-M "A M A 2"
_symmetry_group_IT_number 40
_symmetry_cell_setting 'orthorhombic'
loop_
_space_group_symop_operation_xyz
x,y,z
-x,-y,z
1/2-x,y,z
1/2+x,-y,z
x,1/2+y,1/2+z
-x,1/2-y,1/2+z
1/2-x,1/2+y,1/2+z
1/2+x,1/2-y,1/2+z
loop_
_atom_site_type_symbol
_atom_site_label
_atom_site_fract_x
_atom_site_fract_y
_atom_site_fract_z
Si Si1 0.922700 0.337201 0.714810
Si Si2 0.428996 0.427591 0.710851
Si Si3 0.574427 0.292130 0.483676
Si Si4 0.068244 0.955210 0.971958
Si Si5 0.069906 0.372634 0.098255
Si Si6 0.426204 0.700863 0.952973
Si Si7 0.068210 0.954996 0.450131
Si Si8 0.930053 0.875398 0.840077
O O1 0.750000 0.356441 0.715348
O O2 0.946620 0.305132 0.611849
O O3 0.958529 0.309837 0.824661
O O4 0.041634 0.376280 0.706629
O O5 0.250000 0.435533 0.713469
O O6 0.497931 0.449212 0.598454
O O7 0.500029 0.447896 0.824585
O O8 0.750000 0.279504 0.456882
O O9 0.464793 0.251407 0.465500
O O10 0.519433 0.331369 0.403514
O O11 0.250000 0.957318 0.970975
O O12 0.017270 0.915959 0.893593
O O13 0.000000 0.000000 0.922783
O O14 0.250000 0.374513 0.124533
O O15 0.974484 0.371575 0.211448
O O16 0.015108 0.414777 0.027431
O O17 0.034006 0.328780 0.030182
O O18 0.250000 0.692631 0.986604
O O19 0.250000 0.957845 0.448825
O O20 0.000000 0.000000 0.499035
O O21 0.750000 0.883303 0.853612
#
# Coordination Sequence:
#
# PCOD8183888 Si02
#       8
#     8   8   8   8   8   8   8   8
#     4  10  21  39  63  91 123 159 200 249 308 361
#     4  10  20  37  61  92 125 158 200 247 305 364
#     4  10  23  42  63  90 124 163 201 250 310 366
#     4  11  23  39  63  93 125 163 205 253 308 368
#     4  11  24  43  64  87 124 165 206 253 308 367
#     4  11  24  40  63  95 124 159 206 253 304 364
#     4  10  22  39  61  90 121 158 199 246 301 360
#     4  11  24  43  65  90 123 161 209 259 309 368
#
# _framework density 20.049251000000002
#
# number of rings (size 3 to 8) (size 9 to 14) (size 15 to 20)
#    0.000    1.500    2.500    1.875    1.750    4.500 
#    0.000    1.250    0.000    0.000    0.000    0.000 
#    0.000    0.000    0.000    0.000    0.000    0.000 
#
# Total GULP energy -396925.963589 kJ/mol
# GULP energy per Si atom -12403.936362 kJ/mol
# Density = 2.000362 g / cm^3
# Si number density = 20.049251 Si / 1000 Ang^3
#
#
#
# Elastic Constant Matrix: (Units=GPa)
#
#
# Indices 1 2 3 4 5 6 
#
# 1 38.2192 28.2589 23.2039 0.0000 0.0000 0.0000
# 2 28.2589 138.9648 47.3393 0.0000 0.0000 0.0000
# 3 23.2039 47.3393 126.1756 0.0000 0.0000 0.0000
# 4 0.0000 0.0000 0.0000 27.1475 0.0000 0.0000
# 5 0.0000 0.0000 0.0000 0.0000 35.1521 0.0000
# 6 0.0000 0.0000 0.0000 0.0000 0.0000 36.8566
#
#
#
# Elastic Compliance Matrix: (Units=1/GPa)
#
#
# Indices 1 2 3 4 5 6 
#
# 1 0.032470 -0.005238 -0.004006 0.000000 0.000000 0.000000
# 2 -0.005238 0.009096 -0.002449 0.000000 0.000000 0.000000
# 3 -0.004006 -0.002449 0.009581 0.000000 0.000000 0.000000
# 4 0.000000 0.000000 0.000000 0.036836 0.000000 0.000000
# 5 0.000000 0.000000 0.000000 0.000000 0.028448 0.000000
# 6 0.000000 0.000000 0.000000 0.000000 0.000000 0.027132
#
#
# Mechanical properties :
#
#
# Convention : Reuss Voigt Hill
#
# Bulk Modulus (GPa) = 36.02317 55.66263 45.84290
# Shear Modulus (GPa) = 28.37640 33.46841 30.92241
#
# Velocity S-wave (km/s) = 3.76617 4.09015 3.93150
# Velocity P-wave (km/s) = 6.07605 7.08018 6.59725
#
# Compressibility (1/GPa) = 0.02775991
#
# Stress axis : x y z
#
# Youngs Moduli (GPa) = 30.79760 109.94300 104.37222
#
# Poissons Ratio (x) = 0.57590 0.41811
# Poissons Ratio (y) = 0.16132 0.25563
# Poissons Ratio (z) = 0.12337 0.26928
#
# Static dielectric constant tensor:
#      x y z
#    x 3.490170 0.000000 0.000000 
#    y 0.000000 3.608730 0.000000 
#    z 0.000000 0.000000 3.871620 
# 
# 
# High freq. dielectric constant tensor:
#      x y z
#    x 1.777550 0.000000 0.000000 
#    y 0.000000 1.790010 0.000000 
#    z 0.000000 0.000000 1.792330 
# 
# From -- ./inp_files/10556.got.cif
#   From: 2010.03.12/outbox.cif.g09.slc.cpg/sg40_6_cif.got.tgz:10556.got - 2010.04.14 01:38:03.
