data_PCOD8183577
_publ_section_title
;
Structure prediction by ZEFSAII (Michael W. Deem and Ramdas Pophale) SiO2 
 PCOD8183577
Probable space group: A M A 2
;
_chemical_formula_sum "Si O2"
_cell_formula_units_Z 64
_cell_length_a 8.689561
_cell_length_b 15.687323
_cell_length_c 23.020710
_cell_angle_alpha 90.000000
_cell_angle_beta 90.000000
_cell_angle_gamma 90.000000
_cell_volume 3138.089956
_symmetry_space_group_name_H-M "A M A 2"
_symmetry_group_IT_number 40
_symmetry_cell_setting 'orthorhombic'
loop_
_space_group_symop_operation_xyz
x,y,z
-x,-y,z
1/2-x,y,z
1/2+x,-y,z
x,1/2+y,1/2+z
-x,1/2-y,1/2+z
1/2-x,1/2+y,1/2+z
1/2+x,1/2-y,1/2+z
loop_
_atom_site_type_symbol
_atom_site_label
_atom_site_fract_x
_atom_site_fract_y
_atom_site_fract_z
Si Si1 0.067904 0.761674 0.439780
Si Si2 0.567980 0.595040 0.487050
Si Si3 0.432031 0.908662 0.529453
Si Si4 0.570346 0.408571 0.602917
Si Si5 0.423243 0.127952 0.653230
Si Si6 0.432291 0.736924 0.819296
Si Si7 0.423235 0.314751 0.703211
Si Si8 0.430151 0.917621 0.770768
O O1 0.250000 0.749741 0.442877
O O2 0.011655 0.831829 0.487103
O O3 0.988131 0.668328 0.443089
O O4 0.014644 0.796803 0.377158
O O5 0.500000 0.500000 0.474426
O O6 0.750000 0.586656 0.483807
O O7 0.512983 0.636647 0.548469
O O8 0.250000 0.915793 0.527008
O O9 0.481895 0.886974 0.594784
O O10 0.500000 0.000000 0.509225
O O11 0.500000 0.500000 0.601156
O O12 0.750000 0.408573 0.590539
O O13 0.535283 0.371994 0.665429
O O14 0.250000 0.093951 0.643728
O O15 0.422933 0.225867 0.670445
O O16 0.501268 0.078852 0.706059
O O17 0.250000 0.723205 0.822783
O O18 0.502579 0.683196 0.766567
O O19 0.477683 0.835148 0.807395
O O20 0.250000 0.351580 0.706621
O O21 0.250000 0.925094 0.765407
O O22 0.500000 0.000000 0.804057
#
# Coordination Sequence:
#
# PCOD8183577 Si02
#       8
#     8   8   8   8   8   8   8   8
#     4  11  24  42  62  85 115 154 198 247 297 347
#     4  11  22  38  61  90 123 158 195 238 289 351
#     4  11  24  40  60  85 115 151 193 241 292 345
#     4  11  21  35  56  84 117 149 184 231 285 344
#     4  10  20  34  56  84 115 148 182 225 279 338
#     4  10  22  39  58  81 109 147 192 238 285 339
#     4  10  20  36  58  84 113 148 188 232 284 342
#     4  10  20  34  54  81 114 147 181 222 273 332
#
# _framework density 20.394572
#
# number of rings (size 3 to 8) (size 9 to 14) (size 15 to 20)
#    0.000    1.500    0.000    6.375    0.000    7.500 
#    0.000    1.875    0.000    1.500    0.000    0.000 
#    0.000    0.000    0.000    0.000    0.000    0.000 
#
# Total GULP energy -396693.954683 kJ/mol
# GULP energy per Si atom -12396.686084 kJ/mol
# Density = 2.034815 g / cm^3
# Si number density = 20.394572 Si / 1000 Ang^3
#
#
#
# Elastic Constant Matrix: (Units=GPa)
#
#
# Indices 1 2 3 4 5 6 
#
# 1 112.3092 25.5977 32.2092 0.0000 0.0000 0.0000
# 2 25.5977 49.9795 25.9345 0.0000 0.0000 0.0000
# 3 32.2092 25.9345 99.1909 0.0000 0.0000 0.0000
# 4 0.0000 0.0000 0.0000 15.6199 0.0000 0.0000
# 5 0.0000 0.0000 0.0000 0.0000 35.6248 0.0000
# 6 0.0000 0.0000 0.0000 0.0000 0.0000 29.9250
#
#
#
# Elastic Compliance Matrix: (Units=1/GPa)
#
#
# Indices 1 2 3 4 5 6 
#
# 1 0.010524 -0.004184 -0.002323 0.000000 0.000000 0.000000
# 2 -0.004184 0.024813 -0.005129 0.000000 0.000000 0.000000
# 3 -0.002323 -0.005129 0.012177 0.000000 0.000000 0.000000
# 4 0.000000 0.000000 0.000000 0.064021 0.000000 0.000000
# 5 0.000000 0.000000 0.000000 0.000000 0.028070 0.000000
# 6 0.000000 0.000000 0.000000 0.000000 0.000000 0.033417
#
#
# Mechanical properties :
#
#
# Convention : Reuss Voigt Hill
#
# Bulk Modulus (GPa) = 41.25306 47.66249 44.45778
# Shear Modulus (GPa) = 24.46482 28.08313 26.27398
#
# Velocity S-wave (km/s) = 3.46725 3.71481 3.59316
# Velocity P-wave (km/s) = 6.02498 6.46689 6.24984
#
# Compressibility (1/GPa) = 0.02424062
#
# Stress axis : x y z
#
# Youngs Moduli (GPa) = 95.02082 40.30205 82.12235
#
# Poissons Ratio (x) = 0.16864 0.19079
# Poissons Ratio (y) = 0.39761 0.42118
# Poissons Ratio (z) = 0.22076 0.20670
#
# Static dielectric constant tensor:
#      x y z
#    x 3.704460 0.000000 0.000000 
#    y 0.000000 3.816220 0.000000 
#    z 0.000000 0.000000 3.542410 
# 
# 
# High freq. dielectric constant tensor:
#      x y z
#    x 1.811930 0.000000 0.000000 
#    y 0.000000 1.789120 0.000000 
#    z 0.000000 0.000000 1.797820 
# 
# From -- ./inp_files/22387.got.cif
#   From: 2010.03.12/outbox.cif.g09.slc.cpg/sg40_12_cif.got.tgz:22387.got - 2010.04.14 01:38:03.
