data_PCOD8183373
_publ_section_title
;
Structure prediction by ZEFSAII (Michael W. Deem and Ramdas Pophale) SiO2 
 PCOD8183373
Probable space group: A M A 2
;
_chemical_formula_sum "Si O2"
_cell_formula_units_Z 64
_cell_length_a 14.092716
_cell_length_b 17.053876
_cell_length_c 12.468908
_cell_angle_alpha 90.000000
_cell_angle_beta 90.000000
_cell_angle_gamma 90.000000
_cell_volume 2996.720380
_symmetry_space_group_name_H-M "A M A 2"
_symmetry_group_IT_number 40
_symmetry_cell_setting 'orthorhombic'
loop_
_space_group_symop_operation_xyz
x,y,z
-x,-y,z
1/2-x,y,z
1/2+x,-y,z
x,1/2+y,1/2+z
-x,1/2-y,1/2+z
1/2-x,1/2+y,1/2+z
1/2+x,1/2-y,1/2+z
loop_
_atom_site_type_symbol
_atom_site_label
_atom_site_fract_x
_atom_site_fract_y
_atom_site_fract_z
Si Si1 0.858719 0.384076 0.518220
Si Si2 0.858368 0.033661 0.637486
Si Si3 0.137763 0.418505 0.899810
Si Si4 0.641778 0.286922 0.823000
Si Si5 0.027138 0.272086 0.967061
Si Si6 0.140850 0.044904 0.235132
Si Si7 0.970689 0.676401 0.193914
Si Si8 0.643915 0.888977 0.784063
O O1 0.750000 0.363365 0.550337
O O2 0.913687 0.303704 0.499329
O O3 0.902782 0.436958 0.615748
O O4 0.863177 0.428807 0.402849
O O5 0.750000 0.058188 0.653698
O O6 0.884701 0.035644 0.511251
O O7 0.919325 0.093209 0.708534
O O8 0.878166 0.948622 0.687537
O O9 0.250000 0.406292 0.888083
O O10 0.088928 0.333166 0.895779
O O11 0.096006 0.470715 0.799722
O O12 0.750000 0.264191 0.849310
O O13 0.572806 0.250679 0.912648
O O14 0.629477 0.379849 0.811719
O O15 0.605715 0.245402 0.714407
O O16 0.993861 0.316141 0.073531
O O17 0.250000 0.024141 0.217895
O O18 0.063683 0.679334 0.272449
O O19 0.750000 0.853277 0.770523
#
# Coordination Sequence:
#
# PCOD8183373 Si02
#       8
#     8   8   8   8   8   8   8   8
#     4  10  19  36  62  88 117 160 208 247 295 368
#     4   9  19  35  59  90 120 151 195 254 310 359
#     4   9  19  36  61  93 124 154 196 254 311 365
#     4  11  23  38  59  86 123 164 203 253 312 374
#     4  11  22  36  61  91 120 155 207 258 306 360
#     4   9  19  36  59  87 122 162 200 242 307 376
#     4  11  21  37  61  87 117 156 208 251 305 366
#     4  10  21  36  57  86 119 154 199 254 304 358
#
# _framework density 21.356679
#
# number of rings (size 3 to 8) (size 9 to 14) (size 15 to 20)
#    0.000    2.000    2.500    1.125    1.750    2.000 
#    0.000    0.000    8.250    0.000    0.000    0.875 
#    0.000    0.000    0.000    0.000    0.000    0.000 
#
# Total GULP energy -396545.676579 kJ/mol
# GULP energy per Si atom -12392.052393 kJ/mol
# Density = 2.130807 g / cm^3
# Si number density = 21.356679 Si / 1000 Ang^3
#
#
#
# Elastic Constant Matrix: (Units=GPa)
#
#
# Indices 1 2 3 4 5 6 
#
# 1 97.5473 36.7944 42.6162 0.0000 0.0000 0.0000
# 2 36.7944 78.0882 43.6888 0.0000 0.0000 0.0000
# 3 42.6162 43.6888 110.3605 0.0000 0.0000 0.0000
# 4 0.0000 0.0000 0.0000 31.8774 0.0000 0.0000
# 5 0.0000 0.0000 0.0000 0.0000 23.5557 0.0000
# 6 0.0000 0.0000 0.0000 0.0000 0.0000 25.1140
#
#
#
# Elastic Compliance Matrix: (Units=1/GPa)
#
#
# Indices 1 2 3 4 5 6 
#
# 1 0.013412 -0.004395 -0.003439 0.000000 0.000000 0.000000
# 2 -0.004395 0.017890 -0.005385 0.000000 0.000000 0.000000
# 3 -0.003439 -0.005385 0.012521 0.000000 0.000000 0.000000
# 4 0.000000 0.000000 0.000000 0.031370 0.000000 0.000000
# 5 0.000000 0.000000 0.000000 0.000000 0.042453 0.000000
# 6 0.000000 0.000000 0.000000 0.000000 0.000000 0.039818
#
#
# Mechanical properties :
#
#
# Convention : Reuss Voigt Hill
#
# Bulk Modulus (GPa) = 57.52399 59.13275 58.32837
# Shear Modulus (GPa) = 26.35785 26.96919 26.66352
#
# Velocity S-wave (km/s) = 3.51689 3.55744 3.53723
# Velocity P-wave (km/s) = 6.59430 6.67998 6.63728
#
# Compressibility (1/GPa) = 0.01738405
#
# Stress axis : x y z
#
# Youngs Moduli (GPa) = 74.56121 55.89778 79.86664
#
# Poissons Ratio (x) = 0.24570 0.27466
# Poissons Ratio (y) = 0.32773 0.43006
# Poissons Ratio (z) = 0.25641 0.30100
#
# Static dielectric constant tensor:
#      x y z
#    x 3.869410 0.000000 0.000000 
#    y 0.000000 3.620760 0.000000 
#    z 0.000000 0.000000 4.126240 
# 
# 
# High freq. dielectric constant tensor:
#      x y z
#    x 1.840120 0.000000 0.000000 
#    y 0.000000 1.812410 0.000000 
#    z 0.000000 0.000000 1.844070 
# 
# From -- ./inp_files/12423.got.cif
#   From: 2010.03.12/outbox.cif.g09.slc.cpg/sg40_7_cif.got.tgz:12423.got - 2010.04.14 01:38:03.
