data_PCOD8183460
_publ_section_title
;
Structure prediction by ZEFSAII (Michael W. Deem and Ramdas Pophale) SiO2 
 PCOD8183460
Probable space group: A M A 2
;
_chemical_formula_sum "Si O2"
_cell_formula_units_Z 64
_cell_length_a 9.668478
_cell_length_b 16.790951
_cell_length_c 21.786506
_cell_angle_alpha 90.000000
_cell_angle_beta 90.000000
_cell_angle_gamma 90.000000
_cell_volume 3536.885444
_symmetry_space_group_name_H-M "A M A 2"
_symmetry_group_IT_number 40
_symmetry_cell_setting 'orthorhombic'
loop_
_space_group_symop_operation_xyz
x,y,z
-x,-y,z
1/2-x,y,z
1/2+x,-y,z
x,1/2+y,1/2+z
-x,1/2-y,1/2+z
1/2-x,1/2+y,1/2+z
1/2+x,1/2-y,1/2+z
loop_
_atom_site_type_symbol
_atom_site_label
_atom_site_fract_x
_atom_site_fract_y
_atom_site_fract_z
Si Si1 0.399917 0.926256 0.605620
Si Si2 0.600831 0.718777 0.576113
Si Si3 0.907197 0.228578 0.293191
Si Si4 0.914135 0.077806 0.372745
Si Si5 0.399598 0.679372 0.415269
Si Si6 0.592656 0.574538 0.489135
Si Si7 0.537839 0.172009 0.490104
Si Si8 0.086728 0.275705 0.178519
O O1 0.250000 0.962018 0.621331
O O2 0.382469 0.876474 0.542747
O O3 0.446382 0.867851 0.661175
O O4 0.500000 0.000000 0.597794
O O5 0.750000 0.729367 0.608736
O O6 0.591695 0.631780 0.547329
O O7 0.595155 0.788165 0.523552
O O8 0.477165 0.721808 0.624676
O O9 0.750000 0.238366 0.268988
O O10 0.930662 0.138313 0.316035
O O11 0.937464 0.288105 0.348675
O O12 0.016802 0.251508 0.241768
O O13 0.750000 0.061872 0.385611
O O14 0.990482 0.111953 0.433774
O O15 0.000000 0.000000 0.353666
O O16 0.250000 0.635651 0.414259
O O17 0.520743 0.618101 0.431513
O O18 0.379035 0.752688 0.462880
O O19 0.500000 0.500000 0.508146
O O20 0.750000 0.550611 0.471345
O O21 0.250000 0.259478 0.182110
#
# Coordination Sequence:
#
# PCOD8183460 Si02
#       8
#     8   8   8   8   8   8   8   8
#     4  10  20  32  48  74 104 132 162 199 244 295
#     4   9  19  34  53  77 102 132 172 211 252 306
#     4   9  19  36  56  75  99 135 176 214 253 299
#     4  10  20  33  51  78 109 139 170 207 251 300
#     4   9  17  32  54  76 100 134 170 206 252 303
#     4  10  20  33  51  77 106 133 164 209 260 308
#     4   9  17  30  51  77 106 135 165 199 243 300
#     4  10  21  36  55  76  99 132 174 217 257 299
#
# _framework density 18.095016999999999
#
# number of rings (size 3 to 8) (size 9 to 14) (size 15 to 20)
#    0.000    2.500    0.000    3.000    0.000    8.000 
#    0.000    3.750    0.000    1.500    0.000    0.000 
#    0.000    0.000    0.000    0.000    0.000    0.000 
#
# Total GULP energy -396484.001795 kJ/mol
# GULP energy per Si atom -12390.125056 kJ/mol
# Density = 1.805383 g / cm^3
# Si number density = 18.095017 Si / 1000 Ang^3
#
#
#
# Elastic Constant Matrix: (Units=GPa)
#
#
# Indices 1 2 3 4 5 6 
#
# 1 138.4642 64.2425 62.5787 0.0000 0.0000 0.0000
# 2 64.2425 89.8726 39.6269 0.0000 0.0000 0.0000
# 3 62.5787 39.6269 101.7069 0.0000 0.0000 0.0000
# 4 0.0000 0.0000 0.0000 17.2284 0.0000 0.0000
# 5 0.0000 0.0000 0.0000 0.0000 26.4880 0.0000
# 6 0.0000 0.0000 0.0000 0.0000 0.0000 19.9642
#
#
#
# Elastic Compliance Matrix: (Units=1/GPa)
#
#
# Indices 1 2 3 4 5 6 
#
# 1 0.012720 -0.006812 -0.005173 0.000000 0.000000 0.000000
# 2 -0.006812 0.017083 -0.002464 0.000000 0.000000 0.000000
# 3 -0.005173 -0.002464 0.013975 0.000000 0.000000 0.000000
# 4 0.000000 0.000000 0.000000 0.058044 0.000000 0.000000
# 5 0.000000 0.000000 0.000000 0.000000 0.037753 0.000000
# 6 0.000000 0.000000 0.000000 0.000000 0.000000 0.050090
#
#
# Mechanical properties :
#
#
# Convention : Reuss Voigt Hill
#
# Bulk Modulus (GPa) = 67.20386 73.65999 70.43193
# Shear Modulus (GPa) = 22.36912 23.64250 23.00581
#
# Velocity S-wave (km/s) = 3.51978 3.61858 3.56952
# Velocity P-wave (km/s) = 7.33066 7.63247 7.48308
#
# Compressibility (1/GPa) = 0.01488010
#
# Stress axis : x y z
#
# Youngs Moduli (GPa) = 78.61417 58.53815 71.55659
#
# Poissons Ratio (x) = 0.39876 0.37013
# Poissons Ratio (y) = 0.53552 0.17635
# Poissons Ratio (z) = 0.40663 0.14427
#
# Static dielectric constant tensor:
#      x y z
#    x 3.399860 0.000000 0.000000 
#    y 0.000000 3.271870 0.000000 
#    z 0.000000 0.000000 3.212170 
# 
# 
# High freq. dielectric constant tensor:
#      x y z
#    x 1.706510 0.000000 0.000000 
#    y 0.000000 1.692210 0.000000 
#    z 0.000000 0.000000 1.684600 
# 
# From -- ./inp_files/24406.got.cif
#   From: 2010.03.12/outbox.cif.g09.slc.cpg/sg40_13_cif.got.tgz:24406.got - 2010.04.14 01:38:03.
