data_PCOD8183023
_publ_section_title
;
Structure prediction by ZEFSAII (Michael W. Deem and Ramdas Pophale) SiO2 
 PCOD8183023
Probable space group: A M A 2
;
_chemical_formula_sum "Si O2"
_cell_formula_units_Z 56
_cell_length_a 8.687602
_cell_length_b 15.410873
_cell_length_c 19.676236
_cell_angle_alpha 90.000000
_cell_angle_beta 90.000000
_cell_angle_gamma 90.000000
_cell_volume 2634.323954
_symmetry_space_group_name_H-M "A M A 2"
_symmetry_group_IT_number 40
_symmetry_cell_setting 'orthorhombic'
loop_
_space_group_symop_operation_xyz
x,y,z
-x,-y,z
1/2-x,y,z
1/2+x,-y,z
x,1/2+y,1/2+z
-x,1/2-y,1/2+z
1/2-x,1/2+y,1/2+z
1/2+x,1/2-y,1/2+z
loop_
_atom_site_type_symbol
_atom_site_label
_atom_site_fract_x
_atom_site_fract_y
_atom_site_fract_z
Si Si1 0.429335 0.736077 0.410800
Si Si2 0.078476 0.083966 0.721495
Si Si3 0.416289 0.134340 0.578579
Si Si4 0.432618 0.404407 0.685323
Si Si5 0.575708 0.915335 0.432199
Si Si6 0.570922 0.307973 0.559771
Si Si7 0.070251 0.250807 0.270615
O O1 0.250000 0.720527 0.399328
O O2 0.463937 0.837507 0.414144
O O3 0.482811 0.685386 0.479829
O O4 0.520811 0.708434 0.343633
O O5 0.250000 0.096768 0.752496
O O6 0.083122 0.067359 0.640906
O O7 0.976581 0.170417 0.722736
O O8 0.000000 0.000000 0.756806
O O9 0.250000 0.184055 0.577189
O O10 0.427545 0.073373 0.513046
O O11 0.546194 0.208620 0.582385
O O12 0.500000 0.500000 0.699768
O O13 0.250000 0.408941 0.688916
O O14 0.481145 0.373532 0.609403
O O15 0.489632 0.337604 0.744158
O O16 0.750000 0.900762 0.404273
O O17 0.500000 0.000000 0.398049
O O18 0.750000 0.330281 0.566546
O O19 0.250000 0.232576 0.268651
#
# Coordination Sequence:
#
# PCOD8183023 Si02
#       7
#     8   8   8   8   8   8   8
#     4  10  22  40  62  87 120 165 210 259 321 384
#     4  11  22  37  59  89 123 162 202 250 307 368
#     4   9  18  32  54  83 119 158 194 239 296 355
#     4  12  25  43  68  98 133 173 221 275 333 394
#     4  10  19  32  51  81 117 155 199 245 298 363
#     4  10  20  37  63  93 124 161 208 258 313 376
#     4  12  25  43  65  93 128 168 215 268 326 390
#
# _framework density 21.257826000000001
#
# number of rings (size 3 to 8) (size 9 to 14) (size 15 to 20)
#    0.000    1.429    1.429    4.714    0.000    3.429 
#    0.000    3.571    0.000    3.429    0.000    0.000 
#    0.000    0.000    0.000    0.000    0.000    0.000 
#
# Total GULP energy -346918.546909 kJ/mol
# GULP energy per Si atom -12389.948104 kJ/mol
# Density = 2.120944 g / cm^3
# Si number density = 21.257826 Si / 1000 Ang^3
#
#
#
# Elastic Constant Matrix: (Units=GPa)
#
#
# Indices 1 2 3 4 5 6 
#
# 1 133.6263 37.9582 34.6808 0.0000 0.0000 0.0000
# 2 37.9582 88.8993 9.1862 0.0000 0.0000 0.0000
# 3 34.6808 9.1862 83.5491 0.0000 0.0000 0.0000
# 4 0.0000 0.0000 0.0000 14.2067 0.0000 0.0000
# 5 0.0000 0.0000 0.0000 0.0000 27.2950 0.0000
# 6 0.0000 0.0000 0.0000 0.0000 0.0000 34.8917
#
#
#
# Elastic Compliance Matrix: (Units=1/GPa)
#
#
# Indices 1 2 3 4 5 6 
#
# 1 0.009437 -0.003666 -0.003514 0.000000 0.000000 0.000000
# 2 -0.003666 0.012802 0.000114 0.000000 0.000000 0.000000
# 3 -0.003514 0.000114 0.013415 0.000000 0.000000 0.000000
# 4 0.000000 0.000000 0.000000 0.070389 0.000000 0.000000
# 5 0.000000 0.000000 0.000000 0.000000 0.036637 0.000000
# 6 0.000000 0.000000 0.000000 0.000000 0.000000 0.028660
#
#
# Mechanical properties :
#
#
# Convention : Reuss Voigt Hill
#
# Bulk Modulus (GPa) = 46.46387 52.19167 49.32777
# Shear Modulus (GPa) = 25.95419 30.22864 28.09142
#
# Velocity S-wave (km/s) = 3.49796 3.77503 3.63914
# Velocity P-wave (km/s) = 6.18216 6.60350 6.39630
#
# Compressibility (1/GPa) = 0.02152210
#
# Stress axis : x y z
#
# Youngs Moduli (GPa) = 105.96505 78.11083 74.54248
#
# Poissons Ratio (x) = 0.28638 0.26196
# Poissons Ratio (y) = 0.38850 -0.00852
# Poissons Ratio (z) = 0.37238 -0.00892
#
# Static dielectric constant tensor:
#      x y z
#    x 3.956010 0.000000 0.000000 
#    y 0.000000 3.517590 0.000000 
#    z 0.000000 0.000000 4.181850 
# 
# 
# High freq. dielectric constant tensor:
#      x y z
#    x 1.843280 0.000000 0.000000 
#    y 0.000000 1.808810 0.000000 
#    z 0.000000 0.000000 1.834590 
# 
# From -- ./inp_files/22191.got.cif
#   From: 2010.03.12/outbox.cif.g09.slc.cpg/sg40_12_cif.got.tgz:22191.got - 2010.04.14 01:38:03.
