data_PCOD8183347
_publ_section_title
;
Structure prediction by ZEFSAII (Michael W. Deem and Ramdas Pophale) SiO2 
 PCOD8183347
Probable space group: A M A 2
;
_chemical_formula_sum "Si O2"
_cell_formula_units_Z 64
_cell_length_a 9.047346
_cell_length_b 27.940787
_cell_length_c 12.650888
_cell_angle_alpha 90.000000
_cell_angle_beta 90.000000
_cell_angle_gamma 90.000000
_cell_volume 3198.017566
_symmetry_space_group_name_H-M "A M A 2"
_symmetry_group_IT_number 40
_symmetry_cell_setting 'orthorhombic'
loop_
_space_group_symop_operation_xyz
x,y,z
-x,-y,z
1/2-x,y,z
1/2+x,-y,z
x,1/2+y,1/2+z
-x,1/2-y,1/2+z
1/2-x,1/2+y,1/2+z
1/2+x,1/2-y,1/2+z
loop_
_atom_site_type_symbol
_atom_site_label
_atom_site_fract_x
_atom_site_fract_y
_atom_site_fract_z
Si Si1 0.584103 0.182681 0.518240
Si Si2 0.575376 0.948886 0.030645
Si Si3 0.080649 0.111985 0.828025
Si Si4 0.075461 0.453854 0.172973
Si Si5 0.423455 0.597061 0.748131
Si Si6 0.078973 0.207940 0.725731
Si Si7 0.575250 0.297018 0.813835
Si Si8 0.586892 0.574319 0.948044
O O1 0.750000 0.202784 0.541236
O O2 0.478651 0.183586 0.619113
O O3 0.506982 0.212487 0.424646
O O4 0.596130 0.129265 0.478215
O O5 0.750000 0.957295 0.034461
O O6 0.515219 0.925551 0.139420
O O7 0.500000 0.000000 0.008775
O O8 0.532271 0.910338 0.940247
O O9 0.250000 0.098117 0.803258
O O10 0.061057 0.169728 0.822556
O O11 0.976918 0.092326 0.735784
O O12 0.250000 0.457044 0.181301
O O13 0.000000 0.500000 0.226699
O O14 0.022043 0.452323 0.050882
O O15 0.250000 0.592150 0.751383
O O16 0.470663 0.652671 0.758973
O O17 0.485182 0.565910 0.845955
O O18 0.250000 0.222794 0.713446
O O19 0.978575 0.254593 0.738961
O O20 0.750000 0.294743 0.831834
O O21 0.750000 0.554982 0.920064
#
# Coordination Sequence:
#
# PCOD8183347 Si02
#       8
#     8   8   8   8   8   8   8   8
#     4  10  19  36  58  80 112 151 189 242 299 351
#     4  10  22  41  61  85 116 156 202 248 302 358
#     4  10  22  39  59  83 116 156 198 244 296 360
#     4  11  22  36  55  83 115 147 187 236 293 351
#     4   9  20  38  60  83 115 155 196 241 295 357
#     4  11  22  36  58  88 119 156 200 248 304 367
#     4  10  21  37  58  87 118 157 202 247 300 362
#     4   9  19  35  56  81 110 145 186 235 291 347
#
# _framework density 20.012398000000001
#
# number of rings (size 3 to 8) (size 9 to 14) (size 15 to 20)
#    0.000    2.000    1.250    1.875    0.000    6.000 
#    0.000    5.000    0.000    0.000    0.000    0.000 
#    0.000    0.000    0.000    0.000    0.000    0.000 
#
# Total GULP energy -396733.125038 kJ/mol
# GULP energy per Si atom -12397.910157 kJ/mol
# Density = 1.996685 g / cm^3
# Si number density = 20.012398 Si / 1000 Ang^3
#
#
#
# Elastic Constant Matrix: (Units=GPa)
#
#
# Indices 1 2 3 4 5 6 
#
# 1 63.7508 29.6640 30.7030 0.0000 0.0000 0.0000
# 2 29.6640 61.4378 25.9707 0.0000 0.0000 0.0000
# 3 30.7030 25.9707 101.7058 0.0000 0.0000 0.0000
# 4 0.0000 0.0000 0.0000 23.8846 0.0000 0.0000
# 5 0.0000 0.0000 0.0000 0.0000 32.7445 0.0000
# 6 0.0000 0.0000 0.0000 0.0000 0.0000 27.2102
#
#
#
# Elastic Compliance Matrix: (Units=1/GPa)
#
#
# Indices 1 2 3 4 5 6 
#
# 1 0.021838 -0.008696 -0.004372 0.000000 0.000000 0.000000
# 2 -0.008696 0.021709 -0.002918 0.000000 0.000000 0.000000
# 3 -0.004372 -0.002918 0.011897 0.000000 0.000000 0.000000
# 4 0.000000 0.000000 0.000000 0.041868 0.000000 0.000000
# 5 0.000000 0.000000 0.000000 0.000000 0.030539 0.000000
# 6 0.000000 0.000000 0.000000 0.000000 0.000000 0.036751
#
#
# Mechanical properties :
#
#
# Convention : Reuss Voigt Hill
#
# Bulk Modulus (GPa) = 42.60424 44.39666 43.50045
# Shear Modulus (GPa) = 24.46198 26.13829 25.30014
#
# Velocity S-wave (km/s) = 3.49999 3.61793 3.55945
# Velocity P-wave (km/s) = 6.13746 6.29963 6.21907
#
# Compressibility (1/GPa) = 0.02347184
#
# Stress axis : x y z
#
# Youngs Moduli (GPa) = 45.79180 46.06412 84.05289
#
# Poissons Ratio (x) = 0.40057 0.36747
# Poissons Ratio (y) = 0.39820 0.24529
# Poissons Ratio (z) = 0.20020 0.13443
#
# Static dielectric constant tensor:
#      x y z
#    x 3.663930 0.000000 0.000000 
#    y 0.000000 3.586560 0.000000 
#    z 0.000000 0.000000 3.782890 
# 
# 
# High freq. dielectric constant tensor:
#      x y z
#    x 1.780650 0.000000 0.000000 
#    y 0.000000 1.776350 0.000000 
#    z 0.000000 0.000000 1.780480 
# 
# From -- ./inp_files/10642.got.cif
#   From: 2010.03.12/outbox.cif.g09.slc.cpg/sg40_6_cif.got.tgz:10642.got - 2010.04.14 01:38:03.
