data_PCOD8183167
_publ_section_title
;
Structure prediction by ZEFSAII (Michael W. Deem and Ramdas Pophale) SiO2 
 PCOD8183167
Probable space group: A M A 2
;
_chemical_formula_sum "Si O2"
_cell_formula_units_Z 40
_cell_length_a 9.408239
_cell_length_b 14.543440
_cell_length_c 14.037759
_cell_angle_alpha 90.000000
_cell_angle_beta 90.000000
_cell_angle_gamma 90.000000
_cell_volume 1920.760726
_symmetry_space_group_name_H-M "A M A 2"
_symmetry_group_IT_number 40
_symmetry_cell_setting 'orthorhombic'
loop_
_space_group_symop_operation_xyz
x,y,z
-x,-y,z
1/2-x,y,z
1/2+x,-y,z
x,1/2+y,1/2+z
-x,1/2-y,1/2+z
1/2-x,1/2+y,1/2+z
1/2+x,1/2-y,1/2+z
loop_
_atom_site_type_symbol
_atom_site_label
_atom_site_fract_x
_atom_site_fract_y
_atom_site_fract_z
Si Si1 0.096688 0.575961 0.949220
Si Si2 0.910216 0.240424 0.485558
Si Si3 0.584927 0.723210 0.209377
Si Si4 0.417675 0.595311 0.349978
Si Si5 0.597023 0.424407 0.736779
O O1 0.250000 0.585036 0.001534
O O2 0.123124 0.538251 0.843130
O O3 0.000000 0.500000 0.004837
O O4 0.022254 0.673742 0.936432
O O5 0.750000 0.211195 0.458208
O O6 0.935941 0.225980 0.596709
O O7 0.939482 0.343160 0.445641
O O8 0.750000 0.706290 0.238056
O O9 0.485678 0.646576 0.258149
O O10 0.528961 0.823241 0.241853
O O11 0.500000 0.500000 0.366502
O O12 0.250000 0.577727 0.330602
O O13 0.500000 0.500000 0.682286
O O14 0.750000 0.418315 0.682802
#
# Coordination Sequence:
#
# PCOD8183167 Si02
#       5
#     8   8   8   8   8
#     4  10  19  33  56  84 114 147 186 234 291 352
#     4  10  22  39  61  88 120 157 203 253 303 361
#     4  10  21  40  62  87 120 159 202 252 303 359
#     4  11  24  42  64  91 124 165 209 255 309 370
#     4   9  18  32  54  82 111 144 181 228 286 346
#
# _framework density 20.825081999999998
#
# number of rings (size 3 to 8) (size 9 to 14) (size 15 to 20)
#    0.000    2.000    2.000    1.200    0.000    4.800 
#    0.000    0.000    0.000    0.000    0.000    0.000 
#    0.000    0.000    0.000    0.000    0.000    0.000 
#
# Total GULP energy -247798.752296 kJ/mol
# GULP energy per Si atom -12389.937615 kJ/mol
# Density = 2.077768 g / cm^3
# Si number density = 20.825082 Si / 1000 Ang^3
#
#
#
# Elastic Constant Matrix: (Units=GPa)
#
#
# Indices 1 2 3 4 5 6 
#
# 1 146.5540 87.9936 13.8868 0.0000 0.0000 0.0000
# 2 87.9936 150.0095 7.9852 0.0000 0.0000 0.0000
# 3 13.8868 7.9852 28.0913 0.0000 0.0000 0.0000
# 4 0.0000 0.0000 0.0000 9.6420 0.0000 0.0000
# 5 0.0000 0.0000 0.0000 0.0000 18.4907 0.0000
# 6 0.0000 0.0000 0.0000 0.0000 0.0000 44.4191
#
#
#
# Elastic Compliance Matrix: (Units=1/GPa)
#
#
# Indices 1 2 3 4 5 6 
#
# 1 0.010884 -0.006192 -0.003620 0.000000 0.000000 0.000000
# 2 -0.006192 0.010291 0.000136 0.000000 0.000000 0.000000
# 3 -0.003620 0.000136 0.037349 0.000000 0.000000 0.000000
# 4 0.000000 0.000000 0.000000 0.103713 0.000000 0.000000
# 5 0.000000 0.000000 0.000000 0.000000 0.054081 0.000000
# 6 0.000000 0.000000 0.000000 0.000000 0.000000 0.022513
#
#
# Mechanical properties :
#
#
# Convention : Reuss Voigt Hill
#
# Bulk Modulus (GPa) = 25.52890 60.48733 43.00811
# Shear Modulus (GPa) = 18.43374 28.82964 23.63169
#
# Velocity S-wave (km/s) = 2.97841 3.72475 3.37229
# Velocity P-wave (km/s) = 4.91052 6.89977 5.98832
#
# Compressibility (1/GPa) = 0.03917129
#
# Stress axis : x y z
#
# Youngs Moduli (GPa) = 91.87696 97.17195 26.77414
#
# Poissons Ratio (x) = 0.60167 0.09693
# Poissons Ratio (y) = 0.56888 -0.00363
# Poissons Ratio (z) = 0.33264 -0.01317
#
# Static dielectric constant tensor:
#      x y z
#    x 4.304100 0.000000 0.000000 
#    y 0.000000 3.755970 0.000000 
#    z 0.000000 0.000000 3.532560 
# 
# 
# High freq. dielectric constant tensor:
#      x y z
#    x 1.825100 0.000000 0.000000 
#    y 0.000000 1.818290 0.000000 
#    z 0.000000 0.000000 1.783290 
# 
# From -- ./inp_files/14787.got.cif
#   From: 2010.03.12/outbox.cif.g09.slc.cpg/sg40_8_cif.got.tgz:14787.got - 2010.04.14 01:38:03.
