data_PCOD8183281
_publ_section_title
;
Structure prediction by ZEFSAII (Michael W. Deem and Ramdas Pophale) SiO2 
 PCOD8183281
Probable space group: A M A 2
;
_chemical_formula_sum "Si O2"
_cell_formula_units_Z 64
_cell_length_a 21.765013
_cell_length_b 27.648781
_cell_length_c 5.856277
_cell_angle_alpha 90.000000
_cell_angle_beta 90.000000
_cell_angle_gamma 90.000000
_cell_volume 3524.167404
_symmetry_space_group_name_H-M "A M A 2"
_symmetry_group_IT_number 40
_symmetry_cell_setting 'orthorhombic'
loop_
_space_group_symop_operation_xyz
x,y,z
-x,-y,z
1/2-x,y,z
1/2+x,-y,z
x,1/2+y,1/2+z
-x,1/2-y,1/2+z
1/2-x,1/2+y,1/2+z
1/2+x,1/2-y,1/2+z
loop_
_atom_site_type_symbol
_atom_site_label
_atom_site_fract_x
_atom_site_fract_y
_atom_site_fract_z
Si Si1 0.534106 0.250408 0.278700
Si Si2 0.181311 0.005098 0.234241
Si Si3 0.903788 0.520242 0.346362
Si Si4 0.960272 0.354572 0.242883
Si Si5 0.086402 0.057490 0.488990
Si Si6 0.076872 0.347997 0.934297
Si Si7 0.679738 0.085351 0.544252
Si Si8 0.005184 0.417924 0.623274
O O1 0.496600 0.254406 0.523046
O O2 0.570690 0.301495 0.265954
O O3 0.578393 0.204002 0.307256
O O4 0.250000 0.020340 0.168341
O O5 0.178973 0.950120 0.325956
O O6 0.156229 0.044120 0.418609
O O7 0.137142 0.010431 0.019916
O O8 0.962538 0.546253 0.449632
O O9 0.933750 0.481621 0.175877
O O10 0.858324 0.559964 0.243048
O O11 0.963832 0.378797 0.490299
O O12 0.918379 0.387261 0.076551
O O13 0.029913 0.347339 0.147748
O O14 0.039494 0.050166 0.280107
O O15 0.146546 0.362858 0.000316
O O16 0.056359 0.390841 0.768470
O O17 0.750000 0.095392 0.621172
#
# Coordination Sequence:
#
# PCOD8183281 Si02
#       8
#     8   8   8   8   8   8   8   8
#     4  10  20  35  59  85 115 153 191 236 295 362
#     4  10  21  37  54  74 108 152 197 233 277 344
#     4  11  21  36  53  78 113 153 191 230 291 345
#     4  10  20  35  54  81 114 148 183 236 293 354
#     4  10  24  35  51  82 111 149 187 236 287 339
#     4  10  19  35  54  81 113 146 186 237 293 351
#     4  10  20  35  54  80 112 149 193 237 283 346
#     4  11  20  35  52  77 120 143 186 230 294 352
#
# _framework density 18.160318
#
# number of rings (size 3 to 8) (size 9 to 14) (size 15 to 20)
#    0.000    1.750    3.750    1.125    0.000    3.500 
#    0.000    0.000    0.000    0.750    0.000    0.000 
#    0.000    0.000    0.000    0.000    0.000    0.000 
#
# Total GULP energy -396491.337521 kJ/mol
# GULP energy per Si atom -12390.354298 kJ/mol
# Density = 1.811898 g / cm^3
# Si number density = 18.160318 Si / 1000 Ang^3
#
#
#
# Elastic Constant Matrix: (Units=GPa)
#
#
# Indices 1 2 3 4 5 6 
#
# 1 59.3030 54.5881 10.5548 0.0000 0.0000 0.0000
# 2 54.5881 117.7114 26.9824 0.0000 0.0000 0.0000
# 3 10.5548 26.9824 78.3751 0.0000 0.0000 0.0000
# 4 0.0000 0.0000 0.0000 29.8200 0.0000 0.0000
# 5 0.0000 0.0000 0.0000 0.0000 14.9193 0.0000
# 6 0.0000 0.0000 0.0000 0.0000 0.0000 18.8505
#
#
#
# Elastic Compliance Matrix: (Units=1/GPa)
#
#
# Indices 1 2 3 4 5 6 
#
# 1 0.029468 -0.013849 0.000799 0.000000 0.000000 0.000000
# 2 -0.013849 0.015732 -0.003551 0.000000 0.000000 0.000000
# 3 0.000799 -0.003551 0.013874 0.000000 0.000000 0.000000
# 4 0.000000 0.000000 0.000000 0.033535 0.000000 0.000000
# 5 0.000000 0.000000 0.000000 0.000000 0.067027 0.000000
# 6 0.000000 0.000000 0.000000 0.000000 0.000000 0.053049
#
#
# Mechanical properties :
#
#
# Convention : Reuss Voigt Hill
#
# Bulk Modulus (GPa) = 38.65073 48.84889 43.74981
# Shear Modulus (GPa) = 19.64562 23.60225 21.62393
#
# Velocity S-wave (km/s) = 3.29262 3.60899 3.45443
# Velocity P-wave (km/s) = 5.98201 6.65759 6.32882
#
# Compressibility (1/GPa) = 0.02587273
#
# Stress axis : x y z
#
# Youngs Moduli (GPa) = 33.93496 63.56593 72.07721
#
# Poissons Ratio (x) = 0.88032 -0.05761
# Poissons Ratio (y) = 0.46996 0.25594
# Poissons Ratio (z) = -0.02713 0.22572
#
# Static dielectric constant tensor:
#      x y z
#    x 3.111440 0.000000 0.000000 
#    y 0.000000 3.526510 0.000000 
#    z 0.000000 0.000000 3.689670 
# 
# 
# High freq. dielectric constant tensor:
#      x y z
#    x 1.662440 0.000000 0.000000 
#    y 0.000000 1.699240 0.000000 
#    z 0.000000 0.000000 1.723240 
# 
# From -- ./inp_files/2463.got.cif
#   From: 2010.03.12/outbox.cif.g09.slc.cpg/sg40_2_cif.got.tgz:2463.got - 2010.04.14 01:38:03.
