data_PCOD8183063
_publ_section_title
;
Structure prediction by ZEFSAII (Michael W. Deem and Ramdas Pophale) SiO2 
 PCOD8183063
Probable space group: A M A 2
;
_chemical_formula_sum "Si O2"
_cell_formula_units_Z 64
_cell_length_a 8.873054
_cell_length_b 24.597387
_cell_length_c 15.037287
_cell_angle_alpha 90.000000
_cell_angle_beta 90.000000
_cell_angle_gamma 90.000000
_cell_volume 3281.947181
_symmetry_space_group_name_H-M "A M A 2"
_symmetry_group_IT_number 40
_symmetry_cell_setting 'orthorhombic'
loop_
_space_group_symop_operation_xyz
x,y,z
-x,-y,z
1/2-x,y,z
1/2+x,-y,z
x,1/2+y,1/2+z
-x,1/2-y,1/2+z
1/2-x,1/2+y,1/2+z
1/2+x,1/2-y,1/2+z
loop_
_atom_site_type_symbol
_atom_site_label
_atom_site_fract_x
_atom_site_fract_y
_atom_site_fract_z
Si Si1 0.926141 0.056428 0.878710
Si Si2 0.575489 0.284876 0.167789
Si Si3 0.079344 0.266557 0.990512
Si Si4 0.421665 0.868028 0.378106
Si Si5 0.927641 0.941376 0.520033
Si Si6 0.573691 0.108252 0.694349
Si Si7 0.575730 0.856346 0.003010
Si Si8 0.574576 0.662516 0.684972
O O1 0.750000 0.050745 0.891274
O O2 0.968361 0.070028 0.777036
O O3 0.000000 0.000000 0.906731
O O4 0.981371 0.103239 0.943426
O O5 0.750000 0.298165 0.182495
O O6 0.478944 0.330632 0.218869
O O7 0.531295 0.225379 0.203600
O O8 0.537332 0.288205 0.063348
O O9 0.250000 0.270550 0.028835
O O10 0.059785 0.304639 0.904758
O O11 0.044338 0.204198 0.965267
O O12 0.250000 0.886956 0.395675
O O13 0.532094 0.906591 0.432866
O O14 0.461283 0.871954 0.273606
O O15 0.750000 0.947719 0.527075
O O16 0.986091 0.912146 0.608187
O O17 0.000000 0.000000 0.510179
O O18 0.750000 0.107563 0.673355
O O19 0.750000 0.872213 0.997101
O O20 0.524116 0.861647 0.105342
O O21 0.750000 0.658901 0.658503
#
# Coordination Sequence:
#
# PCOD8183063 Si02
#       8
#     8   8   8   8   8   8   8   8
#     4  11  25  43  63  87 116 154 201 253 301 356
#     4  10  19  32  55  87 121 158 198 239 290 349
#     4   9  18  33  56  84 120 160 195 234 289 351
#     4  10  20  37  60  87 122 162 201 245 294 349
#     4  12  25  41  62  88 119 159 201 248 298 355
#     4  11  23  39  59  87 122 159 197 242 295 355
#     4  10  21  38  62  89 120 158 198 247 301 357
#     4   9  20  37  59  87 123 162 201 247 296 350
#
# _framework density 19.500619
#
# number of rings (size 3 to 8) (size 9 to 14) (size 15 to 20)
#    0.000    1.750    1.250    3.000    1.750    4.500 
#    0.000    0.625    0.000    3.000    0.000    0.000 
#    0.000    0.000    0.000    0.000    0.000    0.000 
#
# Total GULP energy -396879.700652 kJ/mol
# GULP energy per Si atom -12402.490645 kJ/mol
# Density = 1.945623 g / cm^3
# Si number density = 19.500619 Si / 1000 Ang^3
#
#
#
# Elastic Constant Matrix: (Units=GPa)
#
#
# Indices 1 2 3 4 5 6 
#
# 1 80.7914 48.0129 46.6604 0.0000 0.0000 0.0000
# 2 48.0129 104.8527 41.4555 0.0000 0.0000 0.0000
# 3 46.6604 41.4555 81.7754 0.0000 0.0000 0.0000
# 4 0.0000 0.0000 0.0000 21.7800 0.0000 0.0000
# 5 0.0000 0.0000 0.0000 0.0000 24.7773 0.0000
# 6 0.0000 0.0000 0.0000 0.0000 0.0000 33.2105
#
#
#
# Elastic Compliance Matrix: (Units=1/GPa)
#
#
# Indices 1 2 3 4 5 6 
#
# 1 0.021236 -0.006170 -0.008989 0.000000 0.000000 0.000000
# 2 -0.006170 0.013721 -0.003435 0.000000 0.000000 0.000000
# 3 -0.008989 -0.003435 0.019099 0.000000 0.000000 0.000000
# 4 0.000000 0.000000 0.000000 0.045914 0.000000 0.000000
# 5 0.000000 0.000000 0.000000 0.000000 0.040360 0.000000
# 6 0.000000 0.000000 0.000000 0.000000 0.000000 0.030111
#
#
# Mechanical properties :
#
#
# Convention : Reuss Voigt Hill
#
# Bulk Modulus (GPa) = 59.28666 59.96411 59.62538
# Shear Modulus (GPa) = 23.44658 24.70626 24.07642
#
# Velocity S-wave (km/s) = 3.47125 3.56328 3.51757
# Velocity P-wave (km/s) = 6.82163 6.90984 6.86588
#
# Compressibility (1/GPa) = 0.01686720
#
# Stress axis : x y z
#
# Youngs Moduli (GPa) = 47.08995 72.88310 52.35850
#
# Poissons Ratio (x) = 0.44969 0.47066
# Poissons Ratio (y) = 0.29055 0.17985
# Poissons Ratio (z) = 0.42330 0.25035
#
# Static dielectric constant tensor:
#      x y z
#    x 3.597180 0.000000 0.000000 
#    y 0.000000 3.639880 0.000000 
#    z 0.000000 0.000000 3.454260 
# 
# 
# High freq. dielectric constant tensor:
#      x y z
#    x 1.763900 0.000000 0.000000 
#    y 0.000000 1.757570 0.000000 
#    z 0.000000 0.000000 1.752020 
# 
# From -- ./inp_files/15671.got.cif
#   From: 2010.03.12/outbox.cif.g09.slc.cpg/sg40_8_cif.got.tgz:15671.got - 2010.04.14 01:38:03.
