data_PCOD8183845
_publ_section_title
;
Structure prediction by ZEFSAII (Michael W. Deem and Ramdas Pophale) SiO2 
 PCOD8183845
Probable space group: A M A 2
;
_chemical_formula_sum "Si O2"
_cell_formula_units_Z 64
_cell_length_a 9.164604
_cell_length_b 27.165742
_cell_length_c 13.142534
_cell_angle_alpha 90.000000
_cell_angle_beta 90.000000
_cell_angle_gamma 90.000000
_cell_volume 3272.008212
_symmetry_space_group_name_H-M "A M A 2"
_symmetry_group_IT_number 40
_symmetry_cell_setting 'orthorhombic'
loop_
_space_group_symop_operation_xyz
x,y,z
-x,-y,z
1/2-x,y,z
1/2+x,-y,z
x,1/2+y,1/2+z
-x,1/2-y,1/2+z
1/2-x,1/2+y,1/2+z
1/2+x,1/2-y,1/2+z
loop_
_atom_site_type_symbol
_atom_site_label
_atom_site_fract_x
_atom_site_fract_y
_atom_site_fract_z
Si Si1 0.413591 0.721162 0.732540
Si Si2 0.586013 0.213299 0.553545
Si Si3 0.920395 0.948617 0.737709
Si Si4 0.921696 0.448276 0.837931
Si Si5 0.579019 0.888032 0.539818
Si Si6 0.576906 0.880440 0.154000
Si Si7 0.578542 0.380440 0.424640
Si Si8 0.924209 0.719190 0.416035
O O1 0.250000 0.702636 0.753303
O O2 0.409704 0.772934 0.672009
O O3 0.491783 0.673325 0.682659
O O4 0.481836 0.738036 0.839180
O O5 0.750000 0.210806 0.508201
O O6 0.504891 0.162965 0.531786
O O7 0.496641 0.261607 0.518639
O O8 0.750000 0.958794 0.728286
O O9 0.972438 0.915685 0.642181
O O10 0.959685 0.923676 0.845606
O O11 0.000000 0.000000 0.731727
O O12 0.750000 0.457168 0.832036
O O13 0.979250 0.419413 0.737799
O O14 0.000000 0.500000 0.841565
O O15 0.963251 0.419172 0.940419
O O16 0.750000 0.876239 0.543186
O O17 0.750000 0.878839 0.154894
O O18 0.526808 0.895252 0.039294
O O19 0.750000 0.367736 0.422041
O O20 0.489196 0.333429 0.386416
O O21 0.750000 0.715555 0.422399
#
# Coordination Sequence:
#
# PCOD8183845 Si02
#       8
#     8   8   8   8   8   8   8   8
#     4   9  18  33  54  78 108 148 187 220 270 339
#     4  11  21  35  57  84 112 148 188 227 276 337
#     4  10  22  38  59  85 113 149 190 242 297 344
#     4  10  21  37  59  81 107 146 187 233 284 335
#     4  10  21  38  57  82 116 148 185 234 289 344
#     4   9  17  34  57  77 105 147 187 223 273 336
#     4  10  20  37  58  80 112 151 191 233 282 341
#     4  11  21  34  55  83 114 149 188 232 280 334
#
# _framework density 19.559854000000001
#
# number of rings (size 3 to 8) (size 9 to 14) (size 15 to 20)
#    0.000    2.000    1.250    2.625    0.000    4.000 
#    0.000    2.500    0.000    0.000    0.000    0.000 
#    0.000    0.000    0.000    0.000    0.000    0.000 
#
# Total GULP energy -396602.291786 kJ/mol
# GULP energy per Si atom -12393.821618 kJ/mol
# Density = 1.951533 g / cm^3
# Si number density = 19.559854 Si / 1000 Ang^3
#
#
#
# Elastic Constant Matrix: (Units=GPa)
#
#
# Indices 1 2 3 4 5 6 
#
# 1 51.2004 42.2674 20.5953 0.0000 0.0000 0.0000
# 2 42.2674 110.5850 24.4721 0.0000 0.0000 0.0000
# 3 20.5953 24.4721 95.1232 0.0000 0.0000 0.0000
# 4 0.0000 0.0000 0.0000 32.5478 0.0000 0.0000
# 5 0.0000 0.0000 0.0000 0.0000 15.1533 0.0000
# 6 0.0000 0.0000 0.0000 0.0000 0.0000 35.4069
#
#
#
# Elastic Compliance Matrix: (Units=1/GPa)
#
#
# Indices 1 2 3 4 5 6 
#
# 1 0.029730 -0.010539 -0.003726 0.000000 0.000000 0.000000
# 2 -0.010539 0.013325 -0.001146 0.000000 0.000000 0.000000
# 3 -0.003726 -0.001146 0.011614 0.000000 0.000000 0.000000
# 4 0.000000 0.000000 0.000000 0.030724 0.000000 0.000000
# 5 0.000000 0.000000 0.000000 0.000000 0.065992 0.000000
# 6 0.000000 0.000000 0.000000 0.000000 0.000000 0.028243
#
#
# Mechanical properties :
#
#
# Convention : Reuss Voigt Hill
#
# Bulk Modulus (GPa) = 41.93318 47.95312 44.94315
# Shear Modulus (GPa) = 22.89398 27.92652 25.41025
#
# Velocity S-wave (km/s) = 3.42491 3.78265 3.60822
# Velocity P-wave (km/s) = 6.09302 6.60661 6.35501
#
# Compressibility (1/GPa) = 0.02384746
#
# Stress axis : x y z
#
# Youngs Moduli (GPa) = 33.63634 75.04936 86.10160
#
# Poissons Ratio (x) = 0.79093 0.32078
# Poissons Ratio (y) = 0.35449 0.09869
# Poissons Ratio (z) = 0.12531 0.08602
#
# Static dielectric constant tensor:
#      x y z
#    x 3.289570 0.000000 0.000000 
#    y 0.000000 3.501170 0.000000 
#    z 0.000000 0.000000 3.968840 
# 
# 
# High freq. dielectric constant tensor:
#      x y z
#    x 1.731630 0.000000 0.000000 
#    y 0.000000 1.764070 0.000000 
#    z 0.000000 0.000000 1.780680 
# 
# From -- ./inp_files/10607.got.cif
#   From: 2010.03.12/outbox.cif.g09.slc.cpg/sg40_6_cif.got.tgz:10607.got - 2010.04.14 01:38:03.
