data_PCOD8183293
_publ_section_title
;
Structure prediction by ZEFSAII (Michael W. Deem and Ramdas Pophale) SiO2 
 PCOD8183293
Probable space group: A M A 2
;
_chemical_formula_sum "Si O2"
_cell_formula_units_Z 48
_cell_length_a 8.645576
_cell_length_b 30.719637
_cell_length_c 9.173209
_cell_angle_alpha 90.000000
_cell_angle_beta 90.000000
_cell_angle_gamma 90.000000
_cell_volume 2436.303005
_symmetry_space_group_name_H-M "A M A 2"
_symmetry_group_IT_number 40
_symmetry_cell_setting 'orthorhombic'
loop_
_space_group_symop_operation_xyz
x,y,z
-x,-y,z
1/2-x,y,z
1/2+x,-y,z
x,1/2+y,1/2+z
-x,1/2-y,1/2+z
1/2-x,1/2+y,1/2+z
1/2+x,1/2-y,1/2+z
loop_
_atom_site_type_symbol
_atom_site_label
_atom_site_fract_x
_atom_site_fract_y
_atom_site_fract_z
Si Si1 0.932788 0.789440 0.305950
Si Si2 0.930678 0.378369 0.301237
Si Si3 0.066624 0.628227 0.631481
Si Si4 0.069231 0.709853 0.135680
Si Si5 0.068272 0.954458 0.624933
Si Si6 0.066568 0.546174 0.811942
O O1 0.750000 0.793492 0.308958
O O2 0.003986 0.830695 0.219267
O O3 0.995727 0.789548 0.471152
O O4 0.979130 0.745142 0.228853
O O5 0.750000 0.390639 0.296854
O O6 0.987886 0.368500 0.464766
O O7 0.967343 0.337069 0.201816
O O8 0.030339 0.418528 0.244686
O O9 0.250000 0.629954 0.641491
O O10 0.006315 0.583248 0.701714
O O11 0.250000 0.720785 0.143028
O O12 0.250000 0.959200 0.602144
O O13 0.991237 0.941206 0.472257
O O14 0.000000 0.000000 0.681697
O O15 0.250000 0.543300 0.814831
O O16 0.000000 0.500000 0.758855
#
# Coordination Sequence:
#
# PCOD8183293 Si02
#       6
#     8   8   8   8   8   8
#     4  10  20  36  57  81 109 143 185 226 268 323
#     4  10  20  37  58  80 109 144 182 223 272 325
#     4   9  19  35  57  81 107 143 182 224 274 326
#     4  10  21  36  57  83 111 145 182 224 274 323
#     4  11  22  37  57  82 110 143 183 224 270 320
#     4  10  19  35  57  81 109 142 182 225 273 325
#
# _framework density 19.701982999999998
#
# number of rings (size 3 to 8) (size 9 to 14) (size 15 to 20)
#    0.000    2.000    0.000    5.000    0.000    6.000 
#    0.000    7.500    0.000    0.000    0.000    0.000 
#    0.000    0.000    0.000    0.000    0.000    0.000 
#
# Total GULP energy -297679.224481 kJ/mol
# GULP energy per Si atom -12403.301020 kJ/mol
# Density = 1.965714 g / cm^3
# Si number density = 19.701983 Si / 1000 Ang^3
#
#
#
# Elastic Constant Matrix: (Units=GPa)
#
#
# Indices 1 2 3 4 5 6 
#
# 1 51.3823 26.1624 22.2793 0.0000 0.0000 0.0000
# 2 26.1624 110.1079 68.5500 0.0000 0.0000 0.0000
# 3 22.2793 68.5500 150.9667 0.0000 0.0000 0.0000
# 4 0.0000 0.0000 0.0000 41.4894 0.0000 0.0000
# 5 0.0000 0.0000 0.0000 0.0000 -1.9319 0.0000
# 6 0.0000 0.0000 0.0000 0.0000 0.0000 32.6779
#
#
#
# Elastic Compliance Matrix: (Units=1/GPa)
#
#
# Indices 1 2 3 4 5 6 
#
# 1 0.022304 -0.004531 -0.001234 0.000000 0.000000 0.000000
# 2 -0.004531 0.013582 -0.005498 0.000000 0.000000 0.000000
# 3 -0.001234 -0.005498 0.009303 0.000000 0.000000 0.000000
# 4 0.000000 0.000000 0.000000 0.024103 0.000000 0.000000
# 5 0.000000 0.000000 0.000000 0.000000 -0.517620 0.000000
# 6 0.000000 0.000000 0.000000 0.000000 0.000000 0.030602
#
#
# Mechanical properties :
#
#
# Convention : Reuss Voigt Hill
#
# Bulk Modulus (GPa) = 44.12825 60.71560 52.42193
# Shear Modulus (GPa) = -12.89837 27.47809 7.28986
#
# Velocity S-wave (km/s) = -2.56144 3.73860 1.92564
# Velocity P-wave (km/s) = 3.70116 7.03705 5.62222
#
# Compressibility (1/GPa) = 0.02266122
#
# Stress axis : x y z
#
# Youngs Moduli (GPa) = 44.83446 73.62771 107.49469
#
# Poissons Ratio (x) = 0.33364 0.13265
# Poissons Ratio (y) = 0.20316 0.59105
# Poissons Ratio (z) = 0.05533 0.40484
#
# Static dielectric constant tensor:
#      x y z
#    x 3.368100 0.000000 0.000000 
#    y 0.000000 3.710000 0.000000 
#    z 0.000000 0.000000 3.777560 
# 
# 
# High freq. dielectric constant tensor:
#      x y z
#    x 1.744970 0.000000 0.000000 
#    y 0.000000 1.782750 0.000000 
#    z 0.000000 0.000000 1.776880 
# 
# From -- ./inp_files/4558.got.cif
#   From: 2010.03.12/outbox.cif.g09.slc.cpg/sg40_3_cif.got.tgz:4558.got - 2010.04.14 01:38:03.
