data_PCOD8183631
_publ_section_title
;
Structure prediction by ZEFSAII (Michael W. Deem and Ramdas Pophale) SiO2 
 PCOD8183631
Probable space group: A M A 2
;
_chemical_formula_sum "Si O2"
_cell_formula_units_Z 48
_cell_length_a 8.475433
_cell_length_b 13.739079
_cell_length_c 23.570669
_cell_angle_alpha 90.000000
_cell_angle_beta 90.000000
_cell_angle_gamma 90.000000
_cell_volume 2744.678150
_symmetry_space_group_name_H-M "A M A 2"
_symmetry_group_IT_number 40
_symmetry_cell_setting 'orthorhombic'
loop_
_space_group_symop_operation_xyz
x,y,z
-x,-y,z
1/2-x,y,z
1/2+x,-y,z
x,1/2+y,1/2+z
-x,1/2-y,1/2+z
1/2-x,1/2+y,1/2+z
1/2+x,1/2-y,1/2+z
loop_
_atom_site_type_symbol
_atom_site_label
_atom_site_fract_x
_atom_site_fract_y
_atom_site_fract_z
Si Si1 0.065513 0.603434 0.863580
Si Si2 0.935590 0.395896 0.650786
Si Si3 0.065659 0.104080 0.694705
Si Si4 0.436226 0.719978 0.087359
Si Si5 0.435574 0.893527 0.484977
Si Si6 0.434838 0.793087 0.259260
O O1 0.250000 0.594446 0.876566
O O2 0.000000 0.500000 0.841894
O O3 0.977033 0.635460 0.920787
O O4 0.032793 0.683076 0.815605
O O5 0.750000 0.398972 0.661531
O O6 0.000000 0.500000 0.631240
O O7 0.977065 0.321368 0.600342
O O8 0.021831 0.366391 0.708900
O O9 0.250000 0.094038 0.691608
O O10 0.004092 0.139628 0.633130
O O11 0.016794 0.183382 0.741940
O O12 0.000000 0.000000 0.712286
O O13 0.250000 0.736985 0.092617
O O14 0.482413 0.685592 0.024965
O O15 0.250000 0.891732 0.494747
O O16 0.500000 0.000000 0.500091
O O17 0.250000 0.802976 0.272014
#
# Coordination Sequence:
#
# PCOD8183631 Si02
#       6
#     8   8   8   8   8   8
#     4  11  21  34  52  75 101 133 168 208 253 302
#     4  11  21  34  52  76 103 135 170 208 252 302
#     4   9  19  32  50  73 101 132 164 202 246 292
#     4  10  20  35  52  75 104 135 169 209 252 299
#     4  11  21  34  52  76 104 136 169 207 252 302
#     4  10  20  35  51  73 103 135 168 208 253 301
#
# _framework density 17.488389000000002
#
# number of rings (size 3 to 8) (size 9 to 14) (size 15 to 20)
#    0.000    1.667    0.000    8.500    0.000    5.333 
#    0.000    0.000    0.000    1.000    0.000    4.667 
#    0.000    0.000    0.000    0.000    0.000    0.000 
#
# Total GULP energy -297686.766046 kJ/mol
# GULP energy per Si atom -12403.615252 kJ/mol
# Density = 1.744858 g / cm^3
# Si number density = 17.488389 Si / 1000 Ang^3
#
#
#
# Elastic Constant Matrix: (Units=GPa)
#
#
# Indices 1 2 3 4 5 6 
#
# 1 64.7310 21.8543 7.6300 0.0000 0.0000 0.0000
# 2 21.8543 122.2263 52.6508 0.0000 0.0000 0.0000
# 3 7.6300 52.6508 85.9972 0.0000 0.0000 0.0000
# 4 0.0000 0.0000 0.0000 33.9731 0.0000 0.0000
# 5 0.0000 0.0000 0.0000 0.0000 28.8716 0.0000
# 6 0.0000 0.0000 0.0000 0.0000 0.0000 30.7542
#
#
#
# Elastic Compliance Matrix: (Units=1/GPa)
#
#
# Indices 1 2 3 4 5 6 
#
# 1 0.016455 -0.003142 0.000464 0.000000 0.000000 0.000000
# 2 -0.003142 0.011712 -0.006892 0.000000 0.000000 0.000000
# 3 0.000464 -0.006892 0.015807 0.000000 0.000000 0.000000
# 4 0.000000 0.000000 0.000000 0.029435 0.000000 0.000000
# 5 0.000000 0.000000 0.000000 0.000000 0.034636 0.000000
# 6 0.000000 0.000000 0.000000 0.000000 0.000000 0.032516
#
#
# Mechanical properties :
#
#
# Convention : Reuss Voigt Hill
#
# Bulk Modulus (GPa) = 40.26858 48.58050 44.42454
# Shear Modulus (GPa) = 29.76579 31.44108 30.60344
#
# Velocity S-wave (km/s) = 4.13004 4.24468 4.18775
# Velocity P-wave (km/s) = 6.76897 7.20153 6.98860
#
# Compressibility (1/GPa) = 0.02483326
#
# Stress axis : x y z
#
# Youngs Moduli (GPa) = 60.77314 85.38209 63.26479
#
# Poissons Ratio (x) = 0.26826 -0.02933
# Poissons Ratio (y) = 0.19094 0.43601
# Poissons Ratio (z) = -0.02818 0.58844
#
# Static dielectric constant tensor:
#      x y z
#    x 3.368930 0.000000 0.000000 
#    y 0.000000 3.352800 0.000000 
#    z 0.000000 0.000000 3.168680 
# 
# 
# High freq. dielectric constant tensor:
#      x y z
#    x 1.692910 0.000000 0.000000 
#    y 0.000000 1.665950 0.000000 
#    z 0.000000 0.000000 1.665080 
# 
# From -- ./inp_files/23998.got.cif
#   From: 2010.03.12/outbox.cif.g09.slc.cpg/sg40_12_cif.got.tgz:23998.got - 2010.04.14 01:38:03.
