data_PCOD8183120
_publ_section_title
;
Structure prediction by ZEFSAII (Michael W. Deem and Ramdas Pophale) SiO2 
 PCOD8183120
Probable space group: A M A 2
;
_chemical_formula_sum "Si O2"
_cell_formula_units_Z 40
_cell_length_a 8.819064
_cell_length_b 27.948746
_cell_length_c 9.405707
_cell_angle_alpha 90.000000
_cell_angle_beta 90.000000
_cell_angle_gamma 90.000000
_cell_volume 2318.335401
_symmetry_space_group_name_H-M "A M A 2"
_symmetry_group_IT_number 40
_symmetry_cell_setting 'orthorhombic'
loop_
_space_group_symop_operation_xyz
x,y,z
-x,-y,z
1/2-x,y,z
1/2+x,-y,z
x,1/2+y,1/2+z
-x,1/2-y,1/2+z
1/2-x,1/2+y,1/2+z
1/2+x,1/2-y,1/2+z
loop_
_atom_site_type_symbol
_atom_site_label
_atom_site_fract_x
_atom_site_fract_y
_atom_site_fract_z
Si Si1 0.573199 0.293186 0.574060
Si Si2 0.429356 0.632999 0.069289
Si Si3 0.573148 0.703880 0.272977
Si Si4 0.421657 0.950445 0.437619
Si Si5 0.922223 0.141933 0.287864
O O1 0.750000 0.298191 0.540982
O O2 0.482947 0.284908 0.430084
O O3 0.534580 0.249500 0.677374
O O4 0.514737 0.341521 0.650069
O O5 0.250000 0.633926 0.060546
O O6 0.485407 0.657627 0.213533
O O7 0.489579 0.577869 0.064085
O O8 0.499307 0.661856 0.933295
O O9 0.750000 0.692150 0.274281
O O10 0.250000 0.959830 0.487739
O O11 0.425150 0.916323 0.296879
O O12 0.500000 0.000000 0.398981
O O13 0.750000 0.161405 0.281375
#
# Coordination Sequence:
#
# PCOD8183120 Si02
#       5
#     8   8   8   8   8
#     4  11  23  36  54  78 106 144 186 225 272 327
#     4  10  19  33  54  79 108 140 180 224 268 321
#     4  11  23  37  53  76 109 145 182 226 274 326
#     4   9  18  32  55  84 111 142 180 226 274 322
#     4   9  19  34  53  78 109 140 177 222 271 320
#
# _framework density 17.25376
#
# number of rings (size 3 to 8) (size 9 to 14) (size 15 to 20)
#    1.200    0.800    0.000    4.800    0.000    6.400 
#    0.000    0.000    0.000    1.200    0.000    5.600 
#    0.000    0.000    0.000    0.000    0.000    0.000 
#
# Total GULP energy -247904.748845 kJ/mol
# GULP energy per Si atom -12395.237442 kJ/mol
# Density = 1.721449 g / cm^3
# Si number density = 17.253760 Si / 1000 Ang^3
#
#
#
# Elastic Constant Matrix: (Units=GPa)
#
#
# Indices 1 2 3 4 5 6 
#
# 1 116.8859 44.7280 37.1101 0.0000 0.0000 0.0000
# 2 44.7280 86.7879 34.5538 0.0000 0.0000 0.0000
# 3 37.1101 34.5538 91.0158 0.0000 0.0000 0.0000
# 4 0.0000 0.0000 0.0000 22.4615 0.0000 0.0000
# 5 0.0000 0.0000 0.0000 0.0000 32.4621 0.0000
# 6 0.0000 0.0000 0.0000 0.0000 0.0000 22.4581
#
#
#
# Elastic Compliance Matrix: (Units=1/GPa)
#
#
# Indices 1 2 3 4 5 6 
#
# 1 0.011234 -0.004672 -0.002807 0.000000 0.000000 0.000000
# 2 -0.004672 0.015517 -0.003986 0.000000 0.000000 0.000000
# 3 -0.002807 -0.003986 0.013645 0.000000 0.000000 0.000000
# 4 0.000000 0.000000 0.000000 0.044521 0.000000 0.000000
# 5 0.000000 0.000000 0.000000 0.000000 0.030805 0.000000
# 6 0.000000 0.000000 0.000000 0.000000 0.000000 0.044527
#
#
# Mechanical properties :
#
#
# Convention : Reuss Voigt Hill
#
# Bulk Modulus (GPa) = 57.25348 58.60813 57.93081
# Shear Modulus (GPa) = 26.45470 27.36285 26.90877
#
# Velocity S-wave (km/s) = 3.91995 3.98666 3.95345
# Velocity P-wave (km/s) = 7.33098 7.43192 7.38162
#
# Compressibility (1/GPa) = 0.01746619
#
# Stress axis : x y z
#
# Youngs Moduli (GPa) = 89.01204 64.44394 73.28807
#
# Poissons Ratio (x) = 0.30111 0.20570
# Poissons Ratio (y) = 0.41590 0.29213
# Poissons Ratio (z) = 0.24984 0.25687
#
# Static dielectric constant tensor:
#      x y z
#    x 3.305900 0.000000 0.000000 
#    y 0.000000 3.072880 0.000000 
#    z 0.000000 0.000000 2.990870 
# 
# 
# High freq. dielectric constant tensor:
#      x y z
#    x 1.688940 0.000000 0.000000 
#    y 0.000000 1.651260 0.000000 
#    z 0.000000 0.000000 1.639870 
# 
# From -- ./inp_files/4368.got.cif
#   From: 2010.03.12/outbox.cif.g09.slc.cpg/sg40_3_cif.got.tgz:4368.got - 2010.04.14 01:38:03.
