data_PCOD8183037
_publ_section_title
;
Structure prediction by ZEFSAII (Michael W. Deem and Ramdas Pophale) SiO2 
 PCOD8183037
Probable space group: A M A 2
;
_chemical_formula_sum "Si O2"
_cell_formula_units_Z 48
_cell_length_a 8.857988
_cell_length_b 23.099291
_cell_length_c 11.924107
_cell_angle_alpha 90.000000
_cell_angle_beta 90.000000
_cell_angle_gamma 90.000000
_cell_volume 2439.830197
_symmetry_space_group_name_H-M "A M A 2"
_symmetry_group_IT_number 40
_symmetry_cell_setting 'orthorhombic'
loop_
_space_group_symop_operation_xyz
x,y,z
-x,-y,z
1/2-x,y,z
1/2+x,-y,z
x,1/2+y,1/2+z
-x,1/2-y,1/2+z
1/2-x,1/2+y,1/2+z
1/2+x,1/2-y,1/2+z
loop_
_atom_site_type_symbol
_atom_site_label
_atom_site_fract_x
_atom_site_fract_y
_atom_site_fract_z
Si Si1 0.418365 0.840774 0.916060
Si Si2 0.928180 0.377714 0.065103
Si Si3 0.418763 0.445399 0.252734
Si Si4 0.429274 0.850672 0.163705
Si Si5 0.929635 0.564087 0.854721
Si Si6 0.571867 0.275260 0.225090
O O1 0.250000 0.814681 0.931607
O O2 0.411752 0.900093 0.851112
O O3 0.514886 0.794779 0.846855
O O4 0.491606 0.855200 0.036833
O O5 0.750000 0.378479 0.043021
O O6 0.982927 0.316875 0.122100
O O7 0.973808 0.428118 0.150231
O O8 0.014403 0.391311 0.950010
O O9 0.500000 0.500000 0.308477
O O10 0.250000 0.458330 0.207747
O O11 0.250000 0.849963 0.164847
O O12 0.483282 0.905255 0.238543
O O13 0.491208 0.789362 0.209566
O O14 0.750000 0.558011 0.862629
O O15 0.000000 0.500000 0.864390
O O16 0.750000 0.277985 0.228068
#
# Coordination Sequence:
#
# PCOD8183037 Si02
#       6
#     8   8   8   8   8   8
#     4   9  19  36  56  79 108 142 181 223 275 334
#     4  10  20  35  57  84 113 144 183 232 280 330
#     4  10  19  32  53  80 108 142 182 225 274 325
#     4   9  20  38  58  80 111 150 183 225 282 337
#     4  11  23  39  58  81 115 154 194 233 278 334
#     4   9  19  36  58  84 112 142 181 230 283 334
#
# _framework density 19.673501000000002
#
# number of rings (size 3 to 8) (size 9 to 14) (size 15 to 20)
#    0.000    2.333    0.000    2.000    2.333    2.000 
#    0.000    3.333    0.000    0.000    0.000    0.000 
#    0.000    0.000    0.000    0.000    0.000    0.000 
#
# Total GULP energy -297473.709059 kJ/mol
# GULP energy per Si atom -12394.737877 kJ/mol
# Density = 1.962872 g / cm^3
# Si number density = 19.673501 Si / 1000 Ang^3
#
#
#
# Elastic Constant Matrix: (Units=GPa)
#
#
# Indices 1 2 3 4 5 6 
#
# 1 52.0400 31.6399 27.8228 0.0000 0.0000 0.0000
# 2 31.6399 90.0223 37.6071 0.0000 0.0000 0.0000
# 3 27.8228 37.6071 140.8161 0.0000 0.0000 0.0000
# 4 0.0000 0.0000 0.0000 8.8423 0.0000 0.0000
# 5 0.0000 0.0000 0.0000 0.0000 25.2442 0.0000
# 6 0.0000 0.0000 0.0000 0.0000 0.0000 20.8337
#
#
#
# Elastic Compliance Matrix: (Units=1/GPa)
#
#
# Indices 1 2 3 4 5 6 
#
# 1 0.025501 -0.007719 -0.002977 0.000000 0.000000 0.000000
# 2 -0.007719 0.014840 -0.002438 0.000000 0.000000 0.000000
# 3 -0.002977 -0.002438 0.008341 0.000000 0.000000 0.000000
# 4 0.000000 0.000000 0.000000 0.113093 0.000000 0.000000
# 5 0.000000 0.000000 0.000000 0.000000 0.039613 0.000000
# 6 0.000000 0.000000 0.000000 0.000000 0.000000 0.047999
#
#
# Mechanical properties :
#
#
# Convention : Reuss Voigt Hill
#
# Bulk Modulus (GPa) = 44.61663 53.00199 48.80931
# Shear Modulus (GPa) = 17.66002 23.37128 20.51565
#
# Velocity S-wave (km/s) = 2.99934 3.45041 3.23275
# Velocity P-wave (km/s) = 5.89258 6.54776 6.22879
#
# Compressibility (1/GPa) = 0.02241317
#
# Stress axis : x y z
#
# Youngs Moduli (GPa) = 39.21461 67.38609 119.89275
#
# Poissons Ratio (x) = 0.52015 0.35692
# Poissons Ratio (y) = 0.30270 0.29231
# Poissons Ratio (z) = 0.11674 0.16429
#
# Static dielectric constant tensor:
#      x y z
#    x 3.505900 0.000000 0.000000 
#    y 0.000000 3.716210 0.000000 
#    z 0.000000 0.000000 3.746150 
# 
# 
# High freq. dielectric constant tensor:
#      x y z
#    x 1.750930 0.000000 0.000000 
#    y 0.000000 1.771020 0.000000 
#    z 0.000000 0.000000 1.769560 
# 
# From -- ./inp_files/10234.got.cif
#   From: 2010.03.12/outbox.cif.g09.slc.cpg/sg40_6_cif.got.tgz:10234.got - 2010.04.14 01:38:03.
