data_PCOD8183934
_publ_section_title
;
Structure prediction by ZEFSAII (Michael W. Deem and Ramdas Pophale) SiO2 
 PCOD8183934
Probable space group: A M A 2
;
_chemical_formula_sum "Si O2"
_cell_formula_units_Z 48
_cell_length_a 22.943569
_cell_length_b 11.062684
_cell_length_c 9.249899
_cell_angle_alpha 90.000000
_cell_angle_beta 90.000000
_cell_angle_gamma 90.000000
_cell_volume 2347.785811
_symmetry_space_group_name_H-M "A M A 2"
_symmetry_group_IT_number 40
_symmetry_cell_setting 'orthorhombic'
loop_
_space_group_symop_operation_xyz
x,y,z
-x,-y,z
1/2-x,y,z
1/2+x,-y,z
x,1/2+y,1/2+z
-x,1/2-y,1/2+z
1/2-x,1/2+y,1/2+z
1/2+x,1/2-y,1/2+z
loop_
_atom_site_type_symbol
_atom_site_label
_atom_site_fract_x
_atom_site_fract_y
_atom_site_fract_z
Si Si1 0.566369 0.701136 0.939230
Si Si2 0.816277 0.542279 0.229437
Si Si3 0.185721 0.683142 0.777783
Si Si4 0.815517 0.335125 0.450649
Si Si5 0.010943 0.641453 0.189479
Si Si6 0.601659 0.452430 0.983480
O O1 0.634184 0.737427 0.922962
O O2 0.526580 0.780163 0.830922
O O3 0.542958 0.708205 0.106519
O O4 0.563609 0.557258 0.903298
O O5 0.750000 0.527353 0.178610
O O6 0.828852 0.675879 0.284348
O O7 0.831972 0.453213 0.359990
O O8 0.855105 0.519300 0.091486
O O9 0.250000 0.660344 0.845058
O O10 0.184313 0.628181 0.617544
O O11 0.135968 0.619832 0.865433
O O12 0.750000 0.285844 0.409350
O O13 0.062586 0.642749 0.071508
O O14 0.000000 0.500000 0.233838
#
# Coordination Sequence:
#
# PCOD8183934 Si02
#       6
#     8   8   8   8   8   8
#     4  11  23  44  65  92 127 163 211 263 314 376
#     4  10  20  38  61  88 127 167 205 257 313 371
#     4  10  22  38  61  95 130 166 206 257 316 374
#     4  10  21  39  64  92 124 164 207 254 316 376
#     4  10  25  44  62  92 125 166 213 261 315 376
#     4  11  22  39  65  91 123 162 215 257 312 373
#
# _framework density 20.444796
#
# number of rings (size 3 to 8) (size 9 to 14) (size 15 to 20)
#    0.000    1.667    3.333    0.500    2.333    2.000 
#    3.000    0.000    0.000    0.000    0.000    0.000 
#    0.000    0.000    0.000    0.000    0.000    0.000 
#
# Total GULP energy -297442.538747 kJ/mol
# GULP energy per Si atom -12393.439114 kJ/mol
# Density = 2.039826 g / cm^3
# Si number density = 20.444796 Si / 1000 Ang^3
#
#
#
# Elastic Constant Matrix: (Units=GPa)
#
#
# Indices 1 2 3 4 5 6 
#
# 1 79.1023 29.5680 25.1962 0.0000 0.0000 0.0000
# 2 29.5680 80.1214 44.8633 0.0000 0.0000 0.0000
# 3 25.1962 44.8633 67.1368 0.0000 0.0000 0.0000
# 4 0.0000 0.0000 0.0000 36.4311 0.0000 0.0000
# 5 0.0000 0.0000 0.0000 0.0000 42.3179 0.0000
# 6 0.0000 0.0000 0.0000 0.0000 0.0000 41.7903
#
#
#
# Elastic Compliance Matrix: (Units=1/GPa)
#
#
# Indices 1 2 3 4 5 6 
#
# 1 0.015057 -0.003823 -0.003096 0.000000 0.000000 0.000000
# 2 -0.003823 0.020914 -0.012541 0.000000 0.000000 0.000000
# 3 -0.003096 -0.012541 0.024437 0.000000 0.000000 0.000000
# 4 0.000000 0.000000 0.000000 0.027449 0.000000 0.000000
# 5 0.000000 0.000000 0.000000 0.000000 0.023631 0.000000
# 6 0.000000 0.000000 0.000000 0.000000 0.000000 0.023929
#
#
# Mechanical properties :
#
#
# Convention : Reuss Voigt Hill
#
# Bulk Modulus (GPa) = 46.53687 47.29062 46.91374
# Shear Modulus (GPa) = 27.54826 32.55672 30.05249
#
# Velocity S-wave (km/s) = 3.67474 3.99484 3.83813
# Velocity P-wave (km/s) = 6.38879 6.66779 6.52978
#
# Compressibility (1/GPa) = 0.02148834
#
# Stress axis : x y z
#
# Youngs Moduli (GPa) = 66.41388 47.81489 40.92128
#
# Poissons Ratio (x) = 0.18279 0.12670
# Poissons Ratio (y) = 0.25390 0.51318
# Poissons Ratio (z) = 0.20563 0.59964
#
# Static dielectric constant tensor:
#      x y z
#    x 4.100650 0.000000 0.000000 
#    y 0.000000 3.813990 0.000000 
#    z 0.000000 0.000000 3.585900 
# 
# 
# High freq. dielectric constant tensor:
#      x y z
#    x 1.822610 0.000000 0.000000 
#    y 0.000000 1.792470 0.000000 
#    z 0.000000 0.000000 1.783280 
# 
# From -- ./inp_files/8717.got.cif
#   From: 2010.03.12/outbox.cif.g09.slc.cpg/sg40_5_cif.got.tgz:8717.got - 2010.04.14 01:38:03.
