data_PCOD8183838
_publ_section_title
;
Structure prediction by ZEFSAII (Michael W. Deem and Ramdas Pophale) SiO2 
 PCOD8183838
Probable space group: A M A 2
;
_chemical_formula_sum "Si O2"
_cell_formula_units_Z 48
_cell_length_a 14.198015
_cell_length_b 7.284235
_cell_length_c 22.633921
_cell_angle_alpha 90.000000
_cell_angle_beta 90.000000
_cell_angle_gamma 90.000000
_cell_volume 2340.838085
_symmetry_space_group_name_H-M "A M A 2"
_symmetry_group_IT_number 40
_symmetry_cell_setting 'orthorhombic'
loop_
_space_group_symop_operation_xyz
x,y,z
-x,-y,z
1/2-x,y,z
1/2+x,-y,z
x,1/2+y,1/2+z
-x,1/2-y,1/2+z
1/2-x,1/2+y,1/2+z
1/2+x,1/2-y,1/2+z
loop_
_atom_site_type_symbol
_atom_site_label
_atom_site_fract_x
_atom_site_fract_y
_atom_site_fract_z
Si Si1 0.357683 0.655228 0.185430
Si Si2 0.141088 0.960768 0.097794
Si Si3 0.492851 0.793282 0.416948
Si Si4 0.995132 0.786164 0.786281
Si Si5 0.860282 0.759866 0.193552
Si Si6 0.363087 0.990029 0.964701
O O1 0.250000 0.671113 0.204546
O O2 0.412353 0.750002 0.239266
O O3 0.387095 0.446061 0.173851
O O4 0.377500 0.759242 0.124093
O O5 0.250000 0.009398 0.093415
O O6 0.096038 0.111519 0.142147
O O7 0.100339 0.970807 0.032091
O O8 0.477456 0.819327 0.346920
O O9 0.401580 0.686524 0.442404
O O10 0.588685 0.677997 0.429203
O O11 0.500000 0.000000 0.443952
O O12 0.090525 0.706155 0.756707
O O13 0.000000 0.000000 0.802108
O O14 0.750000 0.794641 0.202658
O O15 0.250000 0.979656 0.956946
#
# Coordination Sequence:
#
# PCOD8183838 Si02
#       6
#     8   8   8   8   8   8
#     4   9  19  34  55  86 117 146 187 245 307 364
#     4   9  19  37  61  88 115 151 202 247 302 373
#     4  11  25  42  60  92 126 161 222 263 296 371
#     4  10  20  37  56  81 119 159 195 246 302 362
#     4   9  19  34  55  86 117 146 187 245 307 364
#     4  10  23  45  66  87 127 172 207 259 313 362
#
# _framework density 20.505476999999999
#
# number of rings (size 3 to 8) (size 9 to 14) (size 15 to 20)
#    0.000    2.333    1.667    0.000    2.333    6.000 
#    0.000    5.000    0.000    0.000    0.000    0.000 
#    0.000    0.000    0.000    0.000    0.000    0.000 
#
# Total GULP energy -297516.801030 kJ/mol
# GULP energy per Si atom -12396.533376 kJ/mol
# Density = 2.045881 g / cm^3
# Si number density = 20.505477 Si / 1000 Ang^3
#
#
#
# Elastic Constant Matrix: (Units=GPa)
#
#
# Indices 1 2 3 4 5 6 
#
# 1 67.6759 7.6478 10.4536 0.0000 0.0000 0.0000
# 2 7.6478 92.1514 23.3050 0.0000 0.0000 0.0000
# 3 10.4536 23.3050 123.3052 0.0000 0.0000 0.0000
# 4 0.0000 0.0000 0.0000 23.4676 0.0000 0.0000
# 5 0.0000 0.0000 0.0000 0.0000 20.8972 0.0000
# 6 0.0000 0.0000 0.0000 0.0000 0.0000 14.8745
#
#
#
# Elastic Compliance Matrix: (Units=1/GPa)
#
#
# Indices 1 2 3 4 5 6 
#
# 1 0.015055 -0.000973 -0.001092 0.000000 0.000000 0.000000
# 2 -0.000973 0.011459 -0.002083 0.000000 0.000000 0.000000
# 3 -0.001092 -0.002083 0.008596 0.000000 0.000000 0.000000
# 4 0.000000 0.000000 0.000000 0.042612 0.000000 0.000000
# 5 0.000000 0.000000 0.000000 0.000000 0.047853 0.000000
# 6 0.000000 0.000000 0.000000 0.000000 0.000000 0.067229
#
#
# Mechanical properties :
#
#
# Convention : Reuss Voigt Hill
#
# Bulk Modulus (GPa) = 37.29552 40.66057 38.97805
# Shear Modulus (GPa) = 23.80489 27.96292 25.88390
#
# Velocity S-wave (km/s) = 3.41090 3.69681 3.55673
# Velocity P-wave (km/s) = 5.80860 6.17204 5.99308
#
# Compressibility (1/GPa) = 0.02681287
#
# Stress axis : x y z
#
# Youngs Moduli (GPa) = 66.42299 87.26506 116.32875
#
# Poissons Ratio (x) = 0.08492 0.12708
# Poissons Ratio (y) = 0.06464 0.24235
# Poissons Ratio (z) = 0.07256 0.18180
#
# Static dielectric constant tensor:
#      x y z
#    x 3.686660 0.000000 0.000000 
#    y 0.000000 3.791260 0.000000 
#    z 0.000000 0.000000 3.832910 
# 
# 
# High freq. dielectric constant tensor:
#      x y z
#    x 1.802120 0.000000 0.000000 
#    y 0.000000 1.804150 0.000000 
#    z 0.000000 0.000000 1.797640 
# 
# From -- ./inp_files/22991.got.cif
#   From: 2010.03.12/outbox.cif.g09.slc.cpg/sg40_12_cif.got.tgz:22991.got - 2010.04.14 01:38:03.
