data_PCOD8183056
_publ_section_title
;
Structure prediction by ZEFSAII (Michael W. Deem and Ramdas Pophale) SiO2 
 PCOD8183056
Probable space group: A M A 2
;
_chemical_formula_sum "Si O2"
_cell_formula_units_Z 64
_cell_length_a 9.039418
_cell_length_b 24.746982
_cell_length_c 15.190800
_cell_angle_alpha 90.000000
_cell_angle_beta 90.000000
_cell_angle_gamma 90.000000
_cell_volume 3398.156356
_symmetry_space_group_name_H-M "A M A 2"
_symmetry_group_IT_number 40
_symmetry_cell_setting 'orthorhombic'
loop_
_space_group_symop_operation_xyz
x,y,z
-x,-y,z
1/2-x,y,z
1/2+x,-y,z
x,1/2+y,1/2+z
-x,1/2-y,1/2+z
1/2-x,1/2+y,1/2+z
1/2+x,1/2-y,1/2+z
loop_
_atom_site_type_symbol
_atom_site_label
_atom_site_fract_x
_atom_site_fract_y
_atom_site_fract_z
Si Si1 0.574375 0.943380 0.292630
Si Si2 0.925388 0.944804 0.927140
Si Si3 0.422431 0.101902 0.107714
Si Si4 0.920927 0.662199 0.109902
Si Si5 0.080989 0.718562 0.656892
Si Si6 0.075680 0.145256 0.436220
Si Si7 0.921311 0.854062 0.789986
Si Si8 0.920807 0.734234 0.833259
O O1 0.750000 0.950292 0.290848
O O2 0.511616 0.922041 0.198649
O O3 0.526538 0.900719 0.367333
O O4 0.500000 0.000000 0.316293
O O5 0.750000 0.951252 0.930856
O O6 0.972189 0.900903 0.855266
O O7 0.991429 0.927410 0.022467
O O8 0.000000 0.000000 0.897205
O O9 0.250000 0.090128 0.108864
O O10 0.451638 0.166139 0.097273
O O11 0.750000 0.646503 0.103702
O O12 0.944757 0.727022 0.101192
O O13 0.981947 0.640973 0.202432
O O14 0.006611 0.632099 0.031431
O O15 0.250000 0.716667 0.693380
O O16 0.968649 0.714615 0.737213
O O17 0.250000 0.148429 0.445650
O O18 0.015762 0.203499 0.406254
O O19 0.750000 0.858520 0.762724
O O20 0.950702 0.798085 0.841286
O O21 0.750000 0.719788 0.848332
#
# Coordination Sequence:
#
# PCOD8183056 Si02
#       8
#     8   8   8   8   8   8   8   8
#     4  10  21  37  57  80 110 151 190 229 278 331
#     4  10  21  37  59  82 110 149 191 237 282 333
#     4   9  17  33  56  81 112 150 185 217 272 341
#     4  10  21  35  58  86 113 147 188 238 284 334
#     4   9  17  33  55  79 114 152 183 217 276 341
#     4  11  22  37  56  81 117 155 188 228 285 343
#     4   9  20  38  58  81 113 151 188 231 290 342
#     4  10  19  32  54  84 114 144 187 231 271 330
#
# _framework density 18.833742000000001
#
# number of rings (size 3 to 8) (size 9 to 14) (size 15 to 20)
#    0.000    2.250    1.250    1.500    1.750    2.500 
#    0.000    1.250    0.000    0.000    0.000    0.000 
#    0.000    0.000    0.000    0.000    0.000    0.000 
#
# Total GULP energy -396822.027338 kJ/mol
# GULP energy per Si atom -12400.688354 kJ/mol
# Density = 1.879088 g / cm^3
# Si number density = 18.833742 Si / 1000 Ang^3
#
#
#
# Elastic Constant Matrix: (Units=GPa)
#
#
# Indices 1 2 3 4 5 6 
#
# 1 63.9529 43.8581 55.5214 0.0000 0.0000 0.0000
# 2 43.8581 122.3309 72.8257 0.0000 0.0000 0.0000
# 3 55.5214 72.8257 127.5459 0.0000 0.0000 0.0000
# 4 0.0000 0.0000 0.0000 27.7113 0.0000 0.0000
# 5 0.0000 0.0000 0.0000 0.0000 28.5117 0.0000
# 6 0.0000 0.0000 0.0000 0.0000 0.0000 28.3567
#
#
#
# Elastic Compliance Matrix: (Units=1/GPa)
#
#
# Indices 1 2 3 4 5 6 
#
# 1 0.026348 -0.003967 -0.009204 0.000000 0.000000 0.000000
# 2 -0.003967 0.012981 -0.005685 0.000000 0.000000 0.000000
# 3 -0.009204 -0.005685 0.015093 0.000000 0.000000 0.000000
# 4 0.000000 0.000000 0.000000 0.036086 0.000000 0.000000
# 5 0.000000 0.000000 0.000000 0.000000 0.035073 0.000000
# 6 0.000000 0.000000 0.000000 0.000000 0.000000 0.035265
#
#
# Mechanical properties :
#
#
# Convention : Reuss Voigt Hill
#
# Bulk Modulus (GPa) = 59.84639 73.13779 66.49209
# Shear Modulus (GPa) = 24.49427 26.35757 25.42592
#
# Velocity S-wave (km/s) = 3.61023 3.74503 3.67825
# Velocity P-wave (km/s) = 7.01594 7.59065 7.30895
#
# Compressibility (1/GPa) = 0.01670945
#
# Stress axis : x y z
#
# Youngs Moduli (GPa) = 37.95395 77.03442 66.25497
#
# Poissons Ratio (x) = 0.30557 0.60984
# Poissons Ratio (y) = 0.15055 0.37668
# Poissons Ratio (z) = 0.34935 0.43796
#
# Static dielectric constant tensor:
#      x y z
#    x 3.308920 0.000000 0.000000 
#    y 0.000000 3.438610 0.000000 
#    z 0.000000 0.000000 3.485870 
# 
# 
# High freq. dielectric constant tensor:
#      x y z
#    x 1.718270 0.000000 0.000000 
#    y 0.000000 1.726320 0.000000 
#    z 0.000000 0.000000 1.730690 
# 
# From -- ./inp_files/15577.got.cif
#   From: 2010.03.12/outbox.cif.g09.slc.cpg/sg40_8_cif.got.tgz:15577.got - 2010.04.14 01:38:03.
