data_PCOD8183366
_publ_section_title
;
Structure prediction by ZEFSAII (Michael W. Deem and Ramdas Pophale) SiO2 
 PCOD8183366
Probable space group: A M A 2
;
_chemical_formula_sum "Si O2"
_cell_formula_units_Z 64
_cell_length_a 8.846576
_cell_length_b 15.319469
_cell_length_c 23.550871
_cell_angle_alpha 90.000000
_cell_angle_beta 90.000000
_cell_angle_gamma 90.000000
_cell_volume 3191.728184
_symmetry_space_group_name_H-M "A M A 2"
_symmetry_group_IT_number 40
_symmetry_cell_setting 'orthorhombic'
loop_
_space_group_symop_operation_xyz
x,y,z
-x,-y,z
1/2-x,y,z
1/2+x,-y,z
x,1/2+y,1/2+z
-x,1/2-y,1/2+z
1/2-x,1/2+y,1/2+z
1/2+x,1/2-y,1/2+z
loop_
_atom_site_type_symbol
_atom_site_label
_atom_site_fract_x
_atom_site_fract_y
_atom_site_fract_z
Si Si1 0.428593 0.408345 0.591110
Si Si2 0.071224 0.844904 0.725696
Si Si3 0.928933 0.248240 0.528297
Si Si4 0.428221 0.736777 0.908385
Si Si5 0.572937 0.588489 0.344619
Si Si6 0.422397 0.338040 0.712442
Si Si7 0.424723 0.910134 0.333310
Si Si8 0.928175 0.088493 0.606518
O O1 0.500000 0.500000 0.573172
O O2 0.250000 0.414064 0.584300
O O3 0.490546 0.336349 0.547919
O O4 0.477777 0.386578 0.655575
O O5 0.250000 0.845871 0.727729
O O6 0.004354 0.889760 0.782262
O O7 0.011347 0.896366 0.670566
O O8 0.025247 0.744856 0.723075
O O9 0.750000 0.261978 0.529611
O O10 0.981557 0.170186 0.569285
O O11 0.983019 0.220794 0.466228
O O12 0.250000 0.723877 0.917209
O O13 0.467520 0.833923 0.887384
O O14 0.486487 0.669144 0.861800
O O15 0.500000 0.500000 0.368430
O O16 0.750000 0.574309 0.340305
O O17 0.250000 0.306505 0.705588
O O18 0.440402 0.403346 0.765308
O O19 0.250000 0.908298 0.352332
O O20 0.500000 0.000000 0.353728
O O21 0.750000 0.078526 0.604261
O O22 0.000000 0.000000 0.582001
#
# Coordination Sequence:
#
# PCOD8183366 Si02
#       8
#     8   8   8   8   8   8   8   8
#     4  11  23  40  63  93 125 161 203 250 306 367
#     4  10  19  36  60  89 123 157 193 241 301 364
#     4  11  24  43  64  88 120 161 207 257 307 359
#     4  11  24  43  64  88 120 161 207 257 307 359
#     4  10  22  38  61  90 121 157 196 242 299 358
#     4  10  21  36  60  93 125 159 199 245 303 366
#     4  11  23  40  63  93 125 161 203 250 306 367
#     4  10  22  38  61  90 121 157 196 242 299 358
#
# _framework density 20.051832000000001
#
# number of rings (size 3 to 8) (size 9 to 14) (size 15 to 20)
#    0.000    1.500    2.500    2.250    0.000    5.000 
#    0.000    2.500    0.000    0.000    0.000    0.000 
#    0.000    0.000    0.000    0.000    0.000    0.000 
#
# Total GULP energy -396950.878112 kJ/mol
# GULP energy per Si atom -12404.714941 kJ/mol
# Density = 2.000619 g / cm^3
# Si number density = 20.051832 Si / 1000 Ang^3
#
#
#
# Elastic Constant Matrix: (Units=GPa)
#
#
# Indices 1 2 3 4 5 6 
#
# 1 50.9322 39.4061 23.0221 0.0000 0.0000 0.0000
# 2 39.4061 119.4181 6.6477 0.0000 0.0000 0.0000
# 3 23.0221 6.6477 71.1546 0.0000 0.0000 0.0000
# 4 0.0000 0.0000 0.0000 12.6080 0.0000 0.0000
# 5 0.0000 0.0000 0.0000 0.0000 26.3407 0.0000
# 6 0.0000 0.0000 0.0000 0.0000 0.0000 39.2295
#
#
#
# Elastic Compliance Matrix: (Units=1/GPa)
#
#
# Indices 1 2 3 4 5 6 
#
# 1 0.031447 -0.009862 -0.009253 0.000000 0.000000 0.000000
# 2 -0.009862 0.011510 0.002115 0.000000 0.000000 0.000000
# 3 -0.009253 0.002115 0.016850 0.000000 0.000000 0.000000
# 4 0.000000 0.000000 0.000000 0.079315 0.000000 0.000000
# 5 0.000000 0.000000 0.000000 0.000000 0.037964 0.000000
# 6 0.000000 0.000000 0.000000 0.000000 0.000000 0.025491
#
#
# Mechanical properties :
#
#
# Convention : Reuss Voigt Hill
#
# Bulk Modulus (GPa) = 38.74768 42.18407 40.46588
# Shear Modulus (GPa) = 20.39327 27.13090 23.76208
#
# Velocity S-wave (km/s) = 3.19255 3.68236 3.44617
# Velocity P-wave (km/s) = 5.74069 6.25802 6.00493
#
# Compressibility (1/GPa) = 0.02580799
#
# Stress axis : x y z
#
# Youngs Moduli (GPa) = 31.79999 86.87792 59.34670
#
# Poissons Ratio (x) = 0.85677 0.54915
# Poissons Ratio (y) = 0.31360 -0.12554
# Poissons Ratio (z) = 0.29425 -0.18378
#
# Static dielectric constant tensor:
#      x y z
#    x 3.713910 0.000000 0.000000 
#    y 0.000000 3.654750 0.000000 
#    z 0.000000 0.000000 3.769590 
# 
# 
# High freq. dielectric constant tensor:
#      x y z
#    x 1.781250 0.000000 0.000000 
#    y 0.000000 1.790880 0.000000 
#    z 0.000000 0.000000 1.784350 
# 
# From -- ./inp_files/24326.got.cif
#   From: 2010.03.12/outbox.cif.g09.slc.cpg/sg40_13_cif.got.tgz:24326.got - 2010.04.14 01:38:03.
