data_PCOD8183446
_publ_section_title
;
Structure prediction by ZEFSAII (Michael W. Deem and Ramdas Pophale) SiO2 
 PCOD8183446
Probable space group: A M A 2
;
_chemical_formula_sum "Si O2"
_cell_formula_units_Z 64
_cell_length_a 9.030027
_cell_length_b 21.396538
_cell_length_c 21.429392
_cell_angle_alpha 90.000000
_cell_angle_beta 90.000000
_cell_angle_gamma 90.000000
_cell_volume 4140.401026
_symmetry_space_group_name_H-M "A M A 2"
_symmetry_group_IT_number 40
_symmetry_cell_setting 'orthorhombic'
loop_
_space_group_symop_operation_xyz
x,y,z
-x,-y,z
1/2-x,y,z
1/2+x,-y,z
x,1/2+y,1/2+z
-x,1/2-y,1/2+z
1/2-x,1/2+y,1/2+z
1/2+x,1/2-y,1/2+z
loop_
_atom_site_type_symbol
_atom_site_label
_atom_site_fract_x
_atom_site_fract_y
_atom_site_fract_z
Si Si1 0.586542 0.648922 0.589510
Si Si2 0.076934 0.168585 0.278404
Si Si3 0.079677 0.435004 0.005643
Si Si4 0.577740 0.163955 0.600974
Si Si5 0.920266 0.435703 0.675541
Si Si6 0.417127 0.242651 0.691431
Si Si7 0.424378 0.749226 0.000418
Si Si8 0.925908 0.670220 0.907994
O O1 0.750000 0.618893 0.590553
O O2 0.474182 0.594755 0.610151
O O3 0.579850 0.707021 0.636520
O O4 0.551900 0.677780 0.520602
O O5 0.250000 0.176714 0.293010
O O6 0.046645 0.111187 0.232009
O O7 0.015062 0.232829 0.248968
O O8 0.984806 0.153304 0.339924
O O9 0.250000 0.448786 0.994841
O O10 0.025386 0.387068 0.952362
O O11 0.000000 0.500000 0.998052
O O12 0.051876 0.406464 0.075200
O O13 0.750000 0.177478 0.613434
O O14 0.487697 0.178121 0.664683
O O15 0.523181 0.208418 0.546300
O O16 0.750000 0.450678 0.667528
O O17 0.000000 0.500000 0.690953
O O18 0.250000 0.229463 0.714257
O O19 0.250000 0.732045 0.004776
O O20 0.490522 0.733676 0.931880
O O21 0.750000 0.681064 0.907337
#
# Coordination Sequence:
#
# PCOD8183446 Si02
#       8
#     8   8   8   8   8   8   8   8
#     4   8  15  27  43  62  83 105 134 173 216 258
#     4  10  20  32  45  62  84 115 150 183 217 256
#     4   9  19  31  43  60  84 115 149 183 217 251
#     4   9  16  27  42  62  85 108 137 176 219 260
#     4  10  20  31  44  61  84 115 149 182 216 253
#     4   9  16  27  44  64  83 107 137 174 219 262
#     4   9  16  27  44  64  83 107 138 175 218 261
#     4  10  20  32  44  61  86 116 148 184 219 255
#
# _framework density 15.45744
#
# number of rings (size 3 to 8) (size 9 to 14) (size 15 to 20)
#    0.000    2.750    0.000    3.750    0.000    8.500 
#    0.000    2.500    0.000    0.000    0.000    0.000 
#    0.000    1.000    0.000    8.250    0.000    6.000 
#
# Total GULP energy -396563.436321 kJ/mol
# GULP energy per Si atom -12392.607385 kJ/mol
# Density = 1.542226 g / cm^3
# Si number density = 15.457440 Si / 1000 Ang^3
#
#
#
# Elastic Constant Matrix: (Units=GPa)
#
#
# Indices 1 2 3 4 5 6 
#
# 1 89.5140 41.9469 44.3830 0.0000 0.0000 0.0000
# 2 41.9469 52.3914 52.9936 0.0000 0.0000 0.0000
# 3 44.3830 52.9936 55.9229 0.0000 0.0000 0.0000
# 4 0.0000 0.0000 0.0000 13.9768 0.0000 0.0000
# 5 0.0000 0.0000 0.0000 0.0000 26.3738 0.0000
# 6 0.0000 0.0000 0.0000 0.0000 0.0000 25.9058
#
#
#
# Elastic Compliance Matrix: (Units=1/GPa)
#
#
# Indices 1 2 3 4 5 6 
#
# 1 0.018422 0.000943 -0.015514 0.000000 0.000000 0.000000
# 2 0.000943 0.460111 -0.436759 0.000000 0.000000 0.000000
# 3 -0.015514 -0.436759 0.444076 0.000000 0.000000 0.000000
# 4 0.000000 0.000000 0.000000 0.071547 0.000000 0.000000
# 5 0.000000 0.000000 0.000000 0.000000 0.037916 0.000000
# 6 0.000000 0.000000 0.000000 0.000000 0.000000 0.038601
#
#
# Mechanical properties :
#
#
# Convention : Reuss Voigt Hill
#
# Bulk Modulus (GPa) = 50.12785 52.94171 51.53478
# Shear Modulus (GPa) = 2.52527 17.15159 9.83843
#
# Velocity S-wave (km/s) = 1.27955 3.33468 2.52560
# Velocity P-wave (km/s) = 5.88923 7.01079 6.47434
#
# Compressibility (1/GPa) = 0.01994899
#
# Stress axis : x y z
#
# Youngs Moduli (GPa) = 54.28387 2.17339 2.25187
#
# Poissons Ratio (x) = -0.00205 0.03494
# Poissons Ratio (y) = -0.05119 0.98352
# Poissons Ratio (z) = 0.84216 0.94925
#
# Static dielectric constant tensor:
#      x y z
#    x 3.120920 0.000000 0.000000 
#    y 0.000000 2.897120 0.000000 
#    z 0.000000 0.000000 3.015160 
# 
# 
# High freq. dielectric constant tensor:
#      x y z
#    x 1.611630 0.000000 0.000000 
#    y 0.000000 1.560820 0.000000 
#    z 0.000000 0.000000 1.567290 
# 
# From -- ./inp_files/15612.got.cif
#   From: 2010.03.12/outbox.cif.g09.slc.cpg/sg40_8_cif.got.tgz:15612.got - 2010.04.14 01:38:03.
