data_PCOD8183900
_publ_section_title
;
Structure prediction by ZEFSAII (Michael W. Deem and Ramdas Pophale) SiO2 
 PCOD8183900
Probable space group: A M A 2
;
_chemical_formula_sum "Si O2"
_cell_formula_units_Z 64
_cell_length_a 16.592914
_cell_length_b 11.352391
_cell_length_c 16.418642
_cell_angle_alpha 90.000000
_cell_angle_beta 90.000000
_cell_angle_gamma 90.000000
_cell_volume 3092.767239
_symmetry_space_group_name_H-M "A M A 2"
_symmetry_group_IT_number 40
_symmetry_cell_setting 'orthorhombic'
loop_
_space_group_symop_operation_xyz
x,y,z
-x,-y,z
1/2-x,y,z
1/2+x,-y,z
x,1/2+y,1/2+z
-x,1/2-y,1/2+z
1/2-x,1/2+y,1/2+z
1/2+x,1/2-y,1/2+z
loop_
_atom_site_type_symbol
_atom_site_label
_atom_site_fract_x
_atom_site_fract_y
_atom_site_fract_z
Si Si1 0.909243 0.952478 0.857450
Si Si2 0.157274 0.453060 0.195270
Si Si3 0.386344 0.156576 0.571348
Si Si4 0.653801 0.430893 0.529638
Si Si5 0.161669 0.875616 0.147642
Si Si6 0.066489 0.301240 0.082241
Si Si7 0.344809 0.300128 0.820476
Si Si8 0.412377 0.481691 0.941281
O O1 0.899153 0.810157 0.849304
O O2 0.857032 0.018421 0.789454
O O3 0.874114 0.988627 0.944833
O O4 0.000000 0.000000 0.849459
O O5 0.250000 0.423146 0.180049
O O6 0.131175 0.564204 0.142225
O O7 0.106243 0.337634 0.168715
O O8 0.327404 0.266664 0.584561
O O9 0.471940 0.220002 0.590789
O O10 0.377141 0.105252 0.478590
O O11 0.750000 0.416596 0.529864
O O12 0.620079 0.514817 0.601722
O O13 0.612286 0.306248 0.541448
O O14 0.250000 0.919538 0.172805
O O15 0.119677 0.838195 0.232446
O O16 0.075578 0.412034 0.024050
O O17 0.250000 0.263630 0.818405
O O18 0.353732 0.413335 0.880043
O O19 0.500000 0.500000 0.898980
#
# Coordination Sequence:
#
# PCOD8183900 Si02
#       8
#     8   8   8   8   8   8   8   8
#     4  12  25  39  63  94 126 163 216 268 319 378
#     4  11  21  38  63  93 124 162 210 264 320 375
#     4  10  20  37  62  90 127 159 209 262 318 369
#     4  11  24  43  64  91 128 171 215 259 321 393
#     4  10  23  40  61  88 126 166 207 261 321 383
#     4  10  21  37  63  91 127 162 209 264 315 373
#     4  11  22  42  66  91 125 169 217 260 318 391
#     4   9  20  37  60  92 124 159 207 268 309 367
#
# _framework density 20.693442000000001
#
# number of rings (size 3 to 8) (size 9 to 14) (size 15 to 20)
#    0.000    1.500    2.500    3.750    1.750    2.500 
#    2.250    1.250    0.000    3.000    0.000    0.000 
#    0.000    0.000    0.000    0.000    0.000    0.000 
#
# Total GULP energy -396586.730064 kJ/mol
# GULP energy per Si atom -12393.335314 kJ/mol
# Density = 2.064634 g / cm^3
# Si number density = 20.693442 Si / 1000 Ang^3
#
#
#
# Elastic Constant Matrix: (Units=GPa)
#
#
# Indices 1 2 3 4 5 6 
#
# 1 91.4977 31.8990 32.4412 0.0000 0.0000 0.0000
# 2 31.8990 58.8006 34.6254 0.0000 0.0000 0.0000
# 3 32.4412 34.6254 92.8070 0.0000 0.0000 0.0000
# 4 0.0000 0.0000 0.0000 45.4368 0.0000 0.0000
# 5 0.0000 0.0000 0.0000 0.0000 24.9774 0.0000
# 6 0.0000 0.0000 0.0000 0.0000 0.0000 30.7670
#
#
#
# Elastic Compliance Matrix: (Units=1/GPa)
#
#
# Indices 1 2 3 4 5 6 
#
# 1 0.013963 -0.006024 -0.002633 0.000000 0.000000 0.000000
# 2 -0.006024 0.024394 -0.006995 0.000000 0.000000 0.000000
# 3 -0.002633 -0.006995 0.014305 0.000000 0.000000 0.000000
# 4 0.000000 0.000000 0.000000 0.022009 0.000000 0.000000
# 5 0.000000 0.000000 0.000000 0.000000 0.040036 0.000000
# 6 0.000000 0.000000 0.000000 0.000000 0.000000 0.032502
#
#
# Mechanical properties :
#
#
# Convention : Reuss Voigt Hill
#
# Bulk Modulus (GPa) = 46.82357 49.00404 47.91381
# Shear Modulus (GPa) = 26.93464 29.84555 28.39010
#
# Velocity S-wave (km/s) = 3.61169 3.80184 3.70798
# Velocity P-wave (km/s) = 6.32999 6.55777 6.44489
#
# Compressibility (1/GPa) = 0.02135676
#
# Stress axis : x y z
#
# Youngs Moduli (GPa) = 71.61708 40.99364 69.90347
#
# Poissons Ratio (x) = 0.24696 0.18408
# Poissons Ratio (y) = 0.43144 0.48900
# Poissons Ratio (z) = 0.18859 0.28677
#
# Static dielectric constant tensor:
#      x y z
#    x 3.917720 0.000000 0.000000 
#    y 0.000000 3.545810 0.000000 
#    z 0.000000 0.000000 3.906980 
# 
# 
# High freq. dielectric constant tensor:
#      x y z
#    x 1.805160 0.000000 0.000000 
#    y 0.000000 1.801280 0.000000 
#    z 0.000000 0.000000 1.808280 
# 
# From -- ./inp_files/17880.got.cif
#   From: 2010.03.12/outbox.cif.g09.slc.cpg/sg40_9_cif.got.tgz:17880.got - 2010.04.14 01:38:03.
