data_PCOD8183616
_publ_section_title
;
Structure prediction by ZEFSAII (Michael W. Deem and Ramdas Pophale) SiO2 
 PCOD8183616
Probable space group: A M A 2
;
_chemical_formula_sum "Si O2"
_cell_formula_units_Z 64
_cell_length_a 8.848118
_cell_length_b 24.812559
_cell_length_c 15.008605
_cell_angle_alpha 90.000000
_cell_angle_beta 90.000000
_cell_angle_gamma 90.000000
_cell_volume 3295.055929
_symmetry_space_group_name_H-M "A M A 2"
_symmetry_group_IT_number 40
_symmetry_cell_setting 'orthorhombic'
loop_
_space_group_symop_operation_xyz
x,y,z
-x,-y,z
1/2-x,y,z
1/2+x,-y,z
x,1/2+y,1/2+z
-x,1/2-y,1/2+z
1/2-x,1/2+y,1/2+z
1/2+x,1/2-y,1/2+z
loop_
_atom_site_type_symbol
_atom_site_label
_atom_site_fract_x
_atom_site_fract_y
_atom_site_fract_z
Si Si1 0.074769 0.345623 0.658270
Si Si2 0.928007 0.555224 0.534095
Si Si3 0.071417 0.057785 0.678305
Si Si4 0.426951 0.329834 0.859311
Si Si5 0.426092 0.281586 0.332732
Si Si6 0.929367 0.892334 0.865351
Si Si7 0.924900 0.736444 0.127734
Si Si8 0.071860 0.140968 0.529792
O O1 0.250000 0.330137 0.647542
O O2 0.033204 0.400291 0.608040
O O3 0.032804 0.353366 0.762147
O O4 0.976640 0.298009 0.615310
O O5 0.750000 0.548855 0.519529
O O6 0.000000 0.500000 0.569939
O O7 0.005102 0.569010 0.440618
O O8 0.250000 0.052044 0.677100
O O9 0.016807 0.083372 0.771180
O O10 0.013320 0.095801 0.598397
O O11 0.000000 0.000000 0.663607
O O12 0.250000 0.324991 0.874211
O O13 0.498905 0.271179 0.874263
O O14 0.497390 0.369897 0.933153
O O15 0.250000 0.281170 0.355956
O O16 0.502039 0.333098 0.378446
O O17 0.457068 0.283371 0.227620
O O18 0.750000 0.889108 0.872499
O O19 0.750000 0.731671 0.102160
O O20 0.022371 0.699799 0.062601
O O21 0.250000 0.139106 0.520309
#
# Coordination Sequence:
#
# PCOD8183616 Si02
#       8
#     8   8   8   8   8   8   8   8
#     4   9  21  41  62  83 116 155 194 245 303 353
#     4  11  24  42  62  87 116 154 200 249 302 355
#     4  10  23  40  60  84 116 158 199 242 295 349
#     4  10  21  38  60  86 117 156 198 246 298 355
#     4  10  20  35  56  86 121 158 195 238 290 350
#     4  11  22  38  59  87 120 159 198 241 293 353
#     4  10  20  34  57  88 118 153 196 238 286 348
#     4  11  22  38  58  85 121 159 197 243 298 351
#
# _framework density 19.42304
#
# number of rings (size 3 to 8) (size 9 to 14) (size 15 to 20)
#    0.000    1.750    1.250    2.625    1.750    5.500 
#    0.000    0.625    0.000    3.000    0.000    0.000 
#    0.000    0.000    0.000    0.000    0.000    0.000 
#
# Total GULP energy -396974.973442 kJ/mol
# GULP energy per Si atom -12405.467920 kJ/mol
# Density = 1.937883 g / cm^3
# Si number density = 19.423040 Si / 1000 Ang^3
#
#
#
# Elastic Constant Matrix: (Units=GPa)
#
#
# Indices 1 2 3 4 5 6 
#
# 1 80.2563 45.7417 40.3308 0.0000 0.0000 0.0000
# 2 45.7417 122.3992 60.3718 0.0000 0.0000 0.0000
# 3 40.3308 60.3718 109.1102 0.0000 0.0000 0.0000
# 4 0.0000 0.0000 0.0000 36.0010 0.0000 0.0000
# 5 0.0000 0.0000 0.0000 0.0000 31.1588 0.0000
# 6 0.0000 0.0000 0.0000 0.0000 0.0000 35.0782
#
#
#
# Elastic Compliance Matrix: (Units=1/GPa)
#
#
# Indices 1 2 3 4 5 6 
#
# 1 0.016897 -0.004448 -0.003785 0.000000 0.000000 0.000000
# 2 -0.004448 0.012407 -0.005221 0.000000 0.000000 0.000000
# 3 -0.003785 -0.005221 0.013453 0.000000 0.000000 0.000000
# 4 0.000000 0.000000 0.000000 0.027777 0.000000 0.000000
# 5 0.000000 0.000000 0.000000 0.000000 0.032094 0.000000
# 6 0.000000 0.000000 0.000000 0.000000 0.000000 0.028508
#
#
# Mechanical properties :
#
#
# Convention : Reuss Voigt Hill
#
# Bulk Modulus (GPa) = 63.09103 67.18382 65.13742
# Shear Modulus (GPa) = 30.61356 31.46900 31.04128
#
# Velocity S-wave (km/s) = 3.97438 4.02952 4.00205
# Velocity P-wave (km/s) = 7.32216 7.50428 7.41378
#
# Compressibility (1/GPa) = 0.01585011
#
# Stress axis : x y z
#
# Youngs Moduli (GPa) = 59.18219 80.59697 74.33351
#
# Poissons Ratio (x) = 0.35848 0.28133
# Poissons Ratio (y) = 0.26323 0.38810
# Poissons Ratio (z) = 0.22399 0.42080
#
# Static dielectric constant tensor:
#      x y z
#    x 3.569110 0.000000 0.000000 
#    y 0.000000 3.471460 0.000000 
#    z 0.000000 0.000000 3.724110 
# 
# 
# High freq. dielectric constant tensor:
#      x y z
#    x 1.764020 0.000000 0.000000 
#    y 0.000000 1.746740 0.000000 
#    z 0.000000 0.000000 1.762880 
# 
# From -- ./inp_files/15592.got.cif
#   From: 2010.03.12/outbox.cif.g09.slc.cpg/sg40_8_cif.got.tgz:15592.got - 2010.04.14 01:38:03.
