data_PCOD8183740
_publ_section_title
;
Structure prediction by ZEFSAII (Michael W. Deem and Ramdas Pophale) SiO2 
 PCOD8183740
Probable space group: A M A 2
;
_chemical_formula_sum "Si O2"
_cell_formula_units_Z 40
_cell_length_a 8.924754
_cell_length_b 9.769886
_cell_length_c 24.850058
_cell_angle_alpha 90.000000
_cell_angle_beta 90.000000
_cell_angle_gamma 90.000000
_cell_volume 2166.771712
_symmetry_space_group_name_H-M "A M A 2"
_symmetry_group_IT_number 40
_symmetry_cell_setting 'orthorhombic'
loop_
_space_group_symop_operation_xyz
x,y,z
-x,-y,z
1/2-x,y,z
1/2+x,-y,z
x,1/2+y,1/2+z
-x,1/2-y,1/2+z
1/2-x,1/2+y,1/2+z
1/2+x,1/2-y,1/2+z
loop_
_atom_site_type_symbol
_atom_site_label
_atom_site_fract_x
_atom_site_fract_y
_atom_site_fract_z
Si Si1 0.425086 0.140680 0.639520
Si Si2 0.572987 0.144389 0.467350
Si Si3 0.426775 0.639760 0.260910
Si Si4 0.571952 0.649328 0.548339
Si Si5 0.424691 0.861357 0.343792
O O1 0.250000 0.113602 0.636397
O O2 0.476631 0.178013 0.700120
O O3 0.472176 0.267419 0.602114
O O4 0.500000 0.000000 0.619191
O O5 0.750000 0.137797 0.478991
O O6 0.497362 0.269641 0.498285
O O7 0.536520 0.175730 0.405177
O O8 0.500000 0.000000 0.485136
O O9 0.500000 0.500000 0.279528
O O10 0.250000 0.625268 0.264976
O O11 0.489905 0.748995 0.303174
O O12 0.500000 0.500000 0.552245
O O13 0.750000 0.636194 0.541024
O O14 0.250000 0.879455 0.335671
O O15 0.500000 0.000000 0.325426
#
# Coordination Sequence:
#
# PCOD8183740 Si02
#       5
#     8   8   8   8   8
#     4   9  19  35  55  76 101 134 172 210 253 305
#     4  10  20  36  56  78 104 138 176 214 256 308
#     4   9  18  34  53  76 104 134 169 210 253 302
#     4  11  23  37  53  77 106 137 172 215 263 310
#     4   9  19  34  53  77 105 135 170 209 252 301
#
# _framework density 18.460643999999998
#
# number of rings (size 3 to 8) (size 9 to 14) (size 15 to 20)
#    0.000    2.400    0.000    1.800    0.000    6.400 
#    0.000    2.000    0.000    0.000    0.000    0.000 
#    0.000    0.000    0.000    0.000    0.000    0.000 
#
# Total GULP energy -248011.923833 kJ/mol
# GULP energy per Si atom -12400.596192 kJ/mol
# Density = 1.841863 g / cm^3
# Si number density = 18.460644 Si / 1000 Ang^3
#
#
#
# Elastic Constant Matrix: (Units=GPa)
#
#
# Indices 1 2 3 4 5 6 
#
# 1 55.9198 62.7520 45.5622 0.0000 0.0000 0.0000
# 2 62.7520 188.3413 103.5832 0.0000 0.0000 0.0000
# 3 45.5622 103.5832 113.2721 0.0000 0.0000 0.0000
# 4 0.0000 0.0000 0.0000 41.6879 0.0000 0.0000
# 5 0.0000 0.0000 0.0000 0.0000 25.8164 0.0000
# 6 0.0000 0.0000 0.0000 0.0000 0.0000 37.9646
#
#
#
# Elastic Compliance Matrix: (Units=1/GPa)
#
#
# Indices 1 2 3 4 5 6 
#
# 1 0.030448 -0.006858 -0.005976 0.000000 0.000000 0.000000
# 2 -0.006858 0.012226 -0.008422 0.000000 0.000000 0.000000
# 3 -0.005976 -0.008422 0.018934 0.000000 0.000000 0.000000
# 4 0.000000 0.000000 0.000000 0.023988 0.000000 0.000000
# 5 0.000000 0.000000 0.000000 0.000000 0.038735 0.000000
# 6 0.000000 0.000000 0.000000 0.000000 0.000000 0.026340
#
#
# Mechanical properties :
#
#
# Convention : Reuss Voigt Hill
#
# Bulk Modulus (GPa) = 52.36697 86.81422 69.59060
# Shear Modulus (GPa) = 25.05665 30.80282 27.92974
#
# Velocity S-wave (km/s) = 3.68815 4.08924 3.89387
# Velocity P-wave (km/s) = 6.82386 8.33214 7.61543
#
# Compressibility (1/GPa) = 0.01909601
#
# Stress axis : x y z
#
# Youngs Moduli (GPa) = 32.84327 81.78986 52.81628
#
# Poissons Ratio (x) = 0.56093 0.31561
# Poissons Ratio (y) = 0.22525 0.44482
# Poissons Ratio (z) = 0.19626 0.68884
#
# Static dielectric constant tensor:
#      x y z
#    x 3.379010 0.000000 0.000000 
#    y 0.000000 3.453230 0.000000 
#    z 0.000000 0.000000 3.685800 
# 
# 
# High freq. dielectric constant tensor:
#      x y z
#    x 1.717000 0.000000 0.000000 
#    y 0.000000 1.715550 0.000000 
#    z 0.000000 0.000000 1.725960 
# 
# From -- ./inp_files/23805.got.cif
#   From: 2010.03.12/outbox.cif.g09.slc.cpg/sg40_12_cif.got.tgz:23805.got - 2010.04.14 01:38:03.
