data_PCOD8183951
_publ_section_title
;
Structure prediction by ZEFSAII (Michael W. Deem and Ramdas Pophale) SiO2 
 PCOD8183951
Probable space group: A M A 2
;
_chemical_formula_sum "Si O2"
_cell_formula_units_Z 48
_cell_length_a 14.501008
_cell_length_b 9.642916
_cell_length_c 16.265809
_cell_angle_alpha 90.000000
_cell_angle_beta 90.000000
_cell_angle_gamma 90.000000
_cell_volume 2274.480638
_symmetry_space_group_name_H-M "A M A 2"
_symmetry_group_IT_number 40
_symmetry_cell_setting 'orthorhombic'
loop_
_space_group_symop_operation_xyz
x,y,z
-x,-y,z
1/2-x,y,z
1/2+x,-y,z
x,1/2+y,1/2+z
-x,1/2-y,1/2+z
1/2-x,1/2+y,1/2+z
1/2+x,1/2-y,1/2+z
loop_
_atom_site_type_symbol
_atom_site_label
_atom_site_fract_x
_atom_site_fract_y
_atom_site_fract_z
Si Si1 0.141149 0.423095 0.363020
Si Si2 0.353934 0.208355 0.489893
Si Si3 0.355327 0.723626 0.718480
Si Si4 0.854222 0.292769 0.296591
Si Si5 0.021289 0.659259 0.144965
Si Si6 0.607722 0.495990 0.847129
O O1 0.250000 0.411103 0.364617
O O2 0.107394 0.349719 0.447118
O O3 0.107312 0.335999 0.284375
O O4 0.106545 0.581811 0.354304
O O5 0.250000 0.227354 0.525772
O O6 0.426583 0.170096 0.559089
O O7 0.347008 0.087120 0.421919
O O8 0.250000 0.748274 0.688821
O O9 0.426181 0.749328 0.642684
O O10 0.364296 0.572145 0.759477
O O11 0.750000 0.330614 0.270198
O O12 0.914319 0.275704 0.215200
O O13 0.854785 0.152362 0.349046
O O14 0.000000 0.500000 0.162892
O O15 0.500000 0.500000 0.859436
#
# Coordination Sequence:
#
# PCOD8183951 Si02
#       6
#     8   8   8   8   8   8
#     4   8  17  36  64  91 119 162 208 251 311 379
#     4  10  22  41  64  93 132 170 207 263 332 388
#     4  10  20  38  63  91 126 169 212 261 318 378
#     4  11  21  37  67  99 125 161 214 265 314 384
#     4  12  23  37  63  99 128 169 217 268 319 383
#     4  11  21  39  67  98 127 165 216 266 321 391
#
# _framework density 21.103718000000001
#
# number of rings (size 3 to 8) (size 9 to 14) (size 15 to 20)
#    0.000    1.667    3.333    3.500    0.000    0.667 
#    0.000    0.000   14.667    0.000    0.000    1.167 
#    0.000    0.000    0.000    0.000    0.000    0.000 
#
# Total GULP energy -297545.809676 kJ/mol
# GULP energy per Si atom -12397.742070 kJ/mol
# Density = 2.105569 g / cm^3
# Si number density = 21.103718 Si / 1000 Ang^3
#
#
#
# Elastic Constant Matrix: (Units=GPa)
#
#
# Indices 1 2 3 4 5 6 
#
# 1 107.4349 15.2274 30.8278 0.0000 0.0000 0.0000
# 2 15.2274 145.0995 32.7417 0.0000 0.0000 0.0000
# 3 30.8278 32.7417 72.1594 0.0000 0.0000 0.0000
# 4 0.0000 0.0000 0.0000 20.7637 0.0000 0.0000
# 5 0.0000 0.0000 0.0000 0.0000 34.1113 0.0000
# 6 0.0000 0.0000 0.0000 0.0000 0.0000 26.3095
#
#
#
# Elastic Compliance Matrix: (Units=1/GPa)
#
#
# Indices 1 2 3 4 5 6 
#
# 1 0.010610 -0.000101 -0.004487 0.000000 0.000000 0.000000
# 2 -0.000101 0.007679 -0.003441 0.000000 0.000000 0.000000
# 3 -0.004487 -0.003441 0.017336 0.000000 0.000000 0.000000
# 4 0.000000 0.000000 0.000000 0.048161 0.000000 0.000000
# 5 0.000000 0.000000 0.000000 0.000000 0.029316 0.000000
# 6 0.000000 0.000000 0.000000 0.000000 0.000000 0.038009
#
#
# Mechanical properties :
#
#
# Convention : Reuss Voigt Hill
#
# Bulk Modulus (GPa) = 51.10587 53.58754 52.34671
# Shear Modulus (GPa) = 28.78672 32.63002 30.70837
#
# Velocity S-wave (km/s) = 3.69732 3.93641 3.81874
# Velocity P-wave (km/s) = 6.51890 6.79029 6.65598
#
# Compressibility (1/GPa) = 0.01956722
#
# Stress axis : x y z
#
# Youngs Moduli (GPa) = 94.25291 130.22686 57.68191
#
# Poissons Ratio (x) = 0.01315 0.25881
# Poissons Ratio (y) = 0.00952 0.19849
# Poissons Ratio (z) = 0.42290 0.44812
#
# Static dielectric constant tensor:
#      x y z
#    x 3.874150 0.000000 0.000000 
#    y 0.000000 4.103650 0.000000 
#    z 0.000000 0.000000 3.513090 
# 
# 
# High freq. dielectric constant tensor:
#      x y z
#    x 1.844800 0.000000 0.000000 
#    y 0.000000 1.831710 0.000000 
#    z 0.000000 0.000000 1.784110 
# 
# From -- ./inp_files/20538.got.cif
#   From: 2010.03.12/outbox.cif.g09.slc.cpg/sg40_11_cif.got.tgz:20538.got - 2010.04.14 01:38:03.
