data_PCOD8183530
_publ_section_title
;
Structure prediction by ZEFSAII (Michael W. Deem and Ramdas Pophale) SiO2 
 PCOD8183530
Probable space group: A M A 2
;
_chemical_formula_sum "Si O2"
_cell_formula_units_Z 64
_cell_length_a 8.932699
_cell_length_b 25.061041
_cell_length_c 15.197177
_cell_angle_alpha 90.000000
_cell_angle_beta 90.000000
_cell_angle_gamma 90.000000
_cell_volume 3402.081621
_symmetry_space_group_name_H-M "A M A 2"
_symmetry_group_IT_number 40
_symmetry_cell_setting 'orthorhombic'
loop_
_space_group_symop_operation_xyz
x,y,z
-x,-y,z
1/2-x,y,z
1/2+x,-y,z
x,1/2+y,1/2+z
-x,1/2-y,1/2+z
1/2-x,1/2+y,1/2+z
1/2+x,1/2-y,1/2+z
loop_
_atom_site_type_symbol
_atom_site_label
_atom_site_fract_x
_atom_site_fract_y
_atom_site_fract_z
Si Si1 0.426481 0.858239 0.342270
Si Si2 0.925810 0.944479 0.463989
Si Si3 0.925361 0.643771 0.462224
Si Si4 0.082862 0.238779 0.879587
Si Si5 0.072315 0.832051 0.150956
Si Si6 0.928254 0.898875 0.651883
Si Si7 0.918113 0.282859 0.177596
Si Si8 0.429255 0.944088 0.825986
O O1 0.250000 0.869352 0.350913
O O2 0.519406 0.901167 0.394905
O O3 0.468680 0.800242 0.381002
O O4 0.480502 0.861448 0.240000
O O5 0.750000 0.950232 0.455059
O O6 0.972687 0.928393 0.562421
O O7 0.000000 0.000000 0.438576
O O8 0.750000 0.641892 0.452261
O O9 0.972611 0.633761 0.564549
O O10 0.991718 0.598648 0.397761
O O11 0.974905 0.703535 0.439200
O O12 0.250000 0.233857 0.917683
O O13 0.077467 0.215182 0.782393
O O14 0.250000 0.823996 0.159522
O O15 0.001879 0.771749 0.144302
O O16 0.750000 0.899748 0.670118
O O17 0.992384 0.838120 0.644180
O O18 0.012904 0.929111 0.729652
O O19 0.750000 0.283153 0.141189
O O20 0.250000 0.947799 0.824979
O O21 0.500000 0.000000 0.855066
#
# Coordination Sequence:
#
# PCOD8183530 Si02
#       8
#     8   8   8   8   8   8   8   8
#     4   9  19  37  59  81 109 146 185 227 273 325
#     4  11  24  39  58  82 108 143 187 234 280 325
#     4  10  20  33  54  83 112 142 184 230 272 320
#     4   9  17  31  53  80 111 146 179 215 269 328
#     4   8  16  32  55  80 111 148 181 217 266 328
#     4  10  20  35  57  83 110 145 183 222 269 329
#     4   8  14  28  51  78 108 144 179 206 253 325
#     4  11  23  37  54  79 110 148 186 229 278 322
#
# _framework density 18.812010999999998
#
# number of rings (size 3 to 8) (size 9 to 14) (size 15 to 20)
#    0.000    2.500    1.250    2.625    1.750    3.000 
#    0.000    1.250    0.000    2.250    0.000    0.000 
#    0.000    0.000    0.000    0.000    0.000    0.000 
#
# Total GULP energy -396623.674986 kJ/mol
# GULP energy per Si atom -12394.489843 kJ/mol
# Density = 1.876919 g / cm^3
# Si number density = 18.812011 Si / 1000 Ang^3
#
#
#
# Elastic Constant Matrix: (Units=GPa)
#
#
# Indices 1 2 3 4 5 6 
#
# 1 33.8690 35.3315 36.7262 0.0000 0.0000 0.0000
# 2 35.3315 128.5584 73.0766 0.0000 0.0000 0.0000
# 3 36.7262 73.0766 122.9411 0.0000 0.0000 0.0000
# 4 0.0000 0.0000 0.0000 27.8663 0.0000 0.0000
# 5 0.0000 0.0000 0.0000 0.0000 17.6656 0.0000
# 6 0.0000 0.0000 0.0000 0.0000 0.0000 27.1775
#
#
#
# Elastic Compliance Matrix: (Units=1/GPa)
#
#
# Indices 1 2 3 4 5 6 
#
# 1 0.048178 -0.007642 -0.009850 0.000000 0.000000 0.000000
# 2 -0.007642 0.012960 -0.005421 0.000000 0.000000 0.000000
# 3 -0.009850 -0.005421 0.014299 0.000000 0.000000 0.000000
# 4 0.000000 0.000000 0.000000 0.035886 0.000000 0.000000
# 5 0.000000 0.000000 0.000000 0.000000 0.056607 0.000000
# 6 0.000000 0.000000 0.000000 0.000000 0.000000 0.036795
#
#
# Mechanical properties :
#
#
# Convention : Reuss Voigt Hill
#
# Bulk Modulus (GPa) = 33.77011 63.95969 48.86490
# Shear Modulus (GPa) = 19.19975 23.89084 21.54529
#
# Velocity S-wave (km/s) = 3.19817 3.56754 3.38789
# Velocity P-wave (km/s) = 5.62388 7.14444 6.42927
#
# Compressibility (1/GPa) = 0.02961199
#
# Stress axis : x y z
#
# Youngs Moduli (GPa) = 20.75626 77.16055 69.93713
#
# Poissons Ratio (x) = 0.58963 0.68888
# Poissons Ratio (y) = 0.15861 0.37911
# Poissons Ratio (z) = 0.20445 0.41826
#
# Static dielectric constant tensor:
#      x y z
#    x 3.143270 0.000000 0.000000 
#    y 0.000000 3.569130 0.000000 
#    z 0.000000 0.000000 3.550120 
# 
# 
# High freq. dielectric constant tensor:
#      x y z
#    x 1.699190 0.000000 0.000000 
#    y 0.000000 1.732350 0.000000 
#    z 0.000000 0.000000 1.732210 
# 
# From -- ./inp_files/15652.got.cif
#   From: 2010.03.12/outbox.cif.g09.slc.cpg/sg40_8_cif.got.tgz:15652.got - 2010.04.14 01:38:03.
