data_PCOD8183487
_publ_section_title
;
Structure prediction by ZEFSAII (Michael W. Deem and Ramdas Pophale) SiO2 
 PCOD8183487
Probable space group: A M A 2
;
_chemical_formula_sum "Si O2"
_cell_formula_units_Z 64
_cell_length_a 8.528162
_cell_length_b 30.279468
_cell_length_c 14.516692
_cell_angle_alpha 90.000000
_cell_angle_beta 90.000000
_cell_angle_gamma 90.000000
_cell_volume 3748.619367
_symmetry_space_group_name_H-M "A M A 2"
_symmetry_group_IT_number 40
_symmetry_cell_setting 'orthorhombic'
loop_
_space_group_symop_operation_xyz
x,y,z
-x,-y,z
1/2-x,y,z
1/2+x,-y,z
x,1/2+y,1/2+z
-x,1/2-y,1/2+z
1/2-x,1/2+y,1/2+z
1/2+x,1/2-y,1/2+z
loop_
_atom_site_type_symbol
_atom_site_label
_atom_site_fract_x
_atom_site_fract_y
_atom_site_fract_z
Si Si1 0.432951 0.769249 0.411000
Si Si2 0.566092 0.789066 0.221137
Si Si3 0.570882 0.866386 0.733195
Si Si4 0.935920 0.953715 0.828375
Si Si5 0.431736 0.295909 0.109328
Si Si6 0.935666 0.547528 0.530577
Si Si7 0.932246 0.865516 0.081048
Si Si8 0.071345 0.824141 0.904850
O O1 0.250000 0.756207 0.412031
O O2 0.475602 0.794896 0.317645
O O3 0.477516 0.797689 0.501568
O O4 0.541947 0.726970 0.420574
O O5 0.750000 0.783195 0.240186
O O6 0.496654 0.746604 0.164560
O O7 0.531570 0.834633 0.168028
O O8 0.750000 0.864586 0.703841
O O9 0.518130 0.916963 0.752165
O O10 0.477442 0.843331 0.650729
O O11 0.547258 0.839479 0.826533
O O12 0.750000 0.955618 0.845360
O O13 0.017911 0.942029 0.924962
O O14 0.000000 0.000000 0.789628
O O15 0.250000 0.288964 0.120540
O O16 0.750000 0.548584 0.541281
O O17 0.000000 0.500000 0.561219
O O18 0.015666 0.583755 0.598371
O O19 0.750000 0.862390 0.053740
O O20 0.040289 0.850041 0.997808
O O21 0.250000 0.832083 0.872996
#
# Coordination Sequence:
#
# PCOD8183487 Si02
#       8
#     8   8   8   8   8   8   8   8
#     4  11  22  37  53  72 103 138 175 220 261 298
#     4  10  21  36  53  75 104 136 175 215 257 307
#     4  11  22  34  51  75 103 138 175 214 256 304
#     4  10  20  33  50  73 104 136 171 211 257 307
#     4  10  21  36  52  74 103 137 175 214 255 305
#     4  11  21  33  51  76 105 138 174 211 256 310
#     4  11  21  36  53  73 105 140 175 217 260 304
#     4  12  22  31  49  74 103 139 177 213 254 306
#
# _framework density 17.072952999999998
#
# number of rings (size 3 to 8) (size 9 to 14) (size 15 to 20)
#    0.000    1.250    3.750    4.500    0.000    3.500 
#    0.000    0.000    0.000    0.000    0.000    0.875 
#    0.000    4.000    0.000    0.000    0.000    0.000 
#
# Total GULP energy -396768.961784 kJ/mol
# GULP energy per Si atom -12399.030056 kJ/mol
# Density = 1.703409 g / cm^3
# Si number density = 17.072953 Si / 1000 Ang^3
#
#
#
# Elastic Constant Matrix: (Units=GPa)
#
#
# Indices 1 2 3 4 5 6 
#
# 1 57.7426 28.1577 18.0312 0.0000 0.0000 0.0000
# 2 28.1577 122.6969 51.7484 0.0000 0.0000 0.0000
# 3 18.0312 51.7484 106.8208 0.0000 0.0000 0.0000
# 4 0.0000 0.0000 0.0000 38.4163 0.0000 0.0000
# 5 0.0000 0.0000 0.0000 0.0000 21.5426 0.0000
# 6 0.0000 0.0000 0.0000 0.0000 0.0000 27.1052
#
#
#
# Elastic Compliance Matrix: (Units=1/GPa)
#
#
# Indices 1 2 3 4 5 6 
#
# 1 0.019672 -0.003914 -0.001425 0.000000 0.000000 0.000000
# 2 -0.003914 0.011022 -0.004679 0.000000 0.000000 0.000000
# 3 -0.001425 -0.004679 0.011869 0.000000 0.000000 0.000000
# 4 0.000000 0.000000 0.000000 0.026031 0.000000 0.000000
# 5 0.000000 0.000000 0.000000 0.000000 0.046420 0.000000
# 6 0.000000 0.000000 0.000000 0.000000 0.000000 0.036893
#
#
# Mechanical properties :
#
#
# Convention : Reuss Voigt Hill
#
# Bulk Modulus (GPa) = 44.38959 53.68165 49.03562
# Shear Modulus (GPa) = 27.86319 30.03435 28.94877
#
# Velocity S-wave (km/s) = 4.04419 4.19880 4.12222
# Velocity P-wave (km/s) = 6.91836 7.41737 7.17221
#
# Compressibility (1/GPa) = 0.02252781
#
# Stress axis : x y z
#
# Youngs Moduli (GPa) = 50.83486 90.73115 84.25658
#
# Poissons Ratio (x) = 0.35508 0.12003
# Poissons Ratio (y) = 0.19895 0.39421
# Poissons Ratio (z) = 0.07242 0.42450
#
# Static dielectric constant tensor:
#      x y z
#    x 3.203370 0.000000 0.000000 
#    y 0.000000 3.265960 0.000000 
#    z 0.000000 0.000000 3.059320 
# 
# 
# High freq. dielectric constant tensor:
#      x y z
#    x 1.668420 0.000000 0.000000 
#    y 0.000000 1.655250 0.000000 
#    z 0.000000 0.000000 1.626340 
# 
# From -- ./inp_files/15931.got.cif
#   From: 2010.03.12/outbox.cif.g09.slc.cpg/sg40_8_cif.got.tgz:15931.got - 2010.04.14 01:38:03.
