data_PCOD8183943
_publ_section_title
;
Structure prediction by ZEFSAII (Michael W. Deem and Ramdas Pophale) SiO2 
 PCOD8183943
Probable space group: A M A 2
;
_chemical_formula_sum "Si O2"
_cell_formula_units_Z 64
_cell_length_a 21.174702
_cell_length_b 14.838672
_cell_length_c 9.865611
_cell_angle_alpha 90.000000
_cell_angle_beta 90.000000
_cell_angle_gamma 90.000000
_cell_volume 3099.818954
_symmetry_space_group_name_H-M "A M A 2"
_symmetry_group_IT_number 40
_symmetry_cell_setting 'orthorhombic'
loop_
_space_group_symop_operation_xyz
x,y,z
-x,-y,z
1/2-x,y,z
1/2+x,-y,z
x,1/2+y,1/2+z
-x,1/2-y,1/2+z
1/2-x,1/2+y,1/2+z
1/2+x,1/2-y,1/2+z
loop_
_atom_site_type_symbol
_atom_site_label
_atom_site_fract_x
_atom_site_fract_y
_atom_site_fract_z
Si Si1 0.049948 0.579456 0.325860
Si Si2 0.678177 0.166224 0.207208
Si Si3 0.563737 0.769953 0.645453
Si Si4 0.677825 0.011898 0.404857
Si Si5 0.677153 0.996050 0.716491
Si Si6 0.517763 0.899325 0.127729
Si Si7 0.680364 0.162977 0.901643
Si Si8 0.599453 0.836352 0.370515
O O1 0.024632 0.673309 0.258795
O O2 0.120145 0.570267 0.259415
O O3 0.055991 0.591254 0.487277
O O4 0.000000 0.500000 0.291470
O O5 0.750000 0.194352 0.245738
O O6 0.634957 0.255992 0.204916
O O7 0.649837 0.094154 0.315166
O O8 0.674874 0.126224 0.055123
O O9 0.541077 0.668396 0.608253
O O10 0.561190 0.833436 0.511871
O O11 0.750000 0.002894 0.362619
O O12 0.647111 0.918522 0.365391
O O13 0.668318 0.030164 0.563357
O O14 0.750000 0.958330 0.736582
O O15 0.663364 0.080621 0.808426
O O16 0.556006 0.846959 0.241109
O O17 0.500000 0.000000 0.178153
O O18 0.750000 0.200622 0.873605
O O19 0.634207 0.241978 0.860760
#
# Coordination Sequence:
#
# PCOD8183943 Si02
#       8
#     8   8   8   8   8   8   8   8
#     4  11  26  44  65  92 130 172 212 266 326 383
#     4   9  20  37  65  93 125 162 207 259 315 379
#     4  11  23  43  62  93 124 170 211 260 322 382
#     4  10  20  38  62  93 126 161 205 260 314 373
#     4  10  22  41  64  91 126 167 211 259 316 376
#     4  11  26  42  63  88 126 166 213 269 316 379
#     4   9  20  37  62  90 121 161 202 252 312 374
#     4  11  22  38  63  90 121 159 208 259 311 378
#
# _framework density 20.646364999999999
#
# number of rings (size 3 to 8) (size 9 to 14) (size 15 to 20)
#    0.000    1.750    1.250    1.875   10.500    2.500 
#    2.250    0.625    0.000    0.000    0.000    0.000 
#    0.000    0.000    0.000    0.000    0.000    0.000 
#
# Total GULP energy -396553.517406 kJ/mol
# GULP energy per Si atom -12392.297419 kJ/mol
# Density = 2.059937 g / cm^3
# Si number density = 20.646365 Si / 1000 Ang^3
#
#
#
# Elastic Constant Matrix: (Units=GPa)
#
#
# Indices 1 2 3 4 5 6 
#
# 1 -4.5767 42.6953 10.4742 0.0000 0.0000 0.0000
# 2 42.6953 92.3050 51.7484 0.0000 0.0000 0.0000
# 3 10.4742 51.7484 89.6855 0.0000 0.0000 0.0000
# 4 0.0000 0.0000 0.0000 44.2818 0.0000 0.0000
# 5 0.0000 0.0000 0.0000 0.0000 29.1577 0.0000
# 6 0.0000 0.0000 0.0000 0.0000 0.0000 29.1918
#
#
#
# Elastic Compliance Matrix: (Units=1/GPa)
#
#
# Indices 1 2 3 4 5 6 
#
# 1 -0.036614 0.021490 -0.008124 0.000000 0.000000 0.000000
# 2 0.021490 0.003401 -0.004472 0.000000 0.000000 0.000000
# 3 -0.008124 -0.004472 0.014679 0.000000 0.000000 0.000000
# 4 0.000000 0.000000 0.000000 0.022583 0.000000 0.000000
# 5 0.000000 0.000000 0.000000 0.000000 0.034296 0.000000
# 6 0.000000 0.000000 0.000000 0.000000 0.000000 0.034256
#
#
# Mechanical properties :
#
#
# Convention : Reuss Voigt Hill
#
# Bulk Modulus (GPa) = -1341.50779 43.02775 -649.24002
# Shear Modulus (GPa) = 91.63610 25.35931 58.49770
#
# Velocity S-wave (km/s) = 6.66933 3.50847 5.32867
# Velocity P-wave (km/s) = 24.32815 6.10722 16.65174
#
# Compressibility (1/GPa) = -0.00074543
#
# Stress axis : x y z
#
# Youngs Moduli (GPa) = -27.31194 294.06040 68.12397
#
# Poissons Ratio (x) = -6.31933 0.55341
# Poissons Ratio (y) = 0.58693 0.30465
# Poissons Ratio (z) = -0.22187 1.31502
#
# Static dielectric constant tensor:
#      x y z
#    x 3.858150 0.000000 0.000000 
#    y 0.000000 3.539170 0.000000 
#    z 0.000000 0.000000 3.890620 
# 
# 
# High freq. dielectric constant tensor:
#      x y z
#    x 1.806950 0.000000 0.000000 
#    y 0.000000 1.808340 0.000000 
#    z 0.000000 0.000000 1.814110 
# 
# From -- ./inp_files/8913.got.cif
#   From: 2010.03.12/outbox.cif.g09.slc.cpg/sg40_5_cif.got.tgz:8913.got - 2010.04.14 01:38:03.
