data_PCOD8183808
_publ_section_title
;
Structure prediction by ZEFSAII (Michael W. Deem and Ramdas Pophale) SiO2 
 PCOD8183808
Probable space group: A M A 2
;
_chemical_formula_sum "Si O2"
_cell_formula_units_Z 32
_cell_length_a 17.912618
_cell_length_b 10.139156
_cell_length_c 9.209294
_cell_angle_alpha 90.000000
_cell_angle_beta 90.000000
_cell_angle_gamma 90.000000
_cell_volume 1672.581185
_symmetry_space_group_name_H-M "A M A 2"
_symmetry_group_IT_number 40
_symmetry_cell_setting 'orthorhombic'
loop_
_space_group_symop_operation_xyz
x,y,z
-x,-y,z
1/2-x,y,z
1/2+x,-y,z
x,1/2+y,1/2+z
-x,1/2-y,1/2+z
1/2-x,1/2+y,1/2+z
1/2+x,1/2-y,1/2+z
loop_
_atom_site_type_symbol
_atom_site_label
_atom_site_fract_x
_atom_site_fract_y
_atom_site_fract_z
Si Si1 0.337885 0.991241 0.250000
Si Si2 0.930058 0.249351 0.754296
Si Si3 0.587244 0.012974 0.954540
Si Si4 0.080598 0.275761 0.918610
O O1 0.250000 0.005310 0.246849
O O2 0.371372 0.134780 0.281757
O O3 0.359637 0.886365 0.374527
O O4 0.367439 0.939790 0.095141
O O5 0.941695 0.211244 0.586960
O O6 0.008072 0.297023 0.820091
O O7 0.898478 0.119036 0.830426
O O8 0.615277 0.870719 0.895346
O O9 0.500000 0.000000 0.997494
#
# Coordination Sequence:
#
# PCOD8183808 Si02
#       4
#     8   8   8   8
#     4  11  23  37  54  81 118 153 183 223 279 339
#     4  10  21  38  61  86 111 143 189 239 280 327
#     4   9  20  39  61  83 106 141 189 239 283 324
#     4  10  20  36  60  86 111 143 189 235 280 328
#
# _framework density 19.132106
#
# number of rings (size 3 to 8) (size 9 to 14) (size 15 to 20)
#    0.000    2.000    0.000    5.250    0.000   13.000 
#    0.000    0.000    0.000    0.000    0.000    0.000 
#    0.000    0.000    0.000    0.000    0.000    0.000 
#
# Total GULP energy -198424.251644 kJ/mol
# GULP energy per Si atom -12401.515728 kJ/mol
# Density = 1.908856 g / cm^3
# Si number density = 19.132106 Si / 1000 Ang^3
#
#
#
# Elastic Constant Matrix: (Units=GPa)
#
#
# Indices 1 2 3 4 5 6 
#
# 1 91.3506 47.3271 46.9684 0.0000 0.0000 0.0000
# 2 47.3271 120.7444 77.3756 0.0000 0.0000 0.0000
# 3 46.9684 77.3756 116.1092 0.0000 0.0000 0.0000
# 4 0.0000 0.0000 0.0000 41.4025 0.0000 0.0000
# 5 0.0000 0.0000 0.0000 0.0000 19.1723 0.0000
# 6 0.0000 0.0000 0.0000 0.0000 0.0000 13.8007
#
#
#
# Elastic Compliance Matrix: (Units=1/GPa)
#
#
# Indices 1 2 3 4 5 6 
#
# 1 0.014569 -0.003375 -0.003644 0.000000 0.000000 0.000000
# 2 -0.003375 0.015237 -0.008789 0.000000 0.000000 0.000000
# 3 -0.003644 -0.008789 0.015943 0.000000 0.000000 0.000000
# 4 0.000000 0.000000 0.000000 0.024153 0.000000 0.000000
# 5 0.000000 0.000000 0.000000 0.000000 0.052158 0.000000
# 6 0.000000 0.000000 0.000000 0.000000 0.000000 0.072460
#
#
# Mechanical properties :
#
#
# Convention : Reuss Voigt Hill
#
# Bulk Modulus (GPa) = 70.75417 74.61627 72.68522
# Shear Modulus (GPa) = 21.65926 25.31065 23.48496
#
# Velocity S-wave (km/s) = 3.36830 3.64117 3.50739
# Velocity P-wave (km/s) = 7.22423 7.53410 7.38079
#
# Compressibility (1/GPa) = 0.01413344
#
# Stress axis : x y z
#
# Youngs Moduli (GPa) = 68.63791 65.63063 62.72165
#
# Poissons Ratio (x) = 0.22152 0.22857
# Poissons Ratio (y) = 0.23167 0.55123
# Poissons Ratio (z) = 0.25013 0.57680
#
# Static dielectric constant tensor:
#      x y z
#    x 3.202250 0.000000 0.000000 
#    y 0.000000 3.814630 0.000000 
#    z 0.000000 0.000000 3.543840 
# 
# 
# High freq. dielectric constant tensor:
#      x y z
#    x 1.717930 0.000000 0.000000 
#    y 0.000000 1.761870 0.000000 
#    z 0.000000 0.000000 1.749790 
# 
# From -- ./inp_files/5880.got.cif
#   From: 2010.03.12/outbox.cif.g09.slc.cpg/sg40_3_cif.got.tgz:5880.got - 2010.04.14 01:38:03.
