data_PCOD8183433
_publ_section_title
;
Structure prediction by ZEFSAII (Michael W. Deem and Ramdas Pophale) SiO2 
 PCOD8183433
Probable space group: A M A 2
;
_chemical_formula_sum "Si O2"
_cell_formula_units_Z 44
_cell_length_a 9.640297
_cell_length_b 21.310025
_cell_length_c 10.845219
_cell_angle_alpha 90.000000
_cell_angle_beta 90.000000
_cell_angle_gamma 90.000000
_cell_volume 2227.987241
_symmetry_space_group_name_H-M "A M A 2"
_symmetry_group_IT_number 40
_symmetry_cell_setting 'orthorhombic'
loop_
_space_group_symop_operation_xyz
x,y,z
-x,-y,z
1/2-x,y,z
1/2+x,-y,z
x,1/2+y,1/2+z
-x,1/2-y,1/2+z
1/2-x,1/2+y,1/2+z
1/2+x,1/2-y,1/2+z
loop_
_atom_site_type_symbol
_atom_site_label
_atom_site_fract_x
_atom_site_fract_y
_atom_site_fract_z
Si Si1 0.750000 0.755731 0.268721
Si Si2 0.250000 0.350788 0.812826
Si Si3 0.750000 0.770158 0.983208
Si Si4 0.750000 0.853786 0.440958
Si Si5 0.250000 0.739941 0.151077
Si Si6 0.021817 0.684601 0.320784
Si Si7 0.973606 0.071176 0.442138
Si Si8 0.906544 0.559805 0.217249
O O1 0.750000 0.748620 0.122954
O O2 0.750000 0.830259 0.299316
O O3 0.616298 0.724951 0.330806
O O4 0.250000 0.316487 0.676382
O O5 0.113619 0.393426 0.835385
O O6 0.250000 0.294114 0.908287
O O7 0.888902 0.809504 0.947785
O O8 0.750000 0.785934 0.512011
O O9 0.618820 0.895993 0.469573
O O10 0.112536 0.710538 0.209131
O O11 0.981379 0.613348 0.295475
O O12 0.893225 0.074029 0.571609
O O13 0.000000 0.000000 0.397477
O O14 0.750000 0.549829 0.266567
O O15 0.000000 0.500000 0.242341
#
# Coordination Sequence:
#
# PCOD8183433 Si02
#       8
#     4   4   4   4   4   8   8   8
#     4  12  24  39  63  90 123 169 211 256 318 380
#     4  10  19  40  54  84 122 170 196 254 325 371
#     4  10  24  39  61  88 127 167 206 262 321 384
#     4  12  23  36  59  97 119 155 217 256 312 386
#     4  10  22  34  61  85 127 163 200 258 318 377
#     4  10  21  39  58  88 125 161 202 261 317 375
#     4  11  22  35  58  89 129 164 206 261 316 373
#     4  11  22  34  60  90 126 162 206 265 317 374
#
# _framework density 19.748767000000001
#
# number of rings (size 3 to 8) (size 9 to 14) (size 15 to 20)
#    0.000    1.455    3.636    3.818    8.909    0.000 
#    0.000    0.000    0.000    1.091    4.727    0.000 
#    0.000    0.000    0.000    0.000    0.000    0.000 
#
# Total GULP energy -272694.477369 kJ/mol
# GULP energy per Si atom -12395.203517 kJ/mol
# Density = 1.970382 g / cm^3
# Si number density = 19.748767 Si / 1000 Ang^3
#
#
#
# Elastic Constant Matrix: (Units=GPa)
#
#
# Indices 1 2 3 4 5 6 
#
# 1 166.9833 63.2075 22.9485 0.0000 0.0000 0.0000
# 2 63.2075 145.9660 34.6199 0.0000 0.0000 0.0000
# 3 22.9485 34.6199 34.4229 0.0000 0.0000 0.0000
# 4 0.0000 0.0000 0.0000 25.1460 0.0000 0.0000
# 5 0.0000 0.0000 0.0000 0.0000 9.7993 0.0000
# 6 0.0000 0.0000 0.0000 0.0000 0.0000 38.8114
#
#
#
# Elastic Compliance Matrix: (Units=1/GPa)
#
#
# Indices 1 2 3 4 5 6 
#
# 1 0.007289 -0.002631 -0.002213 0.000000 0.000000 0.000000
# 2 -0.002631 0.009947 -0.008250 0.000000 0.000000 0.000000
# 3 -0.002213 -0.008250 0.038822 0.000000 0.000000 0.000000
# 4 0.000000 0.000000 0.000000 0.039768 0.000000 0.000000
# 5 0.000000 0.000000 0.000000 0.000000 0.102048 0.000000
# 6 0.000000 0.000000 0.000000 0.000000 0.000000 0.025766
#
#
# Mechanical properties :
#
#
# Convention : Reuss Voigt Hill
#
# Bulk Modulus (GPa) = 33.47769 65.43600 49.45685
# Shear Modulus (GPa) = 19.24676 29.85776 24.55226
#
# Velocity S-wave (km/s) = 3.12521 3.89251 3.52977
# Velocity P-wave (km/s) = 5.47825 7.30810 6.45831
#
# Compressibility (1/GPa) = 0.02987064
#
# Stress axis : x y z
#
# Youngs Moduli (GPa) = 137.19711 100.53246 25.75838
#
# Poissons Ratio (x) = 0.26455 0.05699
# Poissons Ratio (y) = 0.36103 0.21250
# Poissons Ratio (z) = 0.30357 0.82936
#
# Static dielectric constant tensor:
#      x y z
#    x 3.847700 0.000000 0.000000 
#    y 0.000000 3.779600 0.000000 
#    z 0.000000 0.000000 3.369730 
# 
# 
# High freq. dielectric constant tensor:
#      x y z
#    x 1.797460 0.000000 0.000000 
#    y 0.000000 1.770790 0.000000 
#    z 0.000000 0.000000 1.727350 
# 
# From -- ./inp_files/10220.got.cif
#   From: 2010.03.12/outbox.cif.g09.slc.cpg/sg40_6_cif.got.tgz:10220.got - 2010.04.14 01:38:03.
