data_PCOD8183132
_publ_section_title
;
Structure prediction by ZEFSAII (Michael W. Deem and Ramdas Pophale) SiO2 
 PCOD8183132
Probable space group: A M A 2
;
_chemical_formula_sum "Si O2"
_cell_formula_units_Z 64
_cell_length_a 8.781847
_cell_length_b 20.782453
_cell_length_c 19.289984
_cell_angle_alpha 90.000000
_cell_angle_beta 90.000000
_cell_angle_gamma 90.000000
_cell_volume 3520.582621
_symmetry_space_group_name_H-M "A M A 2"
_symmetry_group_IT_number 40
_symmetry_cell_setting 'orthorhombic'
loop_
_space_group_symop_operation_xyz
x,y,z
-x,-y,z
1/2-x,y,z
1/2+x,-y,z
x,1/2+y,1/2+z
-x,1/2-y,1/2+z
1/2-x,1/2+y,1/2+z
1/2+x,1/2-y,1/2+z
loop_
_atom_site_type_symbol
_atom_site_label
_atom_site_fract_x
_atom_site_fract_y
_atom_site_fract_z
Si Si1 0.929202 0.564931 0.553410
Si Si2 0.430002 0.812952 0.550135
Si Si3 0.427082 0.126473 0.179621
Si Si4 0.570807 0.264262 0.181736
Si Si5 0.928345 0.692430 0.471954
Si Si6 0.426275 0.067052 0.473796
Si Si7 0.077093 0.632828 0.834997
Si Si8 0.073189 0.733952 0.338682
O O1 0.750000 0.557401 0.559642
O O2 0.976011 0.624471 0.504814
O O3 0.000000 0.500000 0.520850
O O4 0.999511 0.573405 0.629981
O O5 0.250000 0.814602 0.549516
O O6 0.490215 0.813224 0.629167
O O7 0.484969 0.749703 0.510147
O O8 0.492484 0.876441 0.514684
O O9 0.250000 0.135164 0.162317
O O10 0.510681 0.193383 0.165411
O O11 0.453995 0.103726 0.258840
O O12 0.750000 0.264216 0.168609
O O13 0.530132 0.285670 0.260053
O O14 0.750000 0.705389 0.479313
O O15 0.976376 0.690147 0.391233
O O16 0.250000 0.066381 0.494239
O O17 0.449991 0.077293 0.391362
O O18 0.500000 0.000000 0.495879
O O19 0.250000 0.659734 0.839616
O O20 0.963816 0.691221 0.851231
O O21 0.250000 0.723128 0.353801
#
# Coordination Sequence:
#
# PCOD8183132 Si02
#       8
#     8   8   8   8   8   8   8   8
#     4  11  24  39  56  79 112 152 191 235 286 337
#     4  12  23  36  59  87 112 148 193 237 283 337
#     4  10  19  33  54  81 112 150 192 231 273 331
#     4  10  20  35  55  84 117 148 183 232 287 334
#     4  11  22  37  58  83 114 149 186 235 288 335
#     4  11  23  39  57  80 115 154 191 238 285 339
#     4   9  19  34  53  78 112 152 189 228 277 329
#     4  10  20  33  56  86 114 145 186 232 279 336
#
# _framework density 18.178809000000001
#
# number of rings (size 3 to 8) (size 9 to 14) (size 15 to 20)
#    0.000    1.500    2.500    3.375    0.000    4.500 
#    0.000    1.250    0.000    0.750    0.000    1.750 
#    0.000    0.000    0.000    0.000    0.000    0.000 
#
# Total GULP energy -396900.613785 kJ/mol
# GULP energy per Si atom -12403.144181 kJ/mol
# Density = 1.813743 g / cm^3
# Si number density = 18.178809 Si / 1000 Ang^3
#
#
#
# Elastic Constant Matrix: (Units=GPa)
#
#
# Indices 1 2 3 4 5 6 
#
# 1 115.4142 61.8105 54.3718 0.0000 0.0000 0.0000
# 2 61.8105 118.2672 60.9614 0.0000 0.0000 0.0000
# 3 54.3718 60.9614 105.5253 0.0000 0.0000 0.0000
# 4 0.0000 0.0000 0.0000 19.8660 0.0000 0.0000
# 5 0.0000 0.0000 0.0000 0.0000 23.6008 0.0000
# 6 0.0000 0.0000 0.0000 0.0000 0.0000 30.9062
#
#
#
# Elastic Compliance Matrix: (Units=1/GPa)
#
#
# Indices 1 2 3 4 5 6 
#
# 1 0.013111 -0.004799 -0.003983 0.000000 0.000000 0.000000
# 2 -0.004799 0.013798 -0.005498 0.000000 0.000000 0.000000
# 3 -0.003983 -0.005498 0.014705 0.000000 0.000000 0.000000
# 4 0.000000 0.000000 0.000000 0.050337 0.000000 0.000000
# 5 0.000000 0.000000 0.000000 0.000000 0.042372 0.000000
# 6 0.000000 0.000000 0.000000 0.000000 0.000000 0.032356
#
#
# Mechanical properties :
#
#
# Convention : Reuss Voigt Hill
#
# Bulk Modulus (GPa) = 76.61045 77.05490 76.83268
# Shear Modulus (GPa) = 25.05137 25.67879 25.36508
#
# Velocity S-wave (km/s) = 3.71624 3.76249 3.73944
# Velocity P-wave (km/s) = 7.78769 7.83290 7.81033
#
# Compressibility (1/GPa) = 0.01305305
#
# Stress axis : x y z
#
# Youngs Moduli (GPa) = 76.27129 72.47588 68.00498
#
# Poissons Ratio (x) = 0.34783 0.27086
# Poissons Ratio (y) = 0.36605 0.37389
# Poissons Ratio (z) = 0.30379 0.39848
#
# Static dielectric constant tensor:
#      x y z
#    x 3.505750 0.000000 0.000000 
#    y 0.000000 3.127150 0.000000 
#    z 0.000000 0.000000 3.763520 
# 
# 
# High freq. dielectric constant tensor:
#      x y z
#    x 1.721640 0.000000 0.000000 
#    y 0.000000 1.674110 0.000000 
#    z 0.000000 0.000000 1.710870 
# 
# From -- ./inp_files/22365.got.cif
#   From: 2010.03.12/outbox.cif.g09.slc.cpg/sg40_12_cif.got.tgz:22365.got - 2010.04.14 01:38:03.
