data_PCOD8183918
_publ_section_title
;
Structure prediction by ZEFSAII (Michael W. Deem and Ramdas Pophale) SiO2 
 PCOD8183918
Probable space group: A M A 2
;
_chemical_formula_sum "Si O2"
_cell_formula_units_Z 48
_cell_length_a 8.803185
_cell_length_b 20.319330
_cell_length_c 14.376411
_cell_angle_alpha 90.000000
_cell_angle_beta 90.000000
_cell_angle_gamma 90.000000
_cell_volume 2571.577945
_symmetry_space_group_name_H-M "A M A 2"
_symmetry_group_IT_number 40
_symmetry_cell_setting 'orthorhombic'
loop_
_space_group_symop_operation_xyz
x,y,z
-x,-y,z
1/2-x,y,z
1/2+x,-y,z
x,1/2+y,1/2+z
-x,1/2-y,1/2+z
1/2-x,1/2+y,1/2+z
1/2+x,1/2-y,1/2+z
loop_
_atom_site_type_symbol
_atom_site_label
_atom_site_fract_x
_atom_site_fract_y
_atom_site_fract_z
Si Si1 0.571729 0.878577 0.645960
Si Si2 0.576928 0.259828 0.655830
Si Si3 0.926346 0.814751 0.353306
Si Si4 0.928391 0.931702 0.844244
Si Si5 0.429031 0.431380 0.960368
Si Si6 0.074965 0.194648 0.954871
O O1 0.750000 0.887396 0.629254
O O2 0.535561 0.801516 0.650279
O O3 0.516391 0.912564 0.740998
O O4 0.483007 0.913346 0.563352
O O5 0.750000 0.233272 0.661657
O O6 0.537075 0.303909 0.744930
O O7 0.554858 0.305862 0.565928
O O8 0.750000 0.829471 0.371362
O O9 0.023329 0.876611 0.386286
O O10 0.971203 0.750800 0.411387
O O11 0.750000 0.939922 0.846557
O O12 0.981456 0.875408 0.916122
O O13 0.000000 0.000000 0.876785
O O14 0.500000 0.500000 0.927878
O O15 0.250000 0.437765 0.961429
O O16 0.250000 0.207811 0.925999
#
# Coordination Sequence:
#
# PCOD8183918 Si02
#       6
#     8   8   8   8   8   8
#     4  11  21  35  58  90 121 152 192 242 294 353
#     4  10  21  36  59  88 119 153 193 240 293 348
#     4  11  22  37  59  89 118 153 197 243 290 350
#     4  10  22  37  56  83 118 155 193 236 290 346
#     4  12  25  41  60  85 119 159 197 244 301 355
#     4  10  20  38  59  83 115 156 195 241 292 342
#
# _framework density 18.665583000000002
#
# number of rings (size 3 to 8) (size 9 to 14) (size 15 to 20)
#    0.000    1.333    3.333    3.000    0.000    4.000 
#    0.000    0.833    0.000    2.000    0.000    0.000 
#    0.000    0.000    0.000    0.000    0.000    0.000 
#
# Total GULP energy -297725.470696 kJ/mol
# GULP energy per Si atom -12405.227946 kJ/mol
# Density = 1.862310 g / cm^3
# Si number density = 18.665583 Si / 1000 Ang^3
#
#
#
# Elastic Constant Matrix: (Units=GPa)
#
#
# Indices 1 2 3 4 5 6 
#
# 1 84.8951 44.5773 38.2299 0.0000 0.0000 0.0000
# 2 44.5773 144.3757 59.1617 0.0000 0.0000 0.0000
# 3 38.2299 59.1617 122.6912 0.0000 0.0000 0.0000
# 4 0.0000 0.0000 0.0000 -29.0016 0.0000 0.0000
# 5 0.0000 0.0000 0.0000 0.0000 -2.7376 0.0000
# 6 0.0000 0.0000 0.0000 0.0000 0.0000 35.0911
#
#
#
# Elastic Compliance Matrix: (Units=1/GPa)
#
#
# Indices 1 2 3 4 5 6 
#
# 1 0.014907 -0.003364 -0.003023 0.000000 0.000000 0.000000
# 2 -0.003364 0.009391 -0.003480 0.000000 0.000000 0.000000
# 3 -0.003023 -0.003480 0.010771 0.000000 0.000000 0.000000
# 4 0.000000 0.000000 0.000000 -0.034481 0.000000 0.000000
# 5 0.000000 0.000000 0.000000 0.000000 -0.365289 0.000000
# 6 0.000000 0.000000 0.000000 0.000000 0.000000 0.028497
#
#
# Mechanical properties :
#
#
# Convention : Reuss Voigt Hill
#
# Bulk Modulus (GPa) = 65.21182 70.65551 67.93366
# Shear Modulus (GPa) = -16.05867 14.66992 -0.69437
#
# Velocity S-wave (km/s) = -2.93633 2.80649 -0.61059
# Velocity P-wave (km/s) = 4.84941 6.95970 5.99809
#
# Compressibility (1/GPa) = 0.01533464
#
# Stress axis : x y z
#
# Youngs Moduli (GPa) = 67.08336 106.48341 92.84542
#
# Poissons Ratio (x) = 0.35821 0.28065
# Poissons Ratio (y) = 0.22567 0.32312
# Poissons Ratio (z) = 0.20278 0.37059
#
# Static dielectric constant tensor:
#      x y z
#    x 4.076390 0.000000 0.000000 
#    y 0.000000 4.113370 0.000000 
#    z 0.000000 0.000000 3.630150 
# 
# 
# High freq. dielectric constant tensor:
#      x y z
#    x 1.729240 0.000000 0.000000 
#    y 0.000000 1.721560 0.000000 
#    z 0.000000 0.000000 1.728650 
# 
# From -- ./inp_files/15026.got.cif
#   From: 2010.03.12/outbox.cif.g09.slc.cpg/sg40_8_cif.got.tgz:15026.got - 2010.04.14 01:38:03.
