data_PCOD8183936
_publ_section_title
;
Structure prediction by ZEFSAII (Michael W. Deem and Ramdas Pophale) SiO2 
 PCOD8183936
Probable space group: A M A 2
;
_chemical_formula_sum "Si O2"
_cell_formula_units_Z 40
_cell_length_a 16.384744
_cell_length_b 18.567035
_cell_length_c 5.158022
_cell_angle_alpha 90.000000
_cell_angle_beta 90.000000
_cell_angle_gamma 90.000000
_cell_volume 1569.153416
_symmetry_space_group_name_H-M "A M A 2"
_symmetry_group_IT_number 40
_symmetry_cell_setting 'orthorhombic'
loop_
_space_group_symop_operation_xyz
x,y,z
-x,-y,z
1/2-x,y,z
1/2+x,-y,z
x,1/2+y,1/2+z
-x,1/2-y,1/2+z
1/2-x,1/2+y,1/2+z
1/2+x,1/2-y,1/2+z
loop_
_atom_site_type_symbol
_atom_site_label
_atom_site_fract_x
_atom_site_fract_y
_atom_site_fract_z
Si Si1 0.347454 0.751177 0.802420
Si Si2 0.658534 0.471311 0.550092
Si Si3 0.534433 0.421095 0.924123
Si Si4 0.157933 0.175639 0.801831
Si Si5 0.055166 0.390063 0.427655
O O1 0.250000 0.751684 0.797322
O O2 0.384852 0.719406 0.536863
O O3 0.377564 0.831372 0.856650
O O4 0.383020 0.696942 0.025390
O O5 0.750000 0.500403 0.602408
O O6 0.627018 0.433618 0.817510
O O7 0.658183 0.410375 0.328850
O O8 0.600491 0.532932 0.433889
O O9 0.500000 0.500000 0.941038
O O10 0.484053 0.375425 0.708043
O O11 0.518708 0.386845 0.212750
O O12 0.250000 0.205181 0.793683
#
# Coordination Sequence:
#
# PCOD8183936 Si02
#       5
#     8   8   8   8   8
#     4  10  20  38  61  92 130 169 211 263 319 376
#     4  10  22  43  71  99 126 173 230 270 317 400
#     4  10  22  40  61  91 132 166 202 269 337 374
#     4   9  20  37  61  93 131 165 206 267 324 368
#     4  11  22  40  65  93 127 169 213 265 325 386
#
# _framework density 25.49145
#
# number of rings (size 3 to 8) (size 9 to 14) (size 15 to 20)
#    0.000    2.000    0.000    3.600    0.000    4.800 
#    0.000   24.000    0.000    0.000    0.000    0.000 
#    0.000    0.000    0.000    0.000    0.000    0.000 
#
# Total GULP energy -247902.272999 kJ/mol
# GULP energy per Si atom -12395.113650 kJ/mol
# Density = 2.543343 g / cm^3
# Si number density = 25.491450 Si / 1000 Ang^3
#
#
#
# Elastic Constant Matrix: (Units=GPa)
#
#
# Indices 1 2 3 4 5 6 
#
# 1 101.1391 1.3986 34.9109 0.0000 0.0000 0.0000
# 2 1.3986 86.0265 46.8628 0.0000 0.0000 0.0000
# 3 34.9109 46.8628 204.8134 0.0000 0.0000 0.0000
# 4 0.0000 0.0000 0.0000 37.1363 0.0000 0.0000
# 5 0.0000 0.0000 0.0000 0.0000 32.8891 0.0000
# 6 0.0000 0.0000 0.0000 0.0000 0.0000 28.0778
#
#
#
# Elastic Compliance Matrix: (Units=1/GPa)
#
#
# Indices 1 2 3 4 5 6 
#
# 1 0.010569 0.000925 -0.002013 0.000000 0.000000 0.000000
# 2 0.000925 0.013360 -0.003215 0.000000 0.000000 0.000000
# 3 -0.002013 -0.003215 0.005961 0.000000 0.000000 0.000000
# 4 0.000000 0.000000 0.000000 0.026928 0.000000 0.000000
# 5 0.000000 0.000000 0.000000 0.000000 0.030405 0.000000
# 6 0.000000 0.000000 0.000000 0.000000 0.000000 0.035615
#
#
# Mechanical properties :
#
#
# Convention : Reuss Voigt Hill
#
# Bulk Modulus (GPa) = 46.98103 62.03595 54.50849
# Shear Modulus (GPa) = 36.09054 40.20776 38.14915
#
# Velocity S-wave (km/s) = 3.76678 3.97584 3.87272
# Velocity P-wave (km/s) = 6.11460 6.74279 6.43636
#
# Compressibility (1/GPa) = 0.02128519
#
# Stress axis : x y z
#
# Youngs Moduli (GPa) = 94.61194 74.84781 167.75218
#
# Poissons Ratio (x) = -0.06922 0.33772
# Poissons Ratio (y) = -0.08750 0.53926
# Poissons Ratio (z) = 0.19047 0.24061
#
# Static dielectric constant tensor:
#      x y z
#    x 4.812420 0.000000 0.000000 
#    y 0.000000 4.540470 0.000000 
#    z 0.000000 0.000000 5.389800 
# 
# 
# High freq. dielectric constant tensor:
#      x y z
#    x 2.026890 0.000000 0.000000 
#    y 0.000000 2.014680 0.000000 
#    z 0.000000 0.000000 2.035090 
# 
# From -- ./inp_files/1738.got.cif
#   From: 2010.03.12/outbox.cif.g09.slc.cpg/sg40_1_cif.got.tgz:1738.got - 2010.04.14 01:38:03.
