data_PCOD8183066
_publ_section_title
;
Structure prediction by ZEFSAII (Michael W. Deem and Ramdas Pophale) SiO2 
 PCOD8183066
Probable space group: A M A 2
;
_chemical_formula_sum "Si O2"
_cell_formula_units_Z 56
_cell_length_a 8.658460
_cell_length_b 18.453655
_cell_length_c 21.245324
_cell_angle_alpha 90.000000
_cell_angle_beta 90.000000
_cell_angle_gamma 90.000000
_cell_volume 3394.582833
_symmetry_space_group_name_H-M "A M A 2"
_symmetry_group_IT_number 40
_symmetry_cell_setting 'orthorhombic'
loop_
_space_group_symop_operation_xyz
x,y,z
-x,-y,z
1/2-x,y,z
1/2+x,-y,z
x,1/2+y,1/2+z
-x,1/2-y,1/2+z
1/2-x,1/2+y,1/2+z
1/2+x,1/2-y,1/2+z
loop_
_atom_site_type_symbol
_atom_site_label
_atom_site_fract_x
_atom_site_fract_y
_atom_site_fract_z
Si Si1 0.068674 0.575749 0.655000
Si Si2 0.933654 0.345208 0.030251
Si Si3 0.920310 0.703696 0.590571
Si Si4 0.081381 0.713254 0.220854
Si Si5 0.064791 0.354471 0.777914
Si Si6 0.934752 0.922356 0.654749
Si Si7 0.933474 0.420351 0.903910
O O1 0.250000 0.569977 0.664901
O O2 0.000000 0.500000 0.630985
O O3 0.032249 0.635277 0.601013
O O4 0.990753 0.594124 0.721686
O O5 0.750000 0.344940 0.032569
O O6 0.990135 0.261566 0.039982
O O7 0.995201 0.398298 0.085668
O O8 0.994417 0.374879 0.963780
O O9 0.750000 0.675663 0.569653
O O10 0.900884 0.747931 0.654264
O O11 0.250000 0.697179 0.249386
O O12 0.999393 0.771730 0.267118
O O13 0.999948 0.635515 0.207270
O O14 0.250000 0.355764 0.778577
O O15 0.997014 0.381540 0.842673
O O16 0.750000 0.922984 0.656436
O O17 0.000000 0.000000 0.673084
O O18 0.750000 0.424187 0.901060
O O19 0.000000 0.500000 0.909190
#
# Coordination Sequence:
#
# PCOD8183066 Si02
#       7
#     8   8   8   8   8   8   8
#     4  11  20  30  45  68  93 117 144 182 226 271
#     4   8  16  30  47  63  88 123 153 177 212 260
#     4   8  14  29  48  64  83 114 149 181 218 264
#     4   7  13  26  44  60  80 110 144 176 216 264
#     4  10  19  33  48  62  84 120 157 190 224 264
#     4   9  15  26  43  65  88 113 141 173 213 260
#     4  11  21  32  45  66  93 123 155 187 218 257
#
# _framework density 16.496873000000001
#
# number of rings (size 3 to 8) (size 9 to 14) (size 15 to 20)
#    0.000    2.857    0.000    5.571    0.000    0.000 
#    0.000    9.286    0.000    0.000    0.000    1.000 
#    0.000    4.571    0.000    0.000    0.000    0.000 
#
# Total GULP energy -346869.689572 kJ/mol
# GULP energy per Si atom -12388.203199 kJ/mol
# Density = 1.645933 g / cm^3
# Si number density = 16.496873 Si / 1000 Ang^3
#
#
#
# Elastic Constant Matrix: (Units=GPa)
#
#
# Indices 1 2 3 4 5 6 
#
# 1 56.7954 36.3971 24.5402 0.0000 0.0000 0.0000
# 2 36.3971 155.5925 68.4270 0.0000 0.0000 0.0000
# 3 24.5402 68.4270 80.6790 0.0000 0.0000 0.0000
# 4 0.0000 0.0000 0.0000 28.9234 0.0000 0.0000
# 5 0.0000 0.0000 0.0000 0.0000 -3.4880 0.0000
# 6 0.0000 0.0000 0.0000 0.0000 0.0000 23.7119
#
#
#
# Elastic Compliance Matrix: (Units=1/GPa)
#
#
# Indices 1 2 3 4 5 6 
#
# 1 0.021348 -0.003410 -0.003601 0.000000 0.000000 0.000000
# 2 -0.003410 0.010795 -0.008119 0.000000 0.000000 0.000000
# 3 -0.003601 -0.008119 0.020376 0.000000 0.000000 0.000000
# 4 0.000000 0.000000 0.000000 0.034574 0.000000 0.000000
# 5 0.000000 0.000000 0.000000 0.000000 -0.286698 0.000000
# 6 0.000000 0.000000 0.000000 0.000000 0.000000 0.042173
#
#
# Mechanical properties :
#
#
# Convention : Reuss Voigt Hill
#
# Bulk Modulus (GPa) = 44.92458 61.31061 53.11760
# Shear Modulus (GPa) = -41.75317 20.74297 -10.50510
#
# Velocity S-wave (km/s) = -5.03634 3.54981 -2.52621
# Velocity P-wave (km/s) = 2.55505 7.35168 4.87437
#
# Compressibility (1/GPa) = 0.02225953
#
# Stress axis : x y z
#
# Youngs Moduli (GPa) = 46.84170 92.63411 49.07768
#
# Poissons Ratio (x) = 0.31590 0.17674
# Poissons Ratio (y) = 0.15974 0.39844
# Poissons Ratio (z) = 0.16869 0.75205
#
# Static dielectric constant tensor:
#      x y z
#    x 2.912410 0.000000 0.000000 
#    y 0.000000 3.543750 0.000000 
#    z 0.000000 0.000000 3.104220 
# 
# 
# High freq. dielectric constant tensor:
#      x y z
#    x 1.615780 0.000000 0.000000 
#    y 0.000000 1.646290 0.000000 
#    z 0.000000 0.000000 1.596070 
# 
# From -- ./inp_files/22304.got.cif
#   From: 2010.03.12/outbox.cif.g09.slc.cpg/sg40_12_cif.got.tgz:22304.got - 2010.04.14 01:38:03.
