data_PCOD8183612
_publ_section_title
;
Structure prediction by ZEFSAII (Michael W. Deem and Ramdas Pophale) SiO2 
 PCOD8183612
Probable space group: A M A 2
;
_chemical_formula_sum "Si O2"
_cell_formula_units_Z 52
_cell_length_a 20.282900
_cell_length_b 10.390713
_cell_length_c 13.678556
_cell_angle_alpha 90.000000
_cell_angle_beta 90.000000
_cell_angle_gamma 90.000000
_cell_volume 2882.807556
_symmetry_space_group_name_H-M "A M A 2"
_symmetry_group_IT_number 40
_symmetry_cell_setting 'orthorhombic'
loop_
_space_group_symop_operation_xyz
x,y,z
-x,-y,z
1/2-x,y,z
1/2+x,-y,z
x,1/2+y,1/2+z
-x,1/2-y,1/2+z
1/2-x,1/2+y,1/2+z
1/2+x,1/2-y,1/2+z
loop_
_atom_site_type_symbol
_atom_site_label
_atom_site_fract_x
_atom_site_fract_y
_atom_site_fract_z
Si Si1 0.567166 0.443831 0.730020
Si Si2 0.600123 0.951014 0.449311
Si Si3 0.397378 0.838319 0.721033
Si Si4 0.824431 0.189214 0.535266
Si Si5 0.674042 0.972599 0.073613
Si Si6 0.500000 0.000000 0.603805
Si Si7 0.326506 0.810242 0.916865
O O1 0.500000 0.500000 0.684643
O O2 0.571909 0.482184 0.843040
O O3 0.561634 0.292069 0.721251
O O4 0.630140 0.494947 0.669858
O O5 0.652276 0.834369 0.446186
O O6 0.630505 0.089179 0.477749
O O7 0.543406 0.912161 0.528554
O O8 0.333422 0.831789 0.651389
O O9 0.370128 0.868335 0.828756
O O10 0.449769 0.937083 0.679111
O O11 0.750000 0.161383 0.504151
O O12 0.843794 0.339631 0.515478
O O13 0.750000 0.965411 0.108091
O O14 0.660992 0.094626 0.006000
O O15 0.250000 0.805934 0.886740
#
# Coordination Sequence:
#
# PCOD8183612 Si02
#       7
#     8   8   8   8   8   4   8
#     4  10  20  36  54  81 107 146 179 222 274 327
#     4  10  20  34  57  79 109 144 182 229 267 323
#     4   9  20  35  54  76 108 149 175 220 271 330
#     4   9  17  34  56  79 104 141 179 219 271 324
#     4   9  20  37  56  80 113 143 180 225 273 329
#     4  10  20  38  50  80 114 142 188 224 272 328
#     4  10  20  37  57  84 108 139 185 229 273 325
#
# _framework density 18.037970999999999
#
# number of rings (size 3 to 8) (size 9 to 14) (size 15 to 20)
#    0.000    2.462    0.769    0.923    2.154    4.308 
#    4.154    0.000    0.000    7.385    0.000    0.000 
#    0.000    0.000    0.000    0.000    0.000    0.000 
#
# Total GULP energy -322183.147313 kJ/mol
# GULP energy per Si atom -12391.659512 kJ/mol
# Density = 1.799692 g / cm^3
# Si number density = 18.037971 Si / 1000 Ang^3
#
#
#
# Elastic Constant Matrix: (Units=GPa)
#
#
# Indices 1 2 3 4 5 6 
#
# 1 105.2399 42.5241 55.5957 0.0000 0.0000 0.0000
# 2 42.5241 78.7558 44.7562 0.0000 0.0000 0.0000
# 3 55.5957 44.7562 97.1196 0.0000 0.0000 0.0000
# 4 0.0000 0.0000 0.0000 27.0912 0.0000 0.0000
# 5 0.0000 0.0000 0.0000 0.0000 26.7643 0.0000
# 6 0.0000 0.0000 0.0000 0.0000 0.0000 23.3004
#
#
#
# Elastic Compliance Matrix: (Units=1/GPa)
#
#
# Indices 1 2 3 4 5 6 
#
# 1 0.014599 -0.004245 -0.006401 0.000000 0.000000 0.000000
# 2 -0.004245 0.018437 -0.006066 0.000000 0.000000 0.000000
# 3 -0.006401 -0.006066 0.016756 0.000000 0.000000 0.000000
# 4 0.000000 0.000000 0.000000 0.036912 0.000000 0.000000
# 5 0.000000 0.000000 0.000000 0.000000 0.037363 0.000000
# 6 0.000000 0.000000 0.000000 0.000000 0.000000 0.042918
#
#
# Mechanical properties :
#
#
# Convention : Reuss Voigt Hill
#
# Bulk Modulus (GPa) = 61.09592 62.98526 62.04059
# Shear Modulus (GPa) = 24.28769 24.64713 24.46741
#
# Velocity S-wave (km/s) = 3.67342 3.70050 3.68698
# Velocity P-wave (km/s) = 7.20668 7.29741 7.25219
#
# Compressibility (1/GPa) = 0.01636770
#
# Stress axis : x y z
#
# Youngs Moduli (GPa) = 68.49902 54.23848 59.67928
#
# Poissons Ratio (x) = 0.23025 0.38199
# Poissons Ratio (y) = 0.29079 0.36204
# Poissons Ratio (z) = 0.43844 0.32903
#
# Static dielectric constant tensor:
#      x y z
#    x 3.478920 0.000000 0.000000 
#    y 0.000000 3.317550 0.000000 
#    z 0.000000 0.000000 3.372190 
# 
# 
# High freq. dielectric constant tensor:
#      x y z
#    x 1.707860 0.000000 0.000000 
#    y 0.000000 1.691670 0.000000 
#    z 0.000000 0.000000 1.695510 
# 
# From -- ./inp_files/13554.got.cif
#   From: 2010.03.12/outbox.cif.g09.slc.cpg/sg40_7_cif.got.tgz:13554.got - 2010.04.14 01:38:03.
