data_PCOD8183924
_publ_section_title
;
Structure prediction by ZEFSAII (Michael W. Deem and Ramdas Pophale) SiO2 
 PCOD8183924
Probable space group: A M A 2
;
_chemical_formula_sum "Si O2"
_cell_formula_units_Z 56
_cell_length_a 17.394209
_cell_length_b 17.336102
_cell_length_c 9.681750
_cell_angle_alpha 90.000000
_cell_angle_beta 90.000000
_cell_angle_gamma 90.000000
_cell_volume 2919.510233
_symmetry_space_group_name_H-M "A M A 2"
_symmetry_group_IT_number 40
_symmetry_cell_setting 'orthorhombic'
loop_
_space_group_symop_operation_xyz
x,y,z
-x,-y,z
1/2-x,y,z
1/2+x,-y,z
x,1/2+y,1/2+z
-x,1/2-y,1/2+z
1/2-x,1/2+y,1/2+z
1/2+x,1/2-y,1/2+z
loop_
_atom_site_type_symbol
_atom_site_label
_atom_site_fract_x
_atom_site_fract_y
_atom_site_fract_z
Si Si1 0.665802 0.572493 0.846170
Si Si2 0.337394 0.245117 0.324428
Si Si3 0.106092 0.812842 0.552176
Si Si4 0.519166 0.081789 0.189577
Si Si5 0.507006 0.692021 0.444520
Si Si6 0.486749 0.588560 0.195545
Si Si7 0.396947 0.588694 0.925122
O O1 0.750000 0.567221 0.781201
O O2 0.665522 0.644764 0.951523
O O3 0.609523 0.586805 0.718490
O O4 0.646508 0.492334 0.921661
O O5 0.250000 0.273461 0.359823
O O6 0.403476 0.290970 0.409469
O O7 0.342111 0.155259 0.365375
O O8 0.351208 0.255523 0.159498
O O9 0.066995 0.881090 0.637707
O O10 0.041885 0.770119 0.457686
O O11 0.474872 0.086368 0.335192
O O12 0.500000 0.000000 0.116268
O O13 0.497970 0.152248 0.092563
O O14 0.466208 0.637701 0.331560
O O15 0.500000 0.500000 0.235419
O O16 0.419120 0.602598 0.084702
#
# Coordination Sequence:
#
# PCOD8183924 Si02
#       7
#     8   8   8   8   8   8   8
#     4  11  22  35  60  90 118 155 199 250 301 354
#     4  11  23  37  59  89 125 158 193 254 314 352
#     4  11  21  38  60  89 121 157 197 245 298 365
#     4  10  20  38  60  85 116 157 202 247 289 361
#     4  11  23  36  62  90 119 155 206 246 296 358
#     4  11  20  37  61  88 114 153 201 247 287 348
#     4  11  19  39  61  85 114 157 210 241 291 361
#
# _framework density 19.181298999999999
#
# number of rings (size 3 to 8) (size 9 to 14) (size 15 to 20)
#    0.000    1.143    5.714    1.714    2.000    0.571 
#    0.000    0.000    0.000    2.571    0.000    0.000 
#    0.000    0.000    0.000    0.000    0.000    0.000 
#
# Total GULP energy -347153.700904 kJ/mol
# GULP energy per Si atom -12398.346461 kJ/mol
# Density = 1.913764 g / cm^3
# Si number density = 19.181299 Si / 1000 Ang^3
#
#
#
# Elastic Constant Matrix: (Units=GPa)
#
#
# Indices 1 2 3 4 5 6 
#
# 1 116.0483 32.5299 34.3222 0.0000 0.0000 0.0000
# 2 32.5299 116.9200 43.5496 0.0000 0.0000 0.0000
# 3 34.3222 43.5496 78.1671 0.0000 0.0000 0.0000
# 4 0.0000 0.0000 0.0000 30.4221 0.0000 0.0000
# 5 0.0000 0.0000 0.0000 0.0000 20.2038 0.0000
# 6 0.0000 0.0000 0.0000 0.0000 0.0000 19.3568
#
#
#
# Elastic Compliance Matrix: (Units=1/GPa)
#
#
# Indices 1 2 3 4 5 6 
#
# 1 0.010097 -0.001461 -0.003620 0.000000 0.000000 0.000000
# 2 -0.001461 0.011004 -0.005489 0.000000 0.000000 0.000000
# 3 -0.003620 -0.005489 0.017441 0.000000 0.000000 0.000000
# 4 0.000000 0.000000 0.000000 0.032871 0.000000 0.000000
# 5 0.000000 0.000000 0.000000 0.000000 0.049496 0.000000
# 6 0.000000 0.000000 0.000000 0.000000 0.000000 0.051661
#
#
# Mechanical properties :
#
#
# Convention : Reuss Voigt Hill
#
# Bulk Modulus (GPa) = 57.46401 59.10433 58.28417
# Shear Modulus (GPa) = 25.06145 27.37879 26.22012
#
# Velocity S-wave (km/s) = 3.61855 3.78215 3.70126
# Velocity P-wave (km/s) = 6.89072 7.06777 6.97980
#
# Compressibility (1/GPa) = 0.01740220
#
# Stress axis : x y z
#
# Youngs Moduli (GPa) = 99.03772 90.87677 57.33764
#
# Poissons Ratio (x) = 0.13278 0.20753
# Poissons Ratio (y) = 0.14470 0.31473
# Poissons Ratio (z) = 0.35847 0.49883
#
# Static dielectric constant tensor:
#      x y z
#    x 3.347460 0.000000 0.000000 
#    y 0.000000 3.728610 0.000000 
#    z 0.000000 0.000000 3.421050 
# 
# 
# High freq. dielectric constant tensor:
#      x y z
#    x 1.726120 0.000000 0.000000 
#    y 0.000000 1.762130 0.000000 
#    z 0.000000 0.000000 1.734150 
# 
# From -- ./inp_files/7739.got.cif
#   From: 2010.03.12/outbox.cif.g09.slc.cpg/sg40_4_cif.got.tgz:7739.got - 2010.04.14 01:38:03.
