data_PCOD8183697
_publ_section_title
;
Structure prediction by ZEFSAII (Michael W. Deem and Ramdas Pophale) SiO2 
 PCOD8183697
Probable space group: A M A 2
;
_chemical_formula_sum "Si O2"
_cell_formula_units_Z 60
_cell_length_a 10.432745
_cell_length_b 34.338357
_cell_length_c 8.316247
_cell_angle_alpha 90.000000
_cell_angle_beta 90.000000
_cell_angle_gamma 90.000000
_cell_volume 2979.239954
_symmetry_space_group_name_H-M "A M A 2"
_symmetry_group_IT_number 40
_symmetry_cell_setting 'orthorhombic'
loop_
_space_group_symop_operation_xyz
x,y,z
-x,-y,z
1/2-x,y,z
1/2+x,-y,z
x,1/2+y,1/2+z
-x,1/2-y,1/2+z
1/2-x,1/2+y,1/2+z
1/2+x,1/2-y,1/2+z
loop_
_atom_site_type_symbol
_atom_site_label
_atom_site_fract_x
_atom_site_fract_y
_atom_site_fract_z
Si Si1 0.603957 0.078898 0.941950
Si Si2 0.000000 0.500000 0.908216
Si Si3 0.603519 0.571470 0.089126
Si Si4 0.106938 0.836296 0.076056
Si Si5 0.035461 0.132105 0.370563
Si Si6 0.100453 0.275945 0.313992
Si Si7 0.607221 0.293222 0.039962
Si Si8 0.887701 0.939752 0.181348
O O1 0.750000 0.062428 0.962250
O O2 0.541164 0.072674 0.766430
O O3 0.602345 0.124317 0.975436
O O4 0.509651 0.056980 0.064715
O O5 0.100432 0.524805 0.805189
O O6 0.082561 0.470971 0.016493
O O7 0.750000 0.579553 0.120928
O O8 0.561302 0.606078 0.973442
O O9 0.250000 0.824385 0.123506
O O10 0.033645 0.839810 0.243321
O O11 0.050291 0.803132 0.960016
O O12 0.108624 0.161117 0.490932
O O13 0.123458 0.101558 0.274601
O O14 0.250000 0.285319 0.266834
O O15 0.087205 0.231902 0.377464
O O16 0.005931 0.283121 0.164371
O O17 0.750000 0.284313 0.112318
O O18 0.750000 0.944450 0.091632
#
# Coordination Sequence:
#
# PCOD8183697 Si02
#       8
#     8   4   8   8   8   8   8   8
#     4   9  19  35  57  83 112 143 185 233 276 325
#     4  10  22  36  56  82 112 146 186 234 284 336
#     4  10  20  37  59  85 113 148 190 235 284 340
#     4   9  17  33  56  84 112 144 187 233 273 325
#     4  10  20  35  58  84 112 148 186 230 283 336
#     4  10  22  38  58  83 115 152 192 233 280 335
#     4  11  23  39  57  84 118 151 189 238 287 336
#     4  10  21  38  57  80 110 147 185 226 277 337
#
# _framework density 20.139365000000002
#
# number of rings (size 3 to 8) (size 9 to 14) (size 15 to 20)
#    0.000    2.133    0.000    2.800    0.000    6.933 
#    0.000   11.333    0.000    0.000    0.000    0.000 
#    0.000    0.000    0.000    0.000    0.000    0.000 
#
# Total GULP energy -371817.016860 kJ/mol
# GULP energy per Si atom -12393.900562 kJ/mol
# Density = 2.009353 g / cm^3
# Si number density = 20.139365 Si / 1000 Ang^3
#
#
#
# Elastic Constant Matrix: (Units=GPa)
#
#
# Indices 1 2 3 4 5 6 
#
# 1 111.8599 27.4999 55.6870 0.0000 0.0000 0.0000
# 2 27.4999 80.0367 36.9453 0.0000 0.0000 0.0000
# 3 55.6870 36.9453 107.2195 0.0000 0.0000 0.0000
# 4 0.0000 0.0000 0.0000 30.5586 0.0000 0.0000
# 5 0.0000 0.0000 0.0000 0.0000 29.2537 0.0000
# 6 0.0000 0.0000 0.0000 0.0000 0.0000 6.3489
#
#
#
# Elastic Compliance Matrix: (Units=1/GPa)
#
#
# Indices 1 2 3 4 5 6 
#
# 1 0.012208 -0.001508 -0.005821 0.000000 0.000000 0.000000
# 2 -0.001508 0.015044 -0.004401 0.000000 0.000000 0.000000
# 3 -0.005821 -0.004401 0.013866 0.000000 0.000000 0.000000
# 4 0.000000 0.000000 0.000000 0.032724 0.000000 0.000000
# 5 0.000000 0.000000 0.000000 0.000000 0.034184 0.000000
# 6 0.000000 0.000000 0.000000 0.000000 0.000000 0.157508
#
#
# Mechanical properties :
#
#
# Convention : Reuss Voigt Hill
#
# Bulk Modulus (GPa) = 56.62695 59.93119 58.27907
# Shear Modulus (GPa) = 16.95607 25.16450 21.06028
#
# Velocity S-wave (km/s) = 2.90476 3.53869 3.23728
# Velocity P-wave (km/s) = 6.27923 6.82050 6.55546
#
# Compressibility (1/GPa) = 0.01765944
#
# Stress axis : x y z
#
# Youngs Moduli (GPa) = 81.91116 66.47325 72.11664
#
# Poissons Ratio (x) = 0.10021 0.41981
# Poissons Ratio (y) = 0.12349 0.31736
# Poissons Ratio (z) = 0.47682 0.29253
#
# Static dielectric constant tensor:
#      x y z
#    x 3.553410 0.000000 0.000000 
#    y 0.000000 3.689670 0.000000 
#    z 0.000000 0.000000 3.667120 
# 
# 
# High freq. dielectric constant tensor:
#      x y z
#    x 1.777650 0.000000 0.000000 
#    y 0.000000 1.795510 0.000000 
#    z 0.000000 0.000000 1.779970 
# 
# From -- ./inp_files/5687.got.cif
#   From: 2010.03.12/outbox.cif.g09.slc.cpg/sg40_3_cif.got.tgz:5687.got - 2010.04.14 01:38:03.
