data_PCOD8183989
_publ_section_title
;
Structure prediction by ZEFSAII (Michael W. Deem and Ramdas Pophale) SiO2 
 PCOD8183989
Probable space group: A M A 2
;
_chemical_formula_sum "Si O2"
_cell_formula_units_Z 64
_cell_length_a 16.709628
_cell_length_b 12.127472
_cell_length_c 15.172875
_cell_angle_alpha 90.000000
_cell_angle_beta 90.000000
_cell_angle_gamma 90.000000
_cell_volume 3074.715534
_symmetry_space_group_name_H-M "A M A 2"
_symmetry_group_IT_number 40
_symmetry_cell_setting 'orthorhombic'
loop_
_space_group_symop_operation_xyz
x,y,z
-x,-y,z
1/2-x,y,z
1/2+x,-y,z
x,1/2+y,1/2+z
-x,1/2-y,1/2+z
1/2-x,1/2+y,1/2+z
1/2+x,1/2-y,1/2+z
loop_
_atom_site_type_symbol
_atom_site_label
_atom_site_fract_x
_atom_site_fract_y
_atom_site_fract_z
Si Si1 0.655412 0.042596 0.353220
Si Si2 0.918014 0.684783 0.697764
Si Si3 0.656158 0.068007 0.866400
Si Si4 0.661052 0.300802 0.828832
Si Si5 0.842418 0.596958 0.053329
Si Si6 0.156534 0.575007 0.202557
Si Si7 0.093295 0.986373 0.051075
Si Si8 0.901043 0.797820 0.149424
O O1 0.750000 0.045607 0.331484
O O2 0.618676 0.918525 0.345734
O O3 0.610102 0.122306 0.285738
O O4 0.636581 0.078652 0.452002
O O5 0.886263 0.808212 0.697222
O O6 0.887287 0.621270 0.610053
O O7 0.013610 0.686973 0.696623
O O8 0.750000 0.081365 0.848949
O O9 0.617848 0.192202 0.870177
O O10 0.621373 0.994622 0.785758
O O11 0.639462 0.012398 0.959179
O O12 0.750000 0.310819 0.868313
O O13 0.664401 0.276304 0.724578
O O14 0.750000 0.631077 0.065237
O O15 0.861200 0.488768 0.111464
O O16 0.900396 0.695605 0.082803
O O17 0.250000 0.597581 0.216052
O O18 0.126684 0.092071 0.101000
O O19 0.000000 0.000000 0.031386
#
# Coordination Sequence:
#
# PCOD8183989 Si02
#       8
#     8   8   8   8   8   8   8   8
#     4  10  22  40  66  94 123 163 208 260 314 365
#     4  11  24  41  60  90 128 162 208 259 313 369
#     4  10  22  39  63  94 123 160 207 254 308 365
#     4  10  20  39  64  90 119 160 210 253 305 365
#     4  10  22  42  65  92 126 162 208 259 308 370
#     4  10  22  41  62  90 127 161 202 258 309 368
#     4  10  24  42  60  86 125 164 206 255 308 367
#     4  11  22  42  63  86 124 167 206 254 308 369
#
# _framework density 20.814934000000001
#
# number of rings (size 3 to 8) (size 9 to 14) (size 15 to 20)
#    0.000    1.750    2.500    0.750    3.500    3.500 
#    2.250    1.250    0.000    0.000    0.000    0.000 
#    0.000    0.000    0.000    0.000    0.000    0.000 
#
# Total GULP energy -396738.390772 kJ/mol
# GULP energy per Si atom -12398.074712 kJ/mol
# Density = 2.076756 g / cm^3
# Si number density = 20.814934 Si / 1000 Ang^3
#
#
#
# Elastic Constant Matrix: (Units=GPa)
#
#
# Indices 1 2 3 4 5 6 
#
# 1 34.7641 42.1351 37.7673 0.0000 0.0000 0.0000
# 2 42.1351 163.5795 56.9118 0.0000 0.0000 0.0000
# 3 37.7673 56.9118 140.5139 0.0000 0.0000 0.0000
# 4 0.0000 0.0000 0.0000 34.9705 0.0000 0.0000
# 5 0.0000 0.0000 0.0000 0.0000 21.2901 0.0000
# 6 0.0000 0.0000 0.0000 0.0000 0.0000 24.5792
#
#
#
# Elastic Compliance Matrix: (Units=1/GPa)
#
#
# Indices 1 2 3 4 5 6 
#
# 1 0.051315 -0.009800 -0.009823 0.000000 0.000000 0.000000
# 2 -0.009800 0.008988 -0.001006 0.000000 0.000000 0.000000
# 3 -0.009823 -0.001006 0.010165 0.000000 0.000000 0.000000
# 4 0.000000 0.000000 0.000000 0.028596 0.000000 0.000000
# 5 0.000000 0.000000 0.000000 0.000000 0.046970 0.000000
# 6 0.000000 0.000000 0.000000 0.000000 0.000000 0.040685
#
#
# Mechanical properties :
#
#
# Convention : Reuss Voigt Hill
#
# Bulk Modulus (GPa) = 34.23673 68.05398 51.14536
# Shear Modulus (GPa) = 21.03373 29.63749 25.33561
#
# Velocity S-wave (km/s) = 3.18230 3.77750 3.49260
# Velocity P-wave (km/s) = 5.47600 7.19665 6.39446
#
# Compressibility (1/GPa) = 0.02920840
#
# Stress axis : x y z
#
# Youngs Moduli (GPa) = 19.48734 111.26390 98.38143
#
# Poissons Ratio (x) = 1.09041 0.96642
# Poissons Ratio (y) = 0.19098 0.09898
# Poissons Ratio (z) = 0.19143 0.11194
#
# Static dielectric constant tensor:
#      x y z
#    x 3.481540 0.000000 0.000000 
#    y 0.000000 4.008170 0.000000 
#    z 0.000000 0.000000 3.759500 
# 
# 
# High freq. dielectric constant tensor:
#      x y z
#    x 1.787920 0.000000 0.000000 
#    y 0.000000 1.834530 0.000000 
#    z 0.000000 0.000000 1.820910 
# 
# From -- ./inp_files/17899.got.cif
#   From: 2010.03.12/outbox.cif.g09.slc.cpg/sg40_9_cif.got.tgz:17899.got - 2010.04.14 01:38:03.
