data_PCOD8183097
_publ_section_title
;
Structure prediction by ZEFSAII (Michael W. Deem and Ramdas Pophale) SiO2 
 PCOD8183097
Probable space group: A M A 2
;
_chemical_formula_sum "Si O2"
_cell_formula_units_Z 64
_cell_length_a 9.267433
_cell_length_b 23.713317
_cell_length_c 17.612601
_cell_angle_alpha 90.000000
_cell_angle_beta 90.000000
_cell_angle_gamma 90.000000
_cell_volume 3870.572962
_symmetry_space_group_name_H-M "A M A 2"
_symmetry_group_IT_number 40
_symmetry_cell_setting 'orthorhombic'
loop_
_space_group_symop_operation_xyz
x,y,z
-x,-y,z
1/2-x,y,z
1/2+x,-y,z
x,1/2+y,1/2+z
-x,1/2-y,1/2+z
1/2-x,1/2+y,1/2+z
1/2+x,1/2-y,1/2+z
loop_
_atom_site_type_symbol
_atom_site_label
_atom_site_fract_x
_atom_site_fract_y
_atom_site_fract_z
Si Si1 0.917735 0.444278 0.414110
Si Si2 0.420691 0.057505 0.087529
Si Si3 0.086616 0.630396 0.277372
Si Si4 0.082962 0.445015 0.835338
Si Si5 0.418359 0.444400 0.007029
Si Si6 0.580365 0.140578 0.635944
Si Si7 0.919232 0.135803 0.201272
Si Si8 0.086710 0.736468 0.194777
O O1 0.750000 0.457833 0.407380
O O2 0.957203 0.427929 0.500184
O O3 0.965299 0.392711 0.359103
O O4 0.000000 0.500000 0.387245
O O5 0.250000 0.051117 0.102107
O O6 0.485339 0.108621 0.135390
O O7 0.500000 0.000000 0.112343
O O8 0.250000 0.609790 0.261971
O O9 0.079011 0.699367 0.273404
O O10 0.985774 0.606908 0.208859
O O11 0.250000 0.460406 0.831268
O O12 0.044048 0.392743 0.781644
O O13 0.000000 0.500000 0.805597
O O14 0.036405 0.428948 0.920914
O O15 0.500000 0.500000 0.035320
O O16 0.250000 0.457274 0.013801
O O17 0.462882 0.391936 0.059430
O O18 0.750000 0.145833 0.646384
O O19 0.511446 0.203754 0.632197
O O20 0.750000 0.129769 0.181447
O O21 0.969168 0.200592 0.209343
O O22 0.250000 0.738267 0.163692
#
# Coordination Sequence:
#
# PCOD8183097 Si02
#       8
#     8   8   8   8   8   8   8   8
#     4   9  18  32  49  71  98 127 159 193 237 286
#     4  10  20  33  50  74 101 127 155 195 240 286
#     4   8  16  32  50  67  93 127 161 193 231 282
#     4   9  18  32  49  71  96 122 153 190 232 279
#     4   9  18  31  47  70  98 125 155 191 234 281
#     4   9  17  30  48  70  96 124 158 199 237 272
#     4  10  19  33  53  72  92 126 164 196 236 284
#     4   8  17  33  50  67  92 128 162 195 232 279
#
# _framework density 16.535019999999999
#
# number of rings (size 3 to 8) (size 9 to 14) (size 15 to 20)
#    0.750    2.250    0.000    0.750    0.000    4.500 
#    0.000    3.750    0.000    4.500    0.000    0.000 
#    0.000    0.000    0.000    0.000    0.000    0.000 
#
# Total GULP energy -396551.129867 kJ/mol
# GULP energy per Si atom -12392.222808 kJ/mol
# Density = 1.649739 g / cm^3
# Si number density = 16.535020 Si / 1000 Ang^3
#
#
#
# Elastic Constant Matrix: (Units=GPa)
#
#
# Indices 1 2 3 4 5 6 
#
# 1 57.4074 53.4910 44.7261 0.0000 0.0000 0.0000
# 2 53.4910 139.7189 75.0760 0.0000 0.0000 0.0000
# 3 44.7261 75.0760 94.1126 0.0000 0.0000 0.0000
# 4 0.0000 0.0000 0.0000 16.7660 0.0000 0.0000
# 5 0.0000 0.0000 0.0000 0.0000 23.4130 0.0000
# 6 0.0000 0.0000 0.0000 0.0000 0.0000 26.1504
#
#
#
# Elastic Compliance Matrix: (Units=1/GPa)
#
#
# Indices 1 2 3 4 5 6 
#
# 1 0.031078 -0.006934 -0.009238 0.000000 0.000000 0.000000
# 2 -0.006934 0.014074 -0.007932 0.000000 0.000000 0.000000
# 3 -0.009238 -0.007932 0.021343 0.000000 0.000000 0.000000
# 4 0.000000 0.000000 0.000000 0.059644 0.000000 0.000000
# 5 0.000000 0.000000 0.000000 0.000000 0.042711 0.000000
# 6 0.000000 0.000000 0.000000 0.000000 0.000000 0.038240
#
#
# Mechanical properties :
#
#
# Convention : Reuss Voigt Hill
#
# Bulk Modulus (GPa) = 54.68282 70.86946 62.77614
# Shear Modulus (GPa) = 19.12822 21.12894 20.12858
#
# Velocity S-wave (km/s) = 3.40491 3.57855 3.49281
# Velocity P-wave (km/s) = 6.97141 7.74777 7.36982
#
# Compressibility (1/GPa) = 0.01828728
#
# Stress axis : x y z
#
# Youngs Moduli (GPa) = 32.17749 71.05297 46.85358
#
# Poissons Ratio (x) = 0.49270 0.43282
# Poissons Ratio (y) = 0.22313 0.37163
# Poissons Ratio (z) = 0.29725 0.56358
#
# Static dielectric constant tensor:
#      x y z
#    x 3.102120 0.000000 0.000000 
#    y 0.000000 3.069290 0.000000 
#    z 0.000000 0.000000 3.143840 
# 
# 
# High freq. dielectric constant tensor:
#      x y z
#    x 1.638950 0.000000 0.000000 
#    y 0.000000 1.623040 0.000000 
#    z 0.000000 0.000000 1.627360 
# 
# From -- ./inp_files/19737.got.cif
#   From: 2010.03.12/outbox.cif.g09.slc.cpg/sg40_10_cif.got.tgz:19737.got - 2010.04.14 01:38:03.
