data_PCOD8183442
_publ_section_title
;
Structure prediction by ZEFSAII (Michael W. Deem and Ramdas Pophale) SiO2 
 PCOD8183442
Probable space group: A M A 2
;
_chemical_formula_sum "Si O2"
_cell_formula_units_Z 64
_cell_length_a 9.074352
_cell_length_b 24.462762
_cell_length_c 20.172264
_cell_angle_alpha 90.000000
_cell_angle_beta 90.000000
_cell_angle_gamma 90.000000
_cell_volume 4477.914068
_symmetry_space_group_name_H-M "A M A 2"
_symmetry_group_IT_number 40
_symmetry_cell_setting 'orthorhombic'
loop_
_space_group_symop_operation_xyz
x,y,z
-x,-y,z
1/2-x,y,z
1/2+x,-y,z
x,1/2+y,1/2+z
-x,1/2-y,1/2+z
1/2-x,1/2+y,1/2+z
1/2+x,1/2-y,1/2+z
loop_
_atom_site_type_symbol
_atom_site_label
_atom_site_fract_x
_atom_site_fract_y
_atom_site_fract_z
Si Si1 0.576387 0.444186 0.944440
Si Si2 0.915606 0.416112 0.794476
Si Si3 0.077263 0.329483 0.618788
Si Si4 0.423210 0.239124 0.378887
Si Si5 0.414015 0.204647 0.242346
Si Si6 0.418033 0.224322 0.997478
Si Si7 0.577654 0.552289 0.668272
Si Si8 0.918835 0.659232 0.962716
O O1 0.500000 0.500000 0.967775
O O2 0.750000 0.446927 0.957610
O O3 0.534702 0.432117 0.868257
O O4 0.504531 0.394876 0.988053
O O5 0.750000 0.437779 0.781167
O O6 0.921270 0.351748 0.782146
O O7 0.027293 0.445676 0.744592
O O8 0.250000 0.322027 0.610479
O O9 0.030505 0.392309 0.630541
O O10 0.026967 0.292591 0.681367
O O11 0.998799 0.310680 0.552493
O O12 0.250000 0.236841 0.394998
O O13 0.450299 0.249689 0.299928
O O14 0.501254 0.285070 0.425724
O O15 0.497182 0.180437 0.396650
O O16 0.250000 0.214228 0.213235
O O17 0.250000 0.204317 0.991565
O O18 0.425652 0.289729 0.015174
O O19 0.500000 0.500000 0.633454
O O20 0.750000 0.543696 0.664930
O O21 0.750000 0.644255 0.945915
#
# Coordination Sequence:
#
# PCOD8183442 Si02
#       8
#     8   8   8   8   8   8   8   8
#     4  11  20  28  38  55  78 106 139 175 209 242
#     4   9  16  27  39  52  72 103 138 170 204 237
#     4  10  20  30  43  62  82 106 141 177 208 247
#     4   9  15  27  45  61  79 105 136 169 209 250
#     4   9  16  27  42  60  82 107 136 172 211 246
#     4   9  18  30  45  62  79 104 137 172 211 253
#     4  10  20  30  39  54  74 103 136 169 207 242
#     4   9  18  29  42  58  76 102 136 171 207 247
#
# _framework density 14.292368
#
# number of rings (size 3 to 8) (size 9 to 14) (size 15 to 20)
#    0.750    1.750    1.250    2.250    0.000    4.500 
#    0.000    0.000    0.000    0.000    0.000    0.000 
#    0.000    0.000    0.000    1.125    0.000   17.250 
#
# Total GULP energy -396432.854231 kJ/mol
# GULP energy per Si atom -12388.526695 kJ/mol
# Density = 1.425984 g / cm^3
# Si number density = 14.292368 Si / 1000 Ang^3
#
#
#
# Elastic Constant Matrix: (Units=GPa)
#
#
# Indices 1 2 3 4 5 6 
#
# 1 94.5970 31.5980 37.7600 0.0000 0.0000 0.0000
# 2 31.5980 45.6011 27.3103 0.0000 0.0000 0.0000
# 3 37.7600 27.3103 58.0387 0.0000 0.0000 0.0000
# 4 0.0000 0.0000 0.0000 15.6553 0.0000 0.0000
# 5 0.0000 0.0000 0.0000 0.0000 20.1242 0.0000
# 6 0.0000 0.0000 0.0000 0.0000 0.0000 22.4718
#
#
#
# Elastic Compliance Matrix: (Units=1/GPa)
#
#
# Indices 1 2 3 4 5 6 
#
# 1 0.015579 -0.006579 -0.007040 0.000000 0.000000 0.000000
# 2 -0.006579 0.033312 -0.011395 0.000000 0.000000 0.000000
# 3 -0.007040 -0.011395 0.027172 0.000000 0.000000 0.000000
# 4 0.000000 0.000000 0.000000 0.063876 0.000000 0.000000
# 5 0.000000 0.000000 0.000000 0.000000 0.049692 0.000000
# 6 0.000000 0.000000 0.000000 0.000000 0.000000 0.044500
#
#
# Mechanical properties :
#
#
# Convention : Reuss Voigt Hill
#
# Bulk Modulus (GPa) = 38.40883 43.50815 40.95849
# Shear Modulus (GPa) = 17.07438 18.42151 17.74795
#
# Velocity S-wave (km/s) = 3.46012 3.59403 3.52771
# Velocity P-wave (km/s) = 6.54945 6.90871 6.73148
#
# Compressibility (1/GPa) = 0.02603568
#
# Stress axis : x y z
#
# Youngs Moduli (GPa) = 64.19021 30.01903 36.80255
#
# Poissons Ratio (x) = 0.19748 0.25909
# Poissons Ratio (y) = 0.42228 0.41937
# Poissons Ratio (z) = 0.45189 0.34207
#
# Static dielectric constant tensor:
#      x y z
#    x 2.892490 0.000000 0.000000 
#    y 0.000000 2.670820 0.000000 
#    z 0.000000 0.000000 2.512440 
# 
# 
# High freq. dielectric constant tensor:
#      x y z
#    x 1.564960 0.000000 0.000000 
#    y 0.000000 1.515600 0.000000 
#    z 0.000000 0.000000 1.503570 
# 
# From -- ./inp_files/22551.got.cif
#   From: 2010.03.12/outbox.cif.g09.slc.cpg/sg40_12_cif.got.tgz:22551.got - 2010.04.14 01:38:03.
