data_PCOD8183778
_publ_section_title
;
Structure prediction by ZEFSAII (Michael W. Deem and Ramdas Pophale) SiO2 
 PCOD8183778
Probable space group: A M A 2
;
_chemical_formula_sum "Si O2"
_cell_formula_units_Z 48
_cell_length_a 8.652775
_cell_length_b 9.106765
_cell_length_c 30.650495
_cell_angle_alpha 90.000000
_cell_angle_beta 90.000000
_cell_angle_gamma 90.000000
_cell_volume 2415.221874
_symmetry_space_group_name_H-M "A M A 2"
_symmetry_group_IT_number 40
_symmetry_cell_setting 'orthorhombic'
loop_
_space_group_symop_operation_xyz
x,y,z
-x,-y,z
1/2-x,y,z
1/2+x,-y,z
x,1/2+y,1/2+z
-x,1/2-y,1/2+z
1/2-x,1/2+y,1/2+z
1/2+x,1/2-y,1/2+z
loop_
_atom_site_type_symbol
_atom_site_label
_atom_site_fract_x
_atom_site_fract_y
_atom_site_fract_z
Si Si1 0.566837 0.158804 0.781070
Si Si2 0.433319 0.839124 0.614847
Si Si3 0.569316 0.161145 0.456752
Si Si4 0.067865 0.159261 0.199057
Si Si5 0.567044 0.161172 0.034888
Si Si6 0.430010 0.156131 0.872132
O O1 0.750000 0.149290 0.781687
O O2 0.506170 0.268892 0.743820
O O3 0.507090 0.215580 0.827779
O O4 0.500000 0.000000 0.770194
O O5 0.250000 0.843263 0.609697
O O6 0.487521 0.755131 0.658176
O O7 0.505871 0.762723 0.573160
O O8 0.500000 0.000000 0.618405
O O9 0.750000 0.156150 0.467994
O O10 0.485385 0.272046 0.489120
O O11 0.538076 0.221127 0.408333
O O12 0.500000 0.000000 0.461396
O O13 0.250000 0.147586 0.200048
O O14 0.000000 0.000000 0.193402
O O15 0.750000 0.152638 0.036516
O O16 0.500000 0.000000 0.040792
O O17 0.250000 0.131084 0.863807
O O18 0.500000 0.000000 0.886781
#
# Coordination Sequence:
#
# PCOD8183778 Si02
#       6
#     8   8   8   8   8   8
#     4  10  20  36  58  85 115 150 193 239 289 344
#     4  11  23  41  63  89 120 155 196 240 291 346
#     4  11  24  41  61  87 119 156 197 241 292 347
#     4  10  23  39  58  85 117 154 195 239 288 344
#     4  12  25  42  64  90 120 154 194 240 291 347
#     4  10  21  37  59  86 115 151 194 239 290 346
#
# _framework density 19.873950000000001
#
# number of rings (size 3 to 8) (size 9 to 14) (size 15 to 20)
#    0.000    1.333    0.000    6.500    0.000    8.667 
#    0.000    3.333    0.000    0.000    0.000    0.000 
#    0.000    0.000    0.000    0.000    0.000    0.000 
#
# Total GULP energy -297720.363449 kJ/mol
# GULP energy per Si atom -12405.015144 kJ/mol
# Density = 1.982872 g / cm^3
# Si number density = 19.873950 Si / 1000 Ang^3
#
#
#
# Elastic Constant Matrix: (Units=GPa)
#
#
# Indices 1 2 3 4 5 6 
#
# 1 109.2349 45.4359 52.4634 0.0000 0.0000 0.0000
# 2 45.4359 129.9214 63.3280 0.0000 0.0000 0.0000
# 3 52.4634 63.3280 125.0683 0.0000 0.0000 0.0000
# 4 0.0000 0.0000 0.0000 43.9205 0.0000 0.0000
# 5 0.0000 0.0000 0.0000 0.0000 30.8408 0.0000
# 6 0.0000 0.0000 0.0000 0.0000 0.0000 31.8284
#
#
#
# Elastic Compliance Matrix: (Units=1/GPa)
#
#
# Indices 1 2 3 4 5 6 
#
# 1 0.011963 -0.002307 -0.003850 0.000000 0.000000 0.000000
# 2 -0.002307 0.010664 -0.004432 0.000000 0.000000 0.000000
# 3 -0.003850 -0.004432 0.011855 0.000000 0.000000 0.000000
# 4 0.000000 0.000000 0.000000 0.022768 0.000000 0.000000
# 5 0.000000 0.000000 0.000000 0.000000 0.032425 0.000000
# 6 0.000000 0.000000 0.000000 0.000000 0.000000 0.031418
#
#
# Mechanical properties :
#
#
# Convention : Reuss Voigt Hill
#
# Bulk Modulus (GPa) = 75.16651 76.29768 75.73210
# Shear Modulus (GPa) = 34.08160 34.85111 34.46636
#
# Velocity S-wave (km/s) = 4.14561 4.19215 4.16895
# Velocity P-wave (km/s) = 7.79862 7.86806 7.83342
#
# Compressibility (1/GPa) = 0.01330380
#
# Stress axis : x y z
#
# Youngs Moduli (GPa) = 83.58834 93.77278 84.35404
#
# Poissons Ratio (x) = 0.21635 0.32478
# Poissons Ratio (y) = 0.19285 0.37385
# Poissons Ratio (z) = 0.32183 0.41560
#
# Static dielectric constant tensor:
#      x y z
#    x 3.766730 0.000000 0.000000 
#    y 0.000000 3.612060 0.000000 
#    z 0.000000 0.000000 3.979580 
# 
# 
# High freq. dielectric constant tensor:
#      x y z
#    x 1.788420 0.000000 0.000000 
#    y 0.000000 1.782680 0.000000 
#    z 0.000000 0.000000 1.794660 
# 
# From -- ./inp_files/26132.got.cif
#   From: 2010.03.12/outbox.cif.g09.slc.cpg/sg40_14_cif.got.tgz:26132.got - 2010.04.14 01:38:03.
