data_PCOD8183863
_publ_section_title
;
Structure prediction by ZEFSAII (Michael W. Deem and Ramdas Pophale) SiO2 
 PCOD8183863
Probable space group: A M A 2
;
_chemical_formula_sum "Si O2"
_cell_formula_units_Z 48
_cell_length_a 8.754462
_cell_length_b 30.606530
_cell_length_c 8.995203
_cell_angle_alpha 90.000000
_cell_angle_beta 90.000000
_cell_angle_gamma 90.000000
_cell_volume 2410.208009
_symmetry_space_group_name_H-M "A M A 2"
_symmetry_group_IT_number 40
_symmetry_cell_setting 'orthorhombic'
loop_
_space_group_symop_operation_xyz
x,y,z
-x,-y,z
1/2-x,y,z
1/2+x,-y,z
x,1/2+y,1/2+z
-x,1/2-y,1/2+z
1/2-x,1/2+y,1/2+z
1/2+x,1/2-y,1/2+z
loop_
_atom_site_type_symbol
_atom_site_label
_atom_site_fract_x
_atom_site_fract_y
_atom_site_fract_z
Si Si1 0.927911 0.875126 0.426560
Si Si2 0.426291 0.206885 0.911624
Si Si3 0.569797 0.545059 0.424739
Si Si4 0.070138 0.954933 0.261153
Si Si5 0.926091 0.287322 0.757828
Si Si6 0.929542 0.628973 0.242869
O O1 0.750000 0.886047 0.421893
O O2 0.969110 0.834365 0.322903
O O3 0.019478 0.916663 0.369376
O O4 0.977882 0.863804 0.592639
O O5 0.250000 0.194849 0.882346
O O6 0.464114 0.252110 0.831780
O O7 0.534349 0.168816 0.851695
O O8 0.461143 0.212323 0.084338
O O9 0.500000 0.500000 0.362944
O O10 0.750000 0.540765 0.421533
O O11 0.512062 0.554189 0.592926
O O12 0.513898 0.584330 0.320247
O O13 0.250000 0.959087 0.267016
O O14 0.000000 0.000000 0.321348
O O15 0.750000 0.275475 0.791460
O O16 0.750000 0.627928 0.209191
#
# Coordination Sequence:
#
# PCOD8183863 Si02
#       6
#     8   8   8   8   8   8
#     4  11  23  39  59  85 117 154 195 238 286 341
#     4  11  23  39  61  87 114 148 190 235 284 339
#     4   9  20  37  59  85 113 148 190 236 286 341
#     4  10  20  37  60  86 115 150 192 238 290 344
#     4  10  23  41  60  85 117 151 189 235 287 343
#     4  11  23  39  58  84 118 153 191 236 287 342
#
# _framework density 19.915295
#
# number of rings (size 3 to 8) (size 9 to 14) (size 15 to 20)
#    0.000    1.667    0.000    4.000    0.000    8.000 
#    0.000    1.667    0.000    0.000    0.000    0.000 
#    0.000    0.000    0.000    0.000    0.000    0.000 
#
# Total GULP energy -297759.071511 kJ/mol
# GULP energy per Si atom -12406.627980 kJ/mol
# Density = 1.986997 g / cm^3
# Si number density = 19.915295 Si / 1000 Ang^3
#
#
#
# Elastic Constant Matrix: (Units=GPa)
#
#
# Indices 1 2 3 4 5 6 
#
# 1 46.7115 37.2814 25.6303 0.0000 0.0000 0.0000
# 2 37.2814 126.6711 53.7918 0.0000 0.0000 0.0000
# 3 25.6303 53.7918 103.6770 0.0000 0.0000 0.0000
# 4 0.0000 0.0000 0.0000 33.5890 0.0000 0.0000
# 5 0.0000 0.0000 0.0000 0.0000 28.7309 0.0000
# 6 0.0000 0.0000 0.0000 0.0000 0.0000 38.0274
#
#
#
# Elastic Compliance Matrix: (Units=1/GPa)
#
#
# Indices 1 2 3 4 5 6 
#
# 1 0.028943 -0.007028 -0.003508 0.000000 0.000000 0.000000
# 2 -0.007028 0.011832 -0.004401 0.000000 0.000000 0.000000
# 3 -0.003508 -0.004401 0.012796 0.000000 0.000000 0.000000
# 4 0.000000 0.000000 0.000000 0.029772 0.000000 0.000000
# 5 0.000000 0.000000 0.000000 0.000000 0.034806 0.000000
# 6 0.000000 0.000000 0.000000 0.000000 0.000000 0.026297
#
#
# Mechanical properties :
#
#
# Convention : Reuss Voigt Hill
#
# Bulk Modulus (GPa) = 42.20388 56.71853 49.46121
# Shear Modulus (GPa) = 27.43937 30.75987 29.09962
#
# Velocity S-wave (km/s) = 3.71591 3.93432 3.82667
# Velocity P-wave (km/s) = 6.29669 7.01286 6.66440
#
# Compressibility (1/GPa) = 0.02369450
#
# Stress axis : x y z
#
# Youngs Moduli (GPa) = 34.55122 84.51542 78.14750
#
# Poissons Ratio (x) = 0.59401 0.27417
# Poissons Ratio (y) = 0.24284 0.34396
# Poissons Ratio (z) = 0.12122 0.37199
#
# Static dielectric constant tensor:
#      x y z
#    x 3.576100 0.000000 0.000000 
#    y 0.000000 3.717780 0.000000 
#    z 0.000000 0.000000 3.710940 
# 
# 
# High freq. dielectric constant tensor:
#      x y z
#    x 1.780380 0.000000 0.000000 
#    y 0.000000 1.789780 0.000000 
#    z 0.000000 0.000000 1.783080 
# 
# From -- ./inp_files/4557.got.cif
#   From: 2010.03.12/outbox.cif.g09.slc.cpg/sg40_3_cif.got.tgz:4557.got - 2010.04.14 01:38:03.
