data_PCOD8183853
_publ_section_title
;
Structure prediction by ZEFSAII (Michael W. Deem and Ramdas Pophale) SiO2 
 PCOD8183853
Probable space group: A M A 2
;
_chemical_formula_sum "Si O2"
_cell_formula_units_Z 64
_cell_length_a 15.275563
_cell_length_b 8.406997
_cell_length_c 24.299812
_cell_angle_alpha 90.000000
_cell_angle_beta 90.000000
_cell_angle_gamma 90.000000
_cell_volume 3120.621036
_symmetry_space_group_name_H-M "A M A 2"
_symmetry_group_IT_number 40
_symmetry_cell_setting 'orthorhombic'
loop_
_space_group_symop_operation_xyz
x,y,z
-x,-y,z
1/2-x,y,z
1/2+x,-y,z
x,1/2+y,1/2+z
-x,1/2-y,1/2+z
1/2-x,1/2+y,1/2+z
1/2+x,1/2-y,1/2+z
loop_
_atom_site_type_symbol
_atom_site_label
_atom_site_fract_x
_atom_site_fract_y
_atom_site_fract_z
Si Si1 0.848112 0.211630 0.243510
Si Si2 0.648231 0.712019 0.530425
Si Si3 0.911989 0.390705 0.139091
Si Si4 0.082890 0.109958 0.238733
Si Si5 0.349603 0.163655 0.025544
Si Si6 0.498903 0.311417 0.447585
Si Si7 0.845538 0.211241 0.640327
Si Si8 0.491748 0.188346 0.823584
O O1 0.750000 0.282195 0.242647
O O2 0.905488 0.273761 0.191574
O O3 0.897319 0.266092 0.298851
O O4 0.838780 0.018208 0.243939
O O5 0.750000 0.766025 0.522231
O O6 0.604691 0.788835 0.584270
O O7 0.642563 0.523263 0.536089
O O8 0.587942 0.758695 0.477767
O O9 0.835726 0.521206 0.145399
O O10 0.000000 0.500000 0.137016
O O11 0.089680 0.220732 0.185713
O O12 0.071521 0.226126 0.291154
O O13 0.000000 0.000000 0.231182
O O14 0.250000 0.211945 0.010920
O O15 0.384005 0.245919 0.080940
O O16 0.411630 0.236804 0.978552
O O17 0.500000 0.500000 0.446134
O O18 0.501989 0.245439 0.385668
O O19 0.750000 0.289158 0.647979
O O20 0.500000 0.000000 0.820052
#
# Coordination Sequence:
#
# PCOD8183853 Si02
#       8
#     8   8   8   8   8   8   8   8
#     4  11  22  38  59  85 115 154 198 245 299 363
#     4  10  20  37  59  85 116 155 197 241 295 366
#     4  12  23  36  57  85 120 156 194 241 301 359
#     4  10  21  37  57  79 111 149 188 230 286 356
#     4   9  19  35  58  86 117 151 193 239 293 361
#     4   9  19  36  59  83 111 150 196 244 294 350
#     4  11  21  34  53  83 114 141 178 231 285 339
#     4  10  21  39  60  84 113 148 195 247 297 352
#
# _framework density 20.508737
#
# number of rings (size 3 to 8) (size 9 to 14) (size 15 to 20)
#    0.000    1.750    0.000    5.625    0.000    3.000 
#    0.000    9.375    0.000    0.000    0.000    0.000 
#    0.000    0.000    0.000    0.000    0.000    0.000 
#
# Total GULP energy -396590.340467 kJ/mol
# GULP energy per Si atom -12393.448140 kJ/mol
# Density = 2.046206 g / cm^3
# Si number density = 20.508737 Si / 1000 Ang^3
#
#
#
# Elastic Constant Matrix: (Units=GPa)
#
#
# Indices 1 2 3 4 5 6 
#
# 1 117.0852 18.3682 61.7781 0.0000 0.0000 0.0000
# 2 18.3682 77.5341 46.5876 0.0000 0.0000 0.0000
# 3 61.7781 46.5876 174.5677 0.0000 0.0000 0.0000
# 4 0.0000 0.0000 0.0000 29.9699 0.0000 0.0000
# 5 0.0000 0.0000 0.0000 0.0000 24.9631 0.0000
# 6 0.0000 0.0000 0.0000 0.0000 0.0000 26.1876
#
#
#
# Elastic Compliance Matrix: (Units=1/GPa)
#
#
# Indices 1 2 3 4 5 6 
#
# 1 0.010508 -0.000304 -0.003638 0.000000 0.000000 0.000000
# 2 -0.000304 0.015369 -0.003994 0.000000 0.000000 0.000000
# 3 -0.003638 -0.003994 0.008082 0.000000 0.000000 0.000000
# 4 0.000000 0.000000 0.000000 0.033367 0.000000 0.000000
# 5 0.000000 0.000000 0.000000 0.000000 0.040059 0.000000
# 6 0.000000 0.000000 0.000000 0.000000 0.000000 0.038186
#
#
# Mechanical properties :
#
#
# Convention : Reuss Voigt Hill
#
# Bulk Modulus (GPa) = 55.28532 69.18389 62.23460
# Shear Modulus (GPa) = 29.85589 32.38767 31.12178
#
# Velocity S-wave (km/s) = 3.81959 3.97824 3.89972
# Velocity P-wave (km/s) = 6.81673 7.41006 7.11958
#
# Compressibility (1/GPa) = 0.01808798
#
# Stress axis : x y z
#
# Youngs Moduli (GPa) = 95.16805 65.06394 123.73618
#
# Poissons Ratio (x) = 0.01976 0.45010
# Poissons Ratio (y) = 0.02890 0.49424
# Poissons Ratio (z) = 0.34618 0.25988
#
# Static dielectric constant tensor:
#      x y z
#    x 4.016370 0.000000 0.000000 
#    y 0.000000 4.060630 0.000000 
#    z 0.000000 0.000000 3.802110 
# 
# 
# High freq. dielectric constant tensor:
#      x y z
#    x 1.808880 0.000000 0.000000 
#    y 0.000000 1.801280 0.000000 
#    z 0.000000 0.000000 1.794140 
# 
# From -- ./inp_files/24774.got.cif
#   From: 2010.03.12/outbox.cif.g09.slc.cpg/sg40_13_cif.got.tgz:24774.got - 2010.04.14 01:38:03.
