data_PCOD8183268
_publ_section_title
;
Structure prediction by ZEFSAII (Michael W. Deem and Ramdas Pophale) SiO2 
 PCOD8183268
Probable space group: A M A 2
;
_chemical_formula_sum "Si O2"
_cell_formula_units_Z 56
_cell_length_a 15.299293
_cell_length_b 16.833101
_cell_length_c 10.011506
_cell_angle_alpha 90.000000
_cell_angle_beta 90.000000
_cell_angle_gamma 90.000000
_cell_volume 2578.308635
_symmetry_space_group_name_H-M "A M A 2"
_symmetry_group_IT_number 40
_symmetry_cell_setting 'orthorhombic'
loop_
_space_group_symop_operation_xyz
x,y,z
-x,-y,z
1/2-x,y,z
1/2+x,-y,z
x,1/2+y,1/2+z
-x,1/2-y,1/2+z
1/2-x,1/2+y,1/2+z
1/2+x,1/2-y,1/2+z
loop_
_atom_site_type_symbol
_atom_site_label
_atom_site_fract_x
_atom_site_fract_y
_atom_site_fract_z
Si Si1 0.155255 0.421436 0.440150
Si Si2 0.032612 0.359961 0.959402
Si Si3 0.016686 0.411267 0.244696
Si Si4 0.650361 0.865136 0.326999
Si Si5 0.152674 0.223636 0.062346
Si Si6 0.093056 0.469541 0.722002
Si Si7 0.657771 0.399931 0.346109
O O1 0.250000 0.380146 0.424209
O O2 0.085001 0.371825 0.350924
O O3 0.135677 0.424084 0.597677
O O4 0.157249 0.507019 0.372273
O O5 0.081196 0.405527 0.840481
O O6 0.927811 0.352220 0.934573
O O7 0.049999 0.410445 0.093627
O O8 0.078915 0.276355 0.990116
O O9 0.000000 0.500000 0.294151
O O10 0.922156 0.368118 0.255127
O O11 0.750000 0.852404 0.383526
O O12 0.629926 0.798490 0.214710
O O13 0.649220 0.955654 0.272256
O O14 0.250000 0.263077 0.052434
O O15 0.152172 0.138925 0.991099
O O16 0.000000 0.500000 0.671249
O O17 0.750000 0.376439 0.275243
#
# Coordination Sequence:
#
# PCOD8183268 Si02
#       7
#     8   8   8   8   8   8   8
#     4  10  19  34  60  89 116 157 209 256 300 365
#     4  11  25  38  62  95 131 163 201 261 334 372
#     4  10  21  37  56  88 126 156 192 251 311 374
#     4  10  21  40  67  91 123 170 221 260 309 388
#     4  10  22  40  60  86 119 163 208 254 311 373
#     4  10  19  36  62  95 122 160 214 267 308 368
#     4   9  18  35  61  84 107 152 207 249 293 360
#
# _framework density 21.719664999999999
#
# number of rings (size 3 to 8) (size 9 to 14) (size 15 to 20)
#    0.000    2.000    1.429    3.000    4.000    2.286 
#    0.000    2.857    0.000    0.000    0.000    0.000 
#    0.000    0.000    0.000    0.000    0.000    0.000 
#
# Total GULP energy -346867.408414 kJ/mol
# GULP energy per Si atom -12388.121729 kJ/mol
# Density = 2.167023 g / cm^3
# Si number density = 21.719665 Si / 1000 Ang^3
#
#
#
# Elastic Constant Matrix: (Units=GPa)
#
#
# Indices 1 2 3 4 5 6 
#
# 1 172.1637 28.4565 65.1236 0.0000 0.0000 0.0000
# 2 28.4565 37.1961 9.3609 0.0000 0.0000 0.0000
# 3 65.1236 9.3609 121.0580 0.0000 0.0000 0.0000
# 4 0.0000 0.0000 0.0000 13.9222 0.0000 0.0000
# 5 0.0000 0.0000 0.0000 0.0000 25.7808 0.0000
# 6 0.0000 0.0000 0.0000 0.0000 0.0000 22.4293
#
#
#
# Elastic Compliance Matrix: (Units=1/GPa)
#
#
# Indices 1 2 3 4 5 6 
#
# 1 0.008191 -0.005260 -0.003999 0.000000 0.000000 0.000000
# 2 -0.005260 0.030796 0.000448 0.000000 0.000000 0.000000
# 3 -0.003999 0.000448 0.010377 0.000000 0.000000 0.000000
# 4 0.000000 0.000000 0.000000 0.071828 0.000000 0.000000
# 5 0.000000 0.000000 0.000000 0.000000 0.038789 0.000000
# 6 0.000000 0.000000 0.000000 0.000000 0.000000 0.044585
#
#
# Mechanical properties :
#
#
# Convention : Reuss Voigt Hill
#
# Bulk Modulus (GPa) = 31.50433 59.58886 45.54659
# Shear Modulus (GPa) = 21.48074 27.59159 24.53616
#
# Velocity S-wave (km/s) = 3.14825 3.56806 3.36471
# Velocity P-wave (km/s) = 5.26799 6.66857 6.00922
#
# Compressibility (1/GPa) = 0.03174167
#
# Stress axis : x y z
#
# Youngs Moduli (GPa) = 122.09056 32.47218 96.36341
#
# Poissons Ratio (x) = 0.17079 0.38540
# Poissons Ratio (y) = 0.64215 -0.04318
# Poissons Ratio (z) = 0.48830 -0.01455
#
# Static dielectric constant tensor:
#      x y z
#    x 4.862100 0.000000 0.000000 
#    y 0.000000 3.485860 0.000000 
#    z 0.000000 0.000000 3.667970 
# 
# 
# High freq. dielectric constant tensor:
#      x y z
#    x 1.875880 0.000000 0.000000 
#    y 0.000000 1.814870 0.000000 
#    z 0.000000 0.000000 1.840870 
# 
# From -- ./inp_files/6715.got.cif
#   From: 2010.03.12/outbox.cif.g09.slc.cpg/sg40_4_cif.got.tgz:6715.got - 2010.04.14 01:38:03.
