data_PCOD8183602
_publ_section_title
;
Structure prediction by ZEFSAII (Michael W. Deem and Ramdas Pophale) SiO2 
 PCOD8183602
Probable space group: A M A 2
;
_chemical_formula_sum "Si O2"
_cell_formula_units_Z 48
_cell_length_a 9.050849
_cell_length_b 22.883150
_cell_length_c 11.755351
_cell_angle_alpha 90.000000
_cell_angle_beta 90.000000
_cell_angle_gamma 90.000000
_cell_volume 2434.673496
_symmetry_space_group_name_H-M "A M A 2"
_symmetry_group_IT_number 40
_symmetry_cell_setting 'orthorhombic'
loop_
_space_group_symop_operation_xyz
x,y,z
-x,-y,z
1/2-x,y,z
1/2+x,-y,z
x,1/2+y,1/2+z
-x,1/2-y,1/2+z
1/2-x,1/2+y,1/2+z
1/2+x,1/2-y,1/2+z
loop_
_atom_site_type_symbol
_atom_site_label
_atom_site_fract_x
_atom_site_fract_y
_atom_site_fract_z
Si Si1 0.575150 0.227274 0.125000
Si Si2 0.078052 0.937297 0.510448
Si Si3 0.083989 0.661316 0.430841
Si Si4 0.588398 0.447509 0.590662
Si Si5 0.421844 0.881101 0.276251
Si Si6 0.575274 0.154868 0.698584
O O1 0.750000 0.229704 0.105811
O O2 0.533967 0.183776 0.230508
O O3 0.512113 0.290350 0.150091
O O4 0.498308 0.209024 0.007267
O O5 0.250000 0.951382 0.505561
O O6 0.034447 0.892966 0.407356
O O7 0.036038 0.902812 0.625496
O O8 0.000000 0.000000 0.504662
O O9 0.250000 0.683667 0.396600
O O10 0.099597 0.602867 0.500326
O O11 0.982961 0.644702 0.324748
O O12 0.500000 0.500000 0.531692
O O13 0.750000 0.469282 0.626288
O O14 0.506672 0.429636 0.705379
O O15 0.250000 0.890585 0.255016
O O16 0.750000 0.167475 0.697362
#
# Coordination Sequence:
#
# PCOD8183602 Si02
#       6
#     8   8   8   8   8   8
#     4  10  21  38  63  92 120 154 197 247 309 369
#     4  10  23  41  60  86 122 163 203 250 300 358
#     4  10  22  40  59  83 117 154 198 248 298 356
#     4  10  20  34  56  85 115 151 192 242 296 349
#     4   9  19  37  60  87 119 154 192 243 301 355
#     4  11  24  40  60  87 121 160 201 248 304 363
#
# _framework density 19.715170000000001
#
# number of rings (size 3 to 8) (size 9 to 14) (size 15 to 20)
#    0.000    2.000    0.000    2.500    2.333    6.667 
#    0.000    3.333    0.000    0.000    0.000    0.000 
#    0.000    0.000    0.000    0.000    0.000    0.000 
#
# Total GULP energy -297545.805751 kJ/mol
# GULP energy per Si atom -12397.741906 kJ/mol
# Density = 1.967030 g / cm^3
# Si number density = 19.715170 Si / 1000 Ang^3
#
#
#
# Elastic Constant Matrix: (Units=GPa)
#
#
# Indices 1 2 3 4 5 6 
#
# 1 68.5281 39.3918 20.2931 0.0000 0.0000 0.0000
# 2 39.3918 88.2221 27.3263 0.0000 0.0000 0.0000
# 3 20.2931 27.3263 101.8594 0.0000 0.0000 0.0000
# 4 0.0000 0.0000 0.0000 2.2061 0.0000 0.0000
# 5 0.0000 0.0000 0.0000 0.0000 26.8040 0.0000
# 6 0.0000 0.0000 0.0000 0.0000 0.0000 37.0126
#
#
#
# Elastic Compliance Matrix: (Units=1/GPa)
#
#
# Indices 1 2 3 4 5 6 
#
# 1 0.019905 -0.008354 -0.001725 0.000000 0.000000 0.000000
# 2 -0.008354 0.015868 -0.002593 0.000000 0.000000 0.000000
# 3 -0.001725 -0.002593 0.010857 0.000000 0.000000 0.000000
# 4 0.000000 0.000000 0.000000 0.453286 0.000000 0.000000
# 5 0.000000 0.000000 0.000000 0.000000 0.037308 0.000000
# 6 0.000000 0.000000 0.000000 0.000000 0.000000 0.027018
#
#
# Mechanical properties :
#
#
# Convention : Reuss Voigt Hill
#
# Bulk Modulus (GPa) = 46.97489 48.07021 47.52255
# Shear Modulus (GPa) = 8.37971 24.64446 16.51208
#
# Velocity S-wave (km/s) = 2.06388 3.53940 2.89715
# Velocity P-wave (km/s) = 5.43673 6.41393 5.94544
#
# Compressibility (1/GPa) = 0.02128797
#
# Stress axis : x y z
#
# Youngs Moduli (GPa) = 50.23836 63.01975 92.10991
#
# Poissons Ratio (x) = 0.52644 0.15885
# Poissons Ratio (y) = 0.41967 0.23882
# Poissons Ratio (z) = 0.08664 0.16339
#
# Static dielectric constant tensor:
#      x y z
#    x 4.096300 0.000000 0.000000 
#    y 0.000000 3.659410 0.000000 
#    z 0.000000 0.000000 3.878760 
# 
# 
# High freq. dielectric constant tensor:
#      x y z
#    x 1.780070 0.000000 0.000000 
#    y 0.000000 1.771180 0.000000 
#    z 0.000000 0.000000 1.767800 
# 
# From -- ./inp_files/10233.got.cif
#   From: 2010.03.12/outbox.cif.g09.slc.cpg/sg40_6_cif.got.tgz:10233.got - 2010.04.14 01:38:03.
