data_PCOD8183326
_publ_section_title
;
Structure prediction by ZEFSAII (Michael W. Deem and Ramdas Pophale) SiO2 
 PCOD8183326
Probable space group: A M A 2
;
_chemical_formula_sum "Si O2"
_cell_formula_units_Z 48
_cell_length_a 8.439839
_cell_length_b 28.146168
_cell_length_c 10.219235
_cell_angle_alpha 90.000000
_cell_angle_beta 90.000000
_cell_angle_gamma 90.000000
_cell_volume 2427.570347
_symmetry_space_group_name_H-M "A M A 2"
_symmetry_group_IT_number 40
_symmetry_cell_setting 'orthorhombic'
loop_
_space_group_symop_operation_xyz
x,y,z
-x,-y,z
1/2-x,y,z
1/2+x,-y,z
x,1/2+y,1/2+z
-x,1/2-y,1/2+z
1/2-x,1/2+y,1/2+z
1/2+x,1/2-y,1/2+z
loop_
_atom_site_type_symbol
_atom_site_label
_atom_site_fract_x
_atom_site_fract_y
_atom_site_fract_z
Si Si1 0.935092 0.793524 0.177950
Si Si2 0.565076 0.308510 0.187412
Si Si3 0.933490 0.147660 0.944529
Si Si4 0.938084 0.354414 0.921050
Si Si5 0.436909 0.049171 0.305071
Si Si6 0.937318 0.450047 0.505621
O O1 0.750000 0.780707 0.185482
O O2 0.997596 0.817400 0.311676
O O3 0.037295 0.746518 0.155103
O O4 0.961687 0.829789 0.059291
O O5 0.750000 0.317698 0.213571
O O6 0.463484 0.324080 0.311257
O O7 0.502446 0.338576 0.063294
O O8 0.750000 0.151736 0.981467
O O9 0.984117 0.092873 0.924716
O O10 0.750000 0.355440 0.914982
O O11 0.005820 0.406939 0.889198
O O12 0.250000 0.048603 0.309987
O O13 0.494779 0.054814 0.155709
O O14 0.500000 0.000000 0.366096
O O15 0.750000 0.447358 0.490450
O O16 0.000000 0.500000 0.447626
#
# Coordination Sequence:
#
# PCOD8183326 Si02
#       6
#     8   8   8   8   8   8
#     4  11  21  39  63  87 115 151 196 248 299 352
#     4  11  23  39  59  85 118 157 196 242 300 354
#     4  12  24  39  58  86 121 160 203 242 287 349
#     4   9  19  37  59  82 113 150 187 232 294 354
#     4   9  17  33  56  84 112 143 181 231 287 343
#     4  10  19  35  60  88 117 149 191 245 299 350
#
# _framework density 19.772857999999999
#
# number of rings (size 3 to 8) (size 9 to 14) (size 15 to 20)
#    0.000    1.667    1.667    4.000    0.000    2.000 
#    0.000    5.000    0.000    2.000    0.000    0.000 
#    0.000    0.000    0.000    0.000    0.000    0.000 
#
# Total GULP energy -297694.634707 kJ/mol
# GULP energy per Si atom -12403.943113 kJ/mol
# Density = 1.972785 g / cm^3
# Si number density = 19.772858 Si / 1000 Ang^3
#
#
#
# Elastic Constant Matrix: (Units=GPa)
#
#
# Indices 1 2 3 4 5 6 
#
# 1 49.1748 18.8489 18.2295 0.0000 0.0000 0.0000
# 2 18.8489 128.7580 23.5904 0.0000 0.0000 0.0000
# 3 18.2295 23.5904 79.0119 0.0000 0.0000 0.0000
# 4 0.0000 0.0000 0.0000 18.2978 0.0000 0.0000
# 5 0.0000 0.0000 0.0000 0.0000 15.7836 0.0000
# 6 0.0000 0.0000 0.0000 0.0000 0.0000 34.9617
#
#
#
# Elastic Compliance Matrix: (Units=1/GPa)
#
#
# Indices 1 2 3 4 5 6 
#
# 1 0.022993 -0.002532 -0.004549 0.000000 0.000000 0.000000
# 2 -0.002532 0.008495 -0.001952 0.000000 0.000000 0.000000
# 3 -0.004549 -0.001952 0.014289 0.000000 0.000000 0.000000
# 4 0.000000 0.000000 0.000000 0.054651 0.000000 0.000000
# 5 0.000000 0.000000 0.000000 0.000000 0.063357 0.000000
# 6 0.000000 0.000000 0.000000 0.000000 0.000000 0.028603
#
#
# Mechanical properties :
#
#
# Convention : Reuss Voigt Hill
#
# Bulk Modulus (GPa) = 36.08849 42.03136 39.05993
# Shear Modulus (GPa) = 22.75935 26.89368 24.82651
#
# Velocity S-wave (km/s) = 3.39638 3.69200 3.54727
# Velocity P-wave (km/s) = 5.80273 6.28313 6.04770
#
# Compressibility (1/GPa) = 0.02770966
#
# Stress axis : x y z
#
# Youngs Moduli (GPa) = 43.49230 117.71801 69.98587
#
# Poissons Ratio (x) = 0.29812 0.31834
# Poissons Ratio (y) = 0.11014 0.13661
# Poissons Ratio (z) = 0.19783 0.22979
#
# Static dielectric constant tensor:
#      x y z
#    x 3.348640 0.000000 0.000000 
#    y 0.000000 3.944240 0.000000 
#    z 0.000000 0.000000 3.535740 
# 
# 
# High freq. dielectric constant tensor:
#      x y z
#    x 1.759760 0.000000 0.000000 
#    y 0.000000 1.788590 0.000000 
#    z 0.000000 0.000000 1.749970 
# 
# From -- ./inp_files/4621.got.cif
#   From: 2010.03.12/outbox.cif.g09.slc.cpg/sg40_3_cif.got.tgz:4621.got - 2010.04.14 01:38:03.
