data_PCOD8183143
_publ_section_title
;
Structure prediction by ZEFSAII (Michael W. Deem and Ramdas Pophale) SiO2 
 PCOD8183143
Probable space group: A M A 2
;
_chemical_formula_sum "Si O2"
_cell_formula_units_Z 64
_cell_length_a 8.696312
_cell_length_b 19.496374
_cell_length_c 20.596913
_cell_angle_alpha 90.000000
_cell_angle_beta 90.000000
_cell_angle_gamma 90.000000
_cell_volume 3492.135564
_symmetry_space_group_name_H-M "A M A 2"
_symmetry_group_IT_number 40
_symmetry_cell_setting 'orthorhombic'
loop_
_space_group_symop_operation_xyz
x,y,z
-x,-y,z
1/2-x,y,z
1/2+x,-y,z
x,1/2+y,1/2+z
-x,1/2-y,1/2+z
1/2-x,1/2+y,1/2+z
1/2+x,1/2-y,1/2+z
loop_
_atom_site_type_symbol
_atom_site_label
_atom_site_fract_x
_atom_site_fract_y
_atom_site_fract_z
Si Si1 0.429831 0.785826 0.188410
Si Si2 0.431455 0.207490 0.438935
Si Si3 0.927265 0.214787 0.810223
Si Si4 0.570242 0.569388 0.739169
Si Si5 0.431851 0.571425 0.123831
Si Si6 0.567238 0.571283 0.886713
Si Si7 0.572217 0.068692 0.763576
Si Si8 0.430694 0.794058 0.571154
O O1 0.250000 0.776327 0.173797
O O2 0.466867 0.746877 0.254896
O O3 0.476189 0.865669 0.195450
O O4 0.527295 0.756765 0.129293
O O5 0.250000 0.206098 0.447922
O O6 0.480967 0.256237 0.379416
O O7 0.494079 0.131192 0.428951
O O8 0.509570 0.238305 0.503661
O O9 0.750000 0.233794 0.795415
O O10 0.949512 0.132461 0.812214
O O11 0.500000 0.500000 0.708790
O O12 0.750000 0.559262 0.741182
O O13 0.510372 0.581372 0.812479
O O14 0.500000 0.500000 0.097483
O O15 0.250000 0.568104 0.122162
O O16 0.487320 0.586362 0.196722
O O17 0.489237 0.632305 0.078312
O O18 0.500000 0.500000 0.913913
O O19 0.750000 0.572759 0.893595
O O20 0.750000 0.055118 0.747516
O O21 0.500000 0.000000 0.795525
O O22 0.250000 0.804665 0.570006
#
# Coordination Sequence:
#
# PCOD8183143 Si02
#       8
#     8   8   8   8   8   8   8   8
#     4  11  21  36  59  86 113 146 189 233 279 332
#     4  11  23  39  57  81 111 150 191 234 283 334
#     4  10  21  36  58  84 113 146 186 231 279 332
#     4   9  19  33  54  84 115 145 182 228 277 329
#     4  11  21  35  55  81 112 150 188 230 275 332
#     4  10  19  34  53  80 113 150 188 228 273 330
#     4  10  19  33  54  84 115 146 182 227 278 330
#     4  12  25  40  56  80 113 151 191 236 284 337
#
# _framework density 18.326896000000001
#
# number of rings (size 3 to 8) (size 9 to 14) (size 15 to 20)
#    0.000    1.500    2.500    4.500    0.000    3.000 
#    0.000    2.500    0.000    0.750    0.000    1.750 
#    0.000    0.000    0.000    0.000    0.000    0.000 
#
# Total GULP energy -396904.330498 kJ/mol
# GULP energy per Si atom -12403.260328 kJ/mol
# Density = 1.828518 g / cm^3
# Si number density = 18.326896 Si / 1000 Ang^3
#
#
#
# Elastic Constant Matrix: (Units=GPa)
#
#
# Indices 1 2 3 4 5 6 
#
# 1 104.7969 41.8137 38.9874 0.0000 0.0000 0.0000
# 2 41.8137 106.6004 50.4138 0.0000 0.0000 0.0000
# 3 38.9874 50.4138 99.2498 0.0000 0.0000 0.0000
# 4 0.0000 0.0000 0.0000 19.0592 0.0000 0.0000
# 5 0.0000 0.0000 0.0000 0.0000 26.9562 0.0000
# 6 0.0000 0.0000 0.0000 0.0000 0.0000 28.1416
#
#
#
# Elastic Compliance Matrix: (Units=1/GPa)
#
#
# Indices 1 2 3 4 5 6 
#
# 1 0.011976 -0.003255 -0.003051 0.000000 0.000000 0.000000
# 2 -0.003255 0.013231 -0.005442 0.000000 0.000000 0.000000
# 3 -0.003051 -0.005442 0.014039 0.000000 0.000000 0.000000
# 4 0.000000 0.000000 0.000000 0.052468 0.000000 0.000000
# 5 0.000000 0.000000 0.000000 0.000000 0.037097 0.000000
# 6 0.000000 0.000000 0.000000 0.000000 0.000000 0.035535
#
#
# Mechanical properties :
#
#
# Convention : Reuss Voigt Hill
#
# Bulk Modulus (GPa) = 63.49395 63.67521 63.58458
# Shear Modulus (GPa) = 25.89440 26.79354 26.34397
#
# Velocity S-wave (km/s) = 3.76296 3.82773 3.79548
# Velocity P-wave (km/s) = 7.32122 7.37258 7.34694
#
# Compressibility (1/GPa) = 0.01574953
#
# Stress axis : x y z
#
# Youngs Moduli (GPa) = 83.50048 75.57892 71.23212
#
# Poissons Ratio (x) = 0.24597 0.21735
# Poissons Ratio (y) = 0.27175 0.38767
# Poissons Ratio (z) = 0.25478 0.41132
#
# Static dielectric constant tensor:
#      x y z
#    x 3.437030 0.000000 0.000000 
#    y 0.000000 3.973470 0.000000 
#    z 0.000000 0.000000 3.247820 
# 
# 
# High freq. dielectric constant tensor:
#      x y z
#    x 1.724180 0.000000 0.000000 
#    y 0.000000 1.713770 0.000000 
#    z 0.000000 0.000000 1.684850 
# 
# From -- ./inp_files/22390.got.cif
#   From: 2010.03.12/outbox.cif.g09.slc.cpg/sg40_12_cif.got.tgz:22390.got - 2010.04.14 01:38:03.
