data_PCOD8183002
_publ_section_title
;
Structure prediction by ZEFSAII (Michael W. Deem and Ramdas Pophale) SiO2 
 PCOD8183002
Probable space group: A M A 2
;
_chemical_formula_sum "Si O2"
_cell_formula_units_Z 48
_cell_length_a 8.988561
_cell_length_b 9.583800
_cell_length_c 30.925116
_cell_angle_alpha 90.000000
_cell_angle_beta 90.000000
_cell_angle_gamma 90.000000
_cell_volume 2664.030848
_symmetry_space_group_name_H-M "A M A 2"
_symmetry_group_IT_number 40
_symmetry_cell_setting 'orthorhombic'
loop_
_space_group_symop_operation_xyz
x,y,z
-x,-y,z
1/2-x,y,z
1/2+x,-y,z
x,1/2+y,1/2+z
-x,1/2-y,1/2+z
1/2-x,1/2+y,1/2+z
1/2+x,1/2-y,1/2+z
loop_
_atom_site_type_symbol
_atom_site_label
_atom_site_fract_x
_atom_site_fract_y
_atom_site_fract_z
Si Si1 0.926408 0.848437 0.614650
Si Si2 0.077123 0.852980 0.436253
Si Si3 0.424559 0.144603 0.767124
Si Si4 0.424716 0.850436 0.193362
Si Si5 0.424083 0.850973 0.530927
Si Si6 0.924917 0.856970 0.864958
O O1 0.750000 0.867041 0.610950
O O2 0.971694 0.745312 0.653082
O O3 0.992262 0.775167 0.570870
O O4 0.000000 0.000000 0.622549
O O5 0.250000 0.879851 0.428836
O O6 0.050861 0.780888 0.483647
O O7 0.011579 0.756121 0.398494
O O8 0.000000 0.000000 0.432333
O O9 0.250000 0.120411 0.761782
O O10 0.479314 0.270322 0.736565
O O11 0.468407 0.186282 0.816099
O O12 0.500000 0.000000 0.752997
O O13 0.250000 0.875720 0.194376
O O14 0.500000 0.000000 0.190199
O O15 0.250000 0.864651 0.541794
O O16 0.500000 0.000000 0.527898
O O17 0.750000 0.875435 0.870049
O O18 0.000000 0.000000 0.878281
#
# Coordination Sequence:
#
# PCOD8183002 Si02
#       6
#     8   8   8   8   8   8
#     4  10  19  32  51  74  97 124 162 202 239 282
#     4   9  18  31  48  72 100 128 160 199 239 282
#     4   9  18  34  54  74  96 125 162 200 237 282
#     4  10  22  36  50  72 101 129 158 196 241 288
#     4   9  16  28  47  70  96 126 161 199 238 279
#     4   9  18  33  51  72  99 128 160 198 238 283
#
# _framework density 18.017810000000001
#
# number of rings (size 3 to 8) (size 9 to 14) (size 15 to 20)
#    0.000    2.667    0.000    2.500    0.000    4.000 
#    0.000    0.833    0.000    4.000    0.000    0.000 
#    0.000    0.000    0.000    0.000    0.000    0.000 
#
# Total GULP energy -297451.208722 kJ/mol
# GULP energy per Si atom -12393.800363 kJ/mol
# Density = 1.797680 g / cm^3
# Si number density = 18.017810 Si / 1000 Ang^3
#
#
#
# Elastic Constant Matrix: (Units=GPa)
#
#
# Indices 1 2 3 4 5 6 
#
# 1 55.1214 41.6658 48.7102 0.0000 0.0000 0.0000
# 2 41.6658 113.3872 91.8679 0.0000 0.0000 0.0000
# 3 48.7102 91.8679 163.6313 0.0000 0.0000 0.0000
# 4 0.0000 0.0000 0.0000 28.2559 0.0000 0.0000
# 5 0.0000 0.0000 0.0000 0.0000 26.5444 0.0000
# 6 0.0000 0.0000 0.0000 0.0000 0.0000 28.2200
#
#
#
# Elastic Compliance Matrix: (Units=1/GPa)
#
#
# Indices 1 2 3 4 5 6 
#
# 1 0.026807 -0.006210 -0.004493 0.000000 0.000000 0.000000
# 2 -0.006210 0.017617 -0.008042 0.000000 0.000000 0.000000
# 3 -0.004493 -0.008042 0.011964 0.000000 0.000000 0.000000
# 4 0.000000 0.000000 0.000000 0.035391 0.000000 0.000000
# 5 0.000000 0.000000 0.000000 0.000000 0.037673 0.000000
# 6 0.000000 0.000000 0.000000 0.000000 0.000000 0.035436
#
#
# Mechanical properties :
#
#
# Convention : Reuss Voigt Hill
#
# Bulk Modulus (GPa) = 52.91918 77.40308 65.16113
# Shear Modulus (GPa) = 23.96041 26.59711 25.27876
#
# Velocity S-wave (km/s) = 3.65062 3.84625 3.74971
# Velocity P-wave (km/s) = 6.87049 7.92321 7.41556
#
# Compressibility (1/GPa) = 0.01889674
#
# Stress axis : x y z
#
# Youngs Moduli (GPa) = 37.30431 56.76256 83.58301
#
# Poissons Ratio (x) = 0.35248 0.37558
# Poissons Ratio (y) = 0.23165 0.67220
# Poissons Ratio (z) = 0.16763 0.45650
#
# Static dielectric constant tensor:
#      x y z
#    x 3.286230 0.000000 0.000000 
#    y 0.000000 3.128900 0.000000 
#    z 0.000000 0.000000 4.095180 
# 
# 
# High freq. dielectric constant tensor:
#      x y z
#    x 1.697620 0.000000 0.000000 
#    y 0.000000 1.665410 0.000000 
#    z 0.000000 0.000000 1.721570 
# 
# From -- ./inp_files/26113.got.cif
#   From: 2010.03.12/outbox.cif.g09.slc.cpg/sg40_14_cif.got.tgz:26113.got - 2010.04.14 01:38:03.
