data_PCOD8183025
_publ_section_title
;
Structure prediction by ZEFSAII (Michael W. Deem and Ramdas Pophale) SiO2 
 PCOD8183025
Probable space group: A M A 2
;
_chemical_formula_sum "Si O2"
_cell_formula_units_Z 64
_cell_length_a 17.844327
_cell_length_b 14.335492
_cell_length_c 13.388555
_cell_angle_alpha 90.000000
_cell_angle_beta 90.000000
_cell_angle_gamma 90.000000
_cell_volume 3424.888860
_symmetry_space_group_name_H-M "A M A 2"
_symmetry_group_IT_number 40
_symmetry_cell_setting 'orthorhombic'
loop_
_space_group_symop_operation_xyz
x,y,z
-x,-y,z
1/2-x,y,z
1/2+x,-y,z
x,1/2+y,1/2+z
-x,1/2-y,1/2+z
1/2-x,1/2+y,1/2+z
1/2+x,1/2-y,1/2+z
loop_
_atom_site_type_symbol
_atom_site_label
_atom_site_fract_x
_atom_site_fract_y
_atom_site_fract_z
Si Si1 0.581095 0.879266 0.831340
Si Si2 0.663211 0.683972 0.582400
Si Si3 0.838913 0.810600 0.400323
Si Si4 0.583180 0.513542 0.142621
Si Si5 0.339730 0.809695 0.305135
Si Si6 0.162268 0.482260 0.936849
Si Si7 0.589043 0.157113 0.798799
Si Si8 0.334938 0.475227 0.442692
O O1 0.628145 0.785931 0.847648
O O2 0.493353 0.860543 0.844523
O O3 0.606254 0.941869 0.925566
O O4 0.600111 0.934602 0.727619
O O5 0.750000 0.706561 0.593347
O O6 0.631811 0.762298 0.504559
O O7 0.626837 0.687414 0.692327
O O8 0.649895 0.577363 0.547049
O O9 0.750000 0.796702 0.387797
O O10 0.862331 0.918348 0.392189
O O11 0.885244 0.764627 0.307942
O O12 0.500000 0.500000 0.099433
O O13 0.589511 0.618343 0.186715
O O14 0.640540 0.513632 0.052588
O O15 0.250000 0.808716 0.307114
O O16 0.371555 0.896753 0.371309
O O17 0.250000 0.470780 0.933879
O O18 0.653688 0.103217 0.858811
O O19 0.250000 0.513334 0.436127
#
# Coordination Sequence:
#
# PCOD8183025 Si02
#       8
#     8   8   8   8   8   8   8   8
#     4  10  19  32  52  77 103 132 163 201 250 303
#     4   8  15  29  51  73  95 124 162 202 241 287
#     4   9  17  32  54  77  97 128 170 208 246 294
#     4   9  19  34  52  74 102 133 167 205 251 301
#     4  10  20  34  49  71 101 132 166 207 248 293
#     4  10  21  34  51  75 102 133 173 212 250 295
#     4   9  18  32  51  77 104 128 163 209 251 294
#     4   9  16  29  52  80 101 124 160 204 249 293
#
# _framework density 18.686737999999998
#
# number of rings (size 3 to 8) (size 9 to 14) (size 15 to 20)
#    0.000    2.750    0.000    3.375    0.000    5.000 
#    0.000    2.500    0.000    9.000    0.000    0.000 
#    0.000    0.000    0.000    0.000    0.000    0.000 
#
# Total GULP energy -396459.562156 kJ/mol
# GULP energy per Si atom -12389.361317 kJ/mol
# Density = 1.864421 g / cm^3
# Si number density = 18.686738 Si / 1000 Ang^3
#
#
#
# Elastic Constant Matrix: (Units=GPa)
#
#
# Indices 1 2 3 4 5 6 
#
# 1 30.5359 33.9343 7.6674 0.0000 0.0000 0.0000
# 2 33.9343 133.8843 39.2782 0.0000 0.0000 0.0000
# 3 7.6674 39.2782 45.8299 0.0000 0.0000 0.0000
# 4 0.0000 0.0000 0.0000 24.3722 0.0000 0.0000
# 5 0.0000 0.0000 0.0000 0.0000 18.4926 0.0000
# 6 0.0000 0.0000 0.0000 0.0000 0.0000 20.8121
#
#
#
# Elastic Compliance Matrix: (Units=1/GPa)
#
#
# Indices 1 2 3 4 5 6 
#
# 1 0.045909 -0.012534 0.003062 0.000000 0.000000 0.000000
# 2 -0.012534 0.013400 -0.009387 0.000000 0.000000 0.000000
# 3 0.003062 -0.009387 0.029353 0.000000 0.000000 0.000000
# 4 0.000000 0.000000 0.000000 0.041030 0.000000 0.000000
# 5 0.000000 0.000000 0.000000 0.000000 0.054076 0.000000
# 6 0.000000 0.000000 0.000000 0.000000 0.000000 0.048049
#
#
# Mechanical properties :
#
#
# Convention : Reuss Voigt Hill
#
# Bulk Modulus (GPa) = 19.63014 41.33442 30.48228
# Shear Modulus (GPa) = 17.45095 21.36007 19.40551
#
# Velocity S-wave (km/s) = 3.05924 3.38459 3.22602
# Velocity P-wave (km/s) = 4.79648 6.11895 5.49763
#
# Compressibility (1/GPa) = 0.05094207
#
# Stress axis : x y z
#
# Youngs Moduli (GPa) = 21.78232 74.62622 34.06803
#
# Poissons Ratio (x) = 0.93539 -0.10431
# Poissons Ratio (y) = 0.27303 0.31981
# Poissons Ratio (z) = -0.06669 0.70055
#
# Static dielectric constant tensor:
#      x y z
#    x 3.245600 0.000000 0.000000 
#    y 0.000000 3.584500 0.000000 
#    z 0.000000 0.000000 3.362490 
# 
# 
# High freq. dielectric constant tensor:
#      x y z
#    x 1.709140 0.000000 0.000000 
#    y 0.000000 1.728480 0.000000 
#    z 0.000000 0.000000 1.698960 
# 
# From -- ./inp_files/17952.got.cif
#   From: 2010.03.12/outbox.cif.g09.slc.cpg/sg40_9_cif.got.tgz:17952.got - 2010.04.14 01:38:03.
