data_PCOD8183638
_publ_section_title
;
Structure prediction by ZEFSAII (Michael W. Deem and Ramdas Pophale) SiO2 
 PCOD8183638
Probable space group: A M A 2
;
_chemical_formula_sum "Si O2"
_cell_formula_units_Z 64
_cell_length_a 8.748396
_cell_length_b 20.432192
_cell_length_c 19.531768
_cell_angle_alpha 90.000000
_cell_angle_beta 90.000000
_cell_angle_gamma 90.000000
_cell_volume 3491.282177
_symmetry_space_group_name_H-M "A M A 2"
_symmetry_group_IT_number 40
_symmetry_cell_setting 'orthorhombic'
loop_
_space_group_symop_operation_xyz
x,y,z
-x,-y,z
1/2-x,y,z
1/2+x,-y,z
x,1/2+y,1/2+z
-x,1/2-y,1/2+z
1/2-x,1/2+y,1/2+z
1/2+x,1/2-y,1/2+z
loop_
_atom_site_type_symbol
_atom_site_label
_atom_site_fract_x
_atom_site_fract_y
_atom_site_fract_z
Si Si1 0.570432 0.322923 0.250000
Si Si2 0.569662 0.813500 0.249993
Si Si3 0.569878 0.932549 0.342745
Si Si4 0.931433 0.069548 0.845994
Si Si5 0.569264 0.432513 0.998384
Si Si6 0.928789 0.318379 0.593698
Si Si7 0.567930 0.930614 0.991686
Si Si8 0.070649 0.183330 0.592598
O O1 0.750000 0.332174 0.263088
O O2 0.518884 0.251151 0.274829
O O3 0.475670 0.376920 0.290316
O O4 0.525144 0.331524 0.170687
O O5 0.750000 0.801323 0.258218
O O6 0.510167 0.872771 0.296825
O O7 0.525011 0.831609 0.172255
O O8 0.750000 0.938673 0.337268
O O9 0.516056 0.919744 0.420511
O O10 0.500000 0.000000 0.314398
O O11 0.750000 0.063540 0.852130
O O12 0.001085 0.091085 0.918665
O O13 0.000000 0.000000 0.822738
O O14 0.500000 0.500000 0.026375
O O15 0.750000 0.437091 0.004158
O O16 0.503599 0.374241 0.045182
O O17 0.750000 0.310238 0.585482
O O18 0.987946 0.378308 0.547786
O O19 0.002538 0.251580 0.566532
O O20 0.750000 0.935492 0.986662
O O21 0.500000 0.000000 0.014756
O O22 0.250000 0.188546 0.583825
#
# Coordination Sequence:
#
# PCOD8183638 Si02
#       8
#     8   8   8   8   8   8   8   8
#     4  10  20  35  53  76 104 134 169 212 256 303
#     4   9  18  34  52  74 104 139 174 209 251 301
#     4   9  18  32  51  73 101 133 168 208 249 294
#     4  11  22  37  56  77 102 134 169 211 259 312
#     4   9  18  33  50  72  99 129 164 203 244 290
#     4   9  19  34  52  74 103 135 170 210 252 297
#     4  10  20  35  53  76 104 135 171 214 259 307
#     4   9  19  34  52  74 103 135 170 209 250 298
#
# _framework density 18.331374
#
# number of rings (size 3 to 8) (size 9 to 14) (size 15 to 20)
#    0.000    2.500    0.000    2.625    0.000    4.500 
#    0.000    2.500    0.000    0.000    0.000    0.000 
#    0.000    0.000    0.000    0.000    0.000    0.000 
#
# Total GULP energy -396865.124843 kJ/mol
# GULP energy per Si atom -12402.035151 kJ/mol
# Density = 1.828965 g / cm^3
# Si number density = 18.331374 Si / 1000 Ang^3
#
#
#
# Elastic Constant Matrix: (Units=GPa)
#
#
# Indices 1 2 3 4 5 6 
#
# 1 52.9124 44.1040 31.5623 0.0000 0.0000 0.0000
# 2 44.1040 170.8919 94.7557 0.0000 0.0000 0.0000
# 3 31.5623 94.7557 90.5130 0.0000 0.0000 0.0000
# 4 0.0000 0.0000 0.0000 43.1730 0.0000 0.0000
# 5 0.0000 0.0000 0.0000 0.0000 16.0885 0.0000
# 6 0.0000 0.0000 0.0000 0.0000 0.0000 36.1003
#
#
#
# Elastic Compliance Matrix: (Units=1/GPa)
#
#
# Indices 1 2 3 4 5 6 
#
# 1 0.024876 -0.003838 -0.004656 0.000000 0.000000 0.000000
# 2 -0.003838 0.014540 -0.013883 0.000000 0.000000 0.000000
# 3 -0.004656 -0.013883 0.027206 0.000000 0.000000 0.000000
# 4 0.000000 0.000000 0.000000 0.023163 0.000000 0.000000
# 5 0.000000 0.000000 0.000000 0.000000 0.062156 0.000000
# 6 0.000000 0.000000 0.000000 0.000000 0.000000 0.027701
#
#
# Mechanical properties :
#
#
# Convention : Reuss Voigt Hill
#
# Bulk Modulus (GPa) = 45.73220 72.79570 59.26395
# Shear Modulus (GPa) = 21.58093 28.66539 25.12316
#
# Velocity S-wave (km/s) = 3.43486 3.95870 3.70604
# Velocity P-wave (km/s) = 6.38221 7.79052 7.12127
#
# Compressibility (1/GPa) = 0.02186643
#
# Stress axis : x y z
#
# Youngs Moduli (GPa) = 40.19962 68.77441 36.75668
#
# Poissons Ratio (x) = 0.26398 0.17114
# Poissons Ratio (y) = 0.15430 0.51031
# Poissons Ratio (z) = 0.18717 0.95482
#
# Static dielectric constant tensor:
#      x y z
#    x 3.291470 0.000000 0.000000 
#    y 0.000000 3.551150 0.000000 
#    z 0.000000 0.000000 3.491620 
# 
# 
# High freq. dielectric constant tensor:
#      x y z
#    x 1.708600 0.000000 0.000000 
#    y 0.000000 1.719380 0.000000 
#    z 0.000000 0.000000 1.707340 
# 
# From -- ./inp_files/19590.got.cif
#   From: 2010.03.12/outbox.cif.g09.slc.cpg/sg40_10_cif.got.tgz:19590.got - 2010.04.14 01:38:03.
