data_PCOD8183183
_publ_section_title
;
Structure prediction by ZEFSAII (Michael W. Deem and Ramdas Pophale) SiO2 
 PCOD8183183
Probable space group: A M A 2
;
_chemical_formula_sum "Si O2"
_cell_formula_units_Z 64
_cell_length_a 9.474470
_cell_length_b 25.050444
_cell_length_c 15.122826
_cell_angle_alpha 90.000000
_cell_angle_beta 90.000000
_cell_angle_gamma 90.000000
_cell_volume 3589.246686
_symmetry_space_group_name_H-M "A M A 2"
_symmetry_group_IT_number 40
_symmetry_cell_setting 'orthorhombic'
loop_
_space_group_symop_operation_xyz
x,y,z
-x,-y,z
1/2-x,y,z
1/2+x,-y,z
x,1/2+y,1/2+z
-x,1/2-y,1/2+z
1/2-x,1/2+y,1/2+z
1/2+x,1/2-y,1/2+z
loop_
_atom_site_type_symbol
_atom_site_label
_atom_site_fract_x
_atom_site_fract_y
_atom_site_fract_z
Si Si1 0.916077 0.053089 0.986060
Si Si2 0.586781 0.175084 0.303379
Si Si3 0.409975 0.275445 0.280161
Si Si4 0.917125 0.106573 0.805270
Si Si5 0.085622 0.357190 0.989687
Si Si6 0.914452 0.151080 0.107690
Si Si7 0.910010 0.748580 0.075592
Si Si8 0.081473 0.946000 0.623016
O O1 0.750000 0.040704 0.983777
O O2 0.969873 0.074933 0.891493
O O3 0.954472 0.095544 0.061989
O O4 0.000000 0.000000 0.010263
O O5 0.750000 0.191159 0.300346
O O6 0.503138 0.229278 0.323424
O O7 0.556599 0.134342 0.384749
O O8 0.541347 0.147299 0.211283
O O9 0.250000 0.268711 0.314404
O O10 0.474768 0.332779 0.308213
O O11 0.416499 0.271621 0.175279
O O12 0.750000 0.110388 0.802812
O O13 0.969754 0.076129 0.717864
O O14 0.250000 0.354560 0.012716
O O15 0.023564 0.299528 0.017856
O O16 0.024478 0.405845 0.046910
O O17 0.750000 0.163513 0.096024
O O18 0.996888 0.198826 0.059724
O O19 0.750000 0.762633 0.047706
O O20 0.250000 0.955012 0.619566
O O21 0.000000 0.000000 0.603495
#
# Coordination Sequence:
#
# PCOD8183183 Si02
#       8
#     8   8   8   8   8   8   8   8
#     4  10  21  36  52  71  96 129 168 206 246 289
#     4   9  18  32  49  71 101 132 160 195 241 292
#     4   9  16  29  49  73  99 129 161 193 235 289
#     4   9  17  31  51  72  98 130 160 195 245 297
#     4   9  17  31  51  72  98 132 164 195 239 293
#     4   9  19  34  50  71 100 129 159 201 250 288
#     4   9  16  29  50  74  97 126 163 196 232 289
#     4  10  19  34  53  72  97 131 167 203 243 289
#
# _framework density 17.831037999999999
#
# number of rings (size 3 to 8) (size 9 to 14) (size 15 to 20)
#    0.000    2.750    1.250    0.375    1.750    0.500 
#    0.000    3.125    0.000    0.000    0.000    0.000 
#    0.000    0.000    0.000    0.000    0.000    0.000 
#
# Total GULP energy -396714.777125 kJ/mol
# GULP energy per Si atom -12397.336785 kJ/mol
# Density = 1.779045 g / cm^3
# Si number density = 17.831038 Si / 1000 Ang^3
#
#
#
# Elastic Constant Matrix: (Units=GPa)
#
#
# Indices 1 2 3 4 5 6 
#
# 1 39.1858 49.3793 30.3885 0.0000 0.0000 0.0000
# 2 49.3793 154.9461 77.7130 0.0000 0.0000 0.0000
# 3 30.3885 77.7130 107.9440 0.0000 0.0000 0.0000
# 4 0.0000 0.0000 0.0000 26.8795 0.0000 0.0000
# 5 0.0000 0.0000 0.0000 0.0000 14.9973 0.0000
# 6 0.0000 0.0000 0.0000 0.0000 0.0000 31.4819
#
#
#
# Elastic Compliance Matrix: (Units=1/GPa)
#
#
# Indices 1 2 3 4 5 6 
#
# 1 0.043495 -0.012083 -0.003546 0.000000 0.000000 0.000000
# 2 -0.012083 0.013458 -0.006287 0.000000 0.000000 0.000000
# 3 -0.003546 -0.006287 0.014789 0.000000 0.000000 0.000000
# 4 0.000000 0.000000 0.000000 0.037203 0.000000 0.000000
# 5 0.000000 0.000000 0.000000 0.000000 0.066679 0.000000
# 6 0.000000 0.000000 0.000000 0.000000 0.000000 0.031764
#
#
# Mechanical properties :
#
#
# Convention : Reuss Voigt Hill
#
# Bulk Modulus (GPa) = 35.82965 68.55971 52.19468
# Shear Modulus (GPa) = 19.19213 24.31142 21.75178
#
# Velocity S-wave (km/s) = 3.28431 3.69647 3.49647
# Velocity P-wave (km/s) = 5.87536 7.53337 6.75543
#
# Compressibility (1/GPa) = 0.02790985
#
# Stress axis : x y z
#
# Youngs Moduli (GPa) = 22.99093 74.30571 67.61913
#
# Poissons Ratio (x) = 0.89784 0.23977
# Poissons Ratio (y) = 0.27780 0.42514
# Poissons Ratio (z) = 0.08152 0.46718
#
# Static dielectric constant tensor:
#      x y z
#    x 3.082000 0.000000 0.000000 
#    y 0.000000 3.256610 0.000000 
#    z 0.000000 0.000000 3.471040 
# 
# 
# High freq. dielectric constant tensor:
#      x y z
#    x 1.657880 0.000000 0.000000 
#    y 0.000000 1.682760 0.000000 
#    z 0.000000 0.000000 1.697710 
# 
# From -- ./inp_files/15608.got.cif
#   From: 2010.03.12/outbox.cif.g09.slc.cpg/sg40_8_cif.got.tgz:15608.got - 2010.04.14 01:38:03.
