data_PCOD8183890
_publ_section_title
;
Structure prediction by ZEFSAII (Michael W. Deem and Ramdas Pophale) SiO2 
 PCOD8183890
Probable space group: A M A 2
;
_chemical_formula_sum "Si O2"
_cell_formula_units_Z 64
_cell_length_a 22.232615
_cell_length_b 7.882108
_cell_length_c 14.163330
_cell_angle_alpha 90.000000
_cell_angle_beta 90.000000
_cell_angle_gamma 90.000000
_cell_volume 2481.980144
_symmetry_space_group_name_H-M "A M A 2"
_symmetry_group_IT_number 40
_symmetry_cell_setting 'orthorhombic'
loop_
_space_group_symop_operation_xyz
x,y,z
-x,-y,z
1/2-x,y,z
1/2+x,-y,z
x,1/2+y,1/2+z
-x,1/2-y,1/2+z
1/2-x,1/2+y,1/2+z
1/2+x,1/2-y,1/2+z
loop_
_atom_site_type_symbol
_atom_site_label
_atom_site_fract_x
_atom_site_fract_y
_atom_site_fract_z
Si Si1 0.138153 0.814473 0.784570
Si Si2 0.111750 0.847582 0.225720
Si Si3 0.000352 0.699351 0.005532
Si Si4 0.114714 0.187629 0.101927
Si Si5 0.318504 0.019025 0.942676
Si Si6 0.502167 0.691847 0.304492
Si Si7 0.364236 0.202715 0.546923
Si Si8 0.317930 0.500152 0.888213
O O1 0.147662 0.826943 0.670852
O O2 0.148260 0.992563 0.840228
O O3 0.182676 0.677920 0.831646
O O4 0.070450 0.739877 0.799275
O O5 0.041918 0.805511 0.241635
O O6 0.143541 0.698981 0.161134
O O7 0.116157 0.015251 0.162025
O O8 0.146760 0.860609 0.325766
O O9 0.066813 0.761245 0.032084
O O10 0.000000 0.500000 0.986085
O O11 0.953498 0.749231 0.087342
O O12 0.979902 0.799363 0.912271
O O13 0.149874 0.170047 0.002322
O O14 0.250000 0.071843 0.925023
O O15 0.321245 0.845046 0.001670
O O16 0.500000 0.500000 0.266163
O O17 0.349580 0.025837 0.492092
O O18 0.250000 0.437291 0.902950
#
# Coordination Sequence:
#
# PCOD8183890 Si02
#       8
#     8   8   8   8   8   8   8   8
#     4  10  20  37  61  94 138 178 234 288 360 420
#     4  10  24  40  66 101 143 183 238 296 364 427
#     4  12  25  42  70 103 143 182 231 292 364 436
#     4  10  24  40  66 101 143 183 238 296 364 427
#     4  10  20  38  65 101 137 186 243 289 349 430
#     4  12  25  42  70 103 143 182 231 292 364 436
#     4  10  20  37  61  94 138 178 234 288 360 420
#     4  10  20  38  65 101 137 186 243 289 349 430
#
# _framework density 25.785864
#
# number of rings (size 3 to 8) (size 9 to 14) (size 15 to 20)
#    0.000    1.500    2.500    3.750    3.500   10.500 
#    0.000    0.000    0.000    8.250    0.000   29.750 
#    0.000    0.000    0.000    0.000    0.000    0.000 
#
# Total GULP energy -396708.186290 kJ/mol
# GULP energy per Si atom -12397.130822 kJ/mol
# Density = 2.572717 g / cm^3
# Si number density = 25.785864 Si / 1000 Ang^3
#
#
#
# Elastic Constant Matrix: (Units=GPa)
#
#
# Indices 1 2 3 4 5 6 
#
# 1 159.1628 24.6779 64.2124 0.0000 0.0000 0.0000
# 2 24.6779 62.5729 37.7297 0.0000 0.0000 0.0000
# 3 64.2124 37.7297 192.0277 0.0000 0.0000 0.0000
# 4 0.0000 0.0000 0.0000 39.1645 0.0000 0.0000
# 5 0.0000 0.0000 0.0000 0.0000 28.6734 0.0000
# 6 0.0000 0.0000 0.0000 0.0000 0.0000 2.9074
#
#
#
# Elastic Compliance Matrix: (Units=1/GPa)
#
#
# Indices 1 2 3 4 5 6 
#
# 1 0.007404 -0.001619 -0.002158 0.000000 0.000000 0.000000
# 2 -0.001619 0.018483 -0.003090 0.000000 0.000000 0.000000
# 3 -0.002158 -0.003090 0.006536 0.000000 0.000000 0.000000
# 4 0.000000 0.000000 0.000000 0.025533 0.000000 0.000000
# 5 0.000000 0.000000 0.000000 0.000000 0.034875 0.000000
# 6 0.000000 0.000000 0.000000 0.000000 0.000000 0.343949
#
#
# Mechanical properties :
#
#
# Convention : Reuss Voigt Hill
#
# Bulk Modulus (GPa) = 53.50541 74.11151 63.80846
# Shear Modulus (GPa) = 10.94699 33.29195 22.11947
#
# Velocity S-wave (km/s) = 2.06266 3.59708 2.93202
# Velocity P-wave (km/s) = 5.14468 6.78642 6.02176
#
# Compressibility (1/GPa) = 0.01868970
#
# Stress axis : x y z
#
# Youngs Moduli (GPa) = 135.05332 54.10321 152.99139
#
# Poissons Ratio (x) = 0.08760 0.33014
# Poissons Ratio (y) = 0.21866 0.47277
# Poissons Ratio (z) = 0.29143 0.16719
#
# Static dielectric constant tensor:
#      x y z
#    x 4.276050 0.000000 0.000000 
#    y 0.000000 4.388310 0.000000 
#    z 0.000000 0.000000 5.353580 
# 
# 
# High freq. dielectric constant tensor:
#      x y z
#    x 2.008690 0.000000 0.000000 
#    y 0.000000 2.018470 0.000000 
#    z 0.000000 0.000000 2.052580 
# 
# From -- ./inp_files/18552.got.cif
#   From: 2010.03.12/outbox.cif.g09.slc.cpg/sg40_10_cif.got.tgz:18552.got - 2010.04.14 01:38:03.
