data_PCOD8183572
_publ_section_title
;
Structure prediction by ZEFSAII (Michael W. Deem and Ramdas Pophale) SiO2 
 PCOD8183572
Probable space group: A M A 2
;
_chemical_formula_sum "Si O2"
_cell_formula_units_Z 64
_cell_length_a 17.990503
_cell_length_b 20.785538
_cell_length_c 8.764223
_cell_angle_alpha 90.000000
_cell_angle_beta 90.000000
_cell_angle_gamma 90.000000
_cell_volume 3277.313564
_symmetry_space_group_name_H-M "A M A 2"
_symmetry_group_IT_number 40
_symmetry_cell_setting 'orthorhombic'
loop_
_space_group_symop_operation_xyz
x,y,z
-x,-y,z
1/2-x,y,z
1/2+x,-y,z
x,1/2+y,1/2+z
-x,1/2-y,1/2+z
1/2-x,1/2+y,1/2+z
1/2+x,1/2-y,1/2+z
loop_
_atom_site_type_symbol
_atom_site_label
_atom_site_fract_x
_atom_site_fract_y
_atom_site_fract_z
Si Si1 0.081069 0.749105 0.520390
Si Si2 0.916220 0.002046 0.658655
Si Si3 0.583780 0.002046 0.021711
Si Si4 0.918931 0.250895 0.159976
Si Si5 0.662953 0.131636 0.662093
Si Si6 0.337047 0.868365 0.018274
Si Si7 0.666527 0.376401 0.158346
Si Si8 0.833473 0.376401 0.522019
O O1 0.073600 0.747380 0.340183
O O2 0.128882 0.810221 0.568091
O O3 0.122384 0.685621 0.582272
O O4 1.000000 0.750000 0.590183
O O5 0.875397 0.066423 0.602285
O O6 0.872753 0.940326 0.593227
O O7 0.916448 0.999730 0.840183
O O8 0.000000 0.000000 0.594463
O O9 0.624602 0.066423 0.078081
O O10 0.500000 0.000000 0.085903
O O11 0.627247 0.940326 0.087139
O O12 0.871117 0.189779 0.112275
O O13 0.877616 0.314379 0.098093
O O14 0.750000 0.126647 0.628374
O O15 0.646515 0.142617 0.840183
O O16 0.250000 0.873354 0.051991
O O17 0.750000 0.373576 0.093336
O O18 0.667550 0.377656 0.340183
O O19 0.750000 0.373576 0.587030
#
# Coordination Sequence:
#
# PCOD8183572 Si02
#       8
#     8   8   8   8   8   8   8   8
#     4  11  22  36  55  78 106 140 179 223 270 319
#     4   9  16  28  49  77 107 137 173 218 262 305
#     4   9  16  28  49  77 107 137 173 218 262 305
#     4  11  22  36  55  78 106 140 179 223 270 319
#     4  10  20  34  54  81 111 141 174 216 268 323
#     4  10  20  34  54  81 111 141 174 216 268 323
#     4   9  17  30  50  76 103 133 173 218 259 303
#     4   9  17  30  50  76 103 133 173 218 259 303
#
# _framework density 19.528189999999999
#
# number of rings (size 3 to 8) (size 9 to 14) (size 15 to 20)
#    0.000    2.250    0.000    3.750    0.000    8.500 
#    0.000    0.000    0.000    8.250    0.000    0.000 
#    0.000    0.000    0.000    0.000    0.000    0.000 
#
# Total GULP energy -396863.203780 kJ/mol
# GULP energy per Si atom -12401.975118 kJ/mol
# Density = 1.948374 g / cm^3
# Si number density = 19.528190 Si / 1000 Ang^3
#
#
#
# Elastic Constant Matrix: (Units=GPa)
#
#
# Indices 1 2 3 4 5 6 
#
# 1 164.9276 82.6287 25.7897 0.0000 0.0000 0.0000
# 2 82.6287 188.3677 26.8877 0.0000 0.0000 0.0000
# 3 25.7897 26.8877 29.2895 0.0000 0.0000 0.0000
# 4 0.0000 0.0000 0.0000 26.8199 0.0000 0.0000
# 5 0.0000 0.0000 0.0000 0.0000 23.6213 0.0000
# 6 0.0000 0.0000 0.0000 0.0000 0.0000 48.4909
#
#
#
# Elastic Compliance Matrix: (Units=1/GPa)
#
#
# Indices 1 2 3 4 5 6 
#
# 1 0.008265 -0.002977 -0.004545 0.000000 0.000000 0.000000
# 2 -0.002977 0.007181 -0.003971 0.000000 0.000000 0.000000
# 3 -0.004545 -0.003971 0.041789 0.000000 0.000000 0.000000
# 4 0.000000 0.000000 0.000000 0.037286 0.000000 0.000000
# 5 0.000000 0.000000 0.000000 0.000000 0.042335 0.000000
# 6 0.000000 0.000000 0.000000 0.000000 0.000000 0.020622
#
#
# Mechanical properties :
#
#
# Convention : Reuss Voigt Hill
#
# Bulk Modulus (GPa) = 29.19722 72.57747 50.88734
# Shear Modulus (GPa) = 26.05765 36.27168 31.16466
#
# Velocity S-wave (km/s) = 3.65685 4.31443 3.99918
# Velocity P-wave (km/s) = 5.72834 7.87815 6.88764
#
# Compressibility (1/GPa) = 0.03424984
#
# Stress axis : x y z
#
# Youngs Moduli (GPa) = 120.98636 139.24685 23.92947
#
# Poissons Ratio (x) = 0.41453 0.10876
# Poissons Ratio (y) = 0.36017 0.09503
# Poissons Ratio (z) = 0.54988 0.55300
#
# Static dielectric constant tensor:
#      x y z
#    x 3.747010 0.000000 0.000000 
#    y 0.000000 3.824150 0.000000 
#    z 0.000000 0.000000 3.023640 
# 
# 
# High freq. dielectric constant tensor:
#      x y z
#    x 1.783380 0.000000 0.000000 
#    y 0.000000 1.781830 0.000000 
#    z 0.000000 0.000000 1.703030 
# 
# From -- ./inp_files/7767.got.cif
#   From: 2010.03.12/outbox.cif.g09.slc.cpg/sg40_4_cif.got.tgz:7767.got - 2010.04.14 01:38:03.
