data_PCOD8183049
_publ_section_title
;
Structure prediction by ZEFSAII (Michael W. Deem and Ramdas Pophale) SiO2 
 PCOD8183049
Probable space group: A M A 2
;
_chemical_formula_sum "Si O2"
_cell_formula_units_Z 56
_cell_length_a 8.802125
_cell_length_b 23.632981
_cell_length_c 13.640041
_cell_angle_alpha 90.000000
_cell_angle_beta 90.000000
_cell_angle_gamma 90.000000
_cell_volume 2837.407506
_symmetry_space_group_name_H-M "A M A 2"
_symmetry_group_IT_number 40
_symmetry_cell_setting 'orthorhombic'
loop_
_space_group_symop_operation_xyz
x,y,z
-x,-y,z
1/2-x,y,z
1/2+x,-y,z
x,1/2+y,1/2+z
-x,1/2-y,1/2+z
1/2-x,1/2+y,1/2+z
1/2+x,1/2-y,1/2+z
loop_
_atom_site_type_symbol
_atom_site_label
_atom_site_fract_x
_atom_site_fract_y
_atom_site_fract_z
Si Si1 0.428777 0.940923 0.075020
Si Si2 0.572575 0.328740 0.889974
Si Si3 0.070192 0.229176 0.781650
Si Si4 0.428551 0.328717 0.097643
Si Si5 0.925606 0.058432 0.702279
Si Si6 0.072871 0.558580 0.780052
Si Si7 0.928364 0.127733 0.886421
O O1 0.250000 0.949235 0.085942
O O2 0.498129 0.921518 0.178140
O O3 0.500000 0.000000 0.039844
O O4 0.467881 0.893014 0.995291
O O5 0.750000 0.315813 0.900827
O O6 0.501606 0.289859 0.805615
O O7 0.542711 0.393880 0.861357
O O8 0.489727 0.314343 0.990929
O O9 0.250000 0.233988 0.779687
O O10 0.011141 0.211582 0.675059
O O11 0.019499 0.185082 0.865792
O O12 0.250000 0.316809 0.103701
O O13 0.466376 0.394047 0.121947
O O14 0.750000 0.045763 0.706020
O O15 0.981403 0.079815 0.808963
O O16 0.000000 0.000000 0.670558
O O17 0.250000 0.548717 0.761248
O O18 0.000000 0.500000 0.817845
O O19 0.750000 0.140432 0.871899
#
# Coordination Sequence:
#
# PCOD8183049 Si02
#       7
#     8   8   8   8   8   8   8
#     4  10  19  32  54  82 115 153 192 236 285 335
#     4  11  24  42  63  86 113 149 190 233 283 339
#     4  11  23  39  61  87 115 150 189 234 285 338
#     4  10  22  41  61  84 116 150 188 237 285 336
#     4   9  18  32  52  79 113 150 187 231 283 335
#     4  10  22  39  59  83 114 149 187 233 281 333
#     4   9  19  35  53  79 116 155 193 238 286 334
#
# _framework density 19.736325999999998
#
# number of rings (size 3 to 8) (size 9 to 14) (size 15 to 20)
#    0.000    2.000    0.000    5.143    0.000    8.000 
#    0.000    5.714    0.000    0.000    0.000    0.000 
#    0.000    0.000    0.000    0.000    0.000    0.000 
#
# Total GULP energy -347278.880774 kJ/mol
# GULP energy per Si atom -12402.817171 kJ/mol
# Density = 1.969141 g / cm^3
# Si number density = 19.736326 Si / 1000 Ang^3
#
#
#
# Elastic Constant Matrix: (Units=GPa)
#
#
# Indices 1 2 3 4 5 6 
#
# 1 -70.6988 -31.6395 -69.8486 0.0000 0.0000 0.0000
# 2 -31.6395 61.3745 -10.7453 0.0000 0.0000 0.0000
# 3 -69.8486 -10.7453 18.4819 0.0000 0.0000 0.0000
# 4 0.0000 0.0000 0.0000 22.0609 0.0000 0.0000
# 5 0.0000 0.0000 0.0000 0.0000 6.4784 0.0000
# 6 0.0000 0.0000 0.0000 0.0000 0.0000 35.2906
#
#
#
# Elastic Compliance Matrix: (Units=1/GPa)
#
#
# Indices 1 2 3 4 5 6 
#
# 1 -0.002329 -0.003052 -0.010577 0.000000 0.000000 0.000000
# 2 -0.003052 0.014139 -0.003315 0.000000 0.000000 0.000000
# 3 -0.010577 -0.003315 0.012207 0.000000 0.000000 0.000000
# 4 0.000000 0.000000 0.000000 0.045329 0.000000 0.000000
# 5 0.000000 0.000000 0.000000 0.000000 0.154360 0.000000
# 6 0.000000 0.000000 0.000000 0.000000 0.000000 0.028336
#
#
# Mechanical properties :
#
#
# Convention : Reuss Voigt Hill
#
# Bulk Modulus (GPa) = -101.30638 -23.92325 -62.61481
# Shear Modulus (GPa) = 17.69029 20.85872 19.27450
#
# Velocity S-wave (km/s) = 2.99713 3.25448 3.12845
# Velocity P-wave (km/s) = 6.28206 1.40515 4.32954
#
# Compressibility (1/GPa) = -0.00987105
#
# Stress axis : x y z
#
# Youngs Moduli (GPa) = -429.36565 70.72415 81.91936
#
# Poissons Ratio (x) = 0.21588 0.86643
# Poissons Ratio (y) = -1.31059 0.27158
# Poissons Ratio (z) = -4.54126 0.23447
#
# Static dielectric constant tensor:
#      x y z
#    x 3.615680 0.000000 0.000000 
#    y 0.000000 3.608880 0.000000 
#    z 0.000000 0.000000 3.556970 
# 
# 
# High freq. dielectric constant tensor:
#      x y z
#    x 1.777460 0.000000 0.000000 
#    y 0.000000 1.768970 0.000000 
#    z 0.000000 0.000000 1.766680 
# 
# From -- ./inp_files/15306.got.cif
#   From: 2010.03.12/outbox.cif.g09.slc.cpg/sg40_8_cif.got.tgz:15306.got - 2010.04.14 01:38:03.
