data_PCOD8183747
_publ_section_title
;
Structure prediction by ZEFSAII (Michael W. Deem and Ramdas Pophale) SiO2 
 PCOD8183747
Probable space group: A M A 2
;
_chemical_formula_sum "Si O2"
_cell_formula_units_Z 48
_cell_length_a 8.659170
_cell_length_b 30.112233
_cell_length_c 9.790928
_cell_angle_alpha 90.000000
_cell_angle_beta 90.000000
_cell_angle_gamma 90.000000
_cell_volume 2552.954561
_symmetry_space_group_name_H-M "A M A 2"
_symmetry_group_IT_number 40
_symmetry_cell_setting 'orthorhombic'
loop_
_space_group_symop_operation_xyz
x,y,z
-x,-y,z
1/2-x,y,z
1/2+x,-y,z
x,1/2+y,1/2+z
-x,1/2-y,1/2+z
1/2-x,1/2+y,1/2+z
1/2+x,1/2-y,1/2+z
loop_
_atom_site_type_symbol
_atom_site_label
_atom_site_fract_x
_atom_site_fract_y
_atom_site_fract_z
Si Si1 0.429072 0.124023 0.729430
Si Si2 0.427526 0.117762 0.414653
Si Si3 0.069077 0.953292 0.223002
Si Si4 0.928723 0.710305 0.914902
Si Si5 0.067593 0.047067 0.932528
Si Si6 0.928512 0.216792 0.727691
O O1 0.250000 0.135735 0.753160
O O2 0.459721 0.109865 0.574039
O O3 0.485234 0.083722 0.823653
O O4 0.529769 0.166662 0.769602
O O5 0.250000 0.109196 0.376029
O O6 0.535012 0.083720 0.334916
O O7 0.470699 0.167787 0.372245
O O8 0.250000 0.959030 0.202812
O O9 0.000000 0.000000 0.273484
O O10 0.995530 0.938527 0.079713
O O11 0.750000 0.697286 0.902388
O O12 0.966856 0.750300 0.814599
O O13 0.968111 0.725070 0.069088
O O14 0.250000 0.042967 0.940436
O O15 0.000000 0.000000 0.884890
O O16 0.750000 0.225656 0.760672
#
# Coordination Sequence:
#
# PCOD8183747 Si02
#       6
#     8   8   8   8   8   8
#     4   9  20  37  57  80 108 141 177 220 269 320
#     4  10  20  37  58  81 109 141 178 221 268 317
#     4  11  22  37  56  80 109 143 181 221 266 315
#     4  10  21  37  56  80 109 141 179 221 266 318
#     4  10  20  36  56  80 109 141 178 221 268 318
#     4  10  21  36  56  81 108 141 180 222 267 316
#
# _framework density 18.801745
#
# number of rings (size 3 to 8) (size 9 to 14) (size 15 to 20)
#    0.000    2.000    0.000    4.500    0.000    6.000 
#    0.000    3.333    0.000    0.000    0.000    0.000 
#    0.000    0.000    0.000    0.000    0.000    0.000 
#
# Total GULP energy -297726.954336 kJ/mol
# GULP energy per Si atom -12405.289764 kJ/mol
# Density = 1.875895 g / cm^3
# Si number density = 18.801745 Si / 1000 Ang^3
#
#
#
# Elastic Constant Matrix: (Units=GPa)
#
#
# Indices 1 2 3 4 5 6 
#
# 1 69.8917 34.6090 30.6556 0.0000 0.0000 0.0000
# 2 34.6090 108.8927 72.0252 0.0000 0.0000 0.0000
# 3 30.6556 72.0252 84.5085 0.0000 0.0000 0.0000
# 4 0.0000 0.0000 0.0000 38.5546 0.0000 0.0000
# 5 0.0000 0.0000 0.0000 0.0000 22.1814 0.0000
# 6 0.0000 0.0000 0.0000 0.0000 0.0000 37.1185
#
#
#
# Elastic Compliance Matrix: (Units=1/GPa)
#
#
# Indices 1 2 3 4 5 6 
#
# 1 0.017465 -0.003118 -0.003678 0.000000 0.000000 0.000000
# 2 -0.003118 0.021606 -0.017284 0.000000 0.000000 0.000000
# 3 -0.003678 -0.017284 0.027898 0.000000 0.000000 0.000000
# 4 0.000000 0.000000 0.000000 0.025937 0.000000 0.000000
# 5 0.000000 0.000000 0.000000 0.000000 0.045083 0.000000
# 6 0.000000 0.000000 0.000000 0.000000 0.000000 0.026941
#
#
# Mechanical properties :
#
#
# Convention : Reuss Voigt Hill
#
# Bulk Modulus (GPa) = 53.16359 59.76361 56.46360
# Shear Modulus (GPa) = 22.79364 27.97110 25.38237
#
# Velocity S-wave (km/s) = 3.48561 3.86124 3.67822
# Velocity P-wave (km/s) = 6.67357 7.19264 6.93796
#
# Compressibility (1/GPa) = 0.01880986
#
# Stress axis : x y z
#
# Youngs Moduli (GPa) = 57.25699 46.28277 35.84508
#
# Poissons Ratio (x) = 0.14432 0.13184
# Poissons Ratio (y) = 0.17854 0.61953
# Poissons Ratio (z) = 0.21059 0.79993
#
# Static dielectric constant tensor:
#      x y z
#    x 3.498420 0.000000 0.000000 
#    y 0.000000 3.449240 0.000000 
#    z 0.000000 0.000000 3.430560 
# 
# 
# High freq. dielectric constant tensor:
#      x y z
#    x 1.743130 0.000000 0.000000 
#    y 0.000000 1.733770 0.000000 
#    z 0.000000 0.000000 1.728190 
# 
# From -- ./inp_files/4590.got.cif
#   From: 2010.03.12/outbox.cif.g09.slc.cpg/sg40_3_cif.got.tgz:4590.got - 2010.04.14 01:38:03.
