data_PCOD8183585
_publ_section_title
;
Structure prediction by ZEFSAII (Michael W. Deem and Ramdas Pophale) SiO2 
 PCOD8183585
Probable space group: A M A 2
;
_chemical_formula_sum "Si O2"
_cell_formula_units_Z 64
_cell_length_a 8.832569
_cell_length_b 19.577874
_cell_length_c 20.424846
_cell_angle_alpha 90.000000
_cell_angle_beta 90.000000
_cell_angle_gamma 90.000000
_cell_volume 3531.924072
_symmetry_space_group_name_H-M "A M A 2"
_symmetry_group_IT_number 40
_symmetry_cell_setting 'orthorhombic'
loop_
_space_group_symop_operation_xyz
x,y,z
-x,-y,z
1/2-x,y,z
1/2+x,-y,z
x,1/2+y,1/2+z
-x,1/2-y,1/2+z
1/2-x,1/2+y,1/2+z
1/2+x,1/2-y,1/2+z
loop_
_atom_site_type_symbol
_atom_site_label
_atom_site_fract_x
_atom_site_fract_y
_atom_site_fract_z
Si Si1 0.424319 0.713463 0.724040
Si Si2 0.429367 0.930021 0.417850
Si Si3 0.928015 0.284956 0.485537
Si Si4 0.925747 0.432153 0.057860
Si Si5 0.075197 0.701758 0.871110
Si Si6 0.927620 0.431974 0.676487
Si Si7 0.573115 0.432392 0.528093
Si Si8 0.575447 0.786583 0.608133
O O1 0.250000 0.720058 0.701447
O O2 0.445454 0.735056 0.799495
O O3 0.478922 0.635079 0.716004
O O4 0.524928 0.763292 0.679995
O O5 0.250000 0.935666 0.418845
O O6 0.490251 0.914835 0.490398
O O7 0.480938 0.868163 0.372024
O O8 0.500000 0.000000 0.389982
O O9 0.750000 0.272767 0.476268
O O10 0.970077 0.365081 0.487244
O O11 0.016438 0.254978 0.424220
O O12 0.975627 0.249923 0.553192
O O13 0.750000 0.446248 0.042796
O O14 0.948070 0.368320 0.106088
O O15 0.000000 0.500000 0.090017
O O16 0.250000 0.684851 0.885748
O O17 0.750000 0.441611 0.679533
O O18 0.987090 0.422900 0.602154
O O19 0.000000 0.500000 0.708378
O O20 0.500000 0.500000 0.495591
O O21 0.750000 0.443803 0.528672
O O22 0.750000 0.767524 0.595914
#
# Coordination Sequence:
#
# PCOD8183585 Si02
#       8
#     8   8   8   8   8   8   8   8
#     4  10  22  39  56  76 111 150 185 226 276 330
#     4  11  21  34  54  78 110 151 188 229 274 330
#     4  11  21  36  58  82 110 146 185 226 278 332
#     4  10  20  34  54  83 113 141 179 229 278 329
#     4  11  23  38  55  80 112 148 189 233 278 330
#     4   9  17  32  50  74 105 141 179 218 261 316
#     4   9  18  32  53  80 109 138 176 221 270 324
#     4  11  22  35  57  85 112 141 184 233 274 325
#
# _framework density 18.120435000000001
#
# number of rings (size 3 to 8) (size 9 to 14) (size 15 to 20)
#    0.000    1.750    2.500    3.375    0.000    4.500 
#    0.000    1.250    0.000    0.750    0.000    0.000 
#    0.000    0.000    0.000    0.000    0.000    0.000 
#
# Total GULP energy -396847.065926 kJ/mol
# GULP energy per Si atom -12401.470810 kJ/mol
# Density = 1.807919 g / cm^3
# Si number density = 18.120435 Si / 1000 Ang^3
#
#
#
# Elastic Constant Matrix: (Units=GPa)
#
#
# Indices 1 2 3 4 5 6 
#
# 1 94.3730 48.7356 34.0159 0.0000 0.0000 0.0000
# 2 48.7356 109.5461 43.5913 0.0000 0.0000 0.0000
# 3 34.0159 43.5913 77.7347 0.0000 0.0000 0.0000
# 4 0.0000 0.0000 0.0000 21.5296 0.0000 0.0000
# 5 0.0000 0.0000 0.0000 0.0000 22.4148 0.0000
# 6 0.0000 0.0000 0.0000 0.0000 0.0000 34.2790
#
#
#
# Elastic Compliance Matrix: (Units=1/GPa)
#
#
# Indices 1 2 3 4 5 6 
#
# 1 0.014461 -0.005040 -0.003502 0.000000 0.000000 0.000000
# 2 -0.005040 0.013507 -0.005369 0.000000 0.000000 0.000000
# 3 -0.003502 -0.005369 0.017407 0.000000 0.000000 0.000000
# 4 0.000000 0.000000 0.000000 0.046448 0.000000 0.000000
# 5 0.000000 0.000000 0.000000 0.000000 0.044613 0.000000
# 6 0.000000 0.000000 0.000000 0.000000 0.000000 0.029172
#
#
# Mechanical properties :
#
#
# Convention : Reuss Voigt Hill
#
# Bulk Modulus (GPa) = 56.96647 59.37103 58.16875
# Shear Modulus (GPa) = 25.09002 25.99876 25.54439
#
# Velocity S-wave (km/s) = 3.72509 3.79195 3.75867
# Velocity P-wave (km/s) = 7.07161 7.21164 7.14197
#
# Compressibility (1/GPa) = 0.01755419
#
# Stress axis : x y z
#
# Youngs Moduli (GPa) = 69.15041 74.03378 57.44701
#
# Poissons Ratio (x) = 0.37314 0.20116
# Poissons Ratio (y) = 0.34853 0.30843
# Poissons Ratio (z) = 0.24214 0.39749
#
# Static dielectric constant tensor:
#      x y z
#    x 3.422770 0.000000 0.000000 
#    y 0.000000 3.565160 0.000000 
#    z 0.000000 0.000000 3.095410 
# 
# 
# High freq. dielectric constant tensor:
#      x y z
#    x 1.711430 0.000000 0.000000 
#    y 0.000000 1.707580 0.000000 
#    z 0.000000 0.000000 1.670280 
# 
# From -- ./inp_files/19562.got.cif
#   From: 2010.03.12/outbox.cif.g09.slc.cpg/sg40_10_cif.got.tgz:19562.got - 2010.04.14 01:38:03.
