data_PCOD8183070
_publ_section_title
;
Structure prediction by ZEFSAII (Michael W. Deem and Ramdas Pophale) SiO2 
 PCOD8183070
Probable space group: A M A 2
;
_chemical_formula_sum "Si O2"
_cell_formula_units_Z 64
_cell_length_a 8.700781
_cell_length_b 14.822115
_cell_length_c 27.616492
_cell_angle_alpha 90.000000
_cell_angle_beta 90.000000
_cell_angle_gamma 90.000000
_cell_volume 3561.532627
_symmetry_space_group_name_H-M "A M A 2"
_symmetry_group_IT_number 40
_symmetry_cell_setting 'orthorhombic'
loop_
_space_group_symop_operation_xyz
x,y,z
-x,-y,z
1/2-x,y,z
1/2+x,-y,z
x,1/2+y,1/2+z
-x,1/2-y,1/2+z
1/2-x,1/2+y,1/2+z
1/2+x,1/2-y,1/2+z
loop_
_atom_site_type_symbol
_atom_site_label
_atom_site_fract_x
_atom_site_fract_y
_atom_site_fract_z
Si Si1 0.567964 0.907141 0.609630
Si Si2 0.932362 0.094032 0.714715
Si Si3 0.069033 0.715448 0.296016
Si Si4 0.570715 0.091889 0.262676
Si Si5 0.431841 0.778572 0.070583
Si Si6 0.931216 0.594599 0.487171
Si Si7 0.431933 0.404230 0.376895
Si Si8 0.067725 0.906922 0.153787
O O1 0.750000 0.915761 0.615173
O O2 0.498628 0.885186 0.661922
O O3 0.519505 0.826533 0.573165
O O4 0.500000 0.000000 0.588245
O O5 0.750000 0.087316 0.712347
O O6 0.983018 0.172620 0.750493
O O7 0.000000 0.000000 0.734738
O O8 0.250000 0.697912 0.290772
O O9 0.030409 0.822306 0.296188
O O10 0.006347 0.675373 0.345884
O O11 0.750000 0.075752 0.260033
O O12 0.507137 0.110712 0.208350
O O13 0.500000 0.000000 0.284771
O O14 0.250000 0.786248 0.070159
O O15 0.495137 0.828452 0.118591
O O16 0.496291 0.825681 0.021756
O O17 0.750000 0.586117 0.491385
O O18 0.980093 0.616020 0.432165
O O19 0.000000 0.500000 0.504806
O O20 0.500000 0.500000 0.359836
O O21 0.250000 0.405957 0.369063
O O22 0.250000 0.911381 0.152275
O O23 0.000000 0.000000 0.133586
#
# Coordination Sequence:
#
# PCOD8183070 Si02
#       8
#     8   8   8   8   8   8   8   8
#     4  10  19  33  50  69  97 131 167 205 244 286
#     4  11  21  33  49  72 102 133 166 203 245 293
#     4  11  21  34  52  73  98 130 167 204 247 295
#     4   9  19  33  49  69  96 129 162 199 239 281
#     4   9  17  30  50  71  95 129 163 194 235 287
#     4   9  18  33  52  75 101 129 159 195 243 294
#     4  10  20  34  52  75 102 129 160 200 247 299
#     4   9  16  28  45  68  96 124 154 186 226 275
#
# _framework density 17.96979
#
# number of rings (size 3 to 8) (size 9 to 14) (size 15 to 20)
#    0.000    2.250    0.000    4.500    0.000    3.500 
#    0.000    5.000    0.000    0.750    0.000    3.500 
#    0.000    0.000    0.000    0.000    0.000    0.000 
#
# Total GULP energy -396754.892731 kJ/mol
# GULP energy per Si atom -12398.590398 kJ/mol
# Density = 1.792889 g / cm^3
# Si number density = 17.969790 Si / 1000 Ang^3
#
#
#
# Elastic Constant Matrix: (Units=GPa)
#
#
# Indices 1 2 3 4 5 6 
#
# 1 68.7787 44.2833 27.6617 0.0000 0.0000 0.0000
# 2 44.2833 161.0852 77.0750 0.0000 0.0000 0.0000
# 3 27.6617 77.0750 86.6029 0.0000 0.0000 0.0000
# 4 0.0000 0.0000 0.0000 32.3553 0.0000 0.0000
# 5 0.0000 0.0000 0.0000 0.0000 5.7860 0.0000
# 6 0.0000 0.0000 0.0000 0.0000 0.0000 29.1833
#
#
#
# Elastic Compliance Matrix: (Units=1/GPa)
#
#
# Indices 1 2 3 4 5 6 
#
# 1 0.017933 -0.003813 -0.002335 0.000000 0.000000 0.000000
# 2 -0.003813 0.011623 -0.009126 0.000000 0.000000 0.000000
# 3 -0.002335 -0.009126 0.020415 0.000000 0.000000 0.000000
# 4 0.000000 0.000000 0.000000 0.030907 0.000000 0.000000
# 5 0.000000 0.000000 0.000000 0.000000 0.172832 0.000000
# 6 0.000000 0.000000 0.000000 0.000000 0.000000 0.034266
#
#
# Mechanical properties :
#
#
# Convention : Reuss Voigt Hill
#
# Bulk Modulus (GPa) = 51.48423 68.27850 59.88137
# Shear Modulus (GPa) = 15.38473 24.62803 20.00638
#
# Velocity S-wave (km/s) = 2.92917 3.70608 3.34029
# Velocity P-wave (km/s) = 6.33661 7.50947 6.94783
#
# Compressibility (1/GPa) = 0.01942343
#
# Stress axis : x y z
#
# Youngs Moduli (GPa) = 55.76222 86.03867 48.98430
#
# Poissons Ratio (x) = 0.32806 0.11436
# Poissons Ratio (y) = 0.21262 0.44704
# Poissons Ratio (z) = 0.13018 0.78520
#
# Static dielectric constant tensor:
#      x y z
#    x 3.249760 0.000000 0.000000 
#    y 0.000000 3.643420 0.000000 
#    z 0.000000 0.000000 3.333900 
# 
# 
# High freq. dielectric constant tensor:
#      x y z
#    x 1.690440 0.000000 0.000000 
#    y 0.000000 1.698970 0.000000 
#    z 0.000000 0.000000 1.673760 
# 
# From -- ./inp_files/26449.got.cif
#   From: 2010.03.12/outbox.cif.g09.slc.cpg/sg40_14_cif.got.tgz:26449.got - 2010.04.14 01:38:03.
