data_PCOD8183527
_publ_section_title
;
Structure prediction by ZEFSAII (Michael W. Deem and Ramdas Pophale) SiO2 
 PCOD8183527
Probable space group: A M A 2
;
_chemical_formula_sum "Si O2"
_cell_formula_units_Z 48
_cell_length_a 26.601668
_cell_length_b 14.242878
_cell_length_c 6.338548
_cell_angle_alpha 90.000000
_cell_angle_beta 90.000000
_cell_angle_gamma 90.000000
_cell_volume 2401.576398
_symmetry_space_group_name_H-M "A M A 2"
_symmetry_group_IT_number 40
_symmetry_cell_setting 'orthorhombic'
loop_
_space_group_symop_operation_xyz
x,y,z
-x,-y,z
1/2-x,y,z
1/2+x,-y,z
x,1/2+y,1/2+z
-x,1/2-y,1/2+z
1/2-x,1/2+y,1/2+z
1/2+x,1/2-y,1/2+z
loop_
_atom_site_type_symbol
_atom_site_label
_atom_site_fract_x
_atom_site_fract_y
_atom_site_fract_z
Si Si1 0.944834 0.516519 0.413880
Si Si2 0.805970 0.160705 0.131799
Si Si3 0.100439 0.287430 0.345064
Si Si4 0.648761 0.964572 0.200898
Si Si5 0.651979 0.788014 0.961018
Si Si6 0.096942 0.610786 0.084960
O O1 0.937444 0.626820 0.370752
O O2 0.903879 0.481089 0.580038
O O3 0.942875 0.460428 0.190208
O O4 0.000000 0.500000 0.511932
O O5 0.750000 0.174095 0.038314
O O6 0.808488 0.216818 0.354673
O O7 0.813727 0.050793 0.178306
O O8 0.846303 0.196250 0.962666
O O9 0.073343 0.193404 0.437945
O O10 0.112372 0.272669 0.098495
O O11 0.636472 0.949761 0.447312
O O12 0.675721 0.870203 0.108840
O O13 0.624535 0.838945 0.773174
#
# Coordination Sequence:
#
# PCOD8183527 Si02
#       6
#     8   8   8   8   8   8
#     4  10  20  35  54  83 109 145 189 224 280 341
#     4  10  20  33  54  81 105 141 186 223 275 335
#     4   9  19  37  55  76 111 146 175 235 279 325
#     4   9  19  36  55  76 113 143 177 233 281 327
#     4   9  18  35  56  73 103 143 181 220 278 327
#     4   9  18  36  55  77 105 146 181 225 279 331
#
# _framework density 19.986871000000001
#
# number of rings (size 3 to 8) (size 9 to 14) (size 15 to 20)
#    0.000    2.667    0.000    1.000    0.000    2.000 
#    9.000    6.667    0.000    0.000    0.000    0.000 
#    0.000    0.000    0.000    0.000    0.000    0.000 
#
# Total GULP energy -297412.641730 kJ/mol
# GULP energy per Si atom -12392.193405 kJ/mol
# Density = 1.994138 g / cm^3
# Si number density = 19.986871 Si / 1000 Ang^3
#
#
#
# Elastic Constant Matrix: (Units=GPa)
#
#
# Indices 1 2 3 4 5 6 
#
# 1 66.7190 18.0714 13.7545 0.0000 0.0000 0.0000
# 2 18.0714 103.7310 18.1642 0.0000 0.0000 0.0000
# 3 13.7545 18.1642 90.7762 0.0000 0.0000 0.0000
# 4 0.0000 0.0000 0.0000 28.5784 0.0000 0.0000
# 5 0.0000 0.0000 0.0000 0.0000 16.6809 0.0000
# 6 0.0000 0.0000 0.0000 0.0000 0.0000 10.0833
#
#
#
# Elastic Compliance Matrix: (Units=1/GPa)
#
#
# Indices 1 2 3 4 5 6 
#
# 1 0.016054 -0.002457 -0.001941 0.000000 0.000000 0.000000
# 2 -0.002457 0.010366 -0.001702 0.000000 0.000000 0.000000
# 3 -0.001941 -0.001702 0.011651 0.000000 0.000000 0.000000
# 4 0.000000 0.000000 0.000000 0.034991 0.000000 0.000000
# 5 0.000000 0.000000 0.000000 0.000000 0.059949 0.000000
# 6 0.000000 0.000000 0.000000 0.000000 0.000000 0.099174
#
#
# Mechanical properties :
#
#
# Convention : Reuss Voigt Hill
#
# Bulk Modulus (GPa) = 38.65282 40.13404 39.39343
# Shear Modulus (GPa) = 19.76216 25.15092 22.45654
#
# Velocity S-wave (km/s) = 3.14786 3.55120 3.35560
# Velocity P-wave (km/s) = 5.70904 6.07771 5.89626
#
# Compressibility (1/GPa) = 0.02587133
#
# Stress axis : x y z
#
# Youngs Moduli (GPa) = 62.29044 96.46557 85.83132
#
# Poissons Ratio (x) = 0.23701 0.16659
# Poissons Ratio (y) = 0.15304 0.14609
# Poissons Ratio (z) = 0.12090 0.16419
#
# Static dielectric constant tensor:
#      x y z
#    x 3.104350 0.000000 0.000000 
#    y 0.000000 4.246190 0.000000 
#    z 0.000000 0.000000 3.952610 
# 
# 
# High freq. dielectric constant tensor:
#      x y z
#    x 1.723820 0.000000 0.000000 
#    y 0.000000 1.807730 0.000000 
#    z 0.000000 0.000000 1.787120 
# 
# From -- ./inp_files/3074.got.cif
#   From: 2010.03.12/outbox.cif.g09.slc.cpg/sg40_2_cif.got.tgz:3074.got - 2010.04.14 01:38:03.
