data_PCOD8183206
_publ_section_title
;
Structure prediction by ZEFSAII (Michael W. Deem and Ramdas Pophale) SiO2 
 PCOD8183206
Probable space group: A M A 2
;
_chemical_formula_sum "Si O2"
_cell_formula_units_Z 64
_cell_length_a 8.781477
_cell_length_b 27.324174
_cell_length_c 12.987562
_cell_angle_alpha 90.000000
_cell_angle_beta 90.000000
_cell_angle_gamma 90.000000
_cell_volume 3116.321416
_symmetry_space_group_name_H-M "A M A 2"
_symmetry_group_IT_number 40
_symmetry_cell_setting 'orthorhombic'
loop_
_space_group_symop_operation_xyz
x,y,z
-x,-y,z
1/2-x,y,z
1/2+x,-y,z
x,1/2+y,1/2+z
-x,1/2-y,1/2+z
1/2-x,1/2+y,1/2+z
1/2+x,1/2-y,1/2+z
loop_
_atom_site_type_symbol
_atom_site_label
_atom_site_fract_x
_atom_site_fract_y
_atom_site_fract_z
Si Si1 0.929881 0.626453 0.208770
Si Si2 0.571779 0.124259 0.942638
Si Si3 0.578773 0.774084 0.939587
Si Si4 0.419206 0.268651 0.149107
Si Si5 0.571055 0.198418 0.277501
Si Si6 0.069305 0.947737 0.535109
Si Si7 0.931328 0.089985 0.311281
Si Si8 0.930671 0.449206 0.604584
O O1 0.750000 0.630387 0.193703
O O2 0.971630 0.609334 0.324776
O O3 0.998389 0.680777 0.187470
O O4 0.994537 0.588811 0.123541
O O5 0.750000 0.116557 0.963713
O O6 0.531078 0.180623 0.961988
O O7 0.478930 0.092260 0.023932
O O8 0.750000 0.793780 0.916316
O O9 0.506860 0.742770 0.847146
O O10 0.587351 0.732149 0.026343
O O11 0.250000 0.264058 0.196883
O O12 0.514377 0.218380 0.168198
O O13 0.750000 0.194541 0.285739
O O14 0.504149 0.145316 0.303676
O O15 0.250000 0.950832 0.539894
O O16 0.015819 0.930738 0.421655
O O17 0.000000 0.000000 0.560690
O O18 0.750000 0.087356 0.297968
O O19 0.007347 0.059642 0.219620
O O20 0.750000 0.452324 0.608543
O O21 0.000000 0.500000 0.563829
#
# Coordination Sequence:
#
# PCOD8183206 Si02
#       8
#     8   8   8   8   8   8   8   8
#     4   9  19  37  60  85 117 159 202 244 295 359
#     4  11  22  39  62  88 122 162 206 250 299 363
#     4  10  20  34  55  84 120 158 198 243 294 350
#     4  10  19  34  55  80 111 153 196 236 285 345
#     4  10  20  34  54  84 118 153 191 232 285 345
#     4  10  21  39  62  87 116 152 197 246 302 358
#     4  10  21  39  63  91 124 160 199 247 302 369
#     4  12  26  44  65  89 119 157 203 258 315 370
#
# _framework density 20.537033999999998
#
# number of rings (size 3 to 8) (size 9 to 14) (size 15 to 20)
#    0.000    1.750    1.250    3.375    0.000    8.000 
#    0.000    3.125    0.000    3.000    0.000    0.000 
#    0.000    0.000    0.000    0.000    0.000    0.000 
#
# Total GULP energy -396677.692891 kJ/mol
# GULP energy per Si atom -12396.177903 kJ/mol
# Density = 2.049029 g / cm^3
# Si number density = 20.537034 Si / 1000 Ang^3
#
#
#
# Elastic Constant Matrix: (Units=GPa)
#
#
# Indices 1 2 3 4 5 6 
#
# 1 47.8097 25.6346 27.9681 0.0000 0.0000 0.0000
# 2 25.6346 114.8919 31.1310 0.0000 0.0000 0.0000
# 3 27.9681 31.1310 104.5437 0.0000 0.0000 0.0000
# 4 0.0000 0.0000 0.0000 36.7191 0.0000 0.0000
# 5 0.0000 0.0000 0.0000 0.0000 16.7875 0.0000
# 6 0.0000 0.0000 0.0000 0.0000 0.0000 30.4636
#
#
#
# Elastic Compliance Matrix: (Units=1/GPa)
#
#
# Indices 1 2 3 4 5 6 
#
# 1 0.026672 -0.004370 -0.005834 0.000000 0.000000 0.000000
# 2 -0.004370 0.010184 -0.001863 0.000000 0.000000 0.000000
# 3 -0.005834 -0.001863 0.011681 0.000000 0.000000 0.000000
# 4 0.000000 0.000000 0.000000 0.027234 0.000000 0.000000
# 5 0.000000 0.000000 0.000000 0.000000 0.059568 0.000000
# 6 0.000000 0.000000 0.000000 0.000000 0.000000 0.032826
#
#
# Mechanical properties :
#
#
# Convention : Reuss Voigt Hill
#
# Bulk Modulus (GPa) = 40.98089 48.52364 44.75227
# Shear Modulus (GPa) = 24.94577 28.96148 26.95362
#
# Velocity S-wave (km/s) = 3.48900 3.75935 3.62669
# Velocity P-wave (km/s) = 6.01903 6.52091 6.27499
#
# Compressibility (1/GPa) = 0.02440162
#
# Stress axis : x y z
#
# Youngs Moduli (GPa) = 37.49182 98.19483 85.60878
#
# Poissons Ratio (x) = 0.42914 0.49946
# Poissons Ratio (y) = 0.16385 0.15952
# Poissons Ratio (z) = 0.21873 0.18297
#
# Static dielectric constant tensor:
#      x y z
#    x 3.477630 0.000000 0.000000 
#    y 0.000000 3.831550 0.000000 
#    z 0.000000 0.000000 3.906060 
# 
# 
# High freq. dielectric constant tensor:
#      x y z
#    x 1.777480 0.000000 0.000000 
#    y 0.000000 1.809660 0.000000 
#    z 0.000000 0.000000 1.817570 
# 
# From -- ./inp_files/15678.got.cif
#   From: 2010.03.12/outbox.cif.g09.slc.cpg/sg40_8_cif.got.tgz:15678.got - 2010.04.14 01:38:03.
