data_PCOD8183598
_publ_section_title
;
Structure prediction by ZEFSAII (Michael W. Deem and Ramdas Pophale) SiO2 
 PCOD8183598
Probable space group: A M A 2
;
_chemical_formula_sum "Si O2"
_cell_formula_units_Z 40
_cell_length_a 8.685076
_cell_length_b 9.142819
_cell_length_c 25.893798
_cell_angle_alpha 90.000000
_cell_angle_beta 90.000000
_cell_angle_gamma 90.000000
_cell_volume 2056.124940
_symmetry_space_group_name_H-M "A M A 2"
_symmetry_group_IT_number 40
_symmetry_cell_setting 'orthorhombic'
loop_
_space_group_symop_operation_xyz
x,y,z
-x,-y,z
1/2-x,y,z
1/2+x,-y,z
x,1/2+y,1/2+z
-x,1/2-y,1/2+z
1/2-x,1/2+y,1/2+z
1/2+x,1/2-y,1/2+z
loop_
_atom_site_type_symbol
_atom_site_label
_atom_site_fract_x
_atom_site_fract_y
_atom_site_fract_z
Si Si1 0.432334 0.340069 0.277830
Si Si2 0.072138 0.341881 0.983171
Si Si3 0.567318 0.159883 0.184205
Si Si4 0.068981 0.660894 0.084611
Si Si5 0.069994 0.838600 0.368693
O O1 0.500000 0.500000 0.269868
O O2 0.250000 0.348560 0.275202
O O3 0.494899 0.236412 0.233455
O O4 0.483766 0.275549 0.332548
O O5 0.250000 0.354600 0.997014
O O6 0.046580 0.271788 0.926564
O O7 0.000000 0.500000 0.979737
O O8 0.989631 0.260303 0.031390
O O9 0.750000 0.155488 0.190375
O O10 0.513736 0.244062 0.132910
O O11 0.500000 0.000000 0.180133
O O12 0.250000 0.648203 0.082849
O O13 0.000000 0.500000 0.090515
O O14 0.250000 0.848078 0.354560
O O15 0.000000 0.000000 0.362213
#
# Coordination Sequence:
#
# PCOD8183598 Si02
#       5
#     8   8   8   8   8
#     4  12  25  41  61  84 112 147 186 233 283 336
#     4   9  17  30  53  82 113 148 186 227 272 324
#     4  11  24  41  60  84 113 148 188 232 282 336
#     4  10  20  34  56  84 114 148 187 230 277 328
#     4  10  20  36  58  86 117 151 190 232 278 330
#
# _framework density 19.454070999999999
#
# number of rings (size 3 to 8) (size 9 to 14) (size 15 to 20)
#    0.000    1.600    0.000    6.600    0.000    7.200 
#    0.000    1.000    0.000    2.400    0.000    0.000 
#    0.000    0.000    0.000    0.000    0.000    0.000 
#
# Total GULP energy -247954.709955 kJ/mol
# GULP energy per Si atom -12397.735498 kJ/mol
# Density = 1.940979 g / cm^3
# Si number density = 19.454071 Si / 1000 Ang^3
#
#
#
# Elastic Constant Matrix: (Units=GPa)
#
#
# Indices 1 2 3 4 5 6 
#
# 1 107.5668 39.2362 55.4424 0.0000 0.0000 0.0000
# 2 39.2362 88.1468 52.3750 0.0000 0.0000 0.0000
# 3 55.4424 52.3750 156.6433 0.0000 0.0000 0.0000
# 4 0.0000 0.0000 0.0000 56.5077 0.0000 0.0000
# 5 0.0000 0.0000 0.0000 0.0000 43.1536 0.0000
# 6 0.0000 0.0000 0.0000 0.0000 0.0000 30.4412
#
#
#
# Elastic Compliance Matrix: (Units=1/GPa)
#
#
# Indices 1 2 3 4 5 6 
#
# 1 0.012213 -0.003579 -0.003126 0.000000 0.000000 0.000000
# 2 -0.003579 0.015206 -0.003818 0.000000 0.000000 0.000000
# 3 -0.003126 -0.003818 0.008767 0.000000 0.000000 0.000000
# 4 0.000000 0.000000 0.000000 0.017697 0.000000 0.000000
# 5 0.000000 0.000000 0.000000 0.000000 0.023173 0.000000
# 6 0.000000 0.000000 0.000000 0.000000 0.000000 0.032850
#
#
# Mechanical properties :
#
#
# Convention : Reuss Voigt Hill
#
# Bulk Modulus (GPa) = 66.04598 71.82933 68.93765
# Shear Modulus (GPa) = 36.76514 39.70738 38.23626
#
# Velocity S-wave (km/s) = 4.35195 4.52274 4.43816
# Velocity P-wave (km/s) = 7.69909 8.01724 7.85978
#
# Compressibility (1/GPa) = 0.01514097
#
# Stress axis : x y z
#
# Youngs Moduli (GPa) = 81.87810 65.76313 114.06635
#
# Poissons Ratio (x) = 0.23536 0.35659
# Poissons Ratio (y) = 0.29304 0.43546
# Poissons Ratio (z) = 0.25596 0.25105
#
# Static dielectric constant tensor:
#      x y z
#    x 3.751150 0.000000 0.000000 
#    y 0.000000 3.371590 0.000000 
#    z 0.000000 0.000000 4.458260 
# 
# 
# High freq. dielectric constant tensor:
#      x y z
#    x 1.778150 0.000000 0.000000 
#    y 0.000000 1.727040 0.000000 
#    z 0.000000 0.000000 1.786970 
# 
# From -- ./inp_files/23809.got.cif
#   From: 2010.03.12/outbox.cif.g09.slc.cpg/sg40_12_cif.got.tgz:23809.got - 2010.04.14 01:38:03.
