data_PCOD8183456
_publ_section_title
;
Structure prediction by ZEFSAII (Michael W. Deem and Ramdas Pophale) SiO2 
 PCOD8183456
Probable space group: A M A 2
;
_chemical_formula_sum "Si O2"
_cell_formula_units_Z 64
_cell_length_a 9.119162
_cell_length_b 14.486923
_cell_length_c 27.604799
_cell_angle_alpha 90.000000
_cell_angle_beta 90.000000
_cell_angle_gamma 90.000000
_cell_volume 3646.831286
_symmetry_space_group_name_H-M "A M A 2"
_symmetry_group_IT_number 40
_symmetry_cell_setting 'orthorhombic'
loop_
_space_group_symop_operation_xyz
x,y,z
-x,-y,z
1/2-x,y,z
1/2+x,-y,z
x,1/2+y,1/2+z
-x,1/2-y,1/2+z
1/2-x,1/2+y,1/2+z
1/2+x,1/2-y,1/2+z
loop_
_atom_site_type_symbol
_atom_site_label
_atom_site_fract_x
_atom_site_fract_y
_atom_site_fract_z
Si Si1 0.579474 0.593248 0.740470
Si Si2 0.420884 0.909425 0.857240
Si Si3 0.586547 0.174951 0.424040
Si Si4 0.085936 0.412392 0.018856
Si Si5 0.582386 0.729292 0.821513
Si Si6 0.576752 0.292185 0.550550
Si Si7 0.417762 0.841233 0.959972
Si Si8 0.922360 0.595254 0.629118
O O1 0.500000 0.500000 0.756087
O O2 0.750000 0.576671 0.749758
O O3 0.521955 0.677011 0.774048
O O4 0.546120 0.618924 0.685028
O O5 0.250000 0.912599 0.844483
O O6 0.487490 0.819917 0.831272
O O7 0.446424 0.911018 0.915523
O O8 0.500000 0.000000 0.836001
O O9 0.750000 0.219496 0.434088
O O10 0.573508 0.086821 0.459713
O O11 0.571653 0.156142 0.366629
O O12 0.454864 0.241603 0.438417
O O13 0.250000 0.427548 0.036686
O O14 0.030312 0.313817 0.039550
O O15 0.000000 0.500000 0.040193
O O16 0.750000 0.761082 0.813910
O O17 0.750000 0.304361 0.556462
O O18 0.521107 0.358966 0.506696
O O19 0.494508 0.321465 0.599347
O O20 0.250000 0.843962 0.977430
O O21 0.750000 0.587036 0.618147
O O22 0.000000 0.500000 0.614085
#
# Coordination Sequence:
#
# PCOD8183456 Si02
#       8
#     8   8   8   8   8   8   8   8
#     4   9  19  34  53  77 102 128 159 199 248 299
#     4  10  20  32  48  72 101 134 170 205 243 289
#     4   8  15  28  44  64  93 128 162 196 235 278
#     4   9  18  30  45  68  98 131 165 199 236 280
#     4   9  17  32  52  72  99 133 166 201 242 288
#     4  10  20  34  51  72  99 131 167 206 249 295
#     4   9  17  29  45  67  94 125 163 202 240 284
#     4  10  20  35  54  76 100 126 159 200 249 301
#
# _framework density 17.549481
#
# number of rings (size 3 to 8) (size 9 to 14) (size 15 to 20)
#    0.000    2.750    0.000    2.250    0.000    6.000 
#    0.000    1.250    0.000    0.750    0.000    1.750 
#    0.000    0.000    0.000    0.000    0.000    0.000 
#
# Total GULP energy -396521.706199 kJ/mol
# GULP energy per Si atom -12391.303319 kJ/mol
# Density = 1.750954 g / cm^3
# Si number density = 17.549481 Si / 1000 Ang^3
#
#
#
# Elastic Constant Matrix: (Units=GPa)
#
#
# Indices 1 2 3 4 5 6 
#
# 1 90.0452 58.5624 46.5198 0.0000 0.0000 0.0000
# 2 58.5624 101.5134 56.9004 0.0000 0.0000 0.0000
# 3 46.5198 56.9004 91.5442 0.0000 0.0000 0.0000
# 4 0.0000 0.0000 0.0000 23.1131 0.0000 0.0000
# 5 0.0000 0.0000 0.0000 0.0000 23.0759 0.0000
# 6 0.0000 0.0000 0.0000 0.0000 0.0000 28.8934
#
#
#
# Elastic Compliance Matrix: (Units=1/GPa)
#
#
# Indices 1 2 3 4 5 6 
#
# 1 0.018826 -0.008438 -0.004322 0.000000 0.000000 0.000000
# 2 -0.008438 0.018900 -0.007460 0.000000 0.000000 0.000000
# 3 -0.004322 -0.007460 0.017757 0.000000 0.000000 0.000000
# 4 0.000000 0.000000 0.000000 0.043265 0.000000 0.000000
# 5 0.000000 0.000000 0.000000 0.000000 0.043335 0.000000
# 6 0.000000 0.000000 0.000000 0.000000 0.000000 0.034610
#
#
# Mechanical properties :
#
#
# Convention : Reuss Voigt Hill
#
# Bulk Modulus (GPa) = 66.47440 67.45200 66.96320
# Shear Modulus (GPa) = 22.50753 23.09116 22.79935
#
# Velocity S-wave (km/s) = 3.58511 3.63130 3.60828
# Velocity P-wave (km/s) = 7.42279 7.49003 7.45649
#
# Compressibility (1/GPa) = 0.01504338
#
# Stress axis : x y z
#
# Youngs Moduli (GPa) = 53.11709 52.90987 56.31704
#
# Poissons Ratio (x) = 0.44646 0.24341
# Poissons Ratio (y) = 0.44821 0.42010
# Poissons Ratio (z) = 0.22958 0.39468
#
# Static dielectric constant tensor:
#      x y z
#    x 3.291110 0.000000 0.000000 
#    y 0.000000 3.012940 0.000000 
#    z 0.000000 0.000000 3.284700 
# 
# 
# High freq. dielectric constant tensor:
#      x y z
#    x 1.686540 0.000000 0.000000 
#    y 0.000000 1.653490 0.000000 
#    z 0.000000 0.000000 1.662760 
# 
# From -- ./inp_files/24336.got.cif
#   From: 2010.03.12/outbox.cif.g09.slc.cpg/sg40_13_cif.got.tgz:24336.got - 2010.04.14 01:38:03.
