data_PCOD8183087
_publ_section_title
;
Structure prediction by ZEFSAII (Michael W. Deem and Ramdas Pophale) SiO2 
 PCOD8183087
Probable space group: A M A 2
;
_chemical_formula_sum "Si O2"
_cell_formula_units_Z 56
_cell_length_a 16.805138
_cell_length_b 34.971832
_cell_length_c 4.974900
_cell_angle_alpha 90.000000
_cell_angle_beta 90.000000
_cell_angle_gamma 90.000000
_cell_volume 2923.780882
_symmetry_space_group_name_H-M "A M A 2"
_symmetry_group_IT_number 40
_symmetry_cell_setting 'orthorhombic'
loop_
_space_group_symop_operation_xyz
x,y,z
-x,-y,z
1/2-x,y,z
1/2+x,-y,z
x,1/2+y,1/2+z
-x,1/2-y,1/2+z
1/2-x,1/2+y,1/2+z
1/2+x,1/2-y,1/2+z
loop_
_atom_site_type_symbol
_atom_site_label
_atom_site_fract_x
_atom_site_fract_y
_atom_site_fract_z
Si Si1 0.155363 0.702994 0.308010
Si Si2 0.839312 0.010333 0.867185
Si Si3 0.460226 0.764650 0.209891
Si Si4 0.536884 0.458129 0.231959
Si Si5 0.433509 0.670424 0.809249
Si Si6 0.997111 0.588341 0.731745
Si Si7 0.159051 0.940466 0.381321
O O1 0.250000 0.700577 0.272145
O O2 0.127897 0.747827 0.274365
O O3 0.129753 0.686905 0.596350
O O4 0.108254 0.676810 0.095143
O O5 0.750000 0.007461 0.769493
O O6 0.875396 0.042609 0.662269
O O7 0.872539 0.967549 0.820676
O O8 0.848458 0.024683 0.170812
O O9 0.522057 0.740041 0.393381
O O10 0.479607 0.808538 0.289405
O O11 0.500000 0.500000 0.285709
O O12 0.502786 0.425359 0.425552
O O13 0.532906 0.444447 0.925202
O O14 0.451545 0.626195 0.769918
O O15 0.902392 0.593439 0.799634
O O16 0.250000 0.924557 0.395566
#
# Coordination Sequence:
#
# PCOD8183087 Si02
#       7
#     8   8   8   8   8   8   8
#     4  10  19  36  60  84 110 151 186 217 260 319
#     4  10  20  34  51  72  96 125 171 230 273 307
#     4   8  16  32  55  78 105 136 180 217 252 310
#     4  12  21  35  56  77 100 139 191 233 264 329
#     4  10  21  36  54  84 116 148 179 223 273 330
#     4  12  22  35  54  79 108 144 178 224 284 326
#     4  10  19  33  52  73  95 126 169 222 277 322
#
# _framework density 19.153281
#
# number of rings (size 3 to 8) (size 9 to 14) (size 15 to 20)
#    0.000    1.714    2.857    2.571    0.000    0.000 
#    0.000    5.000    0.000    0.000    0.000   10.000 
#    0.000    0.000    0.000    0.000    0.000    0.000 
#
# Total GULP energy -346925.532375 kJ/mol
# GULP energy per Si atom -12390.197585 kJ/mol
# Density = 1.910969 g / cm^3
# Si number density = 19.153281 Si / 1000 Ang^3
#
#
#
# Elastic Constant Matrix: (Units=GPa)
#
#
# Indices 1 2 3 4 5 6 
#
# 1 78.0108 34.4894 6.5954 0.0000 0.0000 0.0000
# 2 34.4894 71.2309 5.8262 0.0000 0.0000 0.0000
# 3 6.5954 5.8262 80.7872 0.0000 0.0000 0.0000
# 4 0.0000 0.0000 0.0000 21.8520 0.0000 0.0000
# 5 0.0000 0.0000 0.0000 0.0000 24.6389 0.0000
# 6 0.0000 0.0000 0.0000 0.0000 0.0000 20.8135
#
#
#
# Elastic Compliance Matrix: (Units=1/GPa)
#
#
# Indices 1 2 3 4 5 6 
#
# 1 0.016358 -0.007857 -0.000769 0.000000 0.000000 0.000000
# 2 -0.007857 0.017896 -0.000649 0.000000 0.000000 0.000000
# 3 -0.000769 -0.000649 0.012488 0.000000 0.000000 0.000000
# 4 0.000000 0.000000 0.000000 0.045762 0.000000 0.000000
# 5 0.000000 0.000000 0.000000 0.000000 0.040586 0.000000
# 6 0.000000 0.000000 0.000000 0.000000 0.000000 0.048046
#
#
# Mechanical properties :
#
#
# Convention : Reuss Voigt Hill
#
# Bulk Modulus (GPa) = 35.47207 35.98344 35.72775
# Shear Modulus (GPa) = 23.91386 25.66873 24.79130
#
# Velocity S-wave (km/s) = 3.53732 3.66481 3.60163
# Velocity P-wave (km/s) = 5.93665 6.06099 5.99914
#
# Compressibility (1/GPa) = 0.02819120
#
# Stress axis : x y z
#
# Youngs Moduli (GPa) = 61.13390 55.87719 80.07831
#
# Poissons Ratio (x) = 0.43904 0.06156
# Poissons Ratio (y) = 0.48035 0.05199
# Poissons Ratio (z) = 0.04700 0.03627
#
# Static dielectric constant tensor:
#      x y z
#    x 3.876730 0.000000 0.000000 
#    y 0.000000 3.282720 0.000000 
#    z 0.000000 0.000000 3.646910 
# 
# 
# High freq. dielectric constant tensor:
#      x y z
#    x 1.742720 0.000000 0.000000 
#    y 0.000000 1.700940 0.000000 
#    z 0.000000 0.000000 1.769710 
# 
# From -- ./inp_files/1451.got.cif
#   From: 2010.03.12/outbox.cif.g09.slc.cpg/sg40_1_cif.got.tgz:1451.got - 2010.04.14 01:38:03.
