data_PCOD8183435
_publ_section_title
;
Structure prediction by ZEFSAII (Michael W. Deem and Ramdas Pophale) SiO2 
 PCOD8183435
Probable space group: A M A 2
;
_chemical_formula_sum "Si O2"
_cell_formula_units_Z 52
_cell_length_a 19.965622
_cell_length_b 13.304150
_cell_length_c 9.576770
_cell_angle_alpha 90.000000
_cell_angle_beta 90.000000
_cell_angle_gamma 90.000000
_cell_volume 2543.835564
_symmetry_space_group_name_H-M "A M A 2"
_symmetry_group_IT_number 40
_symmetry_cell_setting 'orthorhombic'
loop_
_space_group_symop_operation_xyz
x,y,z
-x,-y,z
1/2-x,y,z
1/2+x,-y,z
x,1/2+y,1/2+z
-x,1/2-y,1/2+z
1/2-x,1/2+y,1/2+z
1/2+x,1/2-y,1/2+z
loop_
_atom_site_type_symbol
_atom_site_label
_atom_site_fract_x
_atom_site_fract_y
_atom_site_fract_z
Si Si1 0.610447 0.104743 0.799660
Si Si2 0.045443 0.409030 0.581893
Si Si3 0.982796 0.196933 0.584019
Si Si4 0.750000 0.204277 0.389183
Si Si5 0.883485 0.428777 0.091306
Si Si6 0.114639 0.400446 0.869555
Si Si7 0.250000 0.615867 0.194350
Si Si8 0.250000 0.873337 0.700550
O O1 0.551092 0.169709 0.731201
O O2 0.681786 0.160099 0.775746
O O3 0.607337 0.993446 0.732757
O O4 0.602369 0.102852 0.965283
O O5 0.997822 0.313404 0.590863
O O6 0.078882 0.434520 0.728947
O O7 0.000000 0.500000 0.532588
O O8 0.050969 0.135443 0.561478
O O9 0.932622 0.175046 0.456467
O O10 0.816521 0.153535 0.326426
O O11 0.750000 0.322188 0.341352
O O12 0.750000 0.185377 0.554144
O O13 0.818441 0.356345 0.110432
O O14 0.869798 0.501831 0.961318
O O15 0.250000 0.494731 0.202748
#
# Coordination Sequence:
#
# PCOD8183435 Si02
#       8
#     8   8   8   4   8   8   4   4
#     4  10  21  40  64  88 124 162 208 271 317 390
#     4  12  25  38  57  94 133 163 211 270 336 393
#     4  11  21  38  64  87 120 170 216 257 322 396
#     4  12  20  39  67  94 125 172 230 269 333 407
#     4  10  19  40  63  91 121 165 219 259 324 391
#     4  11  22  39  64  93 128 170 209 281 328 394
#     4  10  20  34  65  96 119 162 221 274 317 404
#     4  10  20  43  62  92 128 162 223 277 326 399
#
# _framework density 20.441572000000001
#
# number of rings (size 3 to 8) (size 9 to 14) (size 15 to 20)
#    0.000    1.231    4.615    5.538    0.000    3.077 
#    0.000    0.769    0.000    3.692    0.000    0.000 
#    0.000    0.000    0.000    0.000    0.000    0.000 
#
# Total GULP energy -322349.714838 kJ/mol
# GULP energy per Si atom -12398.065955 kJ/mol
# Density = 2.039505 g / cm^3
# Si number density = 20.441572 Si / 1000 Ang^3
#
#
#
# Elastic Constant Matrix: (Units=GPa)
#
#
# Indices 1 2 3 4 5 6 
#
# 1 151.5414 45.7695 35.1098 0.0000 0.0000 0.0000
# 2 45.7695 99.4277 32.6859 0.0000 0.0000 0.0000
# 3 35.1098 32.6859 122.1602 0.0000 0.0000 0.0000
# 4 0.0000 0.0000 0.0000 23.3829 0.0000 0.0000
# 5 0.0000 0.0000 0.0000 0.0000 17.4627 0.0000
# 6 0.0000 0.0000 0.0000 0.0000 0.0000 2.9055
#
#
#
# Elastic Compliance Matrix: (Units=1/GPa)
#
#
# Indices 1 2 3 4 5 6 
#
# 1 0.007883 -0.003162 -0.001420 0.000000 0.000000 0.000000
# 2 -0.003162 0.012296 -0.002381 0.000000 0.000000 0.000000
# 3 -0.001420 -0.002381 0.009231 0.000000 0.000000 0.000000
# 4 0.000000 0.000000 0.000000 0.042766 0.000000 0.000000
# 5 0.000000 0.000000 0.000000 0.000000 0.057265 0.000000
# 6 0.000000 0.000000 0.000000 0.000000 0.000000 0.344174
#
#
# Mechanical properties :
#
#
# Convention : Reuss Voigt Hill
#
# Bulk Modulus (GPa) = 64.58143 66.69552 65.63847
# Shear Modulus (GPa) = 10.14812 26.05448 18.10130
#
# Velocity S-wave (km/s) = 2.23052 3.57400 2.97899
# Velocity P-wave (km/s) = 6.18833 7.05192 6.63419
#
# Compressibility (1/GPa) = 0.01548433
#
# Stress axis : x y z
#
# Youngs Moduli (GPa) = 126.85938 81.32784 108.32979
#
# Poissons Ratio (x) = 0.25716 0.15378
# Poissons Ratio (y) = 0.40113 0.25795
# Poissons Ratio (z) = 0.18008 0.19366
#
# Static dielectric constant tensor:
#      x y z
#    x 4.349190 0.000000 0.000000 
#    y 0.000000 3.625510 0.000000 
#    z 0.000000 0.000000 3.596810 
# 
# 
# High freq. dielectric constant tensor:
#      x y z
#    x 1.825050 0.000000 0.000000 
#    y 0.000000 1.779850 0.000000 
#    z 0.000000 0.000000 1.790210 
# 
# From -- ./inp_files/8273.got.cif
#   From: 2010.03.12/outbox.cif.g09.slc.cpg/sg40_5_cif.got.tgz:8273.got - 2010.04.14 01:38:03.
