data_PCOD8183649
_publ_section_title
;
Structure prediction by ZEFSAII (Michael W. Deem and Ramdas Pophale) SiO2 
 PCOD8183649
Probable space group: A M A 2
;
_chemical_formula_sum "Si O2"
_cell_formula_units_Z 64
_cell_length_a 8.868687
_cell_length_b 20.697583
_cell_length_c 19.308812
_cell_angle_alpha 90.000000
_cell_angle_beta 90.000000
_cell_angle_gamma 90.000000
_cell_volume 3544.332970
_symmetry_space_group_name_H-M "A M A 2"
_symmetry_group_IT_number 40
_symmetry_cell_setting 'orthorhombic'
loop_
_space_group_symop_operation_xyz
x,y,z
-x,-y,z
1/2-x,y,z
1/2+x,-y,z
x,1/2+y,1/2+z
-x,1/2-y,1/2+z
1/2-x,1/2+y,1/2+z
1/2+x,1/2-y,1/2+z
loop_
_atom_site_type_symbol
_atom_site_label
_atom_site_fract_x
_atom_site_fract_y
_atom_site_fract_z
Si Si1 0.574402 0.374829 0.373310
Si Si2 0.427251 0.935470 0.746202
Si Si3 0.928154 0.764331 0.378247
Si Si4 0.076343 0.765710 0.517916
Si Si5 0.575691 0.193357 0.667176
Si Si6 0.926880 0.065500 0.158944
Si Si7 0.428117 0.310555 0.745184
Si Si8 0.577390 0.881428 0.029738
O O1 0.750000 0.365319 0.356299
O O2 0.499372 0.425534 0.321709
O O3 0.494356 0.306236 0.363840
O O4 0.551029 0.402665 0.450448
O O5 0.250000 0.944360 0.754027
O O6 0.469761 0.876278 0.696334
O O7 0.500000 0.000000 0.713611
O O8 0.750000 0.760926 0.373216
O O9 0.976904 0.790886 0.453688
O O10 0.991564 0.812320 0.319797
O O11 0.250000 0.766585 0.493738
O O12 0.046663 0.810152 0.584692
O O13 0.029541 0.693148 0.538281
O O14 0.750000 0.210205 0.683111
O O15 0.473381 0.247308 0.702251
O O16 0.750000 0.057806 0.162861
O O17 0.983605 0.125796 0.204624
O O18 0.973670 0.075528 0.079014
O O19 0.000000 0.000000 0.188417
O O20 0.250000 0.310411 0.755648
O O21 0.750000 0.891559 0.052441
#
# Coordination Sequence:
#
# PCOD8183649 Si02
#       8
#     8   8   8   8   8   8   8   8
#     4  10  20  35  54  79 110 148 188 230 275 324
#     4  11  23  37  55  81 112 151 190 229 278 331
#     4  11  21  33  54  84 114 145 182 227 278 333
#     4   9  18  34  56  82 112 143 179 229 281 327
#     4  10  20  36  59  84 109 144 187 229 278 328
#     4  11  24  38  55  80 110 147 187 228 276 330
#     4  11  22  36  57  84 111 144 186 230 278 327
#     4   9  18  33  54  78 109 146 181 221 273 325
#
# _framework density 18.056995000000001
#
# number of rings (size 3 to 8) (size 9 to 14) (size 15 to 20)
#    0.000    1.750    2.500    3.375    0.000    5.500 
#    0.000    0.000    0.000    0.750    0.000    1.750 
#    0.000    0.000    0.000    0.000    0.000    0.000 
#
# Total GULP energy -396909.761373 kJ/mol
# GULP energy per Si atom -12403.430043 kJ/mol
# Density = 1.801590 g / cm^3
# Si number density = 18.056995 Si / 1000 Ang^3
#
#
#
# Elastic Constant Matrix: (Units=GPa)
#
#
# Indices 1 2 3 4 5 6 
#
# 1 96.0466 50.6055 45.0996 0.0000 0.0000 0.0000
# 2 50.6055 110.6051 58.0831 0.0000 0.0000 0.0000
# 3 45.0996 58.0831 100.2271 0.0000 0.0000 0.0000
# 4 0.0000 0.0000 0.0000 21.5626 0.0000 0.0000
# 5 0.0000 0.0000 0.0000 0.0000 29.7316 0.0000
# 6 0.0000 0.0000 0.0000 0.0000 0.0000 27.3597
#
#
#
# Elastic Compliance Matrix: (Units=1/GPa)
#
#
# Indices 1 2 3 4 5 6 
#
# 1 0.014712 -0.004679 -0.003909 0.000000 0.000000 0.000000
# 2 -0.004679 0.014484 -0.006289 0.000000 0.000000 0.000000
# 3 -0.003909 -0.006289 0.015380 0.000000 0.000000 0.000000
# 4 0.000000 0.000000 0.000000 0.046377 0.000000 0.000000
# 5 0.000000 0.000000 0.000000 0.000000 0.033634 0.000000
# 6 0.000000 0.000000 0.000000 0.000000 0.000000 0.036550
#
#
# Mechanical properties :
#
#
# Convention : Reuss Voigt Hill
#
# Bulk Modulus (GPa) = 67.45390 68.27283 67.86337
# Shear Modulus (GPa) = 25.53220 25.93681 25.73451
#
# Velocity S-wave (km/s) = 3.76437 3.79408 3.77925
# Velocity P-wave (km/s) = 7.50541 7.55547 7.53048
#
# Compressibility (1/GPa) = 0.01482494
#
# Stress axis : x y z
#
# Youngs Moduli (GPa) = 67.97120 69.04091 65.01760
#
# Poissons Ratio (x) = 0.32302 0.25414
# Poissons Ratio (y) = 0.31801 0.40886
# Poissons Ratio (z) = 0.26568 0.43416
#
# Static dielectric constant tensor:
#      x y z
#    x 3.336440 0.000000 0.000000 
#    y 0.000000 3.218060 0.000000 
#    z 0.000000 0.000000 3.505420 
# 
# 
# High freq. dielectric constant tensor:
#      x y z
#    x 1.706730 0.000000 0.000000 
#    y 0.000000 1.674820 0.000000 
#    z 0.000000 0.000000 1.701340 
# 
# From -- ./inp_files/22536.got.cif
#   From: 2010.03.12/outbox.cif.g09.slc.cpg/sg40_12_cif.got.tgz:22536.got - 2010.04.14 01:38:03.
