data_PCOD8183395
_publ_section_title
;
Structure prediction by ZEFSAII (Michael W. Deem and Ramdas Pophale) SiO2 
 PCOD8183395
Probable space group: A M A 2
;
_chemical_formula_sum "Si O2"
_cell_formula_units_Z 56
_cell_length_a 18.820133
_cell_length_b 9.958434
_cell_length_c 15.096036
_cell_angle_alpha 90.000000
_cell_angle_beta 90.000000
_cell_angle_gamma 90.000000
_cell_volume 2829.284761
_symmetry_space_group_name_H-M "A M A 2"
_symmetry_group_IT_number 40
_symmetry_cell_setting 'orthorhombic'
loop_
_space_group_symop_operation_xyz
x,y,z
-x,-y,z
1/2-x,y,z
1/2+x,-y,z
x,1/2+y,1/2+z
-x,1/2-y,1/2+z
1/2-x,1/2+y,1/2+z
1/2+x,1/2-y,1/2+z
loop_
_atom_site_type_symbol
_atom_site_label
_atom_site_fract_x
_atom_site_fract_y
_atom_site_fract_z
Si Si1 0.672568 0.476139 0.472520
Si Si2 0.430712 0.256626 0.928663
Si Si3 0.505299 0.284755 0.616651
Si Si4 0.670170 0.217938 0.851788
Si Si5 0.111417 0.486542 0.651735
Si Si6 0.525579 0.644068 0.284988
Si Si7 0.168201 0.973316 0.346702
O O1 0.750000 0.422305 0.443818
O O2 0.614035 0.380990 0.428226
O O3 0.661849 0.629137 0.440097
O O4 0.670326 0.475281 0.579102
O O5 0.490188 0.251676 0.852118
O O6 0.379850 0.383313 0.911461
O O7 0.469875 0.272972 0.022616
O O8 0.430694 0.361386 0.608592
O O9 0.560746 0.385548 0.663609
O O10 0.496862 0.162631 0.685325
O O11 0.750000 0.202454 0.810480
O O12 0.611088 0.162730 0.783495
O O13 0.656283 0.372979 0.875658
O O14 0.147031 0.449286 0.744525
O O15 0.500000 0.500000 0.318860
O O16 0.250000 0.930567 0.358828
#
# Coordination Sequence:
#
# PCOD8183395 Si02
#       7
#     8   8   8   8   8   8   8
#     4  10  20  38  62  89 123 166 209 252 307 374
#     4  11  23  39  63  93 123 161 211 264 304 375
#     4  10  22  38  58  90 123 154 209 263 310 363
#     4  10  22  39  62  91 124 162 205 253 317 378
#     4  10  19  37  61  89 117 159 210 260 306 371
#     4  12  22  41  63  90 121 166 209 256 315 373
#     4  11  22  39  62  92 129 166 205 262 322 374
#
# _framework density 19.792987
#
# number of rings (size 3 to 8) (size 9 to 14) (size 15 to 20)
#    0.000    1.429    4.286    1.714    2.000    0.571 
#    5.143    0.714    0.000    0.000    0.000    0.000 
#    0.000    0.000    0.000    0.000    0.000    0.000 
#
# Total GULP energy -347162.973798 kJ/mol
# GULP energy per Si atom -12398.677636 kJ/mol
# Density = 1.974794 g / cm^3
# Si number density = 19.792987 Si / 1000 Ang^3
#
#
#
# Elastic Constant Matrix: (Units=GPa)
#
#
# Indices 1 2 3 4 5 6 
#
# 1 103.3772 41.8147 29.7911 0.0000 0.0000 0.0000
# 2 41.8147 87.8767 28.1992 0.0000 0.0000 0.0000
# 3 29.7911 28.1992 97.8512 0.0000 0.0000 0.0000
# 4 0.0000 0.0000 0.0000 30.7288 0.0000 0.0000
# 5 0.0000 0.0000 0.0000 0.0000 28.9578 0.0000
# 6 0.0000 0.0000 0.0000 0.0000 0.0000 28.9393
#
#
#
# Elastic Compliance Matrix: (Units=1/GPa)
#
#
# Indices 1 2 3 4 5 6 
#
# 1 0.012428 -0.005178 -0.002291 0.000000 0.000000 0.000000
# 2 -0.005178 0.014697 -0.002659 0.000000 0.000000 0.000000
# 3 -0.002291 -0.002659 0.011683 0.000000 0.000000 0.000000
# 4 0.000000 0.000000 0.000000 0.032543 0.000000 0.000000
# 5 0.000000 0.000000 0.000000 0.000000 0.034533 0.000000
# 6 0.000000 0.000000 0.000000 0.000000 0.000000 0.034555
#
#
# Mechanical properties :
#
#
# Convention : Reuss Voigt Hill
#
# Bulk Modulus (GPa) = 53.90510 54.30167 54.10338
# Shear Modulus (GPa) = 29.96152 30.34519 30.15335
#
# Velocity S-wave (km/s) = 3.89491 3.91977 3.90736
# Velocity P-wave (km/s) = 6.89352 6.92679 6.91018
#
# Compressibility (1/GPa) = 0.01855112
#
# Stress axis : x y z
#
# Youngs Moduli (GPa) = 80.46149 68.04162 85.59100
#
# Poissons Ratio (x) = 0.35235 0.19613
# Poissons Ratio (y) = 0.41667 0.22757
# Poissons Ratio (z) = 0.18438 0.18091
#
# Static dielectric constant tensor:
#      x y z
#    x 3.775260 0.000000 0.000000 
#    y 0.000000 3.501410 0.000000 
#    z 0.000000 0.000000 3.321340 
# 
# 
# High freq. dielectric constant tensor:
#      x y z
#    x 1.783220 0.000000 0.000000 
#    y 0.000000 1.762630 0.000000 
#    z 0.000000 0.000000 1.759010 
# 
# From -- ./inp_files/18203.got.cif
#   From: 2010.03.12/outbox.cif.g09.slc.cpg/sg40_10_cif.got.tgz:18203.got - 2010.04.14 01:38:03.
