data_PCOD8183852
_publ_section_title
;
Structure prediction by ZEFSAII (Michael W. Deem and Ramdas Pophale) SiO2 
 PCOD8183852
Probable space group: A M A 2
;
_chemical_formula_sum "Si O2"
_cell_formula_units_Z 48
_cell_length_a 8.669257
_cell_length_b 9.123685
_cell_length_c 30.500362
_cell_angle_alpha 90.000000
_cell_angle_beta 90.000000
_cell_angle_gamma 90.000000
_cell_volume 2412.443519
_symmetry_space_group_name_H-M "A M A 2"
_symmetry_group_IT_number 40
_symmetry_cell_setting 'orthorhombic'
loop_
_space_group_symop_operation_xyz
x,y,z
-x,-y,z
1/2-x,y,z
1/2+x,-y,z
x,1/2+y,1/2+z
-x,1/2-y,1/2+z
1/2-x,1/2+y,1/2+z
1/2+x,1/2-y,1/2+z
loop_
_atom_site_type_symbol
_atom_site_label
_atom_site_fract_x
_atom_site_fract_y
_atom_site_fract_z
Si Si1 0.071147 0.840946 0.707970
Si Si2 0.432074 0.839609 0.129381
Si Si3 0.932894 0.156120 0.963405
Si Si4 0.432420 0.657349 0.370367
Si Si5 0.068234 0.659384 0.046262
Si Si6 0.071121 0.655822 0.794682
O O1 0.250000 0.851532 0.695266
O O2 0.045523 0.761328 0.753843
O O3 0.982232 0.754099 0.670786
O O4 0.000000 0.000000 0.712658
O O5 0.250000 0.852786 0.128894
O O6 0.494376 0.762334 0.085266
O O7 0.500000 0.000000 0.132974
O O8 0.750000 0.142960 0.958820
O O9 0.004214 0.207715 0.917493
O O10 0.983670 0.273362 0.999854
O O11 0.000000 0.000000 0.977878
O O12 0.500000 0.500000 0.356435
O O13 0.250000 0.643635 0.372390
O O14 0.481264 0.780080 0.336104
O O15 0.250000 0.646768 0.049219
O O16 0.000000 0.500000 0.052152
O O17 0.250000 0.638986 0.806718
O O18 0.000000 0.500000 0.782245
#
# Coordination Sequence:
#
# PCOD8183852 Si02
#       6
#     8   8   8   8   8   8
#     4  11  24  41  63  90 120 155 195 240 290 346
#     4  11  23  40  62  89 120 155 196 241 292 347
#     4  10  20  37  59  85 116 151 195 242 291 347
#     4  11  22  38  61  88 118 154 196 242 294 349
#     4  10  23  39  58  85 117 154 195 240 289 346
#     4  11  24  41  61  87 119 155 196 241 291 347
#
# _framework density 19.896837999999999
#
# number of rings (size 3 to 8) (size 9 to 14) (size 15 to 20)
#    0.000    1.333    0.000    6.500    0.000   10.000 
#    0.000    1.667    0.000    0.000    0.000    0.000 
#    0.000    0.000    0.000    0.000    0.000    0.000 
#
# Total GULP energy -297738.308430 kJ/mol
# GULP energy per Si atom -12405.762851 kJ/mol
# Density = 1.985155 g / cm^3
# Si number density = 19.896838 Si / 1000 Ang^3
#
#
#
# Elastic Constant Matrix: (Units=GPa)
#
#
# Indices 1 2 3 4 5 6 
#
# 1 106.4927 49.5568 51.3924 0.0000 0.0000 0.0000
# 2 49.5568 139.5216 57.9614 0.0000 0.0000 0.0000
# 3 51.3924 57.9614 106.8835 0.0000 0.0000 0.0000
# 4 0.0000 0.0000 0.0000 26.5713 0.0000 0.0000
# 5 0.0000 0.0000 0.0000 0.0000 33.2034 0.0000
# 6 0.0000 0.0000 0.0000 0.0000 0.0000 37.1700
#
#
#
# Elastic Compliance Matrix: (Units=1/GPa)
#
#
# Indices 1 2 3 4 5 6 
#
# 1 0.012915 -0.002591 -0.004805 0.000000 0.000000 0.000000
# 2 -0.002591 0.009771 -0.004053 0.000000 0.000000 0.000000
# 3 -0.004805 -0.004053 0.013864 0.000000 0.000000 0.000000
# 4 0.000000 0.000000 0.000000 0.037635 0.000000 0.000000
# 5 0.000000 0.000000 0.000000 0.000000 0.030117 0.000000
# 6 0.000000 0.000000 0.000000 0.000000 0.000000 0.026903
#
#
# Mechanical properties :
#
#
# Convention : Reuss Voigt Hill
#
# Bulk Modulus (GPa) = 73.24578 74.52435 73.88506
# Shear Modulus (GPa) = 31.51508 32.32143 31.91826
#
# Velocity S-wave (km/s) = 3.98417 4.03482 4.00958
# Velocity P-wave (km/s) = 7.61955 7.69695 7.65835
#
# Compressibility (1/GPa) = 0.01365266
#
# Stress axis : x y z
#
# Youngs Moduli (GPa) = 77.43043 102.33872 72.12915
#
# Poissons Ratio (x) = 0.26519 0.34655
# Poissons Ratio (y) = 0.20064 0.29234
# Poissons Ratio (z) = 0.37202 0.41478
#
# Static dielectric constant tensor:
#      x y z
#    x 3.756160 0.000000 0.000000 
#    y 0.000000 3.655400 0.000000 
#    z 0.000000 0.000000 3.834320 
# 
# 
# High freq. dielectric constant tensor:
#      x y z
#    x 1.789030 0.000000 0.000000 
#    y 0.000000 1.785080 0.000000 
#    z 0.000000 0.000000 1.792840 
# 
# From -- ./inp_files/26138.got.cif
#   From: 2010.03.12/outbox.cif.g09.slc.cpg/sg40_14_cif.got.tgz:26138.got - 2010.04.14 01:38:03.
