data_PCOD8183400
_publ_section_title
;
Structure prediction by ZEFSAII (Michael W. Deem and Ramdas Pophale) SiO2 
 PCOD8183400
Probable space group: A M A 2
;
_chemical_formula_sum "Si O2"
_cell_formula_units_Z 64
_cell_length_a 17.692831
_cell_length_b 11.827203
_cell_length_c 16.007259
_cell_angle_alpha 90.000000
_cell_angle_beta 90.000000
_cell_angle_gamma 90.000000
_cell_volume 3349.626257
_symmetry_space_group_name_H-M "A M A 2"
_symmetry_group_IT_number 40
_symmetry_cell_setting 'orthorhombic'
loop_
_space_group_symop_operation_xyz
x,y,z
-x,-y,z
1/2-x,y,z
1/2+x,-y,z
x,1/2+y,1/2+z
-x,1/2-y,1/2+z
1/2-x,1/2+y,1/2+z
1/2+x,1/2-y,1/2+z
loop_
_atom_site_type_symbol
_atom_site_label
_atom_site_fract_x
_atom_site_fract_y
_atom_site_fract_z
Si Si1 0.588122 0.495339 0.551830
Si Si2 0.161815 0.153900 0.518271
Si Si3 0.660960 0.794571 0.816938
Si Si4 0.090743 0.329096 0.413579
Si Si5 0.420648 0.951086 0.590541
Si Si6 0.659431 0.546281 0.264353
Si Si7 0.926133 0.767213 0.977750
Si Si8 0.161169 0.332164 0.657927
O O1 0.500000 0.500000 0.566344
O O2 0.617251 0.568112 0.472871
O O3 0.609668 0.365624 0.535651
O O4 0.626612 0.545661 0.635044
O O5 0.250000 0.128238 0.520739
O O6 0.138471 0.215579 0.432431
O O7 0.135093 0.235849 0.593046
O O8 0.118329 0.036206 0.525576
O O9 0.750000 0.792948 0.816325
O O10 0.633281 0.745090 0.904553
O O11 0.629925 0.707649 0.747278
O O12 0.634266 0.921560 0.794753
O O13 0.111792 0.364077 0.319370
O O14 0.002427 0.305854 0.430130
O O15 0.365085 0.932127 0.668815
O O16 0.437730 0.838340 0.538093
O O17 0.500000 0.000000 0.623585
O O18 0.750000 0.564135 0.272319
O O19 0.250000 0.345368 0.656569
#
# Coordination Sequence:
#
# PCOD8183400 Si02
#       8
#     8   8   8   8   8   8   8   8
#     4   9  19  34  58  86 119 154 195 243 299 359
#     4  10  19  37  63  87 121 165 205 249 304 371
#     4  10  21  37  60  90 122 159 208 256 306 368
#     4  10  20  38  62  91 123 153 207 260 305 365
#     4  12  25  40  61  92 129 164 205 255 314 381
#     4  11  23  39  64  96 123 157 209 265 314 361
#     4  11  23  40  59  90 126 163 204 251 319 372
#     4   9  18  35  59  88 116 151 202 250 297 362
#
# _framework density 19.10661
#
# number of rings (size 3 to 8) (size 9 to 14) (size 15 to 20)
#    0.000    1.750    3.750    0.750    1.750    2.000 
#    0.000    1.875    0.000    1.500    0.000    0.000 
#    0.000    0.000    0.000    0.000    0.000    0.000 
#
# Total GULP energy -396755.454224 kJ/mol
# GULP energy per Si atom -12398.607945 kJ/mol
# Density = 1.906312 g / cm^3
# Si number density = 19.106610 Si / 1000 Ang^3
#
#
#
# Elastic Constant Matrix: (Units=GPa)
#
#
# Indices 1 2 3 4 5 6 
#
# 1 50.4214 36.9132 25.3830 0.0000 0.0000 0.0000
# 2 36.9132 108.7315 57.9835 0.0000 0.0000 0.0000
# 3 25.3830 57.9835 104.1583 0.0000 0.0000 0.0000
# 4 0.0000 0.0000 0.0000 34.8517 0.0000 0.0000
# 5 0.0000 0.0000 0.0000 0.0000 26.2398 0.0000
# 6 0.0000 0.0000 0.0000 0.0000 0.0000 30.1225
#
#
#
# Elastic Compliance Matrix: (Units=1/GPa)
#
#
# Indices 1 2 3 4 5 6 
#
# 1 0.026705 -0.007958 -0.002078 0.000000 0.000000 0.000000
# 2 -0.007958 0.015451 -0.006662 0.000000 0.000000 0.000000
# 3 -0.002078 -0.006662 0.013816 0.000000 0.000000 0.000000
# 4 0.000000 0.000000 0.000000 0.028693 0.000000 0.000000
# 5 0.000000 0.000000 0.000000 0.000000 0.038110 0.000000
# 6 0.000000 0.000000 0.000000 0.000000 0.000000 0.033198
#
#
# Mechanical properties :
#
#
# Convention : Reuss Voigt Hill
#
# Bulk Modulus (GPa) = 44.29458 55.98560 50.14009
# Shear Modulus (GPa) = 25.39433 27.77824 26.58629
#
# Velocity S-wave (km/s) = 3.64962 3.81708 3.73429
# Velocity P-wave (km/s) = 6.40256 6.98514 6.70018
#
# Compressibility (1/GPa) = 0.02257612
#
# Stress axis : x y z
#
# Youngs Moduli (GPa) = 37.44642 64.71899 72.38034
#
# Poissons Ratio (x) = 0.51503 0.15039
# Poissons Ratio (y) = 0.29800 0.48222
# Poissons Ratio (z) = 0.07780 0.43117
#
# Static dielectric constant tensor:
#      x y z
#    x 3.427640 0.000000 0.000000 
#    y 0.000000 3.644310 0.000000 
#    z 0.000000 0.000000 3.438370 
# 
# 
# High freq. dielectric constant tensor:
#      x y z
#    x 1.744400 0.000000 0.000000 
#    y 0.000000 1.735030 0.000000 
#    z 0.000000 0.000000 1.728810 
# 
# From -- ./inp_files/17876.got.cif
#   From: 2010.03.12/outbox.cif.g09.slc.cpg/sg40_9_cif.got.tgz:17876.got - 2010.04.14 01:38:03.
