data_PCOD8183969
_publ_section_title
;
Structure prediction by ZEFSAII (Michael W. Deem and Ramdas Pophale) SiO2 
 PCOD8183969
Probable space group: A M A 2
;
_chemical_formula_sum "Si O2"
_cell_formula_units_Z 56
_cell_length_a 19.280835
_cell_length_b 15.200968
_cell_length_c 9.427876
_cell_angle_alpha 90.000000
_cell_angle_beta 90.000000
_cell_angle_gamma 90.000000
_cell_volume 2763.191248
_symmetry_space_group_name_H-M "A M A 2"
_symmetry_group_IT_number 40
_symmetry_cell_setting 'orthorhombic'
loop_
_space_group_symop_operation_xyz
x,y,z
-x,-y,z
1/2-x,y,z
1/2+x,-y,z
x,1/2+y,1/2+z
-x,1/2-y,1/2+z
1/2-x,1/2+y,1/2+z
1/2+x,1/2-y,1/2+z
loop_
_atom_site_type_symbol
_atom_site_label
_atom_site_fract_x
_atom_site_fract_y
_atom_site_fract_z
Si Si1 0.674623 0.839961 0.617180
Si Si2 0.628285 0.324573 0.409131
Si Si3 0.575260 0.263528 0.905571
Si Si4 0.172029 0.138855 0.201971
Si Si5 0.171991 0.496531 0.937059
Si Si6 0.008686 0.898905 0.796782
Si Si7 0.562623 0.648610 0.988518
O O1 0.750000 0.820795 0.546367
O O2 0.685784 0.821944 0.785292
O O3 0.617812 0.774567 0.550804
O O4 0.655599 0.940675 0.572754
O O5 0.650213 0.386499 0.540381
O O6 0.567368 0.359964 0.309118
O O7 0.612411 0.233121 0.487983
O O8 0.620947 0.288345 0.768988
O O9 0.556293 0.159664 0.902378
O O10 0.506864 0.326558 0.900906
O O11 0.250000 0.177682 0.200026
O O12 0.168132 0.050352 0.291691
O O13 0.250000 0.455153 0.953292
O O14 0.110250 0.426714 0.920308
O O15 0.039253 0.885348 0.641398
O O16 0.000000 0.000000 0.842426
#
# Coordination Sequence:
#
# PCOD8183969 Si02
#       7
#     8   8   8   8   8   8   8
#     4  10  20  38  65  90 126 164 204 253 311 378
#     4  11  22  40  62  90 124 163 203 252 322 369
#     4  10  21  40  62  91 121 164 211 253 314 364
#     4  10  21  40  63  92 128 160 203 257 311 370
#     4   9  21  40  63  92 123 165 212 258 312 376
#     4  11  23  40  61  90 122 160 209 266 308 372
#     4  11  22  38  66  89 124 160 212 263 301 382
#
# _framework density 20.266423
#
# number of rings (size 3 to 8) (size 9 to 14) (size 15 to 20)
#    0.000    1.714    2.857    2.571    2.000    1.143 
#    5.143    0.000    0.000    1.714    0.000    0.000 
#    0.000    0.000    0.000    0.000    0.000    0.000 
#
# Total GULP energy -346883.197615 kJ/mol
# GULP energy per Si atom -12388.685629 kJ/mol
# Density = 2.022030 g / cm^3
# Si number density = 20.266423 Si / 1000 Ang^3
#
#
#
# Elastic Constant Matrix: (Units=GPa)
#
#
# Indices 1 2 3 4 5 6 
#
# 1 114.9413 61.3720 41.0177 0.0000 0.0000 0.0000
# 2 61.3720 120.0833 38.2684 0.0000 0.0000 0.0000
# 3 41.0177 38.2684 136.0206 0.0000 0.0000 0.0000
# 4 0.0000 0.0000 0.0000 20.1159 0.0000 0.0000
# 5 0.0000 0.0000 0.0000 0.0000 20.9359 0.0000
# 6 0.0000 0.0000 0.0000 0.0000 0.0000 19.9643
#
#
#
# Elastic Compliance Matrix: (Units=1/GPa)
#
#
# Indices 1 2 3 4 5 6 
#
# 1 0.012522 -0.005708 -0.002170 0.000000 0.000000 0.000000
# 2 -0.005708 0.011750 -0.001584 0.000000 0.000000 0.000000
# 3 -0.002170 -0.001584 0.008452 0.000000 0.000000 0.000000
# 4 0.000000 0.000000 0.000000 0.049712 0.000000 0.000000
# 5 0.000000 0.000000 0.000000 0.000000 0.047765 0.000000
# 6 0.000000 0.000000 0.000000 0.000000 0.000000 0.050089
#
#
# Mechanical properties :
#
#
# Convention : Reuss Voigt Hill
#
# Bulk Modulus (GPa) = 72.47159 72.48461 72.47810
# Shear Modulus (GPa) = 24.53194 27.56237 26.04715
#
# Velocity S-wave (km/s) = 3.48296 3.69182 3.58891
# Velocity P-wave (km/s) = 7.21192 7.34957 7.28107
#
# Compressibility (1/GPa) = 0.01379851
#
# Stress axis : x y z
#
# Youngs Moduli (GPa) = 79.85638 85.10724 118.31508
#
# Poissons Ratio (x) = 0.48582 0.25677
# Poissons Ratio (y) = 0.45585 0.18745
# Poissons Ratio (z) = 0.17330 0.13484
#
# Static dielectric constant tensor:
#      x y z
#    x 3.941030 0.000000 0.000000 
#    y 0.000000 3.505850 0.000000 
#    z 0.000000 0.000000 3.574160 
# 
# 
# High freq. dielectric constant tensor:
#      x y z
#    x 1.813880 0.000000 0.000000 
#    y 0.000000 1.760660 0.000000 
#    z 0.000000 0.000000 1.789780 
# 
# From -- ./inp_files/8310.got.cif
#   From: 2010.03.12/outbox.cif.g09.slc.cpg/sg40_5_cif.got.tgz:8310.got - 2010.04.14 01:38:03.
