data_PCOD8183780
_publ_section_title
;
Structure prediction by ZEFSAII (Michael W. Deem and Ramdas Pophale) SiO2 
 PCOD8183780
Probable space group: A M A 2
;
_chemical_formula_sum "Si O2"
_cell_formula_units_Z 64
_cell_length_a 8.727319
_cell_length_b 24.939056
_cell_length_c 15.148212
_cell_angle_alpha 90.000000
_cell_angle_beta 90.000000
_cell_angle_gamma 90.000000
_cell_volume 3297.024963
_symmetry_space_group_name_H-M "A M A 2"
_symmetry_group_IT_number 40
_symmetry_cell_setting 'orthorhombic'
loop_
_space_group_symop_operation_xyz
x,y,z
-x,-y,z
1/2-x,y,z
1/2+x,-y,z
x,1/2+y,1/2+z
-x,1/2-y,1/2+z
1/2-x,1/2+y,1/2+z
1/2+x,1/2-y,1/2+z
loop_
_atom_site_type_symbol
_atom_site_label
_atom_site_fract_x
_atom_site_fract_y
_atom_site_fract_z
Si Si1 0.073477 0.233652 0.242210
Si Si2 0.930789 0.170078 0.951764
Si Si3 0.567175 0.556393 0.129194
Si Si4 0.927569 0.363467 0.621962
Si Si5 0.931218 0.941687 0.275180
Si Si6 0.070214 0.782367 0.425496
Si Si7 0.071421 0.853169 0.758392
Si Si8 0.568475 0.392282 0.960447
O O1 0.250000 0.228319 0.274643
O O2 0.042859 0.196394 0.158464
O O3 0.035409 0.294903 0.215924
O O4 0.967174 0.214400 0.321904
O O5 0.750000 0.178084 0.948413
O O6 0.991422 0.145147 0.859113
O O7 0.007725 0.227693 0.967794
O O8 0.978877 0.130427 0.030933
O O9 0.500000 0.500000 0.161400
O O10 0.750000 0.554723 0.128097
O O11 0.498552 0.600803 0.197197
O O12 0.507057 0.568695 0.031646
O O13 0.750000 0.373207 0.601621
O O14 0.989605 0.406490 0.692431
O O15 0.750000 0.945485 0.274417
O O16 0.986587 0.913588 0.365051
O O17 0.000000 0.000000 0.265653
O O18 0.250000 0.785632 0.441802
O O19 0.991828 0.832133 0.475317
O O20 0.250000 0.864268 0.760927
O O21 0.750000 0.393836 0.970497
#
# Coordination Sequence:
#
# PCOD8183780 Si02
#       8
#     8   8   8   8   8   8   8   8
#     4   9  17  35  58  81 115 153 188 236 294 347
#     4  10  21  38  59  85 117 155 195 245 298 350
#     4  11  23  40  60  86 114 152 199 246 297 353
#     4  10  20  36  58  86 119 155 194 241 297 347
#     4  10  22  39  59  82 116 157 194 236 290 347
#     4  11  21  34  55  86 120 156 194 233 285 354
#     4   8  18  37  60  81 110 151 192 236 295 349
#     4  11  22  39  59  85 118 156 194 242 295 347
#
# _framework density 19.411438
#
# number of rings (size 3 to 8) (size 9 to 14) (size 15 to 20)
#    0.000    2.000    1.250    3.375    1.750    3.000 
#    0.000    6.875    0.000    3.000    0.000    0.000 
#    0.000    0.000    0.000    0.000    0.000    0.000 
#
# Total GULP energy -396833.908339 kJ/mol
# GULP energy per Si atom -12401.059636 kJ/mol
# Density = 1.936726 g / cm^3
# Si number density = 19.411438 Si / 1000 Ang^3
#
#
#
# Elastic Constant Matrix: (Units=GPa)
#
#
# Indices 1 2 3 4 5 6 
#
# 1 62.5074 34.5641 30.7866 0.0000 0.0000 0.0000
# 2 34.5641 130.1519 59.6434 0.0000 0.0000 0.0000
# 3 30.7866 59.6434 108.9176 0.0000 0.0000 0.0000
# 4 0.0000 0.0000 0.0000 32.8400 0.0000 0.0000
# 5 0.0000 0.0000 0.0000 0.0000 27.6982 0.0000
# 6 0.0000 0.0000 0.0000 0.0000 0.0000 30.7254
#
#
#
# Elastic Compliance Matrix: (Units=1/GPa)
#
#
# Indices 1 2 3 4 5 6 
#
# 1 0.019767 -0.003590 -0.003621 0.000000 0.000000 0.000000
# 2 -0.003590 0.010909 -0.004959 0.000000 0.000000 0.000000
# 3 -0.003621 -0.004959 0.012921 0.000000 0.000000 0.000000
# 4 0.000000 0.000000 0.000000 0.030451 0.000000 0.000000
# 5 0.000000 0.000000 0.000000 0.000000 0.036103 0.000000
# 6 0.000000 0.000000 0.000000 0.000000 0.000000 0.032546
#
#
# Mechanical properties :
#
#
# Convention : Reuss Voigt Hill
#
# Bulk Modulus (GPa) = 51.93300 61.28501 56.60901
# Shear Modulus (GPa) = 28.82561 30.02490 29.42526
#
# Velocity S-wave (km/s) = 3.85773 3.93716 3.89764
# Velocity P-wave (km/s) = 6.83042 7.23246 7.03431
#
# Compressibility (1/GPa) = 0.01925558
#
# Stress axis : x y z
#
# Youngs Moduli (GPa) = 50.58981 91.66497 77.39588
#
# Poissons Ratio (x) = 0.32906 0.28029
# Poissons Ratio (y) = 0.18161 0.38382
# Poissons Ratio (z) = 0.18321 0.45459
#
# Static dielectric constant tensor:
#      x y z
#    x 3.353730 0.000000 0.000000 
#    y 0.000000 3.610830 0.000000 
#    z 0.000000 0.000000 3.653560 
# 
# 
# High freq. dielectric constant tensor:
#      x y z
#    x 1.741770 0.000000 0.000000 
#    y 0.000000 1.752340 0.000000 
#    z 0.000000 0.000000 1.756240 
# 
# From -- ./inp_files/15674.got.cif
#   From: 2010.03.12/outbox.cif.g09.slc.cpg/sg40_8_cif.got.tgz:15674.got - 2010.04.14 01:38:03.
