data_PCOD8183655
_publ_section_title
;
Structure prediction by ZEFSAII (Michael W. Deem and Ramdas Pophale) SiO2 
 PCOD8183655
Probable space group: A M A 2
;
_chemical_formula_sum "Si O2"
_cell_formula_units_Z 64
_cell_length_a 8.787474
_cell_length_b 20.102946
_cell_length_c 19.664244
_cell_angle_alpha 90.000000
_cell_angle_beta 90.000000
_cell_angle_gamma 90.000000
_cell_volume 3473.769627
_symmetry_space_group_name_H-M "A M A 2"
_symmetry_group_IT_number 40
_symmetry_cell_setting 'orthorhombic'
loop_
_space_group_symop_operation_xyz
x,y,z
-x,-y,z
1/2-x,y,z
1/2+x,-y,z
x,1/2+y,1/2+z
-x,1/2-y,1/2+z
1/2-x,1/2+y,1/2+z
1/2+x,1/2-y,1/2+z
loop_
_atom_site_type_symbol
_atom_site_label
_atom_site_fract_x
_atom_site_fract_y
_atom_site_fract_z
Si Si1 0.571833 0.682150 0.064170
Si Si2 0.429183 0.567822 0.311300
Si Si3 0.928848 0.932015 0.965014
Si Si4 0.423744 0.829028 0.213782
Si Si5 0.429517 0.430005 0.956028
Si Si6 0.071898 0.177738 0.705686
Si Si7 0.070768 0.070064 0.312922
Si Si8 0.425761 0.322012 0.556436
O O1 0.750000 0.698073 0.062855
O O2 0.522989 0.658657 0.138995
O O3 0.480823 0.747510 0.042025
O O4 0.527530 0.624221 0.012110
O O5 0.500000 0.500000 0.281967
O O6 0.250000 0.560376 0.308795
O O7 0.486632 0.580748 0.388061
O O8 0.483584 0.629198 0.265364
O O9 0.750000 0.939687 0.967905
O O10 0.000000 0.000000 0.994069
O O11 0.977379 0.870671 0.010403
O O12 0.250000 0.845502 0.233723
O O13 0.462614 0.752469 0.230444
O O14 0.536420 0.874975 0.256256
O O15 0.452435 0.842326 0.134404
O O16 0.500000 0.500000 0.979547
O O17 0.250000 0.438293 0.947287
O O18 0.499665 0.406777 0.884381
O O19 0.250000 0.170170 0.688162
O O20 0.250000 0.061559 0.321159
O O21 0.000000 0.000000 0.289373
O O22 0.250000 0.327136 0.536319
#
# Coordination Sequence:
#
# PCOD8183655 Si02
#       8
#     8   8   8   8   8   8   8   8
#     4  10  21  36  55  80 108 139 176 218 264 314
#     4   9  19  35  54  78 107 141 178 216 262 311
#     4  10  20  35  55  79 109 143 180 222 265 313
#     4   9  19  36  55  76 105 139 173 213 262 314
#     4  10  21  37  56  78 107 141 176 217 263 313
#     4   9  19  36  56  77 106 142 177 216 262 312
#     4  11  22  36  56  80 106 137 174 217 262 312
#     4  10  21  37  57  80 107 140 177 219 266 315
#
# _framework density 18.42379
#
# number of rings (size 3 to 8) (size 9 to 14) (size 15 to 20)
#    0.000    2.250    0.000    4.125    0.000    7.500 
#    0.000    5.000    0.000    0.000    0.000    0.000 
#    0.000    0.000    0.000    0.000    0.000    0.000 
#
# Total GULP energy -396905.839693 kJ/mol
# GULP energy per Si atom -12403.307490 kJ/mol
# Density = 1.838186 g / cm^3
# Si number density = 18.423790 Si / 1000 Ang^3
#
#
#
# Elastic Constant Matrix: (Units=GPa)
#
#
# Indices 1 2 3 4 5 6 
#
# 1 76.0979 41.7928 38.7286 0.0000 0.0000 0.0000
# 2 41.7928 115.5862 76.5014 0.0000 0.0000 0.0000
# 3 38.7286 76.5014 89.6626 0.0000 0.0000 0.0000
# 4 0.0000 0.0000 0.0000 42.4465 0.0000 0.0000
# 5 0.0000 0.0000 0.0000 0.0000 25.1134 0.0000
# 6 0.0000 0.0000 0.0000 0.0000 0.0000 33.9631
#
#
#
# Elastic Compliance Matrix: (Units=1/GPa)
#
#
# Indices 1 2 3 4 5 6 
#
# 1 0.017287 -0.003006 -0.004902 0.000000 0.000000 0.000000
# 2 -0.003006 0.020398 -0.016105 0.000000 0.000000 0.000000
# 3 -0.004902 -0.016105 0.027012 0.000000 0.000000 0.000000
# 4 0.000000 0.000000 0.000000 0.023559 0.000000 0.000000
# 5 0.000000 0.000000 0.000000 0.000000 0.039819 0.000000
# 6 0.000000 0.000000 0.000000 0.000000 0.000000 0.029444
#
#
# Mechanical properties :
#
#
# Convention : Reuss Voigt Hill
#
# Bulk Modulus (GPa) = 59.99004 66.15471 63.07238
# Shear Modulus (GPa) = 23.68532 28.59286 26.13909
#
# Velocity S-wave (km/s) = 3.58939 3.94376 3.77074
# Velocity P-wave (km/s) = 7.05763 7.53145 7.29839
#
# Compressibility (1/GPa) = 0.01666943
#
# Stress axis : x y z
#
# Youngs Moduli (GPa) = 57.84822 49.02486 37.02113
#
# Poissons Ratio (x) = 0.14736 0.18148
# Poissons Ratio (y) = 0.17389 0.59624
# Poissons Ratio (z) = 0.28358 0.78956
#
# Static dielectric constant tensor:
#      x y z
#    x 3.416580 0.000000 0.000000 
#    y 0.000000 3.402970 0.000000 
#    z 0.000000 0.000000 3.432480 
# 
# 
# High freq. dielectric constant tensor:
#      x y z
#    x 1.721790 0.000000 0.000000 
#    y 0.000000 1.719590 0.000000 
#    z 0.000000 0.000000 1.712670 
# 
# From -- ./inp_files/19629.got.cif
#   From: 2010.03.12/outbox.cif.g09.slc.cpg/sg40_10_cif.got.tgz:19629.got - 2010.04.14 01:38:03.
