data_PCOD8183619
_publ_section_title
;
Structure prediction by ZEFSAII (Michael W. Deem and Ramdas Pophale) SiO2 
 PCOD8183619
Probable space group: A M A 2
;
_chemical_formula_sum "Si O2"
_cell_formula_units_Z 40
_cell_length_a 19.220441
_cell_length_b 21.698428
_cell_length_c 4.911306
_cell_angle_alpha 90.000000
_cell_angle_beta 90.000000
_cell_angle_gamma 90.000000
_cell_volume 2048.276646
_symmetry_space_group_name_H-M "A M A 2"
_symmetry_group_IT_number 40
_symmetry_cell_setting 'orthorhombic'
loop_
_space_group_symop_operation_xyz
x,y,z
-x,-y,z
1/2-x,y,z
1/2+x,-y,z
x,1/2+y,1/2+z
-x,1/2-y,1/2+z
1/2-x,1/2+y,1/2+z
1/2+x,1/2-y,1/2+z
loop_
_atom_site_type_symbol
_atom_site_label
_atom_site_fract_x
_atom_site_fract_y
_atom_site_fract_z
Si Si1 0.568109 0.533535 0.389680
Si Si2 0.546375 0.111605 0.409924
Si Si3 0.609521 0.858243 0.543889
Si Si4 0.045303 0.260494 0.667160
Si Si5 0.669412 0.924596 0.032808
O O1 0.500000 0.500000 0.265760
O O2 0.543040 0.565218 0.662713
O O3 0.630431 0.488198 0.467215
O O4 0.592684 0.582699 0.156616
O O5 0.469356 0.119319 0.526278
O O6 0.576359 0.176726 0.297528
O O7 0.606274 0.783139 0.540976
O O8 0.655258 0.893498 0.322707
O O9 0.644795 0.872712 0.827782
O O10 0.993768 0.276327 0.414061
O O11 0.750000 0.940414 0.008324
#
# Coordination Sequence:
#
# PCOD8183619 Si02
#       5
#     8   8   8   8   8
#     4  12  21  36  59  86 121 153 196 248 300 356
#     4  11  20  35  60  90 115 150 190 251 306 345
#     4  11  20  38  59  84 121 149 194 250 302 357
#     4  10  20  34  57  91 120 146 185 245 309 358
#     4  12  25  38  57  84 119 163 201 243 300 364
#
# _framework density 19.528614000000001
#
# number of rings (size 3 to 8) (size 9 to 14) (size 15 to 20)
#    0.000    0.800    4.000    7.200    0.000    0.000 
#    0.000    0.000    0.000    7.200    0.000    0.000 
#    0.000    0.000    0.000    0.000    0.000    0.000 
#
# Total GULP energy -247870.431762 kJ/mol
# GULP energy per Si atom -12393.521588 kJ/mol
# Density = 1.948417 g / cm^3
# Si number density = 19.528614 Si / 1000 Ang^3
#
#
#
# Elastic Constant Matrix: (Units=GPa)
#
#
# Indices 1 2 3 4 5 6 
#
# 1 49.7375 55.0965 -11.2556 0.0000 0.0000 0.0000
# 2 55.0965 118.8401 18.1647 0.0000 0.0000 0.0000
# 3 -11.2556 18.1647 50.2404 0.0000 0.0000 0.0000
# 4 0.0000 0.0000 0.0000 64.3026 0.0000 0.0000
# 5 0.0000 0.0000 0.0000 0.0000 49.6310 0.0000
# 6 0.0000 0.0000 0.0000 0.0000 0.0000 13.1524
#
#
#
# Elastic Compliance Matrix: (Units=1/GPa)
#
#
# Indices 1 2 3 4 5 6 
#
# 1 0.062359 -0.032862 0.025852 0.000000 0.000000 0.000000
# 2 -0.032862 0.026225 -0.016844 0.000000 0.000000 0.000000
# 3 0.025852 -0.016844 0.031786 0.000000 0.000000 0.000000
# 4 0.000000 0.000000 0.000000 0.015551 0.000000 0.000000
# 5 0.000000 0.000000 0.000000 0.000000 0.020149 0.000000
# 6 0.000000 0.000000 0.000000 0.000000 0.000000 0.076032
#
#
# Mechanical properties :
#
#
# Convention : Reuss Voigt Hill
#
# Bulk Modulus (GPa) = 13.76247 38.09213 25.92730
# Shear Modulus (GPa) = 16.44574 35.87137 26.15856
#
# Velocity S-wave (km/s) = 2.90511 4.29051 3.66389
# Velocity P-wave (km/s) = 4.27966 6.64024 5.58607
#
# Compressibility (1/GPa) = 0.07266139
#
# Stress axis : x y z
#
# Youngs Moduli (GPa) = 16.03624 38.13187 31.46030
#
# Poissons Ratio (x) = 1.25310 -0.81331
# Poissons Ratio (y) = 0.52699 0.52992
# Poissons Ratio (z) = -0.41457 0.64229
#
# Static dielectric constant tensor:
#      x y z
#    x 2.700140 0.000000 0.000000 
#    y 0.000000 3.757930 0.000000 
#    z 0.000000 0.000000 3.914150 
# 
# 
# High freq. dielectric constant tensor:
#      x y z
#    x 1.693320 0.000000 0.000000 
#    y 0.000000 1.776050 0.000000 
#    z 0.000000 0.000000 1.792700 
# 
# From -- ./inp_files/1806.got.cif
#   From: 2010.03.12/outbox.cif.g09.slc.cpg/sg40_1_cif.got.tgz:1806.got - 2010.04.14 01:38:03.
