data_PCOD8183468
_publ_section_title
;
Structure prediction by ZEFSAII (Michael W. Deem and Ramdas Pophale) SiO2 
 PCOD8183468
Probable space group: A M A 2
;
_chemical_formula_sum "Si O2"
_cell_formula_units_Z 64
_cell_length_a 9.411066
_cell_length_b 28.184479
_cell_length_c 12.551468
_cell_angle_alpha 90.000000
_cell_angle_beta 90.000000
_cell_angle_gamma 90.000000
_cell_volume 3329.226581
_symmetry_space_group_name_H-M "A M A 2"
_symmetry_group_IT_number 40
_symmetry_cell_setting 'orthorhombic'
loop_
_space_group_symop_operation_xyz
x,y,z
-x,-y,z
1/2-x,y,z
1/2+x,-y,z
x,1/2+y,1/2+z
-x,1/2-y,1/2+z
1/2-x,1/2+y,1/2+z
1/2+x,1/2-y,1/2+z
loop_
_atom_site_type_symbol
_atom_site_label
_atom_site_fract_x
_atom_site_fract_y
_atom_site_fract_z
Si Si1 0.082573 0.291825 0.348670
Si Si2 0.917254 0.896502 0.366654
Si Si3 0.591856 0.917442 0.137212
Si Si4 0.585141 0.696929 0.807286
Si Si5 0.084456 0.621213 0.268091
Si Si6 0.907423 0.666622 0.573278
Si Si7 0.592117 0.958417 0.924686
Si Si8 0.416903 0.049008 0.578893
O O1 0.250000 0.287928 0.321036
O O2 0.053612 0.302039 0.472159
O O3 0.003959 0.242395 0.338162
O O4 0.012035 0.331519 0.271449
O O5 0.750000 0.883409 0.375042
O O6 0.954313 0.927479 0.259361
O O7 0.964128 0.928739 0.465662
O O8 0.010340 0.848708 0.361411
O O9 0.750000 0.897118 0.142023
O O10 0.504889 0.878305 0.076900
O O11 0.581673 0.961193 0.054464
O O12 0.750000 0.699234 0.845333
O O13 0.576190 0.697127 0.679849
O O14 0.250000 0.636334 0.262920
O O15 0.047169 0.592140 0.375659
O O16 0.043791 0.588203 0.167659
O O17 0.750000 0.645986 0.561943
O O18 0.750000 0.969296 0.884877
O O19 0.500000 0.000000 0.873795
O O20 0.250000 0.037349 0.580791
O O21 0.500000 0.000000 0.598904
#
# Coordination Sequence:
#
# PCOD8183468 Si02
#       8
#     8   8   8   8   8   8   8   8
#     4  11  22  36  57  84 112 146 189 236 287 343
#     4   9  19  37  58  81 112 148 189 235 284 333
#     4   9  17  32  54  77 103 137 176 221 272 326
#     4  10  21  37  57  83 113 149 189 233 286 343
#     4  10  21  38  56  78 110 148 190 234 283 337
#     4   9  19  35  54  76 105 139 176 222 275 328
#     4  10  20  32  50  77 106 137 174 219 271 324
#     4  10  22  39  60  84 116 158 198 242 293 346
#
# _framework density 19.223683999999999
#
# number of rings (size 3 to 8) (size 9 to 14) (size 15 to 20)
#    0.000    2.250    1.250    1.125    0.000    4.500 
#    0.000    5.000    0.000    0.000    0.000    0.000 
#    0.000    0.000    0.000    0.000    0.000    0.000 
#
# Total GULP energy -396537.525997 kJ/mol
# GULP energy per Si atom -12391.797687 kJ/mol
# Density = 1.917993 g / cm^3
# Si number density = 19.223684 Si / 1000 Ang^3
#
#
#
# Elastic Constant Matrix: (Units=GPa)
#
#
# Indices 1 2 3 4 5 6 
#
# 1 72.6878 37.5266 28.4974 0.0000 0.0000 0.0000
# 2 37.5266 63.8986 25.2255 0.0000 0.0000 0.0000
# 3 28.4974 25.2255 94.1105 0.0000 0.0000 0.0000
# 4 0.0000 0.0000 0.0000 20.0705 0.0000 0.0000
# 5 0.0000 0.0000 0.0000 0.0000 23.2157 0.0000
# 6 0.0000 0.0000 0.0000 0.0000 0.0000 34.2466
#
#
#
# Elastic Compliance Matrix: (Units=1/GPa)
#
#
# Indices 1 2 3 4 5 6 
#
# 1 0.020651 -0.010802 -0.003358 0.000000 0.000000 0.000000
# 2 -0.010802 0.023152 -0.002935 0.000000 0.000000 0.000000
# 3 -0.003358 -0.002935 0.012429 0.000000 0.000000 0.000000
# 4 0.000000 0.000000 0.000000 0.049824 0.000000 0.000000
# 5 0.000000 0.000000 0.000000 0.000000 0.043074 0.000000
# 6 0.000000 0.000000 0.000000 0.000000 0.000000 0.029200
#
#
# Mechanical properties :
#
#
# Convention : Reuss Voigt Hill
#
# Bulk Modulus (GPa) = 45.36650 45.91065 45.63858
# Shear Modulus (GPa) = 22.74088 24.80305 23.77197
#
# Velocity S-wave (km/s) = 3.44315 3.59588 3.52034
# Velocity P-wave (km/s) = 6.28153 6.41675 6.34950
#
# Compressibility (1/GPa) = 0.02204270
#
# Stress axis : x y z
#
# Youngs Moduli (GPa) = 48.42418 43.19206 80.45567
#
# Poissons Ratio (x) = 0.46658 0.27015
# Poissons Ratio (y) = 0.52310 0.23612
# Poissons Ratio (z) = 0.16260 0.12676
#
# Static dielectric constant tensor:
#      x y z
#    x 3.600550 0.000000 0.000000 
#    y 0.000000 3.418600 0.000000 
#    z 0.000000 0.000000 3.975170 
# 
# 
# High freq. dielectric constant tensor:
#      x y z
#    x 1.750800 0.000000 0.000000 
#    y 0.000000 1.731630 0.000000 
#    z 0.000000 0.000000 1.759140 
# 
# From -- ./inp_files/10632.got.cif
#   From: 2010.03.12/outbox.cif.g09.slc.cpg/sg40_6_cif.got.tgz:10632.got - 2010.04.14 01:38:03.
