data_PCOD8183014
_publ_section_title
;
Structure prediction by ZEFSAII (Michael W. Deem and Ramdas Pophale) SiO2 
 PCOD8183014
Probable space group: A M A 2
;
_chemical_formula_sum "Si O2"
_cell_formula_units_Z 64
_cell_length_a 8.934049
_cell_length_b 16.263608
_cell_length_c 22.224439
_cell_angle_alpha 90.000000
_cell_angle_beta 90.000000
_cell_angle_gamma 90.000000
_cell_volume 3229.208115
_symmetry_space_group_name_H-M "A M A 2"
_symmetry_group_IT_number 40
_symmetry_cell_setting 'orthorhombic'
loop_
_space_group_symop_operation_xyz
x,y,z
-x,-y,z
1/2-x,y,z
1/2+x,-y,z
x,1/2+y,1/2+z
-x,1/2-y,1/2+z
1/2-x,1/2+y,1/2+z
1/2+x,1/2-y,1/2+z
loop_
_atom_site_type_symbol
_atom_site_label
_atom_site_fract_x
_atom_site_fract_y
_atom_site_fract_z
Si Si1 0.568895 0.415882 0.132740
Si Si2 0.577850 0.922288 0.228555
Si Si3 0.924698 0.232089 0.557852
Si Si4 0.419138 0.788884 0.297841
Si Si5 0.422415 0.370546 0.256055
Si Si6 0.584356 0.577504 0.387816
Si Si7 0.082143 0.236082 0.926788
Si Si8 0.926369 0.416034 0.592840
O O1 0.500000 0.500000 0.102886
O O2 0.750000 0.420161 0.135209
O O3 0.520073 0.333395 0.096575
O O4 0.495384 0.415170 0.199001
O O5 0.750000 0.940279 0.226991
O O6 0.543142 0.846739 0.270491
O O7 0.517335 0.907708 0.161425
O O8 0.500000 0.000000 0.258961
O O9 0.750000 0.222731 0.576214
O O10 0.953924 0.212549 0.487327
O O11 0.976570 0.327948 0.564879
O O12 0.250000 0.809590 0.276947
O O13 0.463107 0.701113 0.272374
O O14 0.433234 0.796412 0.369883
O O15 0.250000 0.342668 0.241785
O O16 0.422009 0.427280 0.315155
O O17 0.500000 0.500000 0.415328
O O18 0.750000 0.569682 0.411866
O O19 0.525361 0.659922 0.417610
O O20 0.250000 0.200093 0.930753
O O21 0.750000 0.426875 0.586315
O O22 0.000000 0.500000 0.564713
#
# Coordination Sequence:
#
# PCOD8183014 Si02
#       8
#     8   8   8   8   8   8   8   8
#     4  12  25  40  60  86 114 148 189 238 290 344
#     4  10  19  32  51  77 107 139 175 221 276 333
#     4  10  21  40  61  82 112 151 191 234 281 332
#     4  10  19  33  54  81 110 142 180 224 276 333
#     4  10  20  35  56  83 113 146 181 223 277 338
#     4  10  20  33  53  80 112 146 181 222 271 328
#     4   9  20  37  56  77 106 143 183 226 274 326
#     4   9  19  34  55  82 113 145 179 220 269 326
#
# _framework density 19.819101
#
# number of rings (size 3 to 8) (size 9 to 14) (size 15 to 20)
#    0.000    2.000    0.000    3.750    0.000    6.000 
#    0.000    1.875    0.000    0.000    0.000    0.000 
#    0.000    0.000    0.000    0.000    0.000    0.000 
#
# Total GULP energy -396553.406433 kJ/mol
# GULP energy per Si atom -12392.293951 kJ/mol
# Density = 1.977399 g / cm^3
# Si number density = 19.819101 Si / 1000 Ang^3
#
#
#
# Elastic Constant Matrix: (Units=GPa)
#
#
# Indices 1 2 3 4 5 6 
#
# 1 93.8809 21.8782 31.4712 0.0000 0.0000 0.0000
# 2 21.8782 72.1140 22.3152 0.0000 0.0000 0.0000
# 3 31.4712 22.3152 68.6170 0.0000 0.0000 0.0000
# 4 0.0000 0.0000 0.0000 2.2258 0.0000 0.0000
# 5 0.0000 0.0000 0.0000 0.0000 -36.1227 0.0000
# 6 0.0000 0.0000 0.0000 0.0000 0.0000 36.7811
#
#
#
# Elastic Compliance Matrix: (Units=1/GPa)
#
#
# Indices 1 2 3 4 5 6 
#
# 1 0.012927 -0.002321 -0.005174 0.000000 0.000000 0.000000
# 2 -0.002321 0.015835 -0.004085 0.000000 0.000000 0.000000
# 3 -0.005174 -0.004085 0.018275 0.000000 0.000000 0.000000
# 4 0.000000 0.000000 0.000000 0.449280 0.000000 0.000000
# 5 0.000000 0.000000 0.000000 0.000000 -0.027683 0.000000
# 6 0.000000 0.000000 0.000000 0.000000 0.000000 0.027188
#
#
# Mechanical properties :
#
#
# Convention : Reuss Voigt Hill
#
# Bulk Modulus (GPa) = 41.88145 42.88234 42.38190
# Shear Modulus (GPa) = 9.48870 11.17332 10.33101
#
# Velocity S-wave (km/s) = 2.19044 2.37695 2.28560
# Velocity P-wave (km/s) = 5.25120 5.40528 5.32880
#
# Compressibility (1/GPa) = 0.02387692
#
# Stress axis : x y z
#
# Youngs Moduli (GPa) = 77.35635 63.15041 54.71808
#
# Poissons Ratio (x) = 0.14656 0.28313
# Poissons Ratio (y) = 0.17952 0.22355
# Poissons Ratio (z) = 0.40027 0.25800
#
# Static dielectric constant tensor:
#      x y z
#    x 4.098360 0.000000 0.000000 
#    y 0.000000 4.607890 0.000000 
#    z 0.000000 0.000000 3.683890 
# 
# 
# High freq. dielectric constant tensor:
#      x y z
#    x 1.778430 0.000000 0.000000 
#    y 0.000000 1.763850 0.000000 
#    z 0.000000 0.000000 1.764940 
# 
# From -- ./inp_files/24286.got.cif
#   From: 2010.03.12/outbox.cif.g09.slc.cpg/sg40_13_cif.got.tgz:24286.got - 2010.04.14 01:38:03.
