data_PCOD8183824
_publ_section_title
;
Structure prediction by ZEFSAII (Michael W. Deem and Ramdas Pophale) SiO2 
 PCOD8183824
Probable space group: A M A 2
;
_chemical_formula_sum "Si O2"
_cell_formula_units_Z 60
_cell_length_a 19.650126
_cell_length_b 19.766931
_cell_length_c 8.312079
_cell_angle_alpha 90.000000
_cell_angle_beta 90.000000
_cell_angle_gamma 90.000000
_cell_volume 3228.600041
_symmetry_space_group_name_H-M "A M A 2"
_symmetry_group_IT_number 40
_symmetry_cell_setting 'orthorhombic'
loop_
_space_group_symop_operation_xyz
x,y,z
-x,-y,z
1/2-x,y,z
1/2+x,-y,z
x,1/2+y,1/2+z
-x,1/2-y,1/2+z
1/2-x,1/2+y,1/2+z
1/2+x,1/2-y,1/2+z
loop_
_atom_site_type_symbol
_atom_site_label
_atom_site_fract_x
_atom_site_fract_y
_atom_site_fract_z
Si Si1 0.674715 0.309631 0.669310
Si Si2 0.909633 0.403342 0.245395
Si Si3 0.065268 0.461411 0.713954
Si Si4 0.570607 0.193765 0.160063
Si Si5 0.673205 0.457861 0.528164
Si Si6 0.554879 0.277986 0.453350
Si Si7 0.500000 0.500000 0.027992
Si Si8 0.829659 0.298391 0.037650
O O1 0.750000 0.277243 0.649408
O O2 0.675837 0.385848 0.611166
O O3 0.621469 0.268749 0.563250
O O4 0.650576 0.307047 0.852528
O O5 0.866371 0.454685 0.357534
O O6 0.947969 0.348488 0.355956
O O7 0.858408 0.363307 0.130083
O O8 0.964435 0.444390 0.140641
O O9 0.068548 0.386257 0.644384
O O10 0.135143 0.494636 0.655882
O O11 0.000000 0.500000 0.634246
O O12 0.056626 0.464978 0.909409
O O13 0.556149 0.212061 0.343641
O O14 0.641358 0.227090 0.102929
O O15 0.512267 0.228605 0.056618
O O16 0.750000 0.485214 0.499267
O O17 0.750000 0.296504 0.068483
#
# Coordination Sequence:
#
# PCOD8183824 Si02
#       8
#     8   8   8   8   8   8   4   8
#     4   9  18  36  61  86 116 153 196 241 288 349
#     4  10  21  36  60  91 118 156 196 258 292 360
#     4  10  23  39  58  84 119 161 201 243 301 367
#     4  11  23  36  58  83 115 151 193 246 297 355
#     4  10  20  36  61  88 119 159 202 245 298 363
#     4  10  22  34  57  84 115 149 197 241 302 346
#     4  10  24  36  62  86 124 156 204 244 312 358
#     4  10  21  38  60  87 120 156 198 246 298 353
#
# _framework density 18.583905999999999
#
# number of rings (size 3 to 8) (size 9 to 14) (size 15 to 20)
#    0.400    1.600    0.000    3.600    8.400    3.733 
#    0.000    0.667    0.000    0.000    0.000    0.000 
#    0.000    0.000    0.000    0.000    0.000    0.000 
#
# Total GULP energy -371937.152335 kJ/mol
# GULP energy per Si atom -12397.905078 kJ/mol
# Density = 1.854161 g / cm^3
# Si number density = 18.583906 Si / 1000 Ang^3
#
#
#
# Elastic Constant Matrix: (Units=GPa)
#
#
# Indices 1 2 3 4 5 6 
#
# 1 105.7849 46.1823 53.6798 0.0000 0.0000 0.0000
# 2 46.1823 44.2445 29.6149 0.0000 0.0000 0.0000
# 3 53.6798 29.6149 114.9598 0.0000 0.0000 0.0000
# 4 0.0000 0.0000 0.0000 19.1052 0.0000 0.0000
# 5 0.0000 0.0000 0.0000 0.0000 28.6763 0.0000
# 6 0.0000 0.0000 0.0000 0.0000 0.0000 25.2260
#
#
#
# Elastic Compliance Matrix: (Units=1/GPa)
#
#
# Indices 1 2 3 4 5 6 
#
# 1 0.019182 -0.016950 -0.004591 0.000000 0.000000 0.000000
# 2 -0.016950 0.042288 -0.002979 0.000000 0.000000 0.000000
# 3 -0.004591 -0.002979 0.011610 0.000000 0.000000 0.000000
# 4 0.000000 0.000000 0.000000 0.052342 0.000000 0.000000
# 5 0.000000 0.000000 0.000000 0.000000 0.034872 0.000000
# 6 0.000000 0.000000 0.000000 0.000000 0.000000 0.039642
#
#
# Mechanical properties :
#
#
# Convention : Reuss Voigt Hill
#
# Bulk Modulus (GPa) = 41.59602 58.21590 49.90596
# Shear Modulus (GPa) = 19.45615 23.63567 21.54591
#
# Velocity S-wave (km/s) = 3.23915 3.57015 3.40867
# Velocity P-wave (km/s) = 6.03497 6.95619 6.51189
#
# Compressibility (1/GPa) = 0.02404076
#
# Stress axis : x y z
#
# Youngs Moduli (GPa) = 52.13127 23.64742 86.13451
#
# Poissons Ratio (x) = 0.40082 0.39541
# Poissons Ratio (y) = 0.88361 0.25661
# Poissons Ratio (z) = 0.23932 0.07045
#
# Static dielectric constant tensor:
#      x y z
#    x 3.631490 0.000000 0.000000 
#    y 0.000000 3.244910 0.000000 
#    z 0.000000 0.000000 3.624830 
# 
# 
# High freq. dielectric constant tensor:
#      x y z
#    x 1.725200 0.000000 0.000000 
#    y 0.000000 1.699480 0.000000 
#    z 0.000000 0.000000 1.735150 
# 
# From -- ./inp_files/7679.got.cif
#   From: 2010.03.12/outbox.cif.g09.slc.cpg/sg40_4_cif.got.tgz:7679.got - 2010.04.14 01:38:03.
