data_PCOD8183439
_publ_section_title
;
Structure prediction by ZEFSAII (Michael W. Deem and Ramdas Pophale) SiO2 
 PCOD8183439
Probable space group: A M A 2
;
_chemical_formula_sum "Si O2"
_cell_formula_units_Z 32
_cell_length_a 15.061173
_cell_length_b 10.974126
_cell_length_c 9.267556
_cell_angle_alpha 90.000000
_cell_angle_beta 90.000000
_cell_angle_gamma 90.000000
_cell_volume 1531.771406
_symmetry_space_group_name_H-M "A M A 2"
_symmetry_group_IT_number 40
_symmetry_cell_setting 'orthorhombic'
loop_
_space_group_symop_operation_xyz
x,y,z
-x,-y,z
1/2-x,y,z
1/2+x,-y,z
x,1/2+y,1/2+z
-x,1/2-y,1/2+z
1/2-x,1/2+y,1/2+z
1/2+x,1/2-y,1/2+z
loop_
_atom_site_type_symbol
_atom_site_label
_atom_site_fract_x
_atom_site_fract_y
_atom_site_fract_z
Si Si1 0.000000 0.500000 0.859051
Si Si2 0.614742 0.685980 0.985673
Si Si3 0.750000 0.775271 0.752362
Si Si4 0.250000 0.943505 0.678491
Si Si5 0.750000 0.108053 0.989349
Si Si6 0.350263 0.078381 0.146760
O O1 0.090113 0.525646 0.773424
O O2 0.020698 0.378000 0.950986
O O3 0.665467 0.584834 0.080339
O O4 0.598904 0.806246 0.080319
O O5 0.665044 0.725829 0.839651
O O6 0.750000 0.920414 0.741607
O O7 0.750000 0.727771 0.588723
O O8 0.250000 0.856406 0.820985
O O9 0.661894 0.027338 0.026449
O O10 0.250000 0.114632 0.201974
#
# Coordination Sequence:
#
# PCOD8183439 Si02
#       6
#     4   8   4   4   4   8
#     4  12  26  42  70 108 134 188 234 284 354 412
#     4  11  23  44  65 103 139 170 229 291 330 416
#     4  11  19  41  74  94 128 177 223 275 342 410
#     4  11  22  39  71 101 128 179 230 274 346 411
#     4  10  19  40  71  95 126 188 215 269 356 403
#     4  10  21  46  71  94 137 181 220 289 347 404
#
# _framework density 20.890847000000001
#
# number of rings (size 3 to 8) (size 9 to 14) (size 15 to 20)
#    0.750    0.500    7.500    0.000    1.750    4.000 
#    4.500    0.000    0.000    0.000    0.000    0.000 
#    0.000    0.000    0.000    0.000    0.000    0.000 
#
# Total GULP energy -198274.700456 kJ/mol
# GULP energy per Si atom -12392.168778 kJ/mol
# Density = 2.084330 g / cm^3
# Si number density = 20.890847 Si / 1000 Ang^3
#
#
#
# Elastic Constant Matrix: (Units=GPa)
#
#
# Indices 1 2 3 4 5 6 
#
# 1 49.4212 2.5627 30.9316 0.0000 0.0000 0.0000
# 2 2.5627 69.1985 38.9039 0.0000 0.0000 0.0000
# 3 30.9316 38.9039 105.7606 0.0000 0.0000 0.0000
# 4 0.0000 0.0000 0.0000 26.4134 0.0000 0.0000
# 5 0.0000 0.0000 0.0000 0.0000 13.4197 0.0000
# 6 0.0000 0.0000 0.0000 0.0000 0.0000 10.0806
#
#
#
# Elastic Compliance Matrix: (Units=1/GPa)
#
#
# Indices 1 2 3 4 5 6 
#
# 1 0.025668 0.004123 -0.009024 0.000000 0.000000 0.000000
# 2 0.004123 0.018881 -0.008151 0.000000 0.000000 0.000000
# 3 -0.009024 -0.008151 0.015093 0.000000 0.000000 0.000000
# 4 0.000000 0.000000 0.000000 0.037860 0.000000 0.000000
# 5 0.000000 0.000000 0.000000 0.000000 0.074517 0.000000
# 6 0.000000 0.000000 0.000000 0.000000 0.000000 0.099200
#
#
# Mechanical properties :
#
#
# Convention : Reuss Voigt Hill
#
# Bulk Modulus (GPa) = 29.81715 41.01961 35.41838
# Shear Modulus (GPa) = 16.20733 20.11490 18.16111
#
# Velocity S-wave (km/s) = 2.78836 3.10636 2.95164
# Velocity P-wave (km/s) = 4.96693 5.70472 5.34856
#
# Compressibility (1/GPa) = 0.03353774
#
# Stress axis : x y z
#
# Youngs Moduli (GPa) = 38.95889 52.96291 66.25676
#
# Poissons Ratio (x) = -0.21834 0.59787
# Poissons Ratio (y) = -0.16061 0.54007
# Poissons Ratio (z) = 0.35155 0.43171
#
# Static dielectric constant tensor:
#      x y z
#    x 3.399850 0.000000 0.000000 
#    y 0.000000 3.815590 0.000000 
#    z 0.000000 0.000000 3.693270 
# 
# 
# High freq. dielectric constant tensor:
#      x y z
#    x 1.782580 0.000000 0.000000 
#    y 0.000000 1.832000 0.000000 
#    z 0.000000 0.000000 1.817520 
# 
# From -- ./inp_files/5939.got.cif
#   From: 2010.03.12/outbox.cif.g09.slc.cpg/sg40_3_cif.got.tgz:5939.got - 2010.04.14 01:38:03.
