data_PCOD8183702
_publ_section_title
;
Structure prediction by ZEFSAII (Michael W. Deem and Ramdas Pophale) SiO2 
 PCOD8183702
Probable space group: A M A 2
;
_chemical_formula_sum "Si O2"
_cell_formula_units_Z 64
_cell_length_a 17.801749
_cell_length_b 11.940167
_cell_length_c 15.705377
_cell_angle_alpha 90.000000
_cell_angle_beta 90.000000
_cell_angle_gamma 90.000000
_cell_volume 3338.269851
_symmetry_space_group_name_H-M "A M A 2"
_symmetry_group_IT_number 40
_symmetry_cell_setting 'orthorhombic'
loop_
_space_group_symop_operation_xyz
x,y,z
-x,-y,z
1/2-x,y,z
1/2+x,-y,z
x,1/2+y,1/2+z
-x,1/2-y,1/2+z
1/2-x,1/2+y,1/2+z
1/2+x,1/2-y,1/2+z
loop_
_atom_site_type_symbol
_atom_site_label
_atom_site_fract_x
_atom_site_fract_y
_atom_site_fract_z
Si Si1 0.399406 0.214297 0.778870
Si Si2 0.336598 0.431603 0.039207
Si Si3 0.087892 0.479212 0.213258
Si Si4 0.580096 0.017807 0.003213
Si Si5 0.662632 0.187789 0.113246
Si Si6 0.664063 0.843214 0.455571
Si Si7 0.065196 0.812404 0.848544
Si Si8 0.664795 0.795878 0.951927
O O1 0.386523 0.295987 0.698532
O O2 0.483803 0.225852 0.815211
O O3 0.342814 0.244882 0.854652
O O4 0.373916 0.090216 0.750252
O O5 0.250000 0.435777 0.067930
O O6 0.388739 0.458494 0.117779
O O7 0.350437 0.524008 0.965238
O O8 0.360625 0.309409 0.008213
O O9 0.109615 0.371326 0.270550
O O10 0.000000 0.500000 0.217133
O O11 0.638342 0.071569 0.069266
O O12 0.500000 0.000000 0.050019
O O13 0.561051 0.096463 0.923144
O O14 0.611750 0.900149 0.971019
O O15 0.750000 0.181204 0.137496
O O16 0.645954 0.287760 0.047099
O O17 0.750000 0.816688 0.429800
O O18 0.610767 0.796088 0.380976
O O19 0.750000 0.829946 0.971504
#
# Coordination Sequence:
#
# PCOD8183702 Si02
#       8
#     8   8   8   8   8   8   8   8
#     4  11  20  38  60  88 121 153 200 253 303 354
#     4  10  22  39  57  86 121 157 198 241 296 362
#     4  10  20  35  58  86 116 148 196 250 300 350
#     4  11  20  39  62  86 123 159 197 254 303 355
#     4  10  21  36  61  93 120 154 202 252 299 359
#     4   9  19  37  59  85 120 159 200 247 301 359
#     4  10  20  36  59  92 120 149 202 257 306 358
#     4  11  23  38  60  86 120 162 201 244 302 364
#
# _framework density 19.171607000000002
#
# number of rings (size 3 to 8) (size 9 to 14) (size 15 to 20)
#    0.000    1.750    3.750    1.125    0.000    4.500 
#    0.000    2.500    0.000    3.000    0.000    0.000 
#    0.000    0.000    0.000    0.000    0.000    0.000 
#
# Total GULP energy -396778.450055 kJ/mol
# GULP energy per Si atom -12399.326564 kJ/mol
# Density = 1.912797 g / cm^3
# Si number density = 19.171607 Si / 1000 Ang^3
#
#
#
# Elastic Constant Matrix: (Units=GPa)
#
#
# Indices 1 2 3 4 5 6 
#
# 1 73.9775 41.6545 47.4025 0.0000 0.0000 0.0000
# 2 41.6545 68.6126 36.8557 0.0000 0.0000 0.0000
# 3 47.4025 36.8557 97.2444 0.0000 0.0000 0.0000
# 4 0.0000 0.0000 0.0000 32.8040 0.0000 0.0000
# 5 0.0000 0.0000 0.0000 0.0000 29.0296 0.0000
# 6 0.0000 0.0000 0.0000 0.0000 0.0000 23.7272
#
#
#
# Elastic Compliance Matrix: (Units=1/GPa)
#
#
# Indices 1 2 3 4 5 6 
#
# 1 0.024630 -0.010677 -0.007959 0.000000 0.000000 0.000000
# 2 -0.010677 0.022929 -0.003485 0.000000 0.000000 0.000000
# 3 -0.007959 -0.003485 0.015484 0.000000 0.000000 0.000000
# 4 0.000000 0.000000 0.000000 0.030484 0.000000 0.000000
# 5 0.000000 0.000000 0.000000 0.000000 0.034448 0.000000
# 6 0.000000 0.000000 0.000000 0.000000 0.000000 0.042146
#
#
# Mechanical properties :
#
#
# Convention : Reuss Voigt Hill
#
# Bulk Modulus (GPa) = 53.19435 54.62888 53.91162
# Shear Modulus (GPa) = 22.66235 24.70693 23.68464
#
# Velocity S-wave (km/s) = 3.44187 3.59378 3.51864
# Velocity P-wave (km/s) = 6.60318 6.76586 6.68501
#
# Compressibility (1/GPa) = 0.01879899
#
# Stress axis : x y z
#
# Youngs Moduli (GPa) = 40.60137 43.61312 64.58226
#
# Poissons Ratio (x) = 0.46567 0.51403
# Poissons Ratio (y) = 0.43351 0.22509
# Poissons Ratio (z) = 0.32316 0.15201
#
# Static dielectric constant tensor:
#      x y z
#    x 3.443430 0.000000 0.000000 
#    y 0.000000 3.569120 0.000000 
#    z 0.000000 0.000000 3.426480 
# 
# 
# High freq. dielectric constant tensor:
#      x y z
#    x 1.745340 0.000000 0.000000 
#    y 0.000000 1.740210 0.000000 
#    z 0.000000 0.000000 1.737940 
# 
# From -- ./inp_files/17814.got.cif
#   From: 2010.03.12/outbox.cif.g09.slc.cpg/sg40_9_cif.got.tgz:17814.got - 2010.04.14 01:38:03.
