data_PCOD8183665
_publ_section_title
;
Structure prediction by ZEFSAII (Michael W. Deem and Ramdas Pophale) SiO2 
 PCOD8183665
Probable space group: A M A 2
;
_chemical_formula_sum "Si O2"
_cell_formula_units_Z 52
_cell_length_a 16.642549
_cell_length_b 10.748658
_cell_length_c 14.397391
_cell_angle_alpha 90.000000
_cell_angle_beta 90.000000
_cell_angle_gamma 90.000000
_cell_volume 2575.478260
_symmetry_space_group_name_H-M "A M A 2"
_symmetry_group_IT_number 40
_symmetry_cell_setting 'orthorhombic'
loop_
_space_group_symop_operation_xyz
x,y,z
-x,-y,z
1/2-x,y,z
1/2+x,-y,z
x,1/2+y,1/2+z
-x,1/2-y,1/2+z
1/2-x,1/2+y,1/2+z
1/2+x,1/2-y,1/2+z
loop_
_atom_site_type_symbol
_atom_site_label
_atom_site_fract_x
_atom_site_fract_y
_atom_site_fract_z
Si Si1 0.162993 0.784106 0.837720
Si Si2 0.838452 0.580425 0.527197
Si Si3 0.410572 0.241942 0.663034
Si Si4 0.340213 0.968403 0.673750
Si Si5 0.500000 0.500000 0.446766
Si Si6 0.038760 0.867722 0.542643
Si Si7 0.492863 0.763005 0.351700
O O1 0.250000 0.721141 0.811373
O O2 0.085337 0.693339 0.828185
O O3 0.150277 0.907258 0.775062
O O4 0.166486 0.821140 0.944684
O O5 0.750000 0.510724 0.532554
O O6 0.847437 0.658824 0.622759
O O7 0.917639 0.493720 0.509786
O O8 0.377053 0.104709 0.677384
O O9 0.483898 0.239231 0.588989
O O10 0.439306 0.290310 0.762602
O O11 0.250000 0.984273 0.641780
O O12 0.377255 0.874766 0.596923
O O13 0.498885 0.618141 0.378859
O O14 0.048536 0.840773 0.433861
O O15 0.000000 0.000000 0.558859
#
# Coordination Sequence:
#
# PCOD8183665 Si02
#       7
#     8   8   8   8   4   8   8
#     4   9  17  30  53  84 115 141 183 240 285 332
#     4  10  20  35  55  86 117 148 192 236 289 349
#     4  11  19  34  60  83 113 151 195 240 284 343
#     4  10  20  35  57  86 113 148 194 245 293 337
#     4  10  20  36  60  86 118 156 186 250 292 336
#     4  10  21  36  55  84 116 154 190 234 287 351
#     4  11  20  36  56  88 115 154 195 240 294 347
#
# _framework density 20.190424
#
# number of rings (size 3 to 8) (size 9 to 14) (size 15 to 20)
#    0.000    1.846    4.615    2.308    1.077    0.000 
#    1.385    3.077    0.000    0.923    0.000    0.000 
#    0.000    0.000    0.000    0.000    0.000    0.000 
#
# Total GULP energy -322140.190208 kJ/mol
# GULP energy per Si atom -12390.007316 kJ/mol
# Density = 2.014447 g / cm^3
# Si number density = 20.190424 Si / 1000 Ang^3
#
#
#
# Elastic Constant Matrix: (Units=GPa)
#
#
# Indices 1 2 3 4 5 6 
#
# 1 142.7115 11.3344 58.8097 0.0000 0.0000 0.0000
# 2 11.3344 9.9143 12.1165 0.0000 0.0000 0.0000
# 3 58.8097 12.1165 124.7944 0.0000 0.0000 0.0000
# 4 0.0000 0.0000 0.0000 25.8524 0.0000 0.0000
# 5 0.0000 0.0000 0.0000 0.0000 24.4846 0.0000
# 6 0.0000 0.0000 0.0000 0.0000 0.0000 17.8774
#
#
#
# Elastic Compliance Matrix: (Units=1/GPa)
#
#
# Indices 1 2 3 4 5 6 
#
# 1 0.008979 -0.005779 -0.003670 0.000000 0.000000 0.000000
# 2 -0.005779 0.118165 -0.008749 0.000000 0.000000 0.000000
# 3 -0.003670 -0.008749 0.010592 0.000000 0.000000 0.000000
# 4 0.000000 0.000000 0.000000 0.038681 0.000000 0.000000
# 5 0.000000 0.000000 0.000000 0.000000 0.040842 0.000000
# 6 0.000000 0.000000 0.000000 0.000000 0.000000 0.055936
#
#
# Mechanical properties :
#
#
# Convention : Reuss Voigt Hill
#
# Bulk Modulus (GPa) = 9.86797 49.10458 29.48627
# Shear Modulus (GPa) = 14.56148 26.65352 20.60750
#
# Velocity S-wave (km/s) = 2.68844 3.63727 3.19824
# Velocity P-wave (km/s) = 3.81248 6.48176 5.31734
#
# Compressibility (1/GPa) = 0.10133801
#
# Stress axis : x y z
#
# Youngs Moduli (GPa) = 111.37680 8.46277 94.40942
#
# Poissons Ratio (x) = 0.04891 0.34648
# Poissons Ratio (y) = 0.64369 0.82601
# Poissons Ratio (z) = 0.40876 0.07404
#
# Static dielectric constant tensor:
#      x y z
#    x 4.356460 0.000000 0.000000 
#    y 0.000000 3.158070 0.000000 
#    z 0.000000 0.000000 3.626110 
# 
# 
# High freq. dielectric constant tensor:
#      x y z
#    x 1.803200 0.000000 0.000000 
#    y 0.000000 1.732850 0.000000 
#    z 0.000000 0.000000 1.792720 
# 
# From -- ./inp_files/17759.got.cif
#   From: 2010.03.12/outbox.cif.g09.slc.cpg/sg40_9_cif.got.tgz:17759.got - 2010.04.14 01:38:03.
