data_PCOD8183170
_publ_section_title
;
Structure prediction by ZEFSAII (Michael W. Deem and Ramdas Pophale) SiO2 
 PCOD8183170
Probable space group: A M A 2
;
_chemical_formula_sum "Si O2"
_cell_formula_units_Z 64
_cell_length_a 8.740074
_cell_length_b 33.535087
_cell_length_c 11.480211
_cell_angle_alpha 90.000000
_cell_angle_beta 90.000000
_cell_angle_gamma 90.000000
_cell_volume 3364.839994
_symmetry_space_group_name_H-M "A M A 2"
_symmetry_group_IT_number 40
_symmetry_cell_setting 'orthorhombic'
loop_
_space_group_symop_operation_xyz
x,y,z
-x,-y,z
1/2-x,y,z
1/2+x,-y,z
x,1/2+y,1/2+z
-x,1/2-y,1/2+z
1/2-x,1/2+y,1/2+z
1/2+x,1/2-y,1/2+z
loop_
_atom_site_type_symbol
_atom_site_label
_atom_site_fract_x
_atom_site_fract_y
_atom_site_fract_z
Si Si1 0.430676 0.122537 0.294490
Si Si2 0.072355 0.220591 0.665507
Si Si3 0.572253 0.690078 0.634886
Si Si4 0.925231 0.148356 0.533329
Si Si5 0.072941 0.543258 0.670461
Si Si6 0.072164 0.542557 0.406092
Si Si7 0.923736 0.322800 0.398053
Si Si8 0.075377 0.391369 0.271673
O O1 0.250000 0.121468 0.287272
O O2 0.485506 0.158202 0.212661
O O3 0.480644 0.131483 0.425496
O O4 0.494314 0.079163 0.251466
O O5 0.250000 0.217469 0.631292
O O6 0.008895 0.265369 0.656244
O O7 0.044312 0.210206 0.800206
O O8 0.982759 0.191439 0.577806
O O9 0.750000 0.687210 0.665421
O O10 0.545125 0.681945 0.499779
O O11 0.750000 0.153738 0.495198
O O12 0.944363 0.115326 0.634019
O O13 0.250000 0.536871 0.696465
O O14 0.047411 0.558566 0.537880
O O15 0.000000 0.500000 0.697413
O O16 0.250000 0.542559 0.371403
O O17 0.000000 0.500000 0.403492
O O18 0.971895 0.564581 0.308243
O O19 0.750000 0.320865 0.445192
O O20 0.952069 0.365324 0.340553
O O21 0.250000 0.381605 0.308336
#
# Coordination Sequence:
#
# PCOD8183170 Si02
#       8
#     8   8   8   8   8   8   8   8
#     4  11  23  39  59  86 117 154 196 239 291 352
#     4   9  21  39  57  80 111 148 189 234 287 342
#     4  11  23  37  56  85 115 147 190 238 287 342
#     4  10  22  39  59  82 112 151 195 240 288 343
#     4   9  20  37  58  85 116 149 188 233 288 345
#     4  10  19  33  56  86 118 148 183 232 288 348
#     4  10  20  36  56  79 108 144 184 230 282 337
#     4  10  20  36  57  81 109 145 188 234 283 341
#
# _framework density 19.020219999999998
#
# number of rings (size 3 to 8) (size 9 to 14) (size 15 to 20)
#    0.000    2.000    0.000    3.000    1.750    5.500 
#    0.000    0.625    0.000    1.500    0.000    0.000 
#    0.000    0.000    0.000    0.000    0.000    0.000 
#
# Total GULP energy -396744.286824 kJ/mol
# GULP energy per Si atom -12398.258963 kJ/mol
# Density = 1.897693 g / cm^3
# Si number density = 19.020220 Si / 1000 Ang^3
#
#
#
# Elastic Constant Matrix: (Units=GPa)
#
#
# Indices 1 2 3 4 5 6 
#
# 1 65.7816 45.7068 40.2039 0.0000 0.0000 0.0000
# 2 45.7068 83.4699 57.0606 0.0000 0.0000 0.0000
# 3 40.2039 57.0606 100.7782 0.0000 0.0000 0.0000
# 4 0.0000 0.0000 0.0000 13.4956 0.0000 0.0000
# 5 0.0000 0.0000 0.0000 0.0000 30.0847 0.0000
# 6 0.0000 0.0000 0.0000 0.0000 0.0000 30.2314
#
#
#
# Elastic Compliance Matrix: (Units=1/GPa)
#
#
# Indices 1 2 3 4 5 6 
#
# 1 0.025346 -0.011366 -0.003676 0.000000 0.000000 0.000000
# 2 -0.011366 0.024643 -0.009418 0.000000 0.000000 0.000000
# 3 -0.003676 -0.009418 0.016722 0.000000 0.000000 0.000000
# 4 0.000000 0.000000 0.000000 0.074098 0.000000 0.000000
# 5 0.000000 0.000000 0.000000 0.000000 0.033239 0.000000
# 6 0.000000 0.000000 0.000000 0.000000 0.000000 0.033078
#
#
# Mechanical properties :
#
#
# Convention : Reuss Voigt Hill
#
# Bulk Modulus (GPa) = 56.21202 59.55246 57.88224
# Shear Modulus (GPa) = 19.08562 21.89956 20.49259
#
# Velocity S-wave (km/s) = 3.17115 3.39688 3.28595
# Velocity P-wave (km/s) = 6.55944 6.83836 6.70035
#
# Compressibility (1/GPa) = 0.01778979
#
# Stress axis : x y z
#
# Youngs Moduli (GPa) = 39.45408 40.57988 59.80192
#
# Poissons Ratio (x) = 0.46124 0.21982
# Poissons Ratio (y) = 0.44844 0.56324
# Poissons Ratio (z) = 0.14503 0.38220
#
# Static dielectric constant tensor:
#      x y z
#    x 3.502130 0.000000 0.000000 
#    y 0.000000 3.601590 0.000000 
#    z 0.000000 0.000000 3.731240 
# 
# 
# High freq. dielectric constant tensor:
#      x y z
#    x 1.745830 0.000000 0.000000 
#    y 0.000000 1.743970 0.000000 
#    z 0.000000 0.000000 1.734760 
# 
# From -- ./inp_files/10613.got.cif
#   From: 2010.03.12/outbox.cif.g09.slc.cpg/sg40_6_cif.got.tgz:10613.got - 2010.04.14 01:38:03.
