data_PCOD8183387
_publ_section_title
;
Structure prediction by ZEFSAII (Michael W. Deem and Ramdas Pophale) SiO2 
 PCOD8183387
Probable space group: A M A 2
;
_chemical_formula_sum "Si O2"
_cell_formula_units_Z 64
_cell_length_a 24.371430
_cell_length_b 8.250217
_cell_length_c 14.593595
_cell_angle_alpha 90.000000
_cell_angle_beta 90.000000
_cell_angle_gamma 90.000000
_cell_volume 2934.328106
_symmetry_space_group_name_H-M "A M A 2"
_symmetry_group_IT_number 40
_symmetry_cell_setting 'orthorhombic'
loop_
_space_group_symop_operation_xyz
x,y,z
-x,-y,z
1/2-x,y,z
1/2+x,-y,z
x,1/2+y,1/2+z
-x,1/2-y,1/2+z
1/2-x,1/2+y,1/2+z
1/2+x,1/2-y,1/2+z
loop_
_atom_site_type_symbol
_atom_site_label
_atom_site_fract_x
_atom_site_fract_y
_atom_site_fract_z
Si Si1 0.001870 0.180351 0.459950
Si Si2 0.186487 0.974196 0.325349
Si Si3 0.900524 0.103152 0.740030
Si Si4 0.373208 0.236587 0.420018
Si Si5 0.903351 0.293186 0.345195
Si Si6 0.809422 0.776650 0.160570
Si Si7 0.962829 0.359180 0.637228
Si Si8 0.863680 0.467072 0.526145
O O1 0.958803 0.199703 0.375447
O O2 0.991685 0.300132 0.544142
O O3 0.062015 0.209432 0.422418
O O4 0.000000 0.000000 0.500026
O O5 0.250000 0.922112 0.342562
O O6 0.146543 0.820257 0.312690
O O7 0.163103 0.073190 0.414125
O O8 0.180759 0.084044 0.236142
O O9 0.865578 0.165450 0.826393
O O10 0.854587 0.130763 0.660385
O O11 0.953198 0.212632 0.710081
O O12 0.917271 0.916416 0.760104
O O13 0.352200 0.342352 0.506996
O O14 0.886173 0.394844 0.432867
O O15 0.750000 0.695672 0.172690
O O16 0.810539 0.869393 0.061745
O O17 0.905790 0.444180 0.610659
O O18 0.000000 0.500000 0.683581
#
# Coordination Sequence:
#
# PCOD8183387 Si02
#       8
#     8   8   8   8   8   8   8   8
#     4  11  21  37  59  86 124 165 196 243 303 365
#     4  10  21  38  59  85 119 155 200 255 308 354
#     4   9  21  37  57  89 118 153 205 247 299 363
#     4  10  19  38  59  86 117 158 201 248 296 363
#     4  10  21  38  60  88 120 154 200 253 300 362
#     4   9  19  38  59  82 116 159 203 249 304 364
#     4  10  19  37  58  85 121 160 193 242 302 367
#     4   9  19  35  61  83 114 153 199 243 297 359
#
# _framework density 21.810784999999999
#
# number of rings (size 3 to 8) (size 9 to 14) (size 15 to 20)
#    0.000    2.250    2.500    0.000    0.000    2.000 
#    6.750    2.500    0.000    0.000    0.000    0.000 
#    0.000    0.000    0.000    0.000    0.000    0.000 
#
# Total GULP energy -396459.188098 kJ/mol
# GULP energy per Si atom -12389.349628 kJ/mol
# Density = 2.176114 g / cm^3
# Si number density = 21.810785 Si / 1000 Ang^3
#
#
#
# Elastic Constant Matrix: (Units=GPa)
#
#
# Indices 1 2 3 4 5 6 
#
# 1 102.0220 32.0236 21.1015 0.0000 0.0000 0.0000
# 2 32.0236 106.6005 26.5386 0.0000 0.0000 0.0000
# 3 21.1015 26.5386 51.3904 0.0000 0.0000 0.0000
# 4 0.0000 0.0000 0.0000 23.8820 0.0000 0.0000
# 5 0.0000 0.0000 0.0000 0.0000 21.2925 0.0000
# 6 0.0000 0.0000 0.0000 0.0000 0.0000 31.8134
#
#
#
# Elastic Compliance Matrix: (Units=1/GPa)
#
#
# Indices 1 2 3 4 5 6 
#
# 1 0.011293 -0.002568 -0.003311 0.000000 0.000000 0.000000
# 2 -0.002568 0.011349 -0.004806 0.000000 0.000000 0.000000
# 3 -0.003311 -0.004806 0.023300 0.000000 0.000000 0.000000
# 4 0.000000 0.000000 0.000000 0.041873 0.000000 0.000000
# 5 0.000000 0.000000 0.000000 0.000000 0.046965 0.000000
# 6 0.000000 0.000000 0.000000 0.000000 0.000000 0.031433
#
#
# Mechanical properties :
#
#
# Convention : Reuss Voigt Hill
#
# Bulk Modulus (GPa) = 40.69713 46.59335 43.64524
# Shear Modulus (GPa) = 25.53978 27.42086 26.48032
#
# Velocity S-wave (km/s) = 3.42566 3.54957 3.48816
# Velocity P-wave (km/s) = 5.86059 6.18128 6.02307
#
# Compressibility (1/GPa) = 0.02457175
#
# Stress axis : x y z
#
# Youngs Moduli (GPa) = 88.55283 88.11472 42.91804
#
# Poissons Ratio (x) = 0.22630 0.14209
# Poissons Ratio (y) = 0.22742 0.20627
# Poissons Ratio (z) = 0.29317 0.42349
#
# Static dielectric constant tensor:
#      x y z
#    x 4.011310 0.000000 0.000000 
#    y 0.000000 4.086760 0.000000 
#    z 0.000000 0.000000 3.869500 
# 
# 
# High freq. dielectric constant tensor:
#      x y z
#    x 1.850770 0.000000 0.000000 
#    y 0.000000 1.847610 0.000000 
#    z 0.000000 0.000000 1.843140 
# 
# From -- ./inp_files/18544.got.cif
#   From: 2010.03.12/outbox.cif.g09.slc.cpg/sg40_10_cif.got.tgz:18544.got - 2010.04.14 01:38:03.
