data_PCOD8183343
_publ_section_title
;
Structure prediction by ZEFSAII (Michael W. Deem and Ramdas Pophale) SiO2 
 PCOD8183343
Probable space group: A M A 2
;
_chemical_formula_sum "Si O2"
_cell_formula_units_Z 60
_cell_length_a 30.869175
_cell_length_b 9.077875
_cell_length_c 10.687845
_cell_angle_alpha 90.000000
_cell_angle_beta 90.000000
_cell_angle_gamma 90.000000
_cell_volume 2995.017525
_symmetry_space_group_name_H-M "A M A 2"
_symmetry_group_IT_number 40
_symmetry_cell_setting 'orthorhombic'
loop_
_space_group_symop_operation_xyz
x,y,z
-x,-y,z
1/2-x,y,z
1/2+x,-y,z
x,1/2+y,1/2+z
-x,1/2-y,1/2+z
1/2-x,1/2+y,1/2+z
1/2+x,1/2-y,1/2+z
loop_
_atom_site_type_symbol
_atom_site_label
_atom_site_fract_x
_atom_site_fract_y
_atom_site_fract_z
Si Si1 0.700100 0.110777 0.674150
Si Si2 0.832442 0.290438 0.172019
Si Si3 0.975109 0.272143 0.451720
Si Si4 0.069006 0.210927 0.710309
Si Si5 0.940958 0.582065 0.482085
Si Si6 0.000000 0.500000 0.120185
Si Si7 0.301100 0.216097 0.931278
Si Si8 0.656752 0.600795 0.426956
O O1 0.750000 0.150093 0.696052
O O2 0.682431 0.186861 0.547802
O O3 0.674643 0.169775 0.797173
O O4 0.695436 0.936898 0.652930
O O5 0.881568 0.338947 0.199777
O O6 0.814376 0.208784 0.297721
O O7 0.827813 0.191806 0.048509
O O8 0.943563 0.216529 0.342077
O O9 0.951644 0.412755 0.515654
O O10 0.021963 0.332813 0.401292
O O11 0.980103 0.132938 0.540530
O O12 0.058369 0.337157 0.613828
O O13 0.039825 0.062778 0.701411
O O14 0.895071 0.597206 0.413598
O O15 0.250000 0.192081 0.935828
O O16 0.324626 0.060873 0.943602
#
# Coordination Sequence:
#
# PCOD8183343 Si02
#       8
#     8   8   8   8   8   4   8   8
#     4  10  22  38  57  83 112 143 182 227 275 330
#     4  10  21  37  58  83 113 145 182 229 277 327
#     4  10  19  36  55  75 109 145 178 222 273 320
#     4  10  21  36  54  80 109 140 182 225 270 325
#     4   9  20  36  54  79 109 141 181 226 272 319
#     4  10  22  34  54  82 104 142 188 222 266 324
#     4  10  22  38  56  83 114 144 182 226 276 333
#     4  10  20  38  59  82 111 146 185 227 274 327
#
# _framework density 20.033270999999999
#
# number of rings (size 3 to 8) (size 9 to 14) (size 15 to 20)
#    0.000    2.133    0.000    4.000    0.000    7.467 
#    0.000   13.333    0.000    0.000    0.000    0.000 
#    0.000    0.000    0.000    0.000    0.000    0.000 
#
# Total GULP energy -371840.809817 kJ/mol
# GULP energy per Si atom -12394.693661 kJ/mol
# Density = 1.998767 g / cm^3
# Si number density = 20.033271 Si / 1000 Ang^3
#
#
#
# Elastic Constant Matrix: (Units=GPa)
#
#
# Indices 1 2 3 4 5 6 
#
# 1 88.4726 22.6536 34.9338 0.0000 0.0000 0.0000
# 2 22.6536 54.6474 37.0458 0.0000 0.0000 0.0000
# 3 34.9338 37.0458 117.8377 0.0000 0.0000 0.0000
# 4 0.0000 0.0000 0.0000 23.4290 0.0000 0.0000
# 5 0.0000 0.0000 0.0000 0.0000 21.9737 0.0000
# 6 0.0000 0.0000 0.0000 0.0000 0.0000 17.4152
#
#
#
# Elastic Compliance Matrix: (Units=1/GPa)
#
#
# Indices 1 2 3 4 5 6 
#
# 1 0.013343 -0.003621 -0.002817 0.000000 0.000000 0.000000
# 2 -0.003621 0.024238 -0.006546 0.000000 0.000000 0.000000
# 3 -0.002817 -0.006546 0.011379 0.000000 0.000000 0.000000
# 4 0.000000 0.000000 0.000000 0.042682 0.000000 0.000000
# 5 0.000000 0.000000 0.000000 0.000000 0.045509 0.000000
# 6 0.000000 0.000000 0.000000 0.000000 0.000000 0.057421
#
#
# Mechanical properties :
#
#
# Convention : Reuss Voigt Hill
#
# Bulk Modulus (GPa) = 43.49610 50.02490 46.76050
# Shear Modulus (GPa) = 21.91009 23.65188 22.78099
#
# Velocity S-wave (km/s) = 3.31068 3.43976 3.37584
# Velocity P-wave (km/s) = 6.03102 6.38757 6.21185
#
# Compressibility (1/GPa) = 0.02299057
#
# Stress axis : x y z
#
# Youngs Moduli (GPa) = 74.94847 41.25719 87.87796
#
# Poissons Ratio (x) = 0.14941 0.24755
# Poissons Ratio (y) = 0.27142 0.57529
# Poissons Ratio (z) = 0.21113 0.27009
#
# Static dielectric constant tensor:
#      x y z
#    x 4.122550 0.000000 0.000000 
#    y 0.000000 3.510040 0.000000 
#    z 0.000000 0.000000 3.950260 
# 
# 
# High freq. dielectric constant tensor:
#      x y z
#    x 1.796660 0.000000 0.000000 
#    y 0.000000 1.767070 0.000000 
#    z 0.000000 0.000000 1.789160 
# 
# From -- ./inp_files/14240.got.cif
#   From: 2010.03.12/outbox.cif.g09.slc.cpg/sg40_8_cif.got.tgz:14240.got - 2010.04.14 01:38:03.
