data_PCOD8183028
_publ_section_title
;
Structure prediction by ZEFSAII (Michael W. Deem and Ramdas Pophale) SiO2 
 PCOD8183028
Probable space group: A M A 2
;
_chemical_formula_sum "Si O2"
_cell_formula_units_Z 64
_cell_length_a 8.852050
_cell_length_b 28.856652
_cell_length_c 12.784099
_cell_angle_alpha 90.000000
_cell_angle_beta 90.000000
_cell_angle_gamma 90.000000
_cell_volume 3265.576977
_symmetry_space_group_name_H-M "A M A 2"
_symmetry_group_IT_number 40
_symmetry_cell_setting 'orthorhombic'
loop_
_space_group_symop_operation_xyz
x,y,z
-x,-y,z
1/2-x,y,z
1/2+x,-y,z
x,1/2+y,1/2+z
-x,1/2-y,1/2+z
1/2-x,1/2+y,1/2+z
1/2+x,1/2-y,1/2+z
loop_
_atom_site_type_symbol
_atom_site_label
_atom_site_fract_x
_atom_site_fract_y
_atom_site_fract_z
Si Si1 0.083104 0.180387 0.983260
Si Si2 0.428952 0.045649 0.135040
Si Si3 0.571355 0.598716 0.210473
Si Si4 0.417665 0.075807 0.915626
Si Si5 0.569779 0.797578 0.211001
Si Si6 0.427626 0.300692 0.279288
Si Si7 0.069410 0.051175 0.509427
Si Si8 0.928798 0.387925 0.814916
O O1 0.250000 0.203552 0.977645
O O2 0.098785 0.127195 0.957425
O O3 0.973209 0.203787 0.899909
O O4 0.010889 0.186624 0.097641
O O5 0.250000 0.042901 0.135099
O O6 0.484065 0.087295 0.208668
O O7 0.500000 0.000000 0.185996
O O8 0.487918 0.048987 0.015129
O O9 0.750000 0.595505 0.191874
O O10 0.529494 0.571259 0.316981
O O11 0.513342 0.652243 0.222532
O O12 0.483834 0.574407 0.116797
O O13 0.250000 0.057616 0.883841
O O14 0.750000 0.797574 0.212998
O O15 0.504934 0.745801 0.227303
O O16 0.514505 0.834401 0.300788
O O17 0.250000 0.301599 0.272215
O O18 0.250000 0.046661 0.509277
O O19 0.008104 0.085325 0.417199
O O20 0.000000 0.000000 0.495477
O O21 0.750000 0.389457 0.823541
#
# Coordination Sequence:
#
# PCOD8183028 Si02
#       8
#     8   8   8   8   8   8   8   8
#     4   9  16  30  53  74  99 137 179 222 266 323
#     4  10  19  32  52  79 107 134 168 214 267 323
#     4  10  21  37  55  78 113 149 184 228 279 333
#     4   9  17  32  54  77 101 135 179 223 268 322
#     4   9  16  31  55  80 107 145 188 226 274 335
#     4   9  19  33  52  80 112 146 182 228 283 329
#     4  11  23  39  60  83 110 149 193 238 286 339
#     4   9  18  34  56  81 108 141 184 227 272 332
#
# _framework density 19.598374
#
# number of rings (size 3 to 8) (size 9 to 14) (size 15 to 20)
#    0.000    2.500    1.250    1.125    0.000    2.500 
#    0.000    2.500    0.000    3.000    0.000    0.000 
#    0.000    0.000    0.000    0.000    0.000    0.000 
#
# Total GULP energy -396507.399273 kJ/mol
# GULP energy per Si atom -12390.856227 kJ/mol
# Density = 1.955377 g / cm^3
# Si number density = 19.598374 Si / 1000 Ang^3
#
#
#
# Elastic Constant Matrix: (Units=GPa)
#
#
# Indices 1 2 3 4 5 6 
#
# 1 27.9777 20.0266 19.1155 0.0000 0.0000 0.0000
# 2 20.0266 85.9784 43.7979 0.0000 0.0000 0.0000
# 3 19.1155 43.7979 113.9808 0.0000 0.0000 0.0000
# 4 0.0000 0.0000 0.0000 21.0091 0.0000 0.0000
# 5 0.0000 0.0000 0.0000 0.0000 18.5090 0.0000
# 6 0.0000 0.0000 0.0000 0.0000 0.0000 19.0385
#
#
#
# Elastic Compliance Matrix: (Units=1/GPa)
#
#
# Indices 1 2 3 4 5 6 
#
# 1 0.044551 -0.008170 -0.004332 0.000000 0.000000 0.000000
# 2 -0.008170 0.015960 -0.004762 0.000000 0.000000 0.000000
# 3 -0.004332 -0.004762 0.011330 0.000000 0.000000 0.000000
# 4 0.000000 0.000000 0.000000 0.047599 0.000000 0.000000
# 5 0.000000 0.000000 0.000000 0.000000 0.054028 0.000000
# 6 0.000000 0.000000 0.000000 0.000000 0.000000 0.052525
#
#
# Mechanical properties :
#
#
# Convention : Reuss Voigt Hill
#
# Bulk Modulus (GPa) = 26.80163 43.75742 35.27953
# Shear Modulus (GPa) = 18.31776 21.37776 19.84776
#
# Velocity S-wave (km/s) = 3.06053 3.30630 3.18579
# Velocity P-wave (km/s) = 5.11803 6.07873 5.61895
#
# Compressibility (1/GPa) = 0.03731117
#
# Stress axis : x y z
#
# Youngs Moduli (GPa) = 22.44619 62.65686 88.26159
#
# Poissons Ratio (x) = 0.51192 0.38236
# Poissons Ratio (y) = 0.18339 0.42035
# Poissons Ratio (z) = 0.09724 0.29840
#
# Static dielectric constant tensor:
#      x y z
#    x 3.291520 0.000000 0.000000 
#    y 0.000000 3.983630 0.000000 
#    z 0.000000 0.000000 3.786760 
# 
# 
# High freq. dielectric constant tensor:
#      x y z
#    x 1.727850 0.000000 0.000000 
#    y 0.000000 1.767320 0.000000 
#    z 0.000000 0.000000 1.767740 
# 
# From -- ./inp_files/10578.got.cif
#   From: 2010.03.12/outbox.cif.g09.slc.cpg/sg40_6_cif.got.tgz:10578.got - 2010.04.14 01:38:03.
