data_PCOD8183534
_publ_section_title
;
Structure prediction by ZEFSAII (Michael W. Deem and Ramdas Pophale) SiO2 
 PCOD8183534
Probable space group: A M A 2
;
_chemical_formula_sum "Si O2"
_cell_formula_units_Z 56
_cell_length_a 9.006164
_cell_length_b 14.042788
_cell_length_c 22.527570
_cell_angle_alpha 90.000000
_cell_angle_beta 90.000000
_cell_angle_gamma 90.000000
_cell_volume 2849.098988
_symmetry_space_group_name_H-M "A M A 2"
_symmetry_group_IT_number 40
_symmetry_cell_setting 'orthorhombic'
loop_
_space_group_symop_operation_xyz
x,y,z
-x,-y,z
1/2-x,y,z
1/2+x,-y,z
x,1/2+y,1/2+z
-x,1/2-y,1/2+z
1/2-x,1/2+y,1/2+z
1/2+x,1/2-y,1/2+z
loop_
_atom_site_type_symbol
_atom_site_label
_atom_site_fract_x
_atom_site_fract_y
_atom_site_fract_z
Si Si1 0.088272 0.639704 0.185020
Si Si2 0.086841 0.354059 0.644704
Si Si3 0.575415 0.299968 0.532976
Si Si4 0.573403 0.102870 0.922999
Si Si5 0.921799 0.090608 0.574049
Si Si6 0.575052 0.799487 0.812841
Si Si7 0.925111 0.092648 0.271701
O O1 0.250000 0.589620 0.177638
O O2 0.107054 0.746869 0.164727
O O3 0.039076 0.639104 0.253798
O O4 0.967108 0.589177 0.143686
O O5 0.250000 0.393071 0.625302
O O6 0.023967 0.408224 0.702488
O O7 0.971760 0.362963 0.590189
O O8 0.750000 0.313913 0.522040
O O9 0.481576 0.333323 0.477268
O O10 0.532575 0.189250 0.542745
O O11 0.750000 0.092199 0.924845
O O12 0.524779 0.155521 0.863496
O O13 0.500000 0.000000 0.927062
O O14 0.750000 0.073419 0.568854
O O15 0.000000 0.000000 0.542200
O O16 0.750000 0.805581 0.828387
O O17 0.524993 0.689388 0.804756
O O18 0.750000 0.083136 0.276019
O O19 0.000000 0.000000 0.302296
#
# Coordination Sequence:
#
# PCOD8183534 Si02
#       7
#     8   8   8   8   8   8   8
#     4   8  15  30  53  77 106 144 182 221 268 318
#     4   8  15  30  51  77 109 146 183 220 266 318
#     4  10  21  38  58  82 112 146 185 232 278 323
#     4  12  26  43  63  83 104 138 182 230 280 331
#     4  10  20  33  54  84 117 150 184 224 272 326
#     4   9  19  38  59  81 112 148 186 231 276 321
#     4   9  18  32  54  84 118 152 184 222 271 325
#
# _framework density 19.655336999999999
#
# number of rings (size 3 to 8) (size 9 to 14) (size 15 to 20)
#    0.000    2.571    0.000    3.857    0.000    4.571 
#    0.000    5.000    0.000    0.000    0.000    0.000 
#    0.000    0.000    0.000    0.000    0.000    0.000 
#
# Total GULP energy -347032.876963 kJ/mol
# GULP energy per Si atom -12394.031320 kJ/mol
# Density = 1.961060 g / cm^3
# Si number density = 19.655337 Si / 1000 Ang^3
#
#
#
# Elastic Constant Matrix: (Units=GPa)
#
#
# Indices 1 2 3 4 5 6 
#
# 1 104.9227 57.5135 58.8914 0.0000 0.0000 0.0000
# 2 57.5135 110.7793 43.4726 0.0000 0.0000 0.0000
# 3 58.8914 43.4726 110.3750 0.0000 0.0000 0.0000
# 4 0.0000 0.0000 0.0000 19.0380 0.0000 0.0000
# 5 0.0000 0.0000 0.0000 0.0000 25.2890 0.0000
# 6 0.0000 0.0000 0.0000 0.0000 0.0000 33.4141
#
#
#
# Elastic Compliance Matrix: (Units=1/GPa)
#
#
# Indices 1 2 3 4 5 6 
#
# 1 0.016413 -0.006014 -0.006389 0.000000 0.000000 0.000000
# 2 -0.006014 0.012881 -0.001864 0.000000 0.000000 0.000000
# 3 -0.006389 -0.001864 0.013203 0.000000 0.000000 0.000000
# 4 0.000000 0.000000 0.000000 0.052527 0.000000 0.000000
# 5 0.000000 0.000000 0.000000 0.000000 0.039543 0.000000
# 6 0.000000 0.000000 0.000000 0.000000 0.000000 0.029927
#
#
# Mechanical properties :
#
#
# Convention : Reuss Voigt Hill
#
# Bulk Modulus (GPa) = 71.61900 71.75910 71.68905
# Shear Modulus (GPa) = 25.29294 26.62819 25.96056
#
# Velocity S-wave (km/s) = 3.59112 3.68469 3.63821
# Velocity P-wave (km/s) = 7.32881 7.39531 7.36213
#
# Compressibility (1/GPa) = 0.01396278
#
# Stress axis : x y z
#
# Youngs Moduli (GPa) = 60.92563 77.63339 75.73995
#
# Poissons Ratio (x) = 0.46691 0.48388
# Poissons Ratio (y) = 0.36643 0.14121
# Poissons Ratio (z) = 0.38924 0.14474
#
# Static dielectric constant tensor:
#      x y z
#    x 3.609040 0.000000 0.000000 
#    y 0.000000 3.883320 0.000000 
#    z 0.000000 0.000000 3.614460 
# 
# 
# High freq. dielectric constant tensor:
#      x y z
#    x 1.763460 0.000000 0.000000 
#    y 0.000000 1.770630 0.000000 
#    z 0.000000 0.000000 1.746410 
# 
# From -- ./inp_files/22197.got.cif
#   From: 2010.03.12/outbox.cif.g09.slc.cpg/sg40_12_cif.got.tgz:22197.got - 2010.04.14 01:38:03.
