data_PCOD8183346
_publ_section_title
;
Structure prediction by ZEFSAII (Michael W. Deem and Ramdas Pophale) SiO2 
 PCOD8183346
Probable space group: A M A 2
;
_chemical_formula_sum "Si O2"
_cell_formula_units_Z 40
_cell_length_a 14.980318
_cell_length_b 13.762260
_cell_length_c 9.654456
_cell_angle_alpha 90.000000
_cell_angle_beta 90.000000
_cell_angle_gamma 90.000000
_cell_volume 1990.391914
_symmetry_space_group_name_H-M "A M A 2"
_symmetry_group_IT_number 40
_symmetry_cell_setting 'orthorhombic'
loop_
_space_group_symop_operation_xyz
x,y,z
-x,-y,z
1/2-x,y,z
1/2+x,-y,z
x,1/2+y,1/2+z
-x,1/2-y,1/2+z
1/2-x,1/2+y,1/2+z
1/2+x,1/2-y,1/2+z
loop_
_atom_site_type_symbol
_atom_site_label
_atom_site_fract_x
_atom_site_fract_y
_atom_site_fract_z
Si Si1 0.411330 0.938225 0.702580
Si Si2 0.061484 0.908031 0.003782
Si Si3 0.981381 0.703257 0.988631
Si Si4 0.648114 0.106652 0.287866
Si Si5 0.347998 0.070577 0.477546
O O1 0.428633 0.836786 0.622722
O O2 0.500000 0.000000 0.709202
O O3 0.342380 0.004942 0.617487
O O4 0.382118 0.915876 0.860095
O O5 0.134187 0.896405 0.123618
O O6 0.000000 0.000000 0.033640
O O7 0.993358 0.817780 0.999434
O O8 0.921197 0.683484 0.852992
O O9 0.078839 0.654325 0.978597
O O10 0.750000 0.138736 0.318787
O O11 0.627959 0.000513 0.350552
O O12 0.250000 0.118140 0.458329
#
# Coordination Sequence:
#
# PCOD8183346 Si02
#       5
#     8   8   8   8   8
#     4   8  17  32  51  76 105 140 182 224 273 325
#     4  11  21  34  53  81 114 149 183 228 280 325
#     4  10  19  36  58  79 109 153 192 225 268 332
#     4  10  21  37  58  84 112 144 184 231 281 332
#     4   9  18  35  58  80 106 144 188 230 274 330
#
# _framework density 20.096544999999999
#
# number of rings (size 3 to 8) (size 9 to 14) (size 15 to 20)
#    0.000    2.400    0.000    4.200    0.000    1.600 
#    0.000    1.000    0.000    8.400    0.000    0.000 
#    0.000    0.000    0.000    0.000    0.000    0.000 
#
# Total GULP energy -247950.226712 kJ/mol
# GULP energy per Si atom -12397.511336 kJ/mol
# Density = 2.005080 g / cm^3
# Si number density = 20.096545 Si / 1000 Ang^3
#
#
#
# Elastic Constant Matrix: (Units=GPa)
#
#
# Indices 1 2 3 4 5 6 
#
# 1 95.1268 39.8349 25.1724 0.0000 0.0000 0.0000
# 2 39.8349 115.5121 24.8544 0.0000 0.0000 0.0000
# 3 25.1724 24.8544 144.5551 0.0000 0.0000 0.0000
# 4 0.0000 0.0000 0.0000 11.2088 0.0000 0.0000
# 5 0.0000 0.0000 0.0000 0.0000 9.5079 0.0000
# 6 0.0000 0.0000 0.0000 0.0000 0.0000 15.5870
#
#
#
# Elastic Compliance Matrix: (Units=1/GPa)
#
#
# Indices 1 2 3 4 5 6 
#
# 1 0.012593 -0.004020 -0.001502 0.000000 0.000000 0.000000
# 2 -0.004020 0.010273 -0.001066 0.000000 0.000000 0.000000
# 3 -0.001502 -0.001066 0.007363 0.000000 0.000000 0.000000
# 4 0.000000 0.000000 0.000000 0.089216 0.000000 0.000000
# 5 0.000000 0.000000 0.000000 0.000000 0.105175 0.000000
# 6 0.000000 0.000000 0.000000 0.000000 0.000000 0.064156
#
#
# Mechanical properties :
#
#
# Convention : Reuss Voigt Hill
#
# Bulk Modulus (GPa) = 58.64102 59.43528 59.03815
# Shear Modulus (GPa) = 16.25303 24.94956 20.60129
#
# Velocity S-wave (km/s) = 2.84693 3.52729 3.20522
# Velocity P-wave (km/s) = 6.32848 6.79913 6.56802
#
# Compressibility (1/GPa) = 0.01705291
#
# Stress axis : x y z
#
# Youngs Moduli (GPa) = 79.40975 97.34532 135.82108
#
# Poissons Ratio (x) = 0.39129 0.20397
# Poissons Ratio (y) = 0.31919 0.14483
# Poissons Ratio (z) = 0.11926 0.10380
#
# Static dielectric constant tensor:
#      x y z
#    x 3.461320 0.000000 0.000000 
#    y 0.000000 3.455150 0.000000 
#    z 0.000000 0.000000 4.240440 
# 
# 
# High freq. dielectric constant tensor:
#      x y z
#    x 1.766710 0.000000 0.000000 
#    y 0.000000 1.769960 0.000000 
#    z 0.000000 0.000000 1.795430 
# 
# From -- ./inp_files/6139.got.cif
#   From: 2010.03.12/outbox.cif.g09.slc.cpg/sg40_4_cif.got.tgz:6139.got - 2010.04.14 01:38:03.
