data_PCOD8183532
_publ_section_title
;
Structure prediction by ZEFSAII (Michael W. Deem and Ramdas Pophale) SiO2 
 PCOD8183532
Probable space group: A M A 2
;
_chemical_formula_sum "Si O2"
_cell_formula_units_Z 64
_cell_length_a 9.122272
_cell_length_b 16.338601
_cell_length_c 22.237895
_cell_angle_alpha 90.000000
_cell_angle_beta 90.000000
_cell_angle_gamma 90.000000
_cell_volume 3314.450672
_symmetry_space_group_name_H-M "A M A 2"
_symmetry_group_IT_number 40
_symmetry_cell_setting 'orthorhombic'
loop_
_space_group_symop_operation_xyz
x,y,z
-x,-y,z
1/2-x,y,z
1/2+x,-y,z
x,1/2+y,1/2+z
-x,1/2-y,1/2+z
1/2-x,1/2+y,1/2+z
1/2+x,1/2-y,1/2+z
loop_
_atom_site_type_symbol
_atom_site_label
_atom_site_fract_x
_atom_site_fract_y
_atom_site_fract_z
Si Si1 0.911700 0.729660 0.936840
Si Si2 0.910853 0.571542 0.012623
Si Si3 0.576694 0.083616 0.646603
Si Si4 0.424364 0.082170 0.104418
Si Si5 0.920516 0.764327 0.804620
Si Si6 0.579569 0.079209 0.849118
Si Si7 0.576860 0.264706 0.689216
Si Si8 0.080933 0.873432 0.984044
O O1 0.750000 0.771508 0.944075
O O2 0.945964 0.715767 0.866712
O O3 0.033775 0.780274 0.972312
O O4 0.912065 0.642513 0.965567
O O5 0.750000 0.537664 0.024583
O O6 0.975244 0.595143 0.077668
O O7 0.000000 0.500000 0.981011
O O8 0.750000 0.073401 0.655431
O O9 0.526080 0.171336 0.674156
O O10 0.500000 0.000000 0.672933
O O11 0.250000 0.069955 0.103972
O O12 0.468135 0.165660 0.140118
O O13 0.500000 0.000000 0.132677
O O14 0.480830 0.088156 0.035843
O O15 0.750000 0.779498 0.790789
O O16 0.004908 0.849288 0.811778
O O17 0.993859 0.712196 0.750961
O O18 0.750000 0.078388 0.832730
O O19 0.553397 0.081471 0.920813
O O20 0.500000 0.000000 0.823417
O O21 0.750000 0.268441 0.698662
O O22 0.250000 0.876860 0.004112
#
# Coordination Sequence:
#
# PCOD8183532 Si02
#       8
#     8   8   8   8   8   8   8   8
#     4   9  18  34  54  76 106 142 176 215 269 328
#     4   9  17  31  51  76 105 134 167 210 261 319
#     4   9  18  33  54  80 108 139 173 210 259 318
#     4  11  23  39  59  82 110 146 187 233 283 333
#     4  10  21  36  55  77 102 137 181 226 269 317
#     4  10  20  34  53  79 111 143 175 214 265 325
#     4  10  22  40  58  76 106 148 187 227 276 326
#     4  10  20  33  54  84 113 141 175 219 271 330
#
# _framework density 19.309384999999999
#
# number of rings (size 3 to 8) (size 9 to 14) (size 15 to 20)
#    0.000    2.250    0.000    2.625    0.000    7.500 
#    0.000    4.375    0.000    3.000    0.000    0.000 
#    0.000    0.000    0.000    0.000    0.000    0.000 
#
# Total GULP energy -396563.561532 kJ/mol
# GULP energy per Si atom -12392.611298 kJ/mol
# Density = 1.926544 g / cm^3
# Si number density = 19.309385 Si / 1000 Ang^3
#
#
#
# Elastic Constant Matrix: (Units=GPa)
#
#
# Indices 1 2 3 4 5 6 
#
# 1 76.2941 41.7323 35.7967 0.0000 0.0000 0.0000
# 2 41.7323 84.4099 34.6682 0.0000 0.0000 0.0000
# 3 35.7967 34.6682 77.8809 0.0000 0.0000 0.0000
# 4 0.0000 0.0000 0.0000 0.8068 0.0000 0.0000
# 5 0.0000 0.0000 0.0000 0.0000 28.1229 0.0000
# 6 0.0000 0.0000 0.0000 0.0000 0.0000 33.0616
#
#
#
# Elastic Compliance Matrix: (Units=1/GPa)
#
#
# Indices 1 2 3 4 5 6 
#
# 1 0.019923 -0.007451 -0.005841 0.000000 0.000000 0.000000
# 2 -0.007451 0.017284 -0.004269 0.000000 0.000000 0.000000
# 3 -0.005841 -0.004269 0.017425 0.000000 0.000000 0.000000
# 4 0.000000 0.000000 0.000000 1.239398 0.000000 0.000000
# 5 0.000000 0.000000 0.000000 0.000000 0.035558 0.000000
# 6 0.000000 0.000000 0.000000 0.000000 0.000000 0.030247
#
#
# Mechanical properties :
#
#
# Convention : Reuss Voigt Hill
#
# Bulk Modulus (GPa) = 51.25402 51.44217 51.34809
# Shear Modulus (GPa) = 3.56771 20.82409 12.19590
#
# Velocity S-wave (km/s) = 1.36076 3.28753 2.51590
# Velocity P-wave (km/s) = 5.39167 6.41166 5.92366
#
# Compressibility (1/GPa) = 0.01951066
#
# Stress axis : x y z
#
# Youngs Moduli (GPa) = 50.19231 57.85603 57.38887
#
# Poissons Ratio (x) = 0.43111 0.33518
# Poissons Ratio (y) = 0.37400 0.24500
# Poissons Ratio (z) = 0.29315 0.24699
#
# Static dielectric constant tensor:
#      x y z
#    x 3.847610 0.000000 0.000000 
#    y 0.000000 3.826150 0.000000 
#    z 0.000000 0.000000 3.498380 
# 
# 
# High freq. dielectric constant tensor:
#      x y z
#    x 1.754770 0.000000 0.000000 
#    y 0.000000 1.742280 0.000000 
#    z 0.000000 0.000000 1.747740 
# 
# From -- ./inp_files/22361.got.cif
#   From: 2010.03.12/outbox.cif.g09.slc.cpg/sg40_12_cif.got.tgz:22361.got - 2010.04.14 01:38:03.
