data_PCOD8183359
_publ_section_title
;
Structure prediction by ZEFSAII (Michael W. Deem and Ramdas Pophale) SiO2 
 PCOD8183359
Probable space group: A M A 2
;
_chemical_formula_sum "Si O2"
_cell_formula_units_Z 64
_cell_length_a 17.614118
_cell_length_b 20.160213
_cell_length_c 8.691797
_cell_angle_alpha 90.000000
_cell_angle_beta 90.000000
_cell_angle_gamma 90.000000
_cell_volume 3086.495104
_symmetry_space_group_name_H-M "A M A 2"
_symmetry_group_IT_number 40
_symmetry_cell_setting 'orthorhombic'
loop_
_space_group_symop_operation_xyz
x,y,z
-x,-y,z
1/2-x,y,z
1/2+x,-y,z
x,1/2+y,1/2+z
-x,1/2-y,1/2+z
1/2-x,1/2+y,1/2+z
1/2+x,1/2-y,1/2+z
loop_
_atom_site_type_symbol
_atom_site_label
_atom_site_fract_x
_atom_site_fract_y
_atom_site_fract_z
Si Si1 0.405768 0.868084 0.679610
Si Si2 0.909232 0.270694 0.308117
Si Si3 0.941832 0.277054 0.659846
Si Si4 0.939129 0.411810 0.806214
Si Si5 0.332435 0.856093 0.371540
Si Si6 0.572485 0.404171 0.169733
Si Si7 0.838370 0.518478 0.344912
Si Si8 0.899734 0.540603 0.676137
O O1 0.396899 0.789348 0.714350
O O2 0.397091 0.876057 0.494849
O O3 0.486911 0.896988 0.736812
O O4 0.340391 0.909362 0.764641
O O5 0.940109 0.288306 0.477471
O O6 0.839008 0.220364 0.318499
O O7 0.882956 0.337433 0.220362
O O8 0.971343 0.231212 0.209231
O O9 0.907186 0.341851 0.742813
O O10 0.882515 0.471771 0.765020
O O11 0.017723 0.429609 0.718696
O O12 0.940928 0.408709 0.988892
O O13 0.250000 0.864170 0.447782
O O14 0.338153 0.904965 0.226159
O O15 0.619029 0.466312 0.233598
O O16 0.750000 0.498584 0.371861
O O17 0.887937 0.523770 0.498208
#
# Coordination Sequence:
#
# PCOD8183359 Si02
#       8
#     8   8   8   8   8   8   8   8
#     4  10  22  38  65  97 125 171 218 270 325 386
#     4  10  21  35  60  94 125 167 210 268 329 389
#     4  10  19  36  59  94 128 158 207 274 331 376
#     4  11  22  39  65  96 125 163 220 280 325 375
#     4  11  21  40  63  90 135 175 212 261 328 403
#     4  11  23  41  68  94 130 169 224 280 324 391
#     4  12  27  43  63  95 135 174 216 270 341 408
#     4  11  24  38  61  94 129 166 218 270 329 397
#
# _framework density 20.735493000000002
#
# number of rings (size 3 to 8) (size 9 to 14) (size 15 to 20)
#    0.000    1.250    2.500    4.125    8.750    1.500 
#    0.000    0.625    0.000    6.000    0.000    0.000 
#    0.000    0.000    0.000    0.000    0.000    0.000 
#
# Total GULP energy -396629.991170 kJ/mol
# GULP energy per Si atom -12394.687224 kJ/mol
# Density = 2.068830 g / cm^3
# Si number density = 20.735493 Si / 1000 Ang^3
#
#
#
# Elastic Constant Matrix: (Units=GPa)
#
#
# Indices 1 2 3 4 5 6 
#
# 1 75.9555 42.3845 36.9776 0.0000 0.0000 0.0000
# 2 42.3845 150.7925 63.6639 0.0000 0.0000 0.0000
# 3 36.9776 63.6639 120.8140 0.0000 0.0000 0.0000
# 4 0.0000 0.0000 0.0000 37.4393 0.0000 0.0000
# 5 0.0000 0.0000 0.0000 0.0000 17.2238 0.0000
# 6 0.0000 0.0000 0.0000 0.0000 0.0000 18.0450
#
#
#
# Elastic Compliance Matrix: (Units=1/GPa)
#
#
# Indices 1 2 3 4 5 6 
#
# 1 0.016621 -0.003246 -0.003377 0.000000 0.000000 0.000000
# 2 -0.003246 0.009163 -0.003835 0.000000 0.000000 0.000000
# 3 -0.003377 -0.003835 0.011332 0.000000 0.000000 0.000000
# 4 0.000000 0.000000 0.000000 0.026710 0.000000 0.000000
# 5 0.000000 0.000000 0.000000 0.000000 0.058059 0.000000
# 6 0.000000 0.000000 0.000000 0.000000 0.000000 0.055417
#
#
# Mechanical properties :
#
#
# Convention : Reuss Voigt Hill
#
# Bulk Modulus (GPa) = 61.72833 70.40154 66.06493
# Shear Modulus (GPa) = 24.55588 28.17736 26.36662
#
# Velocity S-wave (km/s) = 3.44502 3.69032 3.56978
# Velocity P-wave (km/s) = 6.75709 7.22384 6.99436
#
# Compressibility (1/GPa) = 0.01620002
#
# Stress axis : x y z
#
# Youngs Moduli (GPa) = 60.16545 109.13207 88.24910
#
# Poissons Ratio (x) = 0.35426 0.29798
# Poissons Ratio (y) = 0.19531 0.33844
# Poissons Ratio (z) = 0.20315 0.41853
#
# Static dielectric constant tensor:
#      x y z
#    x 3.393190 0.000000 0.000000 
#    y 0.000000 4.259720 0.000000 
#    z 0.000000 0.000000 3.712100 
# 
# 
# High freq. dielectric constant tensor:
#      x y z
#    x 1.769230 0.000000 0.000000 
#    y 0.000000 1.834590 0.000000 
#    z 0.000000 0.000000 1.815890 
# 
# From -- ./inp_files/7848.got.cif
#   From: 2010.03.12/outbox.cif.g09.slc.cpg/sg40_4_cif.got.tgz:7848.got - 2010.04.14 01:38:03.
