data_PCOD8183437
_publ_section_title
;
Structure prediction by ZEFSAII (Michael W. Deem and Ramdas Pophale) SiO2 
 PCOD8183437
Probable space group: A M A 2
;
_chemical_formula_sum "Si O2"
_cell_formula_units_Z 64
_cell_length_a 16.864692
_cell_length_b 12.332088
_cell_length_c 14.286932
_cell_angle_alpha 90.000000
_cell_angle_beta 90.000000
_cell_angle_gamma 90.000000
_cell_volume 2971.351340
_symmetry_space_group_name_H-M "A M A 2"
_symmetry_group_IT_number 40
_symmetry_cell_setting 'orthorhombic'
loop_
_space_group_symop_operation_xyz
x,y,z
-x,-y,z
1/2-x,y,z
1/2+x,-y,z
x,1/2+y,1/2+z
-x,1/2-y,1/2+z
1/2-x,1/2+y,1/2+z
1/2+x,1/2-y,1/2+z
loop_
_atom_site_type_symbol
_atom_site_label
_atom_site_fract_x
_atom_site_fract_y
_atom_site_fract_z
Si Si1 0.932948 0.749341 0.979520
Si Si2 0.840917 0.646745 0.398421
Si Si3 0.155441 0.966921 0.476484
Si Si4 0.499084 0.379516 0.653486
Si Si5 0.837272 0.169805 0.100772
Si Si6 0.343180 0.091057 0.847787
Si Si7 0.663434 0.405054 0.146093
Si Si8 0.429656 0.646392 0.856704
O O1 0.862762 0.660663 0.979879
O O2 0.898810 0.852162 0.923544
O O3 0.003602 0.687404 0.927905
O O4 0.960764 0.792518 0.081794
O O5 0.750000 0.670022 0.415234
O O6 0.874290 0.626667 0.503238
O O7 0.858456 0.537463 0.343101
O O8 0.872236 0.751098 0.343782
O O9 0.250000 0.984476 0.465757
O O10 0.121956 0.009248 0.577255
O O11 0.111433 0.036239 0.395354
O O12 0.500000 0.500000 0.609680
O O13 0.406021 0.353784 0.675957
O O14 0.541667 0.380685 0.753068
O O15 0.750000 0.119896 0.128772
O O16 0.827703 0.297403 0.084999
O O17 0.250000 0.119770 0.865937
O O18 0.376985 0.124846 0.745293
O O19 0.750000 0.451905 0.173940
#
# Coordination Sequence:
#
# PCOD8183437 Si02
#       8
#     8   8   8   8   8   8   8   8
#     4  12  25  41  67  95 138 175 224 288 351 415
#     4  10  20  39  67  94 126 173 227 272 330 409
#     4  11  23  44  68  96 131 177 229 285 345 412
#     4  12  26  44  63 101 142 175 222 285 355 421
#     4  10  19  40  69  92 120 175 230 270 324 407
#     4  10  22  39  61  94 132 173 217 276 343 407
#     4   9  18  35  64  93 120 157 219 275 319 388
#     4  12  25  43  67  96 135 180 223 282 351 416
#
# _framework density 21.539021000000002
#
# number of rings (size 3 to 8) (size 9 to 14) (size 15 to 20)
#    0.000    1.250    2.500    3.375    1.750    0.000 
#    0.000    6.875    0.000    0.000    0.000    0.000 
#    0.000    0.000    0.000    0.000    0.000    0.000 
#
# Total GULP energy -396442.652811 kJ/mol
# GULP energy per Si atom -12388.832900 kJ/mol
# Density = 2.149000 g / cm^3
# Si number density = 21.539021 Si / 1000 Ang^3
#
#
#
# Elastic Constant Matrix: (Units=GPa)
#
#
# Indices 1 2 3 4 5 6 
#
# 1 71.0230 42.7545 52.3527 0.0000 0.0000 0.0000
# 2 42.7545 113.2599 34.4319 0.0000 0.0000 0.0000
# 3 52.3527 34.4319 124.2197 0.0000 0.0000 0.0000
# 4 0.0000 0.0000 0.0000 27.6103 0.0000 0.0000
# 5 0.0000 0.0000 0.0000 0.0000 28.0979 0.0000
# 6 0.0000 0.0000 0.0000 0.0000 0.0000 34.2431
#
#
#
# Elastic Compliance Matrix: (Units=1/GPa)
#
#
# Indices 1 2 3 4 5 6 
#
# 1 0.024232 -0.006599 -0.008384 0.000000 0.000000 0.000000
# 2 -0.006599 0.011439 -0.000390 0.000000 0.000000 0.000000
# 3 -0.008384 -0.000390 0.011692 0.000000 0.000000 0.000000
# 4 0.000000 0.000000 0.000000 0.036218 0.000000 0.000000
# 5 0.000000 0.000000 0.000000 0.000000 0.035590 0.000000
# 6 0.000000 0.000000 0.000000 0.000000 0.000000 0.029203
#
#
# Mechanical properties :
#
#
# Convention : Reuss Voigt Hill
#
# Bulk Modulus (GPa) = 60.17412 63.06454 61.61933
# Shear Modulus (GPa) = 27.07731 29.92114 28.49923
#
# Velocity S-wave (km/s) = 3.54945 3.73119 3.64145
# Velocity P-wave (km/s) = 6.69298 6.92135 6.80812
#
# Compressibility (1/GPa) = 0.01661844
#
# Stress axis : x y z
#
# Youngs Moduli (GPa) = 41.26786 87.42308 85.53213
#
# Poissons Ratio (x) = 0.57688 0.71706
# Poissons Ratio (y) = 0.27231 0.03332
# Poissons Ratio (z) = 0.34597 0.03406
#
# Static dielectric constant tensor:
#      x y z
#    x 3.996160 0.000000 0.000000 
#    y 0.000000 4.011330 0.000000 
#    z 0.000000 0.000000 3.882120 
# 
# 
# High freq. dielectric constant tensor:
#      x y z
#    x 1.842940 0.000000 0.000000 
#    y 0.000000 1.851000 0.000000 
#    z 0.000000 0.000000 1.843050 
# 
# From -- ./inp_files/17888.got.cif
#   From: 2010.03.12/outbox.cif.g09.slc.cpg/sg40_9_cif.got.tgz:17888.got - 2010.04.14 01:38:03.
