data_PCOD8183472
_publ_section_title
;
Structure prediction by ZEFSAII (Michael W. Deem and Ramdas Pophale) SiO2 
 PCOD8183472
Probable space group: A M A 2
;
_chemical_formula_sum "Si O2"
_cell_formula_units_Z 64
_cell_length_a 9.104714
_cell_length_b 20.448109
_cell_length_c 19.365917
_cell_angle_alpha 90.000000
_cell_angle_beta 90.000000
_cell_angle_gamma 90.000000
_cell_volume 3605.433800
_symmetry_space_group_name_H-M "A M A 2"
_symmetry_group_IT_number 40
_symmetry_cell_setting 'orthorhombic'
loop_
_space_group_symop_operation_xyz
x,y,z
-x,-y,z
1/2-x,y,z
1/2+x,-y,z
x,1/2+y,1/2+z
-x,1/2-y,1/2+z
1/2-x,1/2+y,1/2+z
1/2+x,1/2-y,1/2+z
loop_
_atom_site_type_symbol
_atom_site_label
_atom_site_fract_x
_atom_site_fract_y
_atom_site_fract_z
Si Si1 0.576989 0.065533 0.399110
Si Si2 0.079798 0.880939 0.544402
Si Si3 0.577663 0.683141 0.404349
Si Si4 0.917476 0.258838 0.685953
Si Si5 0.921873 0.433309 0.325295
Si Si6 0.081383 0.729646 0.533181
Si Si7 0.081761 0.182478 0.328441
Si Si8 0.580227 0.874461 0.680030
O O1 0.750000 0.058842 0.390327
O O2 0.531501 0.076359 0.478803
O O3 0.524980 0.125939 0.353332
O O4 0.500000 0.000000 0.371969
O O5 0.250000 0.889024 0.561131
O O6 0.041317 0.806019 0.527362
O O7 0.993489 0.905493 0.611870
O O8 0.750000 0.668094 0.402118
O O9 0.491136 0.624867 0.368927
O O10 0.524717 0.688786 0.483476
O O11 0.537924 0.749752 0.364677
O O12 0.750000 0.232612 0.687064
O O13 0.949068 0.293100 0.612114
O O14 0.943426 0.311273 0.746234
O O15 0.018319 0.196494 0.698720
O O16 0.750000 0.437501 0.342465
O O17 0.949489 0.422216 0.244041
O O18 0.000000 0.500000 0.347866
O O19 0.250000 0.717288 0.511485
O O20 0.250000 0.164223 0.345808
O O21 0.750000 0.865980 0.664020
#
# Coordination Sequence:
#
# PCOD8183472 Si02
#       8
#     8   8   8   8   8   8   8   8
#     4  11  23  38  55  78 110 148 187 228 275 325
#     4   9  19  34  52  74 107 149 185 220 265 321
#     4  11  21  34  57  84 111 143 181 226 272 322
#     4   9  18  34  55  80 110 144 179 221 272 322
#     4  11  24  39  55  78 110 147 186 227 274 326
#     4   9  17  32  54  80 110 141 179 223 271 321
#     4  10  20  35  57  83 110 143 183 226 272 322
#     4  10  20  32  51  79 109 142 182 226 267 317
#
# _framework density 17.750983999999999
#
# number of rings (size 3 to 8) (size 9 to 14) (size 15 to 20)
#    0.000    2.000    2.500    2.250    0.000    6.000 
#    0.000    2.500    0.000    0.750    0.000    3.500 
#    0.000    0.000    0.000    0.000    0.000    0.000 
#
# Total GULP energy -396870.721493 kJ/mol
# GULP energy per Si atom -12402.210047 kJ/mol
# Density = 1.771058 g / cm^3
# Si number density = 17.750984 Si / 1000 Ang^3
#
#
#
# Elastic Constant Matrix: (Units=GPa)
#
#
# Indices 1 2 3 4 5 6 
#
# 1 88.2545 54.8270 56.6374 0.0000 0.0000 0.0000
# 2 54.8270 95.3653 50.6800 0.0000 0.0000 0.0000
# 3 56.6374 50.6800 102.6948 0.0000 0.0000 0.0000
# 4 0.0000 0.0000 0.0000 19.7150 0.0000 0.0000
# 5 0.0000 0.0000 0.0000 0.0000 32.0471 0.0000
# 6 0.0000 0.0000 0.0000 0.0000 0.0000 25.3341
#
#
#
# Elastic Compliance Matrix: (Units=1/GPa)
#
#
# Indices 1 2 3 4 5 6 
#
# 1 0.021390 -0.008171 -0.007764 0.000000 0.000000 0.000000
# 2 -0.008171 0.017335 -0.004048 0.000000 0.000000 0.000000
# 3 -0.007764 -0.004048 0.016018 0.000000 0.000000 0.000000
# 4 0.000000 0.000000 0.000000 0.050723 0.000000 0.000000
# 5 0.000000 0.000000 0.000000 0.000000 0.031204 0.000000
# 6 0.000000 0.000000 0.000000 0.000000 0.000000 0.039472
#
#
# Mechanical properties :
#
#
# Convention : Reuss Voigt Hill
#
# Bulk Modulus (GPa) = 67.68259 67.84485 67.76372
# Shear Modulus (GPa) = 22.62090 23.69726 23.15908
#
# Velocity S-wave (km/s) = 3.57367 3.65771 3.61593
# Velocity P-wave (km/s) = 7.43235 7.49278 7.46263
#
# Compressibility (1/GPa) = 0.01477485
#
# Stress axis : x y z
#
# Youngs Moduli (GPa) = 46.75118 57.68612 62.43137
#
# Poissons Ratio (x) = 0.47136 0.48473
# Poissons Ratio (y) = 0.38201 0.25275
# Poissons Ratio (z) = 0.36299 0.23354
#
# Static dielectric constant tensor:
#      x y z
#    x 3.320510 0.000000 0.000000 
#    y 0.000000 3.005060 0.000000 
#    z 0.000000 0.000000 3.489920 
# 
# 
# High freq. dielectric constant tensor:
#      x y z
#    x 1.694200 0.000000 0.000000 
#    y 0.000000 1.658280 0.000000 
#    z 0.000000 0.000000 1.691500 
# 
# From -- ./inp_files/22373.got.cif
#   From: 2010.03.12/outbox.cif.g09.slc.cpg/sg40_12_cif.got.tgz:22373.got - 2010.04.14 01:38:03.
