data_PCOD8183700
_publ_section_title
;
Structure prediction by ZEFSAII (Michael W. Deem and Ramdas Pophale) SiO2 
 PCOD8183700
Probable space group: A M A 2
;
_chemical_formula_sum "Si O2"
_cell_formula_units_Z 64
_cell_length_a 15.737490
_cell_length_b 9.086056
_cell_length_c 23.184728
_cell_angle_alpha 90.000000
_cell_angle_beta 90.000000
_cell_angle_gamma 90.000000
_cell_volume 3315.224029
_symmetry_space_group_name_H-M "A M A 2"
_symmetry_group_IT_number 40
_symmetry_cell_setting 'orthorhombic'
loop_
_space_group_symop_operation_xyz
x,y,z
-x,-y,z
1/2-x,y,z
1/2+x,-y,z
x,1/2+y,1/2+z
-x,1/2-y,1/2+z
1/2-x,1/2+y,1/2+z
1/2+x,1/2-y,1/2+z
loop_
_atom_site_type_symbol
_atom_site_label
_atom_site_fract_x
_atom_site_fract_y
_atom_site_fract_z
Si Si1 0.346879 0.297142 0.881660
Si Si2 0.587848 0.418717 0.203547
Si Si3 0.653689 0.026187 0.923605
Si Si4 0.970037 0.659888 0.775488
Si Si5 0.036196 0.852266 0.024701
Si Si6 0.579415 0.595433 0.991215
Si Si7 0.846032 0.379089 0.081389
Si Si8 0.084138 0.405345 0.309820
O O1 0.250000 0.300026 0.859920
O O2 0.406167 0.348919 0.829591
O O3 0.373762 0.137966 0.905956
O O4 0.357540 0.404139 0.936686
O O5 0.500000 0.500000 0.187055
O O6 0.573362 0.249176 0.222904
O O7 0.648583 0.420502 0.148541
O O8 0.630606 0.509503 0.256629
O O9 0.750000 0.033474 0.947531
O O10 0.647016 0.115133 0.863579
O O11 0.590119 0.099062 0.968957
O O12 0.000000 0.500000 0.754315
O O13 0.056814 0.741831 0.792747
O O14 0.094810 0.761216 0.068453
O O15 0.953485 0.757680 0.007682
O O16 0.000000 0.000000 0.055246
O O17 0.500000 0.500000 0.971170
O O18 0.626487 0.521986 0.045286
O O19 0.750000 0.336715 0.065911
O O20 0.000000 0.500000 0.325979
#
# Coordination Sequence:
#
# PCOD8183700 Si02
#       8
#     8   8   8   8   8   8   8   8
#     4  11  20  32  53  86 123 153 187 236 296 347
#     4   9  19  38  61  80 108 150 200 238 277 340
#     4  11  20  32  55  87 121 152 192 240 288 339
#     4  10  20  35  58  86 112 150 189 237 286 345
#     4  11  21  37  59  82 115 156 199 237 283 349
#     4  10  21  37  58  80 113 157 198 238 283 345
#     4  11  24  41  60  87 117 150 196 248 297 344
#     4   9  17  35  57  81 111 148 196 234 273 341
#
# _framework density 19.304880000000001
#
# number of rings (size 3 to 8) (size 9 to 14) (size 15 to 20)
#    0.000    2.000    3.750    3.375    0.000    2.500 
#    0.000    3.125    0.000    0.750    0.000    0.000 
#    0.000    0.000    0.000    0.000    0.000    0.000 
#
# Total GULP energy -396660.948386 kJ/mol
# GULP energy per Si atom -12395.654637 kJ/mol
# Density = 1.926094 g / cm^3
# Si number density = 19.304880 Si / 1000 Ang^3
#
#
#
# Elastic Constant Matrix: (Units=GPa)
#
#
# Indices 1 2 3 4 5 6 
#
# 1 66.6443 28.6376 32.9520 0.0000 0.0000 0.0000
# 2 28.6376 110.0198 26.7381 0.0000 0.0000 0.0000
# 3 32.9520 26.7381 102.2220 0.0000 0.0000 0.0000
# 4 0.0000 0.0000 0.0000 24.7152 0.0000 0.0000
# 5 0.0000 0.0000 0.0000 0.0000 21.3364 0.0000
# 6 0.0000 0.0000 0.0000 0.0000 0.0000 19.9322
#
#
#
# Elastic Compliance Matrix: (Units=1/GPa)
#
#
# Indices 1 2 3 4 5 6 
#
# 1 0.019182 -0.003727 -0.005209 0.000000 0.000000 0.000000
# 2 -0.003727 0.010430 -0.001527 0.000000 0.000000 0.000000
# 3 -0.005209 -0.001527 0.011861 0.000000 0.000000 0.000000
# 4 0.000000 0.000000 0.000000 0.040461 0.000000 0.000000
# 5 0.000000 0.000000 0.000000 0.000000 0.046868 0.000000
# 6 0.000000 0.000000 0.000000 0.000000 0.000000 0.050170
#
#
# Mechanical properties :
#
#
# Convention : Reuss Voigt Hill
#
# Bulk Modulus (GPa) = 48.66542 50.61570 49.64056
# Shear Modulus (GPa) = 24.18411 25.90064 25.04237
#
# Velocity S-wave (km/s) = 3.54325 3.66685 3.60558
# Velocity P-wave (km/s) = 6.48098 6.64859 6.56532
#
# Compressibility (1/GPa) = 0.02054847
#
# Stress axis : x y z
#
# Youngs Moduli (GPa) = 52.13236 95.87274 84.30990
#
# Poissons Ratio (x) = 0.35733 0.43913
# Poissons Ratio (y) = 0.19430 0.12873
# Poissons Ratio (z) = 0.27153 0.14638
#
# Static dielectric constant tensor:
#      x y z
#    x 3.386750 0.000000 0.000000 
#    y 0.000000 3.629070 0.000000 
#    z 0.000000 0.000000 3.440360 
# 
# 
# High freq. dielectric constant tensor:
#      x y z
#    x 1.737010 0.000000 0.000000 
#    y 0.000000 1.748090 0.000000 
#    z 0.000000 0.000000 1.742980 
# 
# From -- ./inp_files/24931.got.cif
#   From: 2010.03.12/outbox.cif.g09.slc.cpg/sg40_13_cif.got.tgz:24931.got - 2010.04.14 01:38:03.
