data_PCOD8183024
_publ_section_title
;
Structure prediction by ZEFSAII (Michael W. Deem and Ramdas Pophale) SiO2 
 PCOD8183024
Probable space group: A M A 2
;
_chemical_formula_sum "Si O2"
_cell_formula_units_Z 64
_cell_length_a 17.376305
_cell_length_b 9.365666
_cell_length_c 20.555874
_cell_angle_alpha 90.000000
_cell_angle_beta 90.000000
_cell_angle_gamma 90.000000
_cell_volume 3345.276685
_symmetry_space_group_name_H-M "A M A 2"
_symmetry_group_IT_number 40
_symmetry_cell_setting 'orthorhombic'
loop_
_space_group_symop_operation_xyz
x,y,z
-x,-y,z
1/2-x,y,z
1/2+x,-y,z
x,1/2+y,1/2+z
-x,1/2-y,1/2+z
1/2-x,1/2+y,1/2+z
1/2+x,1/2-y,1/2+z
loop_
_atom_site_type_symbol
_atom_site_label
_atom_site_fract_x
_atom_site_fract_y
_atom_site_fract_z
Si Si1 0.839520 0.808792 0.070620
Si Si2 0.158486 0.187562 0.826633
Si Si3 0.841891 0.487032 0.451275
Si Si4 0.090437 0.006014 0.714554
Si Si5 0.658537 0.489385 0.832494
Si Si6 0.158404 0.201685 0.214648
Si Si7 0.839742 0.983791 0.576931
Si Si8 0.658344 0.309368 0.953463
O O1 0.750000 0.843218 0.072138
O O2 0.872983 0.841228 0.142821
O O3 0.854436 0.644409 0.051854
O O4 0.877022 0.909761 0.015501
O O5 0.250000 0.182847 0.821330
O O6 0.128339 0.095661 0.887670
O O7 0.128234 0.349140 0.835637
O O8 0.123087 0.128316 0.760718
O O9 0.750000 0.483656 0.452986
O O10 0.873401 0.648367 0.448989
O O11 0.126140 0.855032 0.735669
O O12 0.112324 0.049669 0.641346
O O13 0.000000 0.000000 0.721780
O O14 0.750000 0.486668 0.835244
O O15 0.629702 0.416505 0.765651
O O16 0.624724 0.400762 0.893414
O O17 0.250000 0.217082 0.213905
O O18 0.750000 0.960847 0.592953
O O19 0.869787 0.877814 0.521100
O O20 0.750000 0.311082 0.950773
#
# Coordination Sequence:
#
# PCOD8183024 Si02
#       8
#     8   8   8   8   8   8   8   8
#     4   8  14  25  43  69  97 126 159 197 242 289
#     4  10  19  32  52  76 102 132 168 209 251 298
#     4   9  16  26  46  77 107 130 159 205 254 297
#     4  11  22  35  51  72 101 135 172 212 255 302
#     4   9  17  29  50  81 108 131 165 209 252 295
#     4   9  17  32  54  76 101 133 168 206 250 300
#     4   9  17  31  51  72  97 130 168 208 251 300
#     4   9  16  26  45  75 106 131 159 202 251 297
#
# _framework density 19.131451999999999
#
# number of rings (size 3 to 8) (size 9 to 14) (size 15 to 20)
#    0.000    2.750    0.000    3.375    0.000    6.000 
#    0.000    4.375    0.000    9.000    0.000    0.000 
#    0.000    0.000    0.000    0.000    0.000    0.000 
#
# Total GULP energy -396752.230078 kJ/mol
# GULP energy per Si atom -12398.507190 kJ/mol
# Density = 1.908791 g / cm^3
# Si number density = 19.131452 Si / 1000 Ang^3
#
#
#
# Elastic Constant Matrix: (Units=GPa)
#
#
# Indices 1 2 3 4 5 6 
#
# 1 21.9648 17.6994 15.5516 0.0000 0.0000 0.0000
# 2 17.6994 162.8710 93.9936 0.0000 0.0000 0.0000
# 3 15.5516 93.9936 131.2516 0.0000 0.0000 0.0000
# 4 0.0000 0.0000 0.0000 45.6324 0.0000 0.0000
# 5 0.0000 0.0000 0.0000 0.0000 2.7297 0.0000
# 6 0.0000 0.0000 0.0000 0.0000 0.0000 3.0454
#
#
#
# Elastic Compliance Matrix: (Units=1/GPa)
#
#
# Indices 1 2 3 4 5 6 
#
# 1 0.050835 -0.003491 -0.003523 0.000000 0.000000 0.000000
# 2 -0.003491 0.010704 -0.007252 0.000000 0.000000 0.000000
# 3 -0.003523 -0.007252 0.013230 0.000000 0.000000 0.000000
# 4 0.000000 0.000000 0.000000 0.021914 0.000000 0.000000
# 5 0.000000 0.000000 0.000000 0.000000 0.366347 0.000000
# 6 0.000000 0.000000 0.000000 0.000000 0.000000 0.328363
#
#
# Mechanical properties :
#
#
# Convention : Reuss Voigt Hill
#
# Bulk Modulus (GPa) = 21.62794 63.39740 42.51267
# Shear Modulus (GPa) = 5.98559 22.87101 14.42830
#
# Velocity S-wave (km/s) = 1.77072 3.46130 2.74919
# Velocity P-wave (km/s) = 3.93828 7.01312 5.68744
#
# Compressibility (1/GPa) = 0.04623650
#
# Stress axis : x y z
#
# Youngs Moduli (GPa) = 19.67149 93.41895 75.58613
#
# Poissons Ratio (x) = 0.32612 0.26631
# Poissons Ratio (y) = 0.06867 0.54816
# Poissons Ratio (z) = 0.06931 0.67749
#
# Static dielectric constant tensor:
#      x y z
#    x 2.817900 0.000000 0.000000 
#    y 0.000000 3.656320 0.000000 
#    z 0.000000 0.000000 3.803710 
# 
# 
# High freq. dielectric constant tensor:
#      x y z
#    x 1.674090 0.000000 0.000000 
#    y 0.000000 1.750110 0.000000 
#    z 0.000000 0.000000 1.761760 
# 
# From -- ./inp_files/23356.got.cif
#   From: 2010.03.12/outbox.cif.g09.slc.cpg/sg40_12_cif.got.tgz:23356.got - 2010.04.14 01:38:03.
