data_PCOD8183620
_publ_section_title
;
Structure prediction by ZEFSAII (Michael W. Deem and Ramdas Pophale) SiO2 
 PCOD8183620
Probable space group: A M A 2
;
_chemical_formula_sum "Si O2"
_cell_formula_units_Z 40
_cell_length_a 8.689231
_cell_length_b 23.529315
_cell_length_c 10.077188
_cell_angle_alpha 90.000000
_cell_angle_beta 90.000000
_cell_angle_gamma 90.000000
_cell_volume 2060.297747
_symmetry_space_group_name_H-M "A M A 2"
_symmetry_group_IT_number 40
_symmetry_cell_setting 'orthorhombic'
loop_
_space_group_symop_operation_xyz
x,y,z
-x,-y,z
1/2-x,y,z
1/2+x,-y,z
x,1/2+y,1/2+z
-x,1/2-y,1/2+z
1/2-x,1/2+y,1/2+z
1/2+x,1/2-y,1/2+z
loop_
_atom_site_type_symbol
_atom_site_label
_atom_site_fract_x
_atom_site_fract_y
_atom_site_fract_z
Si Si1 0.930830 0.747034 0.141220
Si Si2 0.932668 0.439098 0.793351
Si Si3 0.931429 0.132827 0.069439
Si Si4 0.425035 0.648001 0.014032
Si Si5 0.075190 0.156342 0.803303
O O1 0.750000 0.754345 0.154142
O O2 0.998996 0.718387 0.275438
O O3 0.005245 0.808256 0.125324
O O4 0.974795 0.706284 0.015654
O O5 0.750000 0.442291 0.789623
O O6 0.992068 0.396243 0.908165
O O7 0.000000 0.500000 0.829185
O O8 0.996369 0.418821 0.652049
O O9 0.750000 0.130764 0.082543
O O10 0.980336 0.123796 0.916464
O O11 0.250000 0.664452 0.976659
O O12 0.430382 0.621049 0.164064
O O13 0.250000 0.165426 0.853037
#
# Coordination Sequence:
#
# PCOD8183620 Si02
#       5
#     8   8   8   8   8
#     4  10  20  34  58  90 125 160 198 250 313 374
#     4  11  24  44  65  90 123 166 215 262 313 372
#     4  12  24  38  59  90 127 168 209 256 312 375
#     4   8  19  38  61  85 119 158 202 253 306 370
#     4   9  19  38  59  87 121 156 198 251 308 369
#
# _framework density 19.414670000000001
#
# number of rings (size 3 to 8) (size 9 to 14) (size 15 to 20)
#    1.200    0.800    0.000    4.200    2.800    1.600 
#    0.000    1.000    0.000    2.400    0.000    0.000 
#    0.000    0.000    0.000    0.000    0.000    0.000 
#
# Total GULP energy -247863.651825 kJ/mol
# GULP energy per Si atom -12393.182591 kJ/mol
# Density = 1.937048 g / cm^3
# Si number density = 19.414670 Si / 1000 Ang^3
#
#
#
# Elastic Constant Matrix: (Units=GPa)
#
#
# Indices 1 2 3 4 5 6 
#
# 1 108.0261 26.2716 26.0785 0.0000 0.0000 0.0000
# 2 26.2716 65.6246 16.4612 0.0000 0.0000 0.0000
# 3 26.0785 16.4612 77.3837 0.0000 0.0000 0.0000
# 4 0.0000 0.0000 0.0000 18.4081 0.0000 0.0000
# 5 0.0000 0.0000 0.0000 0.0000 25.2382 0.0000
# 6 0.0000 0.0000 0.0000 0.0000 0.0000 31.2012
#
#
#
# Elastic Compliance Matrix: (Units=1/GPa)
#
#
# Indices 1 2 3 4 5 6 
#
# 1 0.010831 -0.003613 -0.002882 0.000000 0.000000 0.000000
# 2 -0.003613 0.017303 -0.002463 0.000000 0.000000 0.000000
# 3 -0.002882 -0.002463 0.014418 0.000000 0.000000 0.000000
# 4 0.000000 0.000000 0.000000 0.054324 0.000000 0.000000
# 5 0.000000 0.000000 0.000000 0.000000 0.039622 0.000000
# 6 0.000000 0.000000 0.000000 0.000000 0.000000 0.032050
#
#
# Mechanical properties :
#
#
# Convention : Reuss Voigt Hill
#
# Bulk Modulus (GPa) = 40.59120 43.18412 41.88766
# Shear Modulus (GPa) = 25.68374 27.11771 26.40072
#
# Velocity S-wave (km/s) = 3.64112 3.74138 3.69159
# Velocity P-wave (km/s) = 6.21529 6.39963 6.30814
#
# Compressibility (1/GPa) = 0.02463588
#
# Stress axis : x y z
#
# Youngs Moduli (GPa) = 92.32402 57.79509 69.35953
#
# Poissons Ratio (x) = 0.20883 0.19986
# Poissons Ratio (y) = 0.33360 0.17083
# Poissons Ratio (z) = 0.26604 0.14234
#
# Static dielectric constant tensor:
#      x y z
#    x 3.590420 0.000000 0.000000 
#    y 0.000000 3.236690 0.000000 
#    z 0.000000 0.000000 3.646120 
# 
# 
# High freq. dielectric constant tensor:
#      x y z
#    x 1.766820 0.000000 0.000000 
#    y 0.000000 1.719530 0.000000 
#    z 0.000000 0.000000 1.762260 
# 
# From -- ./inp_files/4232.got.cif
#   From: 2010.03.12/outbox.cif.g09.slc.cpg/sg40_3_cif.got.tgz:4232.got - 2010.04.14 01:38:03.
