data_PCOD8183911
_publ_section_title
;
Structure prediction by ZEFSAII (Michael W. Deem and Ramdas Pophale) SiO2 
 PCOD8183911
Probable space group: A M A 2
;
_chemical_formula_sum "Si O2"
_cell_formula_units_Z 56
_cell_length_a 14.374966
_cell_length_b 13.968348
_cell_length_c 12.520144
_cell_angle_alpha 90.000000
_cell_angle_beta 90.000000
_cell_angle_gamma 90.000000
_cell_volume 2513.976400
_symmetry_space_group_name_H-M "A M A 2"
_symmetry_group_IT_number 40
_symmetry_cell_setting 'orthorhombic'
loop_
_space_group_symop_operation_xyz
x,y,z
-x,-y,z
1/2-x,y,z
1/2+x,-y,z
x,1/2+y,1/2+z
-x,1/2-y,1/2+z
1/2-x,1/2+y,1/2+z
1/2+x,1/2-y,1/2+z
loop_
_atom_site_type_symbol
_atom_site_label
_atom_site_fract_x
_atom_site_fract_y
_atom_site_fract_z
Si Si1 0.528850 0.294093 0.153070
Si Si2 0.138756 0.694163 0.366964
Si Si3 0.643866 0.443409 0.046815
Si Si4 0.855903 0.098734 0.386950
Si Si5 0.355972 0.494737 0.438632
Si Si6 0.074081 0.419171 0.655769
Si Si7 0.644001 0.596375 0.226347
O O1 0.595948 0.318687 0.250856
O O2 0.575552 0.351619 0.053785
O O3 0.525364 0.181376 0.130101
O O4 0.422300 0.324091 0.174171
O O5 0.250000 0.698976 0.353910
O O6 0.102738 0.795635 0.417560
O O7 0.104059 0.603935 0.439058
O O8 0.750000 0.410268 0.020794
O O9 0.640455 0.499608 0.158286
O O10 0.599312 0.511581 0.953855
O O11 0.750000 0.097582 0.424925
O O12 0.860964 0.084813 0.259599
O O13 0.250000 0.504255 0.405538
O O14 0.366131 0.447181 0.552996
O O15 0.398106 0.429138 0.343853
O O16 0.000000 0.500000 0.679948
O O17 0.750000 0.637277 0.229805
#
# Coordination Sequence:
#
# PCOD8183911 Si02
#       7
#     8   8   8   8   8   8   8
#     4  11  22  40  66  94 123 173 218 272 320 381
#     4   9  18  35  66  99 127 168 214 257 318 393
#     4  10  20  37  67 100 126 159 213 272 322 381
#     4   9  20  41  64  92 134 174 210 257 322 397
#     4  10  21  40  66  94 127 165 213 272 323 384
#     4  11  26  42  59  92 132 173 217 260 323 402
#     4  10  22  40  64  99 128 161 216 277 329 371
#
# _framework density 22.275469000000001
#
# number of rings (size 3 to 8) (size 9 to 14) (size 15 to 20)
#    0.000    2.000    1.429    1.286    2.000    4.000 
#    5.143    2.857    0.000    0.000    0.000    0.000 
#    0.000    0.000    0.000    0.000    0.000    0.000 
#
# Total GULP energy -347053.108978 kJ/mol
# GULP energy per Si atom -12394.753892 kJ/mol
# Density = 2.222477 g / cm^3
# Si number density = 22.275469 Si / 1000 Ang^3
#
#
#
# Elastic Constant Matrix: (Units=GPa)
#
#
# Indices 1 2 3 4 5 6 
#
# 1 72.0973 48.5221 12.8184 0.0000 0.0000 0.0000
# 2 48.5221 180.9908 52.9611 0.0000 0.0000 0.0000
# 3 12.8184 52.9611 101.2378 0.0000 0.0000 0.0000
# 4 0.0000 0.0000 0.0000 37.7453 0.0000 0.0000
# 5 0.0000 0.0000 0.0000 0.0000 10.7739 0.0000
# 6 0.0000 0.0000 0.0000 0.0000 0.0000 19.9082
#
#
#
# Elastic Compliance Matrix: (Units=1/GPa)
#
#
# Indices 1 2 3 4 5 6 
#
# 1 0.016930 -0.004619 0.000272 0.000000 0.000000 0.000000
# 2 -0.004619 0.007784 -0.003487 0.000000 0.000000 0.000000
# 3 0.000272 -0.003487 0.011667 0.000000 0.000000 0.000000
# 4 0.000000 0.000000 0.000000 0.026493 0.000000 0.000000
# 5 0.000000 0.000000 0.000000 0.000000 0.092817 0.000000
# 6 0.000000 0.000000 0.000000 0.000000 0.000000 0.050231
#
#
# Mechanical properties :
#
#
# Convention : Reuss Voigt Hill
#
# Bulk Modulus (GPa) = 48.27459 64.76989 56.52224
# Shear Modulus (GPa) = 21.88250 29.68711 25.78480
#
# Velocity S-wave (km/s) = 3.13766 3.65461 3.40596
# Velocity P-wave (km/s) = 5.90299 6.85187 6.39505
#
# Compressibility (1/GPa) = 0.02071483
#
# Stress axis : x y z
#
# Youngs Moduli (GPa) = 59.06678 128.47302 85.70823
#
# Poissons Ratio (x) = 0.59336 -0.02336
# Poissons Ratio (y) = 0.27280 0.29888
# Poissons Ratio (z) = -0.01610 0.44801
#
# Static dielectric constant tensor:
#      x y z
#    x 3.832420 0.000000 0.000000 
#    y 0.000000 4.263110 0.000000 
#    z 0.000000 0.000000 3.920500 
# 
# 
# High freq. dielectric constant tensor:
#      x y z
#    x 1.869910 0.000000 0.000000 
#    y 0.000000 1.878550 0.000000 
#    z 0.000000 0.000000 1.870070 
# 
# From -- ./inp_files/12232.got.cif
#   From: 2010.03.12/outbox.cif.g09.slc.cpg/sg40_7_cif.got.tgz:12232.got - 2010.04.14 01:38:03.
