data_PCOD8183224
_publ_section_title
;
Structure prediction by ZEFSAII (Michael W. Deem and Ramdas Pophale) SiO2 
 PCOD8183224
Probable space group: A M A 2
;
_chemical_formula_sum "Si O2"
_cell_formula_units_Z 64
_cell_length_a 8.713212
_cell_length_b 16.535627
_cell_length_c 22.560718
_cell_angle_alpha 90.000000
_cell_angle_beta 90.000000
_cell_angle_gamma 90.000000
_cell_volume 3250.512685
_symmetry_space_group_name_H-M "A M A 2"
_symmetry_group_IT_number 40
_symmetry_cell_setting 'orthorhombic'
loop_
_space_group_symop_operation_xyz
x,y,z
-x,-y,z
1/2-x,y,z
1/2+x,-y,z
x,1/2+y,1/2+z
-x,1/2-y,1/2+z
1/2-x,1/2+y,1/2+z
1/2+x,1/2-y,1/2+z
loop_
_atom_site_type_symbol
_atom_site_label
_atom_site_fract_x
_atom_site_fract_y
_atom_site_fract_z
Si Si1 0.567924 0.580250 0.426930
Si Si2 0.432077 0.414959 0.015989
Si Si3 0.930272 0.078785 0.264886
Si Si4 0.572567 0.741613 0.091004
Si Si5 0.432028 0.414541 0.560912
Si Si6 0.071736 0.733477 0.721363
Si Si7 0.076304 0.614751 0.889635
Si Si8 0.078048 0.789588 0.843402
O O1 0.500000 0.500000 0.398977
O O2 0.750000 0.582074 0.426248
O O3 0.509783 0.591660 0.493536
O O4 0.490170 0.646932 0.384550
O O5 0.500000 0.500000 0.042021
O O6 0.250000 0.419043 0.021771
O O7 0.480662 0.409097 0.947572
O O8 0.492727 0.334321 0.052020
O O9 0.750000 0.075081 0.269522
O O10 0.979511 0.149838 0.220640
O O11 0.998605 0.080044 0.331035
O O12 0.000000 0.000000 0.233269
O O13 0.750000 0.755077 0.074926
O O14 0.489962 0.828811 0.086905
O O15 0.551387 0.717095 0.160447
O O16 0.500000 0.500000 0.587535
O O17 0.250000 0.418391 0.568922
O O18 0.250000 0.712643 0.734111
O O19 0.002280 0.781900 0.778121
O O20 0.250000 0.581131 0.896014
O O21 0.076657 0.710202 0.883207
O O22 0.250000 0.820653 0.832847
#
# Coordination Sequence:
#
# PCOD8183224 Si02
#       8
#     8   8   8   8   8   8   8   8
#     4   9  17  30  48  74 103 131 163 204 255 313
#     4  11  23  38  56  81 111 146 187 235 285 335
#     4  11  21  34  53  80 111 141 172 212 263 323
#     4  10  22  39  58  79 108 146 190 236 280 323
#     4  10  20  34  55  82 113 145 179 220 272 332
#     4   9  19  37  56  74  99 137 180 221 265 316
#     4  10  19  34  56  81 108 140 176 219 271 331
#     4   8  15  30  53  75  98 130 168 207 256 315
#
# _framework density 19.689202999999999
#
# number of rings (size 3 to 8) (size 9 to 14) (size 15 to 20)
#    0.000    2.250    0.000    4.125    0.000    3.500 
#    0.000    3.750    0.000    0.000    0.000    0.000 
#    0.000    0.000    0.000    0.000    0.000    0.000 
#
# Total GULP energy -396422.643152 kJ/mol
# GULP energy per Si atom -12388.207598 kJ/mol
# Density = 1.964439 g / cm^3
# Si number density = 19.689203 Si / 1000 Ang^3
#
#
#
# Elastic Constant Matrix: (Units=GPa)
#
#
# Indices 1 2 3 4 5 6 
#
# 1 69.2673 26.8489 16.9364 0.0000 0.0000 0.0000
# 2 26.8489 98.3134 39.4374 0.0000 0.0000 0.0000
# 3 16.9364 39.4374 73.4359 0.0000 0.0000 0.0000
# 4 0.0000 0.0000 0.0000 6.4927 0.0000 0.0000
# 5 0.0000 0.0000 0.0000 0.0000 16.6779 0.0000
# 6 0.0000 0.0000 0.0000 0.0000 0.0000 27.7574
#
#
#
# Elastic Compliance Matrix: (Units=1/GPa)
#
#
# Indices 1 2 3 4 5 6 
#
# 1 0.016320 -0.003756 -0.001747 0.000000 0.000000 0.000000
# 2 -0.003756 0.013829 -0.006560 0.000000 0.000000 0.000000
# 3 -0.001747 -0.006560 0.017543 0.000000 0.000000 0.000000
# 4 0.000000 0.000000 0.000000 0.154020 0.000000 0.000000
# 5 0.000000 0.000000 0.000000 0.000000 0.059960 0.000000
# 6 0.000000 0.000000 0.000000 0.000000 0.000000 0.036026
#
#
# Mechanical properties :
#
#
# Convention : Reuss Voigt Hill
#
# Bulk Modulus (GPa) = 42.43443 45.27354 43.85399
# Shear Modulus (GPa) = 15.16624 20.70518 17.93571
#
# Velocity S-wave (km/s) = 2.77841 3.24636 3.02146
# Velocity P-wave (km/s) = 5.64727 6.09063 5.87314
#
# Compressibility (1/GPa) = 0.02356577
#
# Stress axis : x y z
#
# Youngs Moduli (GPa) = 61.27506 72.31199 57.00203
#
# Poissons Ratio (x) = 0.27162 0.09956
# Poissons Ratio (y) = 0.23016 0.37395
# Poissons Ratio (z) = 0.10702 0.47439
#
# Static dielectric constant tensor:
#      x y z
#    x 3.475400 0.000000 0.000000 
#    y 0.000000 3.878020 0.000000 
#    z 0.000000 0.000000 3.706680 
# 
# 
# High freq. dielectric constant tensor:
#      x y z
#    x 1.752170 0.000000 0.000000 
#    y 0.000000 1.768870 0.000000 
#    z 0.000000 0.000000 1.764540 
# 
# From -- ./inp_files/24260.got.cif
#   From: 2010.03.12/outbox.cif.g09.slc.cpg/sg40_13_cif.got.tgz:24260.got - 2010.04.14 01:38:03.
