data_PCOD8183592
_publ_section_title
;
Structure prediction by ZEFSAII (Michael W. Deem and Ramdas Pophale) SiO2 
 PCOD8183592
Probable space group: A M A 2
;
_chemical_formula_sum "Si O2"
_cell_formula_units_Z 56
_cell_length_a 8.708114
_cell_length_b 14.429268
_cell_length_c 22.003718
_cell_angle_alpha 90.000000
_cell_angle_beta 90.000000
_cell_angle_gamma 90.000000
_cell_volume 2764.804808
_symmetry_space_group_name_H-M "A M A 2"
_symmetry_group_IT_number 40
_symmetry_cell_setting 'orthorhombic'
loop_
_space_group_symop_operation_xyz
x,y,z
-x,-y,z
1/2-x,y,z
1/2+x,-y,z
x,1/2+y,1/2+z
-x,1/2-y,1/2+z
1/2-x,1/2+y,1/2+z
1/2+x,1/2-y,1/2+z
loop_
_atom_site_type_symbol
_atom_site_label
_atom_site_fract_x
_atom_site_fract_y
_atom_site_fract_z
Si Si1 0.568430 0.597437 0.468930
Si Si2 0.430881 0.398548 0.118296
Si Si3 0.927800 0.281779 0.224928
Si Si4 0.071254 0.094294 0.838964
Si Si5 0.930245 0.403282 0.903708
Si Si6 0.568481 0.220382 0.503640
Si Si7 0.430110 0.596822 0.762729
O O1 0.500000 0.500000 0.491556
O O2 0.750000 0.593415 0.472477
O O3 0.516258 0.620318 0.400468
O O4 0.505196 0.678152 0.512677
O O5 0.500000 0.500000 0.117297
O O6 0.250000 0.408239 0.118908
O O7 0.481953 0.344340 0.177734
O O8 0.488144 0.343431 0.058976
O O9 0.750000 0.280817 0.206980
O O10 0.954573 0.323319 0.291743
O O11 0.993113 0.177984 0.223518
O O12 0.250000 0.078216 0.853636
O O13 0.000000 0.000000 0.811237
O O14 0.750000 0.403576 0.916420
O O15 0.969983 0.387880 0.833317
O O16 0.000000 0.500000 0.926926
O O17 0.009600 0.321016 0.940269
O O18 0.750000 0.230211 0.501526
O O19 0.500000 0.500000 0.739800
O O20 0.250000 0.596501 0.750672
#
# Coordination Sequence:
#
# PCOD8183592 Si02
#       7
#     8   8   8   8   8   8   8
#     4  11  22  37  59  86 117 152 189 234 285 340
#     4  11  25  43  63  86 115 150 190 236 284 335
#     4  11  23  38  59  85 115 152 193 237 286 338
#     4  10  20  34  55  85 119 153 189 233 284 340
#     4  10  20  34  56  87 120 155 191 233 285 340
#     4  11  23  39  59  84 115 152 193 238 286 338
#     4  10  21  37  58  85 118 152 190 235 284 339
#
# _framework density 20.254593
#
# number of rings (size 3 to 8) (size 9 to 14) (size 15 to 20)
#    0.000    1.429    0.000    6.429    0.000   10.857 
#    0.000    0.714    0.000    3.429    0.000    0.000 
#    0.000    0.000    0.000    0.000    0.000    0.000 
#
# Total GULP energy -347366.740724 kJ/mol
# GULP energy per Si atom -12405.955026 kJ/mol
# Density = 2.020849 g / cm^3
# Si number density = 20.254593 Si / 1000 Ang^3
#
#
#
# Elastic Constant Matrix: (Units=GPa)
#
#
# Indices 1 2 3 4 5 6 
#
# 1 89.9004 53.5880 33.6925 0.0000 0.0000 0.0000
# 2 53.5880 177.0531 55.1610 0.0000 0.0000 0.0000
# 3 33.6925 55.1610 58.7338 0.0000 0.0000 0.0000
# 4 0.0000 0.0000 0.0000 32.3714 0.0000 0.0000
# 5 0.0000 0.0000 0.0000 0.0000 -14.4847 0.0000
# 6 0.0000 0.0000 0.0000 0.0000 0.0000 41.0234
#
#
#
# Elastic Compliance Matrix: (Units=1/GPa)
#
#
# Indices 1 2 3 4 5 6 
#
# 1 0.014986 -0.002626 -0.006131 0.000000 0.000000 0.000000
# 2 -0.002626 0.008444 -0.006424 0.000000 0.000000 0.000000
# 3 -0.006131 -0.006424 0.026576 0.000000 0.000000 0.000000
# 4 0.000000 0.000000 0.000000 0.030892 0.000000 0.000000
# 5 0.000000 0.000000 0.000000 0.000000 -0.069038 0.000000
# 6 0.000000 0.000000 0.000000 0.000000 0.000000 0.024376
#
#
# Mechanical properties :
#
#
# Convention : Reuss Voigt Hill
#
# Bulk Modulus (GPa) = 50.90312 67.84115 59.37213
# Shear Modulus (GPa) = 68.35572 23.99838 46.17705
#
# Velocity S-wave (km/s) = 5.81563 3.44588 4.77994
# Velocity P-wave (km/s) = 8.38341 7.02844 7.73565
#
# Compressibility (1/GPa) = 0.01964516
#
# Stress axis : x y z
#
# Youngs Moduli (GPa) = 66.72773 118.42357 37.62738
#
# Poissons Ratio (x) = 0.31096 0.23068
# Poissons Ratio (y) = 0.17521 0.24173
# Poissons Ratio (z) = 0.40909 0.76079
#
# Static dielectric constant tensor:
#      x y z
#    x 3.828260 0.000000 0.000000 
#    y 0.000000 4.010750 0.000000 
#    z 0.000000 0.000000 3.505520 
# 
# 
# High freq. dielectric constant tensor:
#      x y z
#    x 1.807230 0.000000 0.000000 
#    y 0.000000 1.809990 0.000000 
#    z 0.000000 0.000000 1.767600 
# 
# From -- ./inp_files/22203.got.cif
#   From: 2010.03.12/outbox.cif.g09.slc.cpg/sg40_12_cif.got.tgz:22203.got - 2010.04.14 01:38:03.
