data_PCOD8183096
_publ_section_title
;
Structure prediction by ZEFSAII (Michael W. Deem and Ramdas Pophale) SiO2 
 PCOD8183096
Probable space group: A M A 2
;
_chemical_formula_sum "Si O2"
_cell_formula_units_Z 40
_cell_length_a 20.242564
_cell_length_b 19.308321
_cell_length_c 5.216566
_cell_angle_alpha 90.000000
_cell_angle_beta 90.000000
_cell_angle_gamma 90.000000
_cell_volume 2038.894422
_symmetry_space_group_name_H-M "A M A 2"
_symmetry_group_IT_number 40
_symmetry_cell_setting 'orthorhombic'
loop_
_space_group_symop_operation_xyz
x,y,z
-x,-y,z
1/2-x,y,z
1/2+x,-y,z
x,1/2+y,1/2+z
-x,1/2-y,1/2+z
1/2-x,1/2+y,1/2+z
1/2+x,1/2-y,1/2+z
loop_
_atom_site_type_symbol
_atom_site_label
_atom_site_fract_x
_atom_site_fract_y
_atom_site_fract_z
Si Si1 0.828042 0.167202 0.083670
Si Si2 0.564105 0.455308 0.115136
Si Si3 0.825376 0.019507 0.897712
Si Si4 0.671248 0.746005 0.082936
Si Si5 0.390711 0.104421 0.106209
O O1 0.750000 0.171829 0.090325
O O2 0.855821 0.199332 0.347396
O O3 0.850127 0.087630 0.049707
O O4 0.854608 0.211292 0.843444
O O5 0.500000 0.500000 0.058117
O O6 0.627585 0.506694 0.149761
O O7 0.556284 0.410380 0.377327
O O8 0.574392 0.402256 0.880829
O O9 0.750000 0.028070 0.801741
O O10 0.832603 0.953627 0.087776
O O11 0.750000 0.752653 0.075410
O O12 0.640364 0.821299 0.063222
#
# Coordination Sequence:
#
# PCOD8183096 Si02
#       5
#     8   8   8   8   8
#     4   9  19  32  51  79 119 149 175 223 293 345
#     4  10  22  38  59  85 113 155 192 239 290 341
#     4   9  21  36  59  90 112 145 194 244 285 337
#     4  10  19  33  52  83 119 149 177 228 293 343
#     4  10  21  35  59  83 111 148 192 238 275 338
#
# _framework density 19.618475
#
# number of rings (size 3 to 8) (size 9 to 14) (size 15 to 20)
#    1.200    1.200    0.000    2.400    2.800    1.600 
#    0.000    0.000    0.000    4.800    0.000    0.000 
#    0.000    0.000    0.000    0.000    0.000    0.000 
#
# Total GULP energy -247838.109273 kJ/mol
# GULP energy per Si atom -12391.905464 kJ/mol
# Density = 1.957382 g / cm^3
# Si number density = 19.618475 Si / 1000 Ang^3
#
#
#
# Elastic Constant Matrix: (Units=GPa)
#
#
# Indices 1 2 3 4 5 6 
#
# 1 45.0823 0.9203 7.2263 0.0000 0.0000 0.0000
# 2 0.9203 106.8348 16.5641 0.0000 0.0000 0.0000
# 3 7.2263 16.5641 125.2121 0.0000 0.0000 0.0000
# 4 0.0000 0.0000 0.0000 25.3758 0.0000 0.0000
# 5 0.0000 0.0000 0.0000 0.0000 13.1755 0.0000
# 6 0.0000 0.0000 0.0000 0.0000 0.0000 4.4444
#
#
#
# Elastic Compliance Matrix: (Units=1/GPa)
#
#
# Indices 1 2 3 4 5 6 
#
# 1 0.022389 0.000008 -0.001293 0.000000 0.000000 0.000000
# 2 0.000008 0.009556 -0.001265 0.000000 0.000000 0.000000
# 3 -0.001293 -0.001265 0.008228 0.000000 0.000000 0.000000
# 4 0.000000 0.000000 0.000000 0.039408 0.000000 0.000000
# 5 0.000000 0.000000 0.000000 0.000000 0.075899 0.000000
# 6 0.000000 0.000000 0.000000 0.000000 0.000000 0.225004
#
#
# Mechanical properties :
#
#
# Convention : Reuss Voigt Hill
#
# Bulk Modulus (GPa) = 28.51180 36.28338 32.39759
# Shear Modulus (GPa) = 12.58575 25.42703 19.00639
#
# Velocity S-wave (km/s) = 2.53558 3.60401 3.11593
# Velocity P-wave (km/s) = 4.81009 5.98775 5.43093
#
# Compressibility (1/GPa) = 0.03507320
#
# Stress axis : x y z
#
# Youngs Moduli (GPa) = 44.66521 104.64352 121.53077
#
# Poissons Ratio (x) = -0.00080 0.15715
# Poissons Ratio (y) = -0.00034 0.15369
# Poissons Ratio (z) = 0.05776 0.13233
#
# Static dielectric constant tensor:
#      x y z
#    x 3.152520 0.000000 0.000000 
#    y 0.000000 3.543250 0.000000 
#    z 0.000000 0.000000 3.737230 
# 
# 
# High freq. dielectric constant tensor:
#      x y z
#    x 1.717510 0.000000 0.000000 
#    y 0.000000 1.768790 0.000000 
#    z 0.000000 0.000000 1.771880 
# 
# From -- ./inp_files/2268.got.cif
#   From: 2010.03.12/outbox.cif.g09.slc.cpg/sg40_2_cif.got.tgz:2268.got - 2010.04.14 01:38:03.
