data_PCOD8183634
_publ_section_title
;
Structure prediction by ZEFSAII (Michael W. Deem and Ramdas Pophale) SiO2 
 PCOD8183634
Probable space group: A M A 2
;
_chemical_formula_sum "Si O2"
_cell_formula_units_Z 48
_cell_length_a 9.155264
_cell_length_b 22.432361
_cell_length_c 12.800645
_cell_angle_alpha 90.000000
_cell_angle_beta 90.000000
_cell_angle_gamma 90.000000
_cell_volume 2628.922061
_symmetry_space_group_name_H-M "A M A 2"
_symmetry_group_IT_number 40
_symmetry_cell_setting 'orthorhombic'
loop_
_space_group_symop_operation_xyz
x,y,z
-x,-y,z
1/2-x,y,z
1/2+x,-y,z
x,1/2+y,1/2+z
-x,1/2-y,1/2+z
1/2-x,1/2+y,1/2+z
1/2+x,1/2-y,1/2+z
loop_
_atom_site_type_symbol
_atom_site_label
_atom_site_fract_x
_atom_site_fract_y
_atom_site_fract_z
Si Si1 0.076367 0.438532 0.755690
Si Si2 0.923150 0.752514 0.970876
Si Si3 0.423633 0.438532 0.186062
Si Si4 0.585985 0.654893 0.585479
Si Si5 0.914015 0.154893 0.856273
Si Si6 0.422971 0.882275 0.470876
O O1 0.250000 0.446823 0.751465
O O2 0.022116 0.390131 0.671135
O O3 0.020626 0.417064 0.869007
O O4 0.000000 0.500000 0.726799
O O5 0.750000 0.755787 0.970876
O O6 0.982844 0.685137 0.970876
O O7 0.985481 0.785629 0.866546
O O8 0.985481 0.785629 0.075207
O O9 0.500000 0.500000 0.214952
O O10 0.250000 0.446823 0.190287
O O11 0.477884 0.390131 0.270617
O O12 0.479374 0.417064 0.072746
O O13 0.750000 0.674388 0.617998
O O14 0.587945 0.623019 0.470876
O O15 0.750000 0.174387 0.823755
O O16 0.250000 0.879538 0.470876
#
# Coordination Sequence:
#
# PCOD8183634 Si02
#       6
#     8   8   8   8   8   8
#     4  10  20  35  53  73 102 135 167 204 246 295
#     4   9  17  32  53  77 100 128 168 205 244 299
#     4  10  20  35  53  73 102 135 167 204 246 295
#     4   8  17  34  51  73 103 132 160 202 257 295
#     4   8  17  34  51  73 103 132 160 202 257 295
#     4   9  19  34  52  75 103 134 163 203 254 291
#
# _framework density 18.258434000000001
#
# number of rings (size 3 to 8) (size 9 to 14) (size 15 to 20)
#    1.000    2.000    0.000    0.500    0.000    3.333 
#    0.000    3.333    0.000    0.000    0.000    0.000 
#    0.000    0.000    0.000    0.000    0.000    0.000 
#
# Total GULP energy -297401.336310 kJ/mol
# GULP energy per Si atom -12391.722346 kJ/mol
# Density = 1.821688 g / cm^3
# Si number density = 18.258434 Si / 1000 Ang^3
#
#
#
# Elastic Constant Matrix: (Units=GPa)
#
#
# Indices 1 2 3 4 5 6 
#
# 1 42.4738 26.3721 4.7557 0.0000 0.0000 0.0000
# 2 26.3721 85.6867 1.5638 0.0000 0.0000 0.0000
# 3 4.7557 1.5638 52.5543 0.0000 0.0000 0.0000
# 4 0.0000 0.0000 0.0000 34.3067 0.0000 0.0000
# 5 0.0000 0.0000 0.0000 0.0000 16.1855 0.0000
# 6 0.0000 0.0000 0.0000 0.0000 0.0000 22.3345
#
#
#
# Elastic Compliance Matrix: (Units=1/GPa)
#
#
# Indices 1 2 3 4 5 6 
#
# 1 0.029404 -0.009006 -0.002393 0.000000 0.000000 0.000000
# 2 -0.009006 0.014435 0.000385 0.000000 0.000000 0.000000
# 3 -0.002393 0.000385 0.019233 0.000000 0.000000 0.000000
# 4 0.000000 0.000000 0.000000 0.029149 0.000000 0.000000
# 5 0.000000 0.000000 0.000000 0.000000 0.061784 0.000000
# 6 0.000000 0.000000 0.000000 0.000000 0.000000 0.044774
#
#
# Mechanical properties :
#
#
# Convention : Reuss Voigt Hill
#
# Bulk Modulus (GPa) = 24.36341 27.34422 25.85381
# Shear Modulus (GPa) = 21.32319 24.43357 22.87838
#
# Velocity S-wave (km/s) = 3.42110 3.66212 3.54366
# Velocity P-wave (km/s) = 5.38310 5.73500 5.56184
#
# Compressibility (1/GPa) = 0.04104516
#
# Stress axis : x y z
#
# Youngs Moduli (GPa) = 34.00927 69.27504 51.99394
#
# Poissons Ratio (x) = 0.62389 0.12441
# Poissons Ratio (y) = 0.30629 -0.02004
# Poissons Ratio (z) = 0.08138 -0.02670
#
# Static dielectric constant tensor:
#      x y z
#    x 3.074570 0.000000 0.000000 
#    y 0.000000 3.283630 0.000000 
#    z 0.000000 0.000000 3.438090 
# 
# 
# High freq. dielectric constant tensor:
#      x y z
#    x 1.684410 0.000000 0.000000 
#    y 0.000000 1.700810 0.000000 
#    z 0.000000 0.000000 1.707270 
# 
# From -- ./inp_files/15152.got.cif
#   From: 2010.03.12/outbox.cif.g09.slc.cpg/sg40_8_cif.got.tgz:15152.got - 2010.04.14 01:38:03.
