data_PCOD8183071
_publ_section_title
;
Structure prediction by ZEFSAII (Michael W. Deem and Ramdas Pophale) SiO2 
 PCOD8183071
Probable space group: A M A 2
;
_chemical_formula_sum "Si O2"
_cell_formula_units_Z 64
_cell_length_a 8.622660
_cell_length_b 14.743552
_cell_length_c 27.681962
_cell_angle_alpha 90.000000
_cell_angle_beta 90.000000
_cell_angle_gamma 90.000000
_cell_volume 3519.170073
_symmetry_space_group_name_H-M "A M A 2"
_symmetry_group_IT_number 40
_symmetry_cell_setting 'orthorhombic'
loop_
_space_group_symop_operation_xyz
x,y,z
-x,-y,z
1/2-x,y,z
1/2+x,-y,z
x,1/2+y,1/2+z
-x,1/2-y,1/2+z
1/2-x,1/2+y,1/2+z
1/2+x,1/2-y,1/2+z
loop_
_atom_site_type_symbol
_atom_site_label
_atom_site_fract_x
_atom_site_fract_y
_atom_site_fract_z
Si Si1 0.565770 0.096632 0.920510
Si Si2 0.434628 0.402803 0.701429
Si Si3 0.066785 0.405338 0.530035
Si Si4 0.932899 0.903271 0.304968
Si Si5 0.931721 0.593885 0.972144
Si Si6 0.566363 0.219465 0.114665
Si Si7 0.432752 0.094203 0.576513
Si Si8 0.568164 0.223020 0.385089
O O1 0.750000 0.097913 0.914958
O O2 0.490216 0.173813 0.887230
O O3 0.500000 0.000000 0.902841
O O4 0.510968 0.115426 0.975558
O O5 0.500000 0.500000 0.685253
O O6 0.250000 0.407754 0.703209
O O7 0.498220 0.374226 0.753452
O O8 0.496474 0.328133 0.663149
O O9 0.250000 0.411374 0.531575
O O10 0.001262 0.329308 0.566434
O O11 0.000000 0.500000 0.548589
O O12 0.750000 0.912874 0.300614
O O13 0.976954 0.825728 0.342387
O O14 0.000000 0.000000 0.322156
O O15 0.750000 0.581647 0.979548
O O16 0.000000 0.500000 0.951237
O O17 0.007686 0.617570 0.023196
O O18 0.973166 0.673816 0.935302
O O19 0.750000 0.211455 0.114005
O O20 0.514964 0.324908 0.112554
O O21 0.250000 0.085571 0.573687
O O22 0.500000 0.000000 0.596750
O O23 0.750000 0.219451 0.373971
#
# Coordination Sequence:
#
# PCOD8183071 Si02
#       8
#     8   8   8   8   8   8   8   8
#     4  10  20  34  52  74 104 141 177 215 256 298
#     4  10  19  34  54  77 104 132 163 201 250 303
#     4   9  17  30  47  71 102 135 169 204 245 294
#     4  11  22  37  56  79 106 134 165 204 255 310
#     4  10  20  32  48  73 104 136 170 209 253 302
#     4   9  18  31  50  73  99 133 169 204 247 300
#     4  10  19  33  50  70  99 135 173 210 249 293
#     4  11  22  35  53  77 103 134 174 215 257 306
#
# _framework density 18.186104
#
# number of rings (size 3 to 8) (size 9 to 14) (size 15 to 20)
#    0.000    2.000    0.000    6.000    0.000    4.500 
#    0.000    4.375    0.000    0.750    0.000    3.500 
#    0.000    0.000    0.000    0.000    0.000    0.000 
#
# Total GULP energy -396825.042578 kJ/mol
# GULP energy per Si atom -12400.782581 kJ/mol
# Density = 1.814471 g / cm^3
# Si number density = 18.186104 Si / 1000 Ang^3
#
#
#
# Elastic Constant Matrix: (Units=GPa)
#
#
# Indices 1 2 3 4 5 6 
#
# 1 80.2337 39.2344 30.5484 0.0000 0.0000 0.0000
# 2 39.2344 147.9160 72.6777 0.0000 0.0000 0.0000
# 3 30.5484 72.6777 84.7235 0.0000 0.0000 0.0000
# 4 0.0000 0.0000 0.0000 33.0343 0.0000 0.0000
# 5 0.0000 0.0000 0.0000 0.0000 15.3141 0.0000
# 6 0.0000 0.0000 0.0000 0.0000 0.0000 26.7177
#
#
#
# Elastic Compliance Matrix: (Units=1/GPa)
#
#
# Indices 1 2 3 4 5 6 
#
# 1 0.014873 -0.002265 -0.003420 0.000000 0.000000 0.000000
# 2 -0.002265 0.012031 -0.009504 0.000000 0.000000 0.000000
# 3 -0.003420 -0.009504 0.021189 0.000000 0.000000 0.000000
# 4 0.000000 0.000000 0.000000 0.030272 0.000000 0.000000
# 5 0.000000 0.000000 0.000000 0.000000 0.065299 0.000000
# 6 0.000000 0.000000 0.000000 0.000000 0.000000 0.037428
#
#
# Mechanical properties :
#
#
# Convention : Reuss Voigt Hill
#
# Bulk Modulus (GPa) = 56.44671 66.42156 61.43414
# Shear Modulus (GPa) = 23.00172 26.37405 24.68789
#
# Velocity S-wave (km/s) = 3.56026 3.81232 3.68844
# Velocity P-wave (km/s) = 6.92866 7.48204 7.21066
#
# Compressibility (1/GPa) = 0.01771582
#
# Stress axis : x y z
#
# Youngs Moduli (GPa) = 67.23519 83.11887 47.19447
#
# Poissons Ratio (x) = 0.18823 0.16141
# Poissons Ratio (y) = 0.15226 0.44853
# Poissons Ratio (z) = 0.22995 0.78995
#
# Static dielectric constant tensor:
#      x y z
#    x 3.318970 0.000000 0.000000 
#    y 0.000000 3.435320 0.000000 
#    z 0.000000 0.000000 3.314810 
# 
# 
# High freq. dielectric constant tensor:
#      x y z
#    x 1.707980 0.000000 0.000000 
#    y 0.000000 1.708360 0.000000 
#    z 0.000000 0.000000 1.683480 
# 
# From -- ./inp_files/24279.got.cif
#   From: 2010.03.12/outbox.cif.g09.slc.cpg/sg40_13_cif.got.tgz:24279.got - 2010.04.14 01:38:03.
