data_PCOD8183311
_publ_section_title
;
Structure prediction by ZEFSAII (Michael W. Deem and Ramdas Pophale) SiO2 
 PCOD8183311
Probable space group: A M A 2
;
_chemical_formula_sum "Si O2"
_cell_formula_units_Z 64
_cell_length_a 8.562504
_cell_length_b 27.016560
_cell_length_c 13.032361
_cell_angle_alpha 90.000000
_cell_angle_beta 90.000000
_cell_angle_gamma 90.000000
_cell_volume 3014.768291
_symmetry_space_group_name_H-M "A M A 2"
_symmetry_group_IT_number 40
_symmetry_cell_setting 'orthorhombic'
loop_
_space_group_symop_operation_xyz
x,y,z
-x,-y,z
1/2-x,y,z
1/2+x,-y,z
x,1/2+y,1/2+z
-x,1/2-y,1/2+z
1/2-x,1/2+y,1/2+z
1/2+x,1/2-y,1/2+z
loop_
_atom_site_type_symbol
_atom_site_label
_atom_site_fract_x
_atom_site_fract_y
_atom_site_fract_z
Si Si1 0.431491 0.596668 0.027350
Si Si2 0.426507 0.263901 0.425513
Si Si3 0.564899 0.552680 0.233110
Si Si4 0.564876 0.382368 0.637549
Si Si5 0.571549 0.698053 0.079373
Si Si6 0.934330 0.554473 0.820821
Si Si7 0.067908 0.376784 0.417246
Si Si8 0.073194 0.220528 0.216167
O O1 0.250000 0.584826 0.014735
O O2 0.498074 0.564677 0.120911
O O3 0.455522 0.654275 0.051841
O O4 0.516003 0.585655 0.920376
O O5 0.250000 0.263429 0.470792
O O6 0.556664 0.244984 0.503420
O O7 0.469300 0.319595 0.392240
O O8 0.438524 0.222111 0.337788
O O9 0.500000 0.500000 0.269364
O O10 0.750000 0.551750 0.224799
O O11 0.508512 0.592299 0.318526
O O12 0.750000 0.383178 0.650350
O O13 0.496822 0.422723 0.715071
O O14 0.518689 0.394816 0.520686
O O15 0.490828 0.328581 0.669735
O O16 0.750000 0.678129 0.085025
O O17 0.510955 0.724874 0.182984
O O18 0.750000 0.552809 0.815342
O O19 0.000000 0.500000 0.834002
O O20 0.250000 0.386426 0.434705
O O21 0.250000 0.218312 0.176220
#
# Coordination Sequence:
#
# PCOD8183311 Si02
#       8
#     8   8   8   8   8   8   8   8
#     4  12  25  43  66  97 132 168 212 269 328 395
#     4  10  19  35  58  85 120 165 211 259 311 371
#     4  11  24  44  68  95 126 168 216 272 332 390
#     4  11  22  40  65  95 134 176 218 269 323 384
#     4  11  21  37  59  89 124 165 207 251 308 373
#     4  12  26  46  70  97 127 167 216 271 330 395
#     4  10  22  40  63  91 131 177 221 270 325 384
#     4   9  19  35  57  85 123 166 206 251 307 367
#
# _framework density 21.228828
#
# number of rings (size 3 to 8) (size 9 to 14) (size 15 to 20)
#    0.000    1.250    1.250    5.250    0.000    4.500 
#    0.000    4.375    0.000    0.000    0.000    0.000 
#    0.000    0.000    0.000    0.000    0.000    0.000 
#
# Total GULP energy -396681.005435 kJ/mol
# GULP energy per Si atom -12396.281420 kJ/mol
# Density = 2.118051 g / cm^3
# Si number density = 21.228828 Si / 1000 Ang^3
#
#
#
# Elastic Constant Matrix: (Units=GPa)
#
#
# Indices 1 2 3 4 5 6 
#
# 1 84.8708 15.7557 27.0319 0.0000 0.0000 0.0000
# 2 15.7557 80.7391 1.9816 0.0000 0.0000 0.0000
# 3 27.0319 1.9816 82.6486 0.0000 0.0000 0.0000
# 4 0.0000 0.0000 0.0000 40.3627 0.0000 0.0000
# 5 0.0000 0.0000 0.0000 0.0000 28.1753 0.0000
# 6 0.0000 0.0000 0.0000 0.0000 0.0000 32.4770
#
#
#
# Elastic Compliance Matrix: (Units=1/GPa)
#
#
# Indices 1 2 3 4 5 6 
#
# 1 0.013661 -0.002558 -0.004407 0.000000 0.000000 0.000000
# 2 -0.002558 0.012872 0.000528 0.000000 0.000000 0.000000
# 3 -0.004407 0.000528 0.013528 0.000000 0.000000 0.000000
# 4 0.000000 0.000000 0.000000 0.024775 0.000000 0.000000
# 5 0.000000 0.000000 0.000000 0.000000 0.035492 0.000000
# 6 0.000000 0.000000 0.000000 0.000000 0.000000 0.030791
#
#
# Mechanical properties :
#
#
# Convention : Reuss Voigt Hill
#
# Bulk Modulus (GPa) = 36.78131 37.53300 37.15715
# Shear Modulus (GPa) = 32.66798 33.76894 33.21846
#
# Velocity S-wave (km/s) = 3.92707 3.99270 3.96002
# Velocity P-wave (km/s) = 6.15843 6.24293 6.20082
#
# Compressibility (1/GPa) = 0.02718772
#
# Stress axis : x y z
#
# Youngs Moduli (GPa) = 73.20090 77.68965 73.92026
#
# Poissons Ratio (x) = 0.19871 0.32575
# Poissons Ratio (y) = 0.18723 -0.03902
# Poissons Ratio (z) = 0.32258 -0.04101
#
# Static dielectric constant tensor:
#      x y z
#    x 3.687330 0.000000 0.000000 
#    y 0.000000 4.003190 0.000000 
#    z 0.000000 0.000000 4.007820 
# 
# 
# High freq. dielectric constant tensor:
#      x y z
#    x 1.819250 0.000000 0.000000 
#    y 0.000000 1.841470 0.000000 
#    z 0.000000 0.000000 1.844310 
# 
# From -- ./inp_files/10684.got.cif
#   From: 2010.03.12/outbox.cif.g09.slc.cpg/sg40_6_cif.got.tgz:10684.got - 2010.04.14 01:38:03.
