data_PCOD8183991
_publ_section_title
;
Structure prediction by ZEFSAII (Michael W. Deem and Ramdas Pophale) SiO2 
 PCOD8183991
Probable space group: A M A 2
;
_chemical_formula_sum "Si O2"
_cell_formula_units_Z 64
_cell_length_a 18.085530
_cell_length_b 23.316723
_cell_length_c 7.542047
_cell_angle_alpha 90.000000
_cell_angle_beta 90.000000
_cell_angle_gamma 90.000000
_cell_volume 3180.445722
_symmetry_space_group_name_H-M "A M A 2"
_symmetry_group_IT_number 40
_symmetry_cell_setting 'orthorhombic'
loop_
_space_group_symop_operation_xyz
x,y,z
-x,-y,z
1/2-x,y,z
1/2+x,-y,z
x,1/2+y,1/2+z
-x,1/2-y,1/2+z
1/2-x,1/2+y,1/2+z
1/2+x,1/2-y,1/2+z
loop_
_atom_site_type_symbol
_atom_site_label
_atom_site_fract_x
_atom_site_fract_y
_atom_site_fract_z
Si Si1 0.410632 0.178239 0.115310
Si Si2 0.560836 0.339498 0.216582
Si Si3 0.396565 0.859765 0.821981
Si Si4 0.334680 0.291103 0.024151
Si Si5 0.424981 0.789997 0.163948
Si Si6 0.336410 0.981017 0.902619
Si Si7 0.833011 0.934607 0.592317
Si Si8 0.666729 0.934721 0.200906
O O1 0.366297 0.237475 0.136465
O O2 0.493226 0.184474 0.190301
O O3 0.374369 0.125826 0.218441
O O4 0.404955 0.162161 0.910387
O O5 0.476243 0.358346 0.229331
O O6 0.567798 0.277564 0.124178
O O7 0.608413 0.383475 0.102387
O O8 0.339997 0.843768 0.663442
O O9 0.381458 0.922487 0.898445
O O10 0.387885 0.817262 0.989813
O O11 0.250000 0.280974 0.970138
O O12 0.379264 0.303192 0.842473
O O13 0.250000 0.967444 0.929094
O O14 0.353858 0.014154 0.722334
O O15 0.368459 0.019686 0.064187
O O16 0.750000 0.911197 0.633725
O O17 0.835806 0.962017 0.396389
O O18 0.750000 0.922053 0.136229
#
# Coordination Sequence:
#
# PCOD8183991 Si02
#       8
#     8   8   8   8   8   8   8   8
#     4  10  20  39  64  91 129 168 209 267 326 382
#     4  10  21  39  65  91 128 166 211 265 322 385
#     4  11  24  41  67  92 127 178 215 254 329 393
#     4  11  24  39  63  97 129 168 220 266 321 393
#     4  10  24  42  62  93 133 171 203 269 330 384
#     4  10  22  43  62  88 131 166 210 269 314 375
#     4  10  22  38  62  93 123 165 212 267 326 376
#     4  10  21  37  64  93 122 166 213 264 324 378
#
# _framework density 20.122964
#
# number of rings (size 3 to 8) (size 9 to 14) (size 15 to 20)
#    0.000    1.750    2.500    0.750    3.500    4.500 
#    0.000    1.250    5.500    0.000    0.000    0.000 
#    0.000    0.000    0.000    0.000    0.000    0.000 
#
# Total GULP energy -396834.886541 kJ/mol
# GULP energy per Si atom -12401.090204 kJ/mol
# Density = 2.007716 g / cm^3
# Si number density = 20.122964 Si / 1000 Ang^3
#
#
#
# Elastic Constant Matrix: (Units=GPa)
#
#
# Indices 1 2 3 4 5 6 
#
# 1 85.2705 46.9491 49.4880 0.0000 0.0000 0.0000
# 2 46.9491 113.1196 55.6020 0.0000 0.0000 0.0000
# 3 49.4880 55.6020 120.1471 0.0000 0.0000 0.0000
# 4 0.0000 0.0000 0.0000 28.2034 0.0000 0.0000
# 5 0.0000 0.0000 0.0000 0.0000 27.6605 0.0000
# 6 0.0000 0.0000 0.0000 0.0000 0.0000 29.2349
#
#
#
# Elastic Compliance Matrix: (Units=1/GPa)
#
#
# Indices 1 2 3 4 5 6 
#
# 1 0.017162 -0.004722 -0.004883 0.000000 0.000000 0.000000
# 2 -0.004722 0.012743 -0.003952 0.000000 0.000000 0.000000
# 3 -0.004883 -0.003952 0.012163 0.000000 0.000000 0.000000
# 4 0.000000 0.000000 0.000000 0.035457 0.000000 0.000000
# 5 0.000000 0.000000 0.000000 0.000000 0.036153 0.000000
# 6 0.000000 0.000000 0.000000 0.000000 0.000000 0.034206
#
#
# Mechanical properties :
#
#
# Convention : Reuss Voigt Hill
#
# Bulk Modulus (GPa) = 66.87918 69.17950 68.02934
# Shear Modulus (GPa) = 27.78049 28.11963 27.95006
#
# Velocity S-wave (km/s) = 3.71959 3.74222 3.73092
# Velocity P-wave (km/s) = 7.19406 7.28871 7.24154
#
# Compressibility (1/GPa) = 0.01495234
#
# Stress axis : x y z
#
# Youngs Moduli (GPa) = 58.26956 78.47625 82.21355
#
# Poissons Ratio (x) = 0.37060 0.40148
# Poissons Ratio (y) = 0.27517 0.32490
# Poissons Ratio (z) = 0.28455 0.31013
#
# Static dielectric constant tensor:
#      x y z
#    x 3.561710 0.000000 0.000000 
#    y 0.000000 3.573160 0.000000 
#    z 0.000000 0.000000 3.716020 
# 
# 
# High freq. dielectric constant tensor:
#      x y z
#    x 1.779130 0.000000 0.000000 
#    y 0.000000 1.776250 0.000000 
#    z 0.000000 0.000000 1.798110 
# 
# From -- ./inp_files/7828.got.cif
#   From: 2010.03.12/outbox.cif.g09.slc.cpg/sg40_4_cif.got.tgz:7828.got - 2010.04.14 01:38:03.
