data_PCOD8183912
_publ_section_title
;
Structure prediction by ZEFSAII (Michael W. Deem and Ramdas Pophale) SiO2 
 PCOD8183912
Probable space group: A M A 2
;
_chemical_formula_sum "Si O2"
_cell_formula_units_Z 48
_cell_length_a 30.627666
_cell_length_b 12.186990
_cell_length_c 5.223653
_cell_angle_alpha 90.000000
_cell_angle_beta 90.000000
_cell_angle_gamma 90.000000
_cell_volume 1949.775805
_symmetry_space_group_name_H-M "A M A 2"
_symmetry_group_IT_number 40
_symmetry_cell_setting 'orthorhombic'
loop_
_space_group_symop_operation_xyz
x,y,z
-x,-y,z
1/2-x,y,z
1/2+x,-y,z
x,1/2+y,1/2+z
-x,1/2-y,1/2+z
1/2-x,1/2+y,1/2+z
1/2+x,1/2-y,1/2+z
loop_
_atom_site_type_symbol
_atom_site_label
_atom_site_fract_x
_atom_site_fract_y
_atom_site_fract_z
Si Si1 0.250000 0.434254 0.721570
Si Si2 0.750000 0.703215 0.218953
Si Si3 0.157570 0.273309 0.228941
Si Si4 0.027798 0.765046 0.321523
Si Si5 0.113194 0.137951 0.684318
Si Si6 0.099844 0.415605 0.916326
Si Si7 0.336648 0.993798 0.008571
O O1 0.250000 0.335287 0.516489
O O2 0.293775 0.507577 0.684409
O O3 0.250000 0.395264 0.012835
O O4 0.794148 0.776392 0.169863
O O5 0.132714 0.204760 0.446373
O O6 0.171752 0.398897 0.302290
O O7 0.124431 0.298600 0.992005
O O8 0.066501 0.680638 0.266863
O O9 0.049122 0.884833 0.371366
O O10 0.003085 0.725709 0.575553
O O11 0.103548 0.010122 0.624151
O O12 0.150566 0.118286 0.906594
O O13 0.120343 0.454988 0.655150
#
# Coordination Sequence:
#
# PCOD8183912 Si02
#       7
#     4   4   8   8   8   8   8
#     4  10  20  41  67 108 148 194 246 301 350 432
#     4  10  20  37  69 102 146 200 248 297 356 426
#     4  10  21  43  68 103 150 195 246 298 365 439
#     4  12  29  53  75 106 147 185 245 316 372 452
#     4  11  26  45  74 107 142 197 242 307 379 452
#     4  11  24  46  74 102 142 195 236 306 379 445
#     4  10  22  41  73 102 148 193 242 298 367 435
#
# _framework density 24.618214999999999
#
# number of rings (size 3 to 8) (size 9 to 14) (size 15 to 20)
#    0.000    1.333    3.333    1.000    7.000    1.333 
#    0.000    1.667    0.000    0.000    0.000    0.000 
#    0.000    0.000    0.000    0.000    0.000    0.000 
#
# Total GULP energy -297420.314519 kJ/mol
# GULP energy per Si atom -12392.513105 kJ/mol
# Density = 2.456218 g / cm^3
# Si number density = 24.618215 Si / 1000 Ang^3
#
#
#
# Elastic Constant Matrix: (Units=GPa)
#
#
# Indices 1 2 3 4 5 6 
#
# 1 124.6898 33.8008 17.0515 0.0000 0.0000 0.0000
# 2 33.8008 85.6870 1.0426 0.0000 0.0000 0.0000
# 3 17.0515 1.0426 88.7740 0.0000 0.0000 0.0000
# 4 0.0000 0.0000 0.0000 23.4479 0.0000 0.0000
# 5 0.0000 0.0000 0.0000 0.0000 46.8363 0.0000
# 6 0.0000 0.0000 0.0000 0.0000 0.0000 9.3509
#
#
#
# Elastic Compliance Matrix: (Units=1/GPa)
#
#
# Indices 1 2 3 4 5 6 
#
# 1 0.009239 -0.003623 -0.001732 0.000000 0.000000 0.000000
# 2 -0.003623 0.013093 0.000542 0.000000 0.000000 0.000000
# 3 -0.001732 0.000542 0.011591 0.000000 0.000000 0.000000
# 4 0.000000 0.000000 0.000000 0.042648 0.000000 0.000000
# 5 0.000000 0.000000 0.000000 0.000000 0.021351 0.000000
# 6 0.000000 0.000000 0.000000 0.000000 0.000000 0.106942
#
#
# Mechanical properties :
#
#
# Convention : Reuss Voigt Hill
#
# Bulk Modulus (GPa) = 41.15824 44.77116 42.96470
# Shear Modulus (GPa) = 22.46296 32.41076 27.43686
#
# Velocity S-wave (km/s) = 3.02396 3.63235 3.34203
# Velocity P-wave (km/s) = 5.38027 5.98478 5.69056
#
# Compressibility (1/GPa) = 0.02429647
#
# Stress axis : x y z
#
# Youngs Moduli (GPa) = 108.23695 76.37610 86.27472
#
# Poissons Ratio (x) = 0.27674 0.14943
# Poissons Ratio (y) = 0.39219 -0.04678
# Poissons Ratio (z) = 0.18747 -0.04141
#
# Static dielectric constant tensor:
#      x y z
#    x 5.125800 0.000000 0.000000 
#    y 0.000000 4.694970 0.000000 
#    z 0.000000 0.000000 4.395030 
# 
# 
# High freq. dielectric constant tensor:
#      x y z
#    x 1.996120 0.000000 0.000000 
#    y 0.000000 1.986540 0.000000 
#    z 0.000000 0.000000 1.984660 
# 
# From -- ./inp_files/3103.got.cif
#   From: 2010.03.12/outbox.cif.g09.slc.cpg/sg40_2_cif.got.tgz:3103.got - 2010.04.14 01:38:03.
