data_PCOD8183377
_publ_section_title
;
Structure prediction by ZEFSAII (Michael W. Deem and Ramdas Pophale) SiO2 
 PCOD8183377
Probable space group: A M A 2
;
_chemical_formula_sum "Si O2"
_cell_formula_units_Z 64
_cell_length_a 18.044228
_cell_length_b 13.516173
_cell_length_c 13.931793
_cell_angle_alpha 90.000000
_cell_angle_beta 90.000000
_cell_angle_gamma 90.000000
_cell_volume 3397.809771
_symmetry_space_group_name_H-M "A M A 2"
_symmetry_group_IT_number 40
_symmetry_cell_setting 'orthorhombic'
loop_
_space_group_symop_operation_xyz
x,y,z
-x,-y,z
1/2-x,y,z
1/2+x,-y,z
x,1/2+y,1/2+z
-x,1/2-y,1/2+z
1/2-x,1/2+y,1/2+z
1/2+x,1/2-y,1/2+z
loop_
_atom_site_type_symbol
_atom_site_label
_atom_site_fract_x
_atom_site_fract_y
_atom_site_fract_z
Si Si1 0.402152 0.293633 0.750000
Si Si2 0.417262 0.965659 0.099928
Si Si3 0.336315 0.668212 0.611166
Si Si4 0.662838 0.674426 0.953097
Si Si5 0.419962 0.956660 0.878545
Si Si6 0.061358 0.791687 0.735398
Si Si7 0.425739 0.455817 0.086796
Si Si8 0.663631 0.917087 0.736186
O O1 0.390767 0.376287 0.667824
O O2 0.377261 0.333908 0.852161
O O3 0.488072 0.268315 0.760485
O O4 0.350956 0.199377 0.728349
O O5 0.500000 0.000000 0.127911
O O6 0.360232 0.055215 0.107661
O O7 0.413049 0.930960 0.990084
O O8 0.250000 0.676186 0.630096
O O9 0.357536 0.725108 0.511870
O O10 0.374593 0.717092 0.703330
O O11 0.750000 0.665400 0.938552
O O12 0.633600 0.578742 0.009158
O O13 0.408596 0.851429 0.827009
O O14 0.500000 0.000000 0.852005
O O15 0.360471 0.037378 0.839841
O O16 0.042793 0.865639 0.649214
O O17 0.500000 0.500000 0.037632
O O18 0.383724 0.533132 0.153286
O O19 0.750000 0.938539 0.721644
#
# Coordination Sequence:
#
# PCOD8183377 Si02
#       8
#     8   8   8   8   8   8   8   8
#     4  12  22  37  58  87 121 155 196 241 291 349
#     4  11  24  38  60  86 119 158 202 243 294 348
#     4  10  22  42  63  86 119 157 198 245 295 355
#     4  10  23  39  61  89 118 153 197 244 294 348
#     4  10  20  37  61  91 119 151 196 249 289 350
#     4  10  19  36  62  91 118 149 199 245 295 347
#     4  10  19  38  63  89 114 150 195 245 289 346
#     4  11  21  37  61  88 119 152 189 238 302 354
#
# _framework density 18.835664000000001
#
# number of rings (size 3 to 8) (size 9 to 14) (size 15 to 20)
#    0.000    1.500    3.750    2.250    1.750    6.000 
#    0.000    0.000    0.000    1.500    0.000    0.000 
#    0.000    0.000    0.000    0.000    0.000    0.000 
#
# Total GULP energy -396811.138423 kJ/mol
# GULP energy per Si atom -12400.348076 kJ/mol
# Density = 1.879279 g / cm^3
# Si number density = 18.835664 Si / 1000 Ang^3
#
#
#
# Elastic Constant Matrix: (Units=GPa)
#
#
# Indices 1 2 3 4 5 6 
#
# 1 92.7108 13.2086 35.2088 0.0000 0.0000 0.0000
# 2 13.2086 60.5263 41.5272 0.0000 0.0000 0.0000
# 3 35.2088 41.5272 111.1022 0.0000 0.0000 0.0000
# 4 0.0000 0.0000 0.0000 44.6245 0.0000 0.0000
# 5 0.0000 0.0000 0.0000 0.0000 20.3592 0.0000
# 6 0.0000 0.0000 0.0000 0.0000 0.0000 30.5820
#
#
#
# Elastic Compliance Matrix: (Units=1/GPa)
#
#
# Indices 1 2 3 4 5 6 
#
# 1 0.012262 -0.000013 -0.003881 0.000000 0.000000 0.000000
# 2 -0.000013 0.022220 -0.008301 0.000000 0.000000 0.000000
# 3 -0.003881 -0.008301 0.013333 0.000000 0.000000 0.000000
# 4 0.000000 0.000000 0.000000 0.022409 0.000000 0.000000
# 5 0.000000 0.000000 0.000000 0.000000 0.049118 0.000000
# 6 0.000000 0.000000 0.000000 0.000000 0.000000 0.032699
#
#
# Mechanical properties :
#
#
# Convention : Reuss Voigt Hill
#
# Bulk Modulus (GPa) = 42.68971 49.35873 46.02422
# Shear Modulus (GPa) = 27.13848 30.73944 28.93896
#
# Velocity S-wave (km/s) = 3.79991 4.04416 3.92394
# Velocity P-wave (km/s) = 6.47811 6.93317 6.70950
#
# Compressibility (1/GPa) = 0.02342485
#
# Stress axis : x y z
#
# Youngs Moduli (GPa) = 81.55292 45.00446 74.99988
#
# Poissons Ratio (x) = 0.00059 0.29107
# Poissons Ratio (y) = 0.00108 0.62258
# Poissons Ratio (z) = 0.31650 0.37359
#
# Static dielectric constant tensor:
#      x y z
#    x 3.469810 0.000000 0.000000 
#    y 0.000000 3.464430 0.000000 
#    z 0.000000 0.000000 3.515030 
# 
# 
# High freq. dielectric constant tensor:
#      x y z
#    x 1.737200 0.000000 0.000000 
#    y 0.000000 1.731360 0.000000 
#    z 0.000000 0.000000 1.723390 
# 
# From -- ./inp_files/13159.got.cif
#   From: 2010.03.12/outbox.cif.g09.slc.cpg/sg40_7_cif.got.tgz:13159.got - 2010.04.14 01:38:03.
