data_PCOD8183475
_publ_section_title
;
Structure prediction by ZEFSAII (Michael W. Deem and Ramdas Pophale) SiO2 
 PCOD8183475
Probable space group: A M A 2
;
_chemical_formula_sum "Si O2"
_cell_formula_units_Z 40
_cell_length_a 14.801897
_cell_length_b 5.194190
_cell_length_c 24.751445
_cell_angle_alpha 90.000000
_cell_angle_beta 90.000000
_cell_angle_gamma 90.000000
_cell_volume 1902.986765
_symmetry_space_group_name_H-M "A M A 2"
_symmetry_group_IT_number 40
_symmetry_cell_setting 'orthorhombic'
loop_
_space_group_symop_operation_xyz
x,y,z
-x,-y,z
1/2-x,y,z
1/2+x,-y,z
x,1/2+y,1/2+z
-x,1/2-y,1/2+z
1/2-x,1/2+y,1/2+z
1/2+x,1/2-y,1/2+z
loop_
_atom_site_type_symbol
_atom_site_label
_atom_site_fract_x
_atom_site_fract_y
_atom_site_fract_z
Si Si1 0.750000 0.361705 0.518301
Si Si2 0.250000 0.139012 0.447520
Si Si3 0.900887 0.929874 0.360433
Si Si4 0.641977 0.891294 0.674546
Si Si5 0.853713 0.938023 0.797049
Si Si6 0.649606 0.390338 0.621487
O O1 0.750000 0.577374 0.472752
O O2 0.660080 0.391028 0.555967
O O3 0.750000 0.078179 0.493140
O O4 0.160389 0.117541 0.412240
O O5 0.909134 0.669394 0.324916
O O6 0.861255 0.165293 0.326397
O O7 0.000000 0.000000 0.381734
O O8 0.750000 0.884927 0.668690
O O9 0.610166 0.899718 0.736452
O O10 0.599237 0.643208 0.644128
O O11 0.599358 0.136042 0.643286
O O12 0.750000 0.028435 0.797709
O O13 0.750000 0.386703 0.647937
#
# Coordination Sequence:
#
# PCOD8183475 Si02
#       6
#     4   4   8   8   8   8
#     4  10  20  32  57  82 121 144 200 264 288 354
#     4  12  22  40  57  84 115 156 210 254 300 344
#     4  12  25  41  60  87 125 162 204 253 303 355
#     4   9  15  26  50  80 120 139 184 230 282 352
#     4  11  20  37  60  90 122 162 193 244 294 360
#     4   8  15  27  44  82 116 137 180 244 283 342
#
# _framework density 21.019590000000001
#
# number of rings (size 3 to 8) (size 9 to 14) (size 15 to 20)
#    0.600    1.200    2.000    4.200    0.000    3.200 
#    0.000    0.000    0.000    0.000    0.000   28.000 
#    0.000    0.000    0.000    0.000    0.000    0.000 
#
# Total GULP energy -247931.462068 kJ/mol
# GULP energy per Si atom -12396.573103 kJ/mol
# Density = 2.097175 g / cm^3
# Si number density = 21.019590 Si / 1000 Ang^3
#
#
#
# Elastic Constant Matrix: (Units=GPa)
#
#
# Indices 1 2 3 4 5 6 
#
# 1 35.4623 -4.2621 14.2984 0.0000 0.0000 0.0000
# 2 -4.2621 157.6245 45.6026 0.0000 0.0000 0.0000
# 3 14.2984 45.6026 120.5571 0.0000 0.0000 0.0000
# 4 0.0000 0.0000 0.0000 53.4765 0.0000 0.0000
# 5 0.0000 0.0000 0.0000 0.0000 -2.5201 0.0000
# 6 0.0000 0.0000 0.0000 0.0000 0.0000 16.5377
#
#
#
# Elastic Compliance Matrix: (Units=1/GPa)
#
#
# Indices 1 2 3 4 5 6 
#
# 1 0.030211 0.002081 -0.004370 0.000000 0.000000 0.000000
# 2 0.002081 0.007267 -0.002996 0.000000 0.000000 0.000000
# 3 -0.004370 -0.002996 0.009946 0.000000 0.000000 0.000000
# 4 0.000000 0.000000 0.000000 0.018700 0.000000 0.000000
# 5 0.000000 0.000000 0.000000 0.000000 -0.396802 0.000000
# 6 0.000000 0.000000 0.000000 0.000000 0.000000 0.060468
#
#
# Mechanical properties :
#
#
# Convention : Reuss Voigt Hill
#
# Bulk Modulus (GPa) = 27.13335 47.21353 37.17344
# Shear Modulus (GPa) = -20.21383 30.69917 5.24267
#
# Velocity S-wave (km/s) = -3.10444 3.82580 1.58101
# Velocity P-wave (km/s) = 0.29422 6.48275 4.58872
#
# Compressibility (1/GPa) = 0.03685502
#
# Stress axis : x y z
#
# Youngs Moduli (GPa) = 33.10026 137.60495 100.53922
#
# Poissons Ratio (x) = -0.28640 0.43940
# Poissons Ratio (y) = -0.06889 0.30119
# Poissons Ratio (z) = 0.14466 0.41223
#
# Static dielectric constant tensor:
#      x y z
#    x 3.310610 0.000000 0.000000 
#    y 0.000000 4.155870 0.000000 
#    z 0.000000 0.000000 3.677070 
# 
# 
# High freq. dielectric constant tensor:
#      x y z
#    x 1.781500 0.000000 0.000000 
#    y 0.000000 1.851380 0.000000 
#    z 0.000000 0.000000 1.816070 
# 
# From -- ./inp_files/24701.got.cif
#   From: 2010.03.12/outbox.cif.g09.slc.cpg/sg40_13_cif.got.tgz:24701.got - 2010.04.14 01:38:03.
