data_PCOD8183086
_publ_section_title
;
Structure prediction by ZEFSAII (Michael W. Deem and Ramdas Pophale) SiO2 
 PCOD8183086
Probable space group: A M A 2
;
_chemical_formula_sum "Si O2"
_cell_formula_units_Z 64
_cell_length_a 8.837809
_cell_length_b 23.002292
_cell_length_c 18.864650
_cell_angle_alpha 90.000000
_cell_angle_beta 90.000000
_cell_angle_gamma 90.000000
_cell_volume 3834.992119
_symmetry_space_group_name_H-M "A M A 2"
_symmetry_group_IT_number 40
_symmetry_cell_setting 'orthorhombic'
loop_
_space_group_symop_operation_xyz
x,y,z
-x,-y,z
1/2-x,y,z
1/2+x,-y,z
x,1/2+y,1/2+z
-x,1/2-y,1/2+z
1/2-x,1/2+y,1/2+z
1/2+x,1/2-y,1/2+z
loop_
_atom_site_type_symbol
_atom_site_label
_atom_site_fract_x
_atom_site_fract_y
_atom_site_fract_z
Si Si1 0.577176 0.172625 0.257930
Si Si2 0.925612 0.233860 0.117568
Si Si3 0.425944 0.624090 0.969818
Si Si4 0.074042 0.440127 0.840769
Si Si5 0.073127 0.839481 0.696916
Si Si6 0.075490 0.774634 0.836710
Si Si7 0.928072 0.250174 0.474972
Si Si8 0.074224 0.562258 0.118281
O O1 0.750000 0.190764 0.275758
O O2 0.544735 0.182516 0.174438
O O3 0.547424 0.105673 0.277073
O O4 0.467398 0.211916 0.304931
O O5 0.750000 0.242273 0.100306
O O6 0.986101 0.294674 0.146819
O O7 0.010999 0.217741 0.045209
O O8 0.250000 0.632410 0.953200
O O9 0.497293 0.580944 0.912816
O O10 0.505812 0.685968 0.966503
O O11 0.454389 0.596648 0.046107
O O12 0.250000 0.449750 0.856309
O O13 0.000000 0.500000 0.815130
O O14 0.250000 0.835930 0.678773
O O15 0.042017 0.824724 0.779187
O O16 0.007790 0.903354 0.682107
O O17 0.250000 0.772742 0.858127
O O18 0.978514 0.788111 0.906974
O O19 0.750000 0.246125 0.478809
O O20 0.250000 0.555644 0.136215
O O21 0.000000 0.500000 0.111268
#
# Coordination Sequence:
#
# PCOD8183086 Si02
#       8
#     8   8   8   8   8   8   8   8
#     4   9  19  34  51  72  99 132 170 210 254 297
#     4  10  19  33  52  73 100 132 168 210 254 304
#     4  11  22  35  50  72 101 137 177 214 248 292
#     4  11  22  35  51  73 101 138 176 213 251 296
#     4  10  20  34  52  75 101 131 169 212 254 303
#     4  10  20  33  52  75 101 132 168 208 254 304
#     4  12  22  32  50  76 105 137 169 207 254 308
#     4  11  23  36  52  72 101 139 178 216 252 298
#
# _framework density 16.68843
#
# number of rings (size 3 to 8) (size 9 to 14) (size 15 to 20)
#    0.000    1.500    2.500    3.750    0.000    5.000 
#    0.000    0.000    0.000    0.000    0.000    0.875 
#    0.000    2.000    0.000    0.000    0.000    0.000 
#
# Total GULP energy -396910.821543 kJ/mol
# GULP energy per Si atom -12403.463173 kJ/mol
# Density = 1.665045 g / cm^3
# Si number density = 16.688430 Si / 1000 Ang^3
#
#
#
# Elastic Constant Matrix: (Units=GPa)
#
#
# Indices 1 2 3 4 5 6 
#
# 1 119.8430 41.1406 57.8942 0.0000 0.0000 0.0000
# 2 41.1406 38.5633 27.9096 0.0000 0.0000 0.0000
# 3 57.8942 27.9096 99.2699 0.0000 0.0000 0.0000
# 4 0.0000 0.0000 0.0000 16.0572 0.0000 0.0000
# 5 0.0000 0.0000 0.0000 0.0000 27.2265 0.0000
# 6 0.0000 0.0000 0.0000 0.0000 0.0000 25.7940
#
#
#
# Elastic Compliance Matrix: (Units=1/GPa)
#
#
# Indices 1 2 3 4 5 6 
#
# 1 0.015162 -0.012273 -0.005392 0.000000 0.000000 0.000000
# 2 -0.012273 0.042490 -0.004788 0.000000 0.000000 0.000000
# 3 -0.005392 -0.004788 0.014564 0.000000 0.000000 0.000000
# 4 0.000000 0.000000 0.000000 0.062278 0.000000 0.000000
# 5 0.000000 0.000000 0.000000 0.000000 0.036729 0.000000
# 6 0.000000 0.000000 0.000000 0.000000 0.000000 0.038769
#
#
# Mechanical properties :
#
#
# Convention : Reuss Voigt Hill
#
# Bulk Modulus (GPa) = 36.61691 56.84056 46.72874
# Shear Modulus (GPa) = 18.93920 22.53099 20.73510
#
# Velocity S-wave (km/s) = 3.37244 3.67835 3.52871
# Velocity P-wave (km/s) = 6.09537 7.22317 6.68310
#
# Compressibility (1/GPa) = 0.02730979
#
# Stress axis : x y z
#
# Youngs Moduli (GPa) = 65.95311 23.53479 68.66038
#
# Poissons Ratio (x) = 0.28885 0.37022
# Poissons Ratio (y) = 0.80945 0.32877
# Poissons Ratio (z) = 0.35562 0.11269
#
# Static dielectric constant tensor:
#      x y z
#    x 3.320220 0.000000 0.000000 
#    y 0.000000 2.962460 0.000000 
#    z 0.000000 0.000000 3.366970 
# 
# 
# High freq. dielectric constant tensor:
#      x y z
#    x 1.664050 0.000000 0.000000 
#    y 0.000000 1.611360 0.000000 
#    z 0.000000 0.000000 1.642500 
# 
# From -- ./inp_files/19575.got.cif
#   From: 2010.03.12/outbox.cif.g09.slc.cpg/sg40_10_cif.got.tgz:19575.got - 2010.04.14 01:38:03.
