data_PCOD8183910
_publ_section_title
;
Structure prediction by ZEFSAII (Michael W. Deem and Ramdas Pophale) SiO2 
 PCOD8183910
Probable space group: A M A 2
;
_chemical_formula_sum "Si O2"
_cell_formula_units_Z 44
_cell_length_a 14.143162
_cell_length_b 18.563542
_cell_length_c 8.386711
_cell_angle_alpha 90.000000
_cell_angle_beta 90.000000
_cell_angle_gamma 90.000000
_cell_volume 2201.907338
_symmetry_space_group_name_H-M "A M A 2"
_symmetry_group_IT_number 40
_symmetry_cell_setting 'orthorhombic'
loop_
_space_group_symop_operation_xyz
x,y,z
-x,-y,z
1/2-x,y,z
1/2+x,-y,z
x,1/2+y,1/2+z
-x,1/2-y,1/2+z
1/2-x,1/2+y,1/2+z
1/2+x,1/2-y,1/2+z
loop_
_atom_site_type_symbol
_atom_site_label
_atom_site_fract_x
_atom_site_fract_y
_atom_site_fract_z
Si Si1 0.437429 0.810415 0.145340
Si Si2 0.750000 0.525544 0.545091
Si Si3 0.902258 0.296003 0.400565
Si Si4 0.250000 0.592454 0.308421
Si Si5 0.250000 0.294337 0.091715
Si Si6 0.750000 0.680402 0.446542
Si Si7 0.905798 0.544653 0.796906
Si Si8 0.750000 0.035904 0.550029
O O1 0.457783 0.740505 0.253335
O O2 0.430167 0.871618 0.280298
O O3 0.521245 0.828631 0.022354
O O4 0.340459 0.797222 0.050252
O O5 0.750000 0.447254 0.474315
O O6 0.750000 0.593157 0.421799
O O7 0.846072 0.526263 0.642149
O O8 0.843217 0.358336 0.311476
O O9 0.839782 0.238630 0.500003
O O10 0.250000 0.528910 0.177361
O O11 0.250000 0.274702 0.280651
O O12 0.250000 0.380839 0.102248
O O13 0.000000 0.500000 0.804092
O O14 0.845844 0.525245 0.952071
#
# Coordination Sequence:
#
# PCOD8183910 Si02
#       8
#     8   4   8   4   4   4   8   4
#     4  11  22  41  62  95 128 173 214 265 329 395
#     4   9  19  36  61  83 124 161 212 260 319 378
#     4  11  24  39  66  92 136 164 219 273 325 391
#     4  11  23  41  59  97 124 161 211 283 313 369
#     4  11  20  42  63  90 122 179 207 266 333 392
#     4  10  20  37  66  86 120 177 217 253 326 396
#     4  10  21  39  63  90 122 170 210 259 320 393
#     4  11  22  42  65  88 128 164 215 266 319 385
#
# _framework density 19.982673999999999
#
# number of rings (size 3 to 8) (size 9 to 14) (size 15 to 20)
#    0.000    1.455    2.727    3.818    0.000    1.455 
#    3.273   10.000    0.000    0.000    0.000    0.000 
#    0.000    0.000    0.000    0.000    0.000    0.000 
#
# Total GULP energy -272625.810209 kJ/mol
# GULP energy per Si atom -12392.082282 kJ/mol
# Density = 1.993719 g / cm^3
# Si number density = 19.982674 Si / 1000 Ang^3
#
#
#
# Elastic Constant Matrix: (Units=GPa)
#
#
# Indices 1 2 3 4 5 6 
#
# 1 120.3220 35.4040 30.1720 0.0000 0.0000 0.0000
# 2 35.4040 109.5724 48.8692 0.0000 0.0000 0.0000
# 3 30.1720 48.8692 75.2695 0.0000 0.0000 0.0000
# 4 0.0000 0.0000 0.0000 43.0203 0.0000 0.0000
# 5 0.0000 0.0000 0.0000 0.0000 61.7200 0.0000
# 6 0.0000 0.0000 0.0000 0.0000 0.0000 14.6259
#
#
#
# Elastic Compliance Matrix: (Units=1/GPa)
#
#
# Indices 1 2 3 4 5 6 
#
# 1 0.009522 -0.001935 -0.002561 0.000000 0.000000 0.000000
# 2 -0.001935 0.013239 -0.007820 0.000000 0.000000 0.000000
# 3 -0.002561 -0.007820 0.019390 0.000000 0.000000 0.000000
# 4 0.000000 0.000000 0.000000 0.023245 0.000000 0.000000
# 5 0.000000 0.000000 0.000000 0.000000 0.016202 0.000000
# 6 0.000000 0.000000 0.000000 0.000000 0.000000 0.068372
#
#
# Mechanical properties :
#
#
# Convention : Reuss Voigt Hill
#
# Bulk Modulus (GPa) = 57.07903 59.33937 58.20920
# Shear Modulus (GPa) = 27.70975 36.58780 32.14878
#
# Velocity S-wave (km/s) = 3.72787 4.28363 4.01538
# Velocity P-wave (km/s) = 6.86699 7.36382 7.11974
#
# Compressibility (1/GPa) = 0.01751957
#
# Stress axis : x y z
#
# Youngs Moduli (GPa) = 105.01457 75.53286 51.57419
#
# Poissons Ratio (x) = 0.14612 0.13209
# Poissons Ratio (y) = 0.20316 0.40332
# Poissons Ratio (z) = 0.26895 0.59068
#
# Static dielectric constant tensor:
#      x y z
#    x 3.571330 0.000000 0.000000 
#    y 0.000000 3.698080 0.000000 
#    z 0.000000 0.000000 3.697440 
# 
# 
# High freq. dielectric constant tensor:
#      x y z
#    x 1.782930 0.000000 0.000000 
#    y 0.000000 1.780090 0.000000 
#    z 0.000000 0.000000 1.784060 
# 
# From -- ./inp_files/6395.got.cif
#   From: 2010.03.12/outbox.cif.g09.slc.cpg/sg40_4_cif.got.tgz:6395.got - 2010.04.14 01:38:03.
