data_PCOD8183746
_publ_section_title
;
Structure prediction by ZEFSAII (Michael W. Deem and Ramdas Pophale) SiO2 
 PCOD8183746
Probable space group: A M A 2
;
_chemical_formula_sum "Si O2"
_cell_formula_units_Z 64
_cell_length_a 8.781628
_cell_length_b 27.750141
_cell_length_c 14.443540
_cell_angle_alpha 90.000000
_cell_angle_beta 90.000000
_cell_angle_gamma 90.000000
_cell_volume 3519.766703
_symmetry_space_group_name_H-M "A M A 2"
_symmetry_group_IT_number 40
_symmetry_cell_setting 'orthorhombic'
loop_
_space_group_symop_operation_xyz
x,y,z
-x,-y,z
1/2-x,y,z
1/2+x,-y,z
x,1/2+y,1/2+z
-x,1/2-y,1/2+z
1/2-x,1/2+y,1/2+z
1/2+x,1/2-y,1/2+z
loop_
_atom_site_type_symbol
_atom_site_label
_atom_site_fract_x
_atom_site_fract_y
_atom_site_fract_z
Si Si1 0.571318 0.360920 0.220950
Si Si2 0.923606 0.218567 0.839509
Si Si3 0.572061 0.329947 0.847217
Si Si4 0.070255 0.049741 0.843079
Si Si5 0.925318 0.725809 0.549548
Si Si6 0.429576 0.049791 0.053158
Si Si7 0.571434 0.173695 0.542043
Si Si8 0.071689 0.865611 0.169120
O O1 0.750000 0.363522 0.201568
O O2 0.537446 0.312334 0.277694
O O3 0.511922 0.406712 0.279088
O O4 0.482255 0.361482 0.124021
O O5 0.750000 0.207198 0.810253
O O6 0.962906 0.274413 0.824030
O O7 0.951451 0.205288 0.946621
O O8 0.750000 0.341290 0.841791
O O9 0.482725 0.363423 0.775017
O O10 0.513913 0.342747 0.949329
O O11 0.250000 0.045250 0.838729
O O12 0.015076 0.059945 0.948051
O O13 0.000000 0.000000 0.805523
O O14 0.750000 0.742341 0.561079
O O15 0.972727 0.684501 0.620564
O O16 0.030759 0.771578 0.570120
O O17 0.250000 0.045850 0.058614
O O18 0.484412 0.091944 0.118924
O O19 0.500000 0.000000 0.089653
O O20 0.750000 0.169027 0.526337
O O21 0.250000 0.875782 0.163712
#
# Coordination Sequence:
#
# PCOD8183746 Si02
#       8
#     8   8   8   8   8   8   8   8
#     4  11  21  33  51  76 105 137 172 210 257 309
#     4   9  18  32  50  75 105 138 175 211 251 300
#     4  10  21  37  53  72 103 140 176 217 262 305
#     4   9  20  36  55  79 106 136 169 207 254 307
#     4   9  19  34  51  74 107 142 174 212 257 305
#     4  10  20  36  56  80 109 139 171 210 258 309
#     4  11  22  35  52  74 101 137 179 219 258 303
#     4  11  21  33  53  80 106 137 177 216 258 310
#
# _framework density 18.183022999999999
#
# number of rings (size 3 to 8) (size 9 to 14) (size 15 to 20)
#    0.000    2.000    0.000    4.875    0.000    7.000 
#    0.000    0.000    0.000    0.750    0.000    3.500 
#    0.000    0.000    0.000    0.000    0.000    0.000 
#
# Total GULP energy -396947.136198 kJ/mol
# GULP energy per Si atom -12404.598006 kJ/mol
# Density = 1.814164 g / cm^3
# Si number density = 18.183023 Si / 1000 Ang^3
#
#
#
# Elastic Constant Matrix: (Units=GPa)
#
#
# Indices 1 2 3 4 5 6 
#
# 1 56.3326 26.7701 23.7532 0.0000 0.0000 0.0000
# 2 26.7701 68.7862 52.0848 0.0000 0.0000 0.0000
# 3 23.7532 52.0848 100.5218 0.0000 0.0000 0.0000
# 4 0.0000 0.0000 0.0000 -14.8261 0.0000 0.0000
# 5 0.0000 0.0000 0.0000 0.0000 31.2559 0.0000
# 6 0.0000 0.0000 0.0000 0.0000 0.0000 30.0642
#
#
#
# Elastic Compliance Matrix: (Units=1/GPa)
#
#
# Indices 1 2 3 4 5 6 
#
# 1 0.021874 -0.007569 -0.001247 0.000000 0.000000 0.000000
# 2 -0.007569 0.026543 -0.011965 0.000000 0.000000 0.000000
# 3 -0.001247 -0.011965 0.016442 0.000000 0.000000 0.000000
# 4 0.000000 0.000000 0.000000 -0.067449 0.000000 0.000000
# 5 0.000000 0.000000 0.000000 0.000000 0.031994 0.000000
# 6 0.000000 0.000000 0.000000 0.000000 0.000000 0.033262
#
#
# Mechanical properties :
#
#
# Convention : Reuss Voigt Hill
#
# Bulk Modulus (GPa) = 42.92117 47.87300 45.39708
# Shear Modulus (GPa) = 44.64517 17.50095 31.07306
#
# Velocity S-wave (km/s) = 4.96050 3.10577 4.13838
# Velocity P-wave (km/s) = 7.51432 6.26471 6.91779
#
# Compressibility (1/GPa) = 0.02329853
#
# Stress axis : x y z
#
# Youngs Moduli (GPa) = 45.71563 37.67478 60.81903
#
# Poissons Ratio (x) = 0.28515 0.07586
# Poissons Ratio (y) = 0.34600 0.72768
# Poissons Ratio (z) = 0.05702 0.45076
#
# Static dielectric constant tensor:
#      x y z
#    x 3.310620 0.000000 0.000000 
#    y 0.000000 3.844630 0.000000 
#    z 0.000000 0.000000 3.460640 
# 
# 
# High freq. dielectric constant tensor:
#      x y z
#    x 1.711190 0.000000 0.000000 
#    y 0.000000 1.680710 0.000000 
#    z 0.000000 0.000000 1.708620 
# 
# From -- ./inp_files/15632.got.cif
#   From: 2010.03.12/outbox.cif.g09.slc.cpg/sg40_8_cif.got.tgz:15632.got - 2010.04.14 01:38:03.
