data_PCOD8183881
_publ_section_title
;
Structure prediction by ZEFSAII (Michael W. Deem and Ramdas Pophale) SiO2 
 PCOD8183881
Probable space group: A M A 2
;
_chemical_formula_sum "Si O2"
_cell_formula_units_Z 64
_cell_length_a 8.699482
_cell_length_b 23.689209
_cell_length_c 15.426760
_cell_angle_alpha 90.000000
_cell_angle_beta 90.000000
_cell_angle_gamma 90.000000
_cell_volume 3179.206052
_symmetry_space_group_name_H-M "A M A 2"
_symmetry_group_IT_number 40
_symmetry_cell_setting 'orthorhombic'
loop_
_space_group_symop_operation_xyz
x,y,z
-x,-y,z
1/2-x,y,z
1/2+x,-y,z
x,1/2+y,1/2+z
-x,1/2-y,1/2+z
1/2-x,1/2+y,1/2+z
1/2+x,1/2-y,1/2+z
loop_
_atom_site_type_symbol
_atom_site_label
_atom_site_fract_x
_atom_site_fract_y
_atom_site_fract_z
Si Si1 0.929932 0.755859 0.804020
Si Si2 0.567603 0.243871 0.496087
Si Si3 0.931750 0.362507 0.566039
Si Si4 0.432070 0.877410 0.555386
Si Si5 0.932509 0.373936 0.236244
Si Si6 0.431212 0.560960 0.406561
Si Si7 0.570660 0.633836 0.744463
Si Si8 0.931390 0.939709 0.394409
O O1 0.750000 0.765707 0.816341
O O2 0.003287 0.749664 0.899686
O O3 0.996171 0.810740 0.755243
O O4 0.967101 0.700390 0.748651
O O5 0.750000 0.241117 0.489718
O O6 0.515709 0.297667 0.552370
O O7 0.505392 0.186185 0.538714
O O8 0.750000 0.367192 0.579538
O O9 0.987842 0.398357 0.483623
O O10 0.016178 0.387510 0.650508
O O11 0.250000 0.880895 0.547629
O O12 0.486449 0.897109 0.650043
O O13 0.503121 0.919906 0.486218
O O14 0.750000 0.375074 0.223608
O O15 0.986327 0.413832 0.314968
O O16 0.500000 0.500000 0.422000
O O17 0.250000 0.556608 0.408276
O O18 0.750000 0.621276 0.758620
O O19 0.476631 0.603502 0.819332
O O20 0.750000 0.944146 0.400826
O O21 0.000000 0.000000 0.369559
#
# Coordination Sequence:
#
# PCOD8183881 Si02
#       8
#     8   8   8   8   8   8   8   8
#     4   9  16  32  60  88 119 157 196 243 299 354
#     4   9  16  32  60  88 119 157 196 243 299 354
#     4  10  20  37  61  88 118 159 205 245 295 356
#     4  11  22  38  62  92 125 157 191 242 304 360
#     4  10  20  37  61  88 118 159 205 245 295 356
#     4  10  22  39  60  82 112 155 201 250 295 342
#     4  11  22  38  62  92 125 157 191 242 304 360
#     4  12  26  45  66  88 116 155 203 250 295 354
#
# _framework density 20.13081
#
# number of rings (size 3 to 8) (size 9 to 14) (size 15 to 20)
#    0.000    1.750    2.500    2.625    0.000    2.000 
#    0.000    3.750    0.000    0.000    0.000    0.000 
#    0.000    0.000    0.000    0.000    0.000    0.000 
#
# Total GULP energy -396876.761540 kJ/mol
# GULP energy per Si atom -12402.398798 kJ/mol
# Density = 2.008499 g / cm^3
# Si number density = 20.130810 Si / 1000 Ang^3
#
#
#
# Elastic Constant Matrix: (Units=GPa)
#
#
# Indices 1 2 3 4 5 6 
#
# 1 62.2420 25.7351 34.2972 0.0000 0.0000 0.0000
# 2 25.7351 70.5038 8.8473 0.0000 0.0000 0.0000
# 3 34.2972 8.8473 130.8184 0.0000 0.0000 0.0000
# 4 0.0000 0.0000 0.0000 14.0135 0.0000 0.0000
# 5 0.0000 0.0000 0.0000 0.0000 28.9465 0.0000
# 6 0.0000 0.0000 0.0000 0.0000 0.0000 27.2391
#
#
#
# Elastic Compliance Matrix: (Units=1/GPa)
#
#
# Indices 1 2 3 4 5 6 
#
# 1 0.022023 -0.007377 -0.005275 0.000000 0.000000 0.000000
# 2 -0.007377 0.016776 0.000799 0.000000 0.000000 0.000000
# 3 -0.005275 0.000799 0.008973 0.000000 0.000000 0.000000
# 4 0.000000 0.000000 0.000000 0.071360 0.000000 0.000000
# 5 0.000000 0.000000 0.000000 0.000000 0.034547 0.000000
# 6 0.000000 0.000000 0.000000 0.000000 0.000000 0.036712
#
#
# Mechanical properties :
#
#
# Convention : Reuss Voigt Hill
#
# Bulk Modulus (GPa) = 41.55003 44.59150 43.07077
# Shear Modulus (GPa) = 22.51057 27.01877 24.76467
#
# Velocity S-wave (km/s) = 3.34760 3.66752 3.51121
# Velocity P-wave (km/s) = 5.96881 6.33508 6.15467
#
# Compressibility (1/GPa) = 0.02406737
#
# Stress axis : x y z
#
# Youngs Moduli (GPa) = 45.40684 59.60900 111.44436
#
# Poissons Ratio (x) = 0.43973 0.58787
# Poissons Ratio (y) = 0.33496 -0.08910
# Poissons Ratio (z) = 0.23952 -0.04766
#
# Static dielectric constant tensor:
#      x y z
#    x 3.308300 0.000000 0.000000 
#    y 0.000000 3.682770 0.000000 
#    z 0.000000 0.000000 3.753930 
# 
# 
# High freq. dielectric constant tensor:
#      x y z
#    x 1.757230 0.000000 0.000000 
#    y 0.000000 1.786460 0.000000 
#    z 0.000000 0.000000 1.801700 
# 
# From -- ./inp_files/15698.got.cif
#   From: 2010.03.12/outbox.cif.g09.slc.cpg/sg40_8_cif.got.tgz:15698.got - 2010.04.14 01:38:03.
