data_PCOD8183856
_publ_section_title
;
Structure prediction by ZEFSAII (Michael W. Deem and Ramdas Pophale) SiO2 
 PCOD8183856
Probable space group: A M A 2
;
_chemical_formula_sum "Si O2"
_cell_formula_units_Z 64
_cell_length_a 8.861329
_cell_length_b 26.791562
_cell_length_c 13.067388
_cell_angle_alpha 90.000000
_cell_angle_beta 90.000000
_cell_angle_gamma 90.000000
_cell_volume 3102.313496
_symmetry_space_group_name_H-M "A M A 2"
_symmetry_group_IT_number 40
_symmetry_cell_setting 'orthorhombic'
loop_
_space_group_symop_operation_xyz
x,y,z
-x,-y,z
1/2-x,y,z
1/2+x,-y,z
x,1/2+y,1/2+z
-x,1/2-y,1/2+z
1/2-x,1/2+y,1/2+z
1/2+x,1/2-y,1/2+z
loop_
_atom_site_type_symbol
_atom_site_label
_atom_site_fract_x
_atom_site_fract_y
_atom_site_fract_z
Si Si1 0.418518 0.726480 0.743830
Si Si2 0.584682 0.196377 0.573250
Si Si3 0.928613 0.947073 0.822828
Si Si4 0.930194 0.446677 0.895957
Si Si5 0.573217 0.902660 0.610571
Si Si6 0.428109 0.877057 0.224608
Si Si7 0.572470 0.376888 0.510993
Si Si8 0.076956 0.725644 0.415150
O O1 0.250000 0.707914 0.773154
O O2 0.417393 0.751754 0.633877
O O3 0.533099 0.680589 0.743737
O O4 0.472866 0.772015 0.815539
O O5 0.750000 0.170808 0.579868
O O6 0.462605 0.156101 0.606645
O O7 0.553576 0.218532 0.460972
O O8 0.750000 0.952242 0.816757
O O9 0.994767 0.926669 0.714393
O O10 0.976334 0.910565 0.914740
O O11 0.000000 0.000000 0.847521
O O12 0.750000 0.448969 0.891735
O O13 0.000000 0.500000 0.870720
O O14 0.989284 0.408702 0.811390
O O15 0.989159 0.429644 0.008538
O O16 0.750000 0.908380 0.614664
O O17 0.250000 0.885331 0.232613
O O18 0.484834 0.894524 0.112568
O O19 0.750000 0.380888 0.534091
O O20 0.523545 0.320143 0.486062
O O21 0.250000 0.715884 0.383396
#
# Coordination Sequence:
#
# PCOD8183856 Si02
#       8
#     8   8   8   8   8   8   8   8
#     4  11  22  38  58  86 123 162 203 250 306 364
#     4  10  21  36  57  85 119 158 197 239 297 358
#     4  10  22  40  64  91 121 160 203 253 313 370
#     4  11  24  43  67  94 125 163 208 263 322 380
#     4  10  22  40  63  93 126 161 203 253 312 376
#     4  12  25  41  63  91 125 167 216 263 311 372
#     4  10  21  41  64  87 125 168 206 257 316 372
#     4  10  20  37  59  85 119 159 201 246 303 370
#
# _framework density 20.629767000000001
#
# number of rings (size 3 to 8) (size 9 to 14) (size 15 to 20)
#    0.000    1.500    1.250    3.750    0.000    7.500 
#    0.000    1.250    0.000    0.000    0.000    0.000 
#    0.000    0.000    0.000    0.000    0.000    0.000 
#
# Total GULP energy -396784.678530 kJ/mol
# GULP energy per Si atom -12399.521204 kJ/mol
# Density = 2.058281 g / cm^3
# Si number density = 20.629767 Si / 1000 Ang^3
#
#
#
# Elastic Constant Matrix: (Units=GPa)
#
#
# Indices 1 2 3 4 5 6 
#
# 1 62.8866 25.0505 40.4684 0.0000 0.0000 0.0000
# 2 25.0505 89.9802 30.4601 0.0000 0.0000 0.0000
# 3 40.4684 30.4601 123.7225 0.0000 0.0000 0.0000
# 4 0.0000 0.0000 0.0000 27.0518 0.0000 0.0000
# 5 0.0000 0.0000 0.0000 0.0000 26.2194 0.0000
# 6 0.0000 0.0000 0.0000 0.0000 0.0000 34.6982
#
#
#
# Elastic Compliance Matrix: (Units=1/GPa)
#
#
# Indices 1 2 3 4 5 6 
#
# 1 0.021327 -0.003901 -0.006015 0.000000 0.000000 0.000000
# 2 -0.003901 0.012838 -0.001885 0.000000 0.000000 0.000000
# 3 -0.006015 -0.001885 0.010514 0.000000 0.000000 0.000000
# 4 0.000000 0.000000 0.000000 0.036966 0.000000 0.000000
# 5 0.000000 0.000000 0.000000 0.000000 0.038140 0.000000
# 6 0.000000 0.000000 0.000000 0.000000 0.000000 0.028820
#
#
# Mechanical properties :
#
#
# Convention : Reuss Voigt Hill
#
# Bulk Modulus (GPa) = 47.44632 52.06082 49.75357
# Shear Modulus (GPa) = 27.89692 29.63456 28.76574
#
# Velocity S-wave (km/s) = 3.68131 3.79422 3.73819
# Velocity P-wave (km/s) = 6.41235 6.66974 6.54231
#
# Compressibility (1/GPa) = 0.02107645
#
# Stress axis : x y z
#
# Youngs Moduli (GPa) = 46.88999 77.89642 95.11017
#
# Poissons Ratio (x) = 0.30387 0.57211
# Poissons Ratio (y) = 0.18292 0.17924
# Poissons Ratio (z) = 0.28206 0.14680
#
# Static dielectric constant tensor:
#      x y z
#    x 3.595320 0.000000 0.000000 
#    y 0.000000 3.589780 0.000000 
#    z 0.000000 0.000000 4.032800 
# 
# 
# High freq. dielectric constant tensor:
#      x y z
#    x 1.794840 0.000000 0.000000 
#    y 0.000000 1.805070 0.000000 
#    z 0.000000 0.000000 1.825500 
# 
# From -- ./inp_files/15705.got.cif
#   From: 2010.03.12/outbox.cif.g09.slc.cpg/sg40_8_cif.got.tgz:15705.got - 2010.04.14 01:38:03.
