data_PCOD8183054
_publ_section_title
;
Structure prediction by ZEFSAII (Michael W. Deem and Ramdas Pophale) SiO2 
 PCOD8183054
Probable space group: A M A 2
;
_chemical_formula_sum "Si O2"
_cell_formula_units_Z 56
_cell_length_a 8.749933
_cell_length_b 15.811623
_cell_length_c 19.825540
_cell_angle_alpha 90.000000
_cell_angle_beta 90.000000
_cell_angle_gamma 90.000000
_cell_volume 2742.876184
_symmetry_space_group_name_H-M "A M A 2"
_symmetry_group_IT_number 40
_symmetry_cell_setting 'orthorhombic'
loop_
_space_group_symop_operation_xyz
x,y,z
-x,-y,z
1/2-x,y,z
1/2+x,-y,z
x,1/2+y,1/2+z
-x,1/2-y,1/2+z
1/2-x,1/2+y,1/2+z
1/2+x,1/2-y,1/2+z
loop_
_atom_site_type_symbol
_atom_site_label
_atom_site_fract_x
_atom_site_fract_y
_atom_site_fract_z
Si Si1 0.581839 0.573977 0.078630
Si Si2 0.432895 0.092587 0.862033
Si Si3 0.923578 0.879256 0.447631
Si Si4 0.920717 0.260273 0.623454
Si Si5 0.569610 0.755841 0.765238
Si Si6 0.574577 0.581963 0.818576
Si Si7 0.928396 0.689353 0.485121
O O1 0.500000 0.500000 0.124082
O O2 0.750000 0.546534 0.053971
O O3 0.595351 0.660735 0.116376
O O4 0.458286 0.581043 0.019285
O O5 0.250000 0.087936 0.864031
O O6 0.491131 0.159373 0.803788
O O7 0.492396 0.120670 0.936181
O O8 0.500000 0.000000 0.844457
O O9 0.750000 0.898475 0.425336
O O10 0.954205 0.779041 0.449909
O O11 0.043380 0.924002 0.398077
O O12 0.750000 0.298232 0.635001
O O13 0.027212 0.262023 0.688262
O O14 0.995163 0.309062 0.559771
O O15 0.750000 0.758025 0.772151
O O16 0.499114 0.671659 0.799202
O O17 0.500000 0.500000 0.781950
O O18 0.750000 0.579974 0.799515
O O19 0.750000 0.667194 0.493959
#
# Coordination Sequence:
#
# PCOD8183054 Si02
#       7
#     8   8   8   8   8   8   8
#     4  10  20  33  50  77 112 149 189 236 289 351
#     4  11  23  41  65  95 129 168 215 267 322 380
#     4  10  19  32  54  83 114 149 186 233 287 344
#     4  10  22  38  60  85 116 159 205 256 314 374
#     4  10  23  42  62  86 123 164 204 256 314 376
#     4  11  22  37  57  84 116 152 191 238 296 355
#     4  10  20  37  62  90 120 157 204 254 306 366
#
# _framework density 20.416525
#
# number of rings (size 3 to 8) (size 9 to 14) (size 15 to 20)
#    0.000    1.714    1.429    3.000    0.000    5.714 
#    0.000    3.571    0.000    1.714    0.000    0.000 
#    0.000    0.000    0.000    0.000    0.000    0.000 
#
# Total GULP energy -346870.966540 kJ/mol
# GULP energy per Si atom -12388.248805 kJ/mol
# Density = 2.037006 g / cm^3
# Si number density = 20.416525 Si / 1000 Ang^3
#
#
#
# Elastic Constant Matrix: (Units=GPa)
#
#
# Indices 1 2 3 4 5 6 
#
# 1 73.8443 43.7967 15.9346 0.0000 0.0000 0.0000
# 2 43.7967 122.3879 35.9511 0.0000 0.0000 0.0000
# 3 15.9346 35.9511 92.2911 0.0000 0.0000 0.0000
# 4 0.0000 0.0000 0.0000 10.3431 0.0000 0.0000
# 5 0.0000 0.0000 0.0000 0.0000 30.7393 0.0000
# 6 0.0000 0.0000 0.0000 0.0000 0.0000 30.9546
#
#
#
# Elastic Compliance Matrix: (Units=1/GPa)
#
#
# Indices 1 2 3 4 5 6 
#
# 1 0.017225 -0.005974 -0.000647 0.000000 0.000000 0.000000
# 2 -0.005974 0.011298 -0.003370 0.000000 0.000000 0.000000
# 3 -0.000647 -0.003370 0.012260 0.000000 0.000000 0.000000
# 4 0.000000 0.000000 0.000000 0.096683 0.000000 0.000000
# 5 0.000000 0.000000 0.000000 0.000000 0.032532 0.000000
# 6 0.000000 0.000000 0.000000 0.000000 0.000000 0.032305
#
#
# Mechanical properties :
#
#
# Convention : Reuss Voigt Hill
#
# Bulk Modulus (GPa) = 48.07305 53.32089 50.69697
# Shear Modulus (GPa) = 21.81334 27.26345 24.53840
#
# Velocity S-wave (km/s) = 3.27221 3.65822 3.47059
# Velocity P-wave (km/s) = 6.15416 6.63451 6.39885
#
# Compressibility (1/GPa) = 0.02080167
#
# Stress axis : x y z
#
# Youngs Moduli (GPa) = 58.05631 88.50851 81.56859
#
# Poissons Ratio (x) = 0.52874 0.05277
# Poissons Ratio (y) = 0.34682 0.27486
# Poissons Ratio (z) = 0.03756 0.29825
#
# Static dielectric constant tensor:
#      x y z
#    x 3.809720 0.000000 0.000000 
#    y 0.000000 4.253400 0.000000 
#    z 0.000000 0.000000 3.484450 
# 
# 
# High freq. dielectric constant tensor:
#      x y z
#    x 1.805160 0.000000 0.000000 
#    y 0.000000 1.805880 0.000000 
#    z 0.000000 0.000000 1.774280 
# 
# From -- ./inp_files/22196.got.cif
#   From: 2010.03.12/outbox.cif.g09.slc.cpg/sg40_12_cif.got.tgz:22196.got - 2010.04.14 01:38:03.
