data_PCOD8183894
_publ_section_title
;
Structure prediction by ZEFSAII (Michael W. Deem and Ramdas Pophale) SiO2 
 PCOD8183894
Probable space group: A M A 2
;
_chemical_formula_sum "Si O2"
_cell_formula_units_Z 64
_cell_length_a 18.750714
_cell_length_b 5.302027
_cell_length_c 29.928345
_cell_angle_alpha 90.000000
_cell_angle_beta 90.000000
_cell_angle_gamma 90.000000
_cell_volume 2975.380047
_symmetry_space_group_name_H-M "A M A 2"
_symmetry_group_IT_number 40
_symmetry_cell_setting 'orthorhombic'
loop_
_space_group_symop_operation_xyz
x,y,z
-x,-y,z
1/2-x,y,z
1/2+x,-y,z
x,1/2+y,1/2+z
-x,1/2-y,1/2+z
1/2-x,1/2+y,1/2+z
1/2+x,1/2-y,1/2+z
loop_
_atom_site_type_symbol
_atom_site_label
_atom_site_fract_x
_atom_site_fract_y
_atom_site_fract_z
Si Si1 0.833791 0.891516 0.438360
Si Si2 0.329769 0.216155 0.251679
Si Si3 0.085114 0.528359 0.580373
Si Si4 0.430857 0.864578 0.207265
Si Si5 0.171164 0.425784 0.844563
Si Si6 0.571524 0.889173 0.793835
Si Si7 0.580616 0.470908 0.126564
Si Si8 0.835317 0.895820 0.988463
O O1 0.750000 0.880676 0.442292
O O2 0.856579 0.907373 0.386081
O O3 0.861069 0.140055 0.464150
O O4 0.863586 0.633079 0.459223
O O5 0.250000 0.299786 0.237417
O O6 0.379703 0.452957 0.259870
O O7 0.361637 0.045550 0.211458
O O8 0.326375 0.078589 0.299150
O O9 0.115640 0.261161 0.598672
O O10 0.123492 0.594303 0.534648
O O11 0.000000 0.500000 0.574177
O O12 0.111490 0.750791 0.615035
O O13 0.455774 0.818308 0.258415
O O14 0.412631 0.611113 0.178888
O O15 0.500000 0.000000 0.183525
O O16 0.250000 0.314651 0.855710
O O17 0.116377 0.197803 0.836759
O O18 0.500000 0.000000 0.815241
O O19 0.500000 0.500000 0.111082
O O20 0.750000 0.902148 0.995845
#
# Coordination Sequence:
#
# PCOD8183894 Si02
#       8
#     8   8   8   8   8   8   8   8
#     4   9  19  35  60  88 113 154 204 245 293 365
#     4  10  22  38  58  85 121 163 204 253 310 363
#     4  10  21  38  60  87 117 153 193 244 302 369
#     4  11  21  37  60  87 118 158 211 258 304 363
#     4   9  20  36  56  83 117 158 205 254 305 360
#     4  11  21  34  59  84 118 164 210 254 307 361
#     4  10  21  36  62  89 115 154 204 247 294 363
#     4  10  20  37  62  88 117 152 196 247 301 367
#
# _framework density 21.509858999999999
#
# number of rings (size 3 to 8) (size 9 to 14) (size 15 to 20)
#    0.000    2.000    1.250    2.625    3.500    0.500 
#    0.000    1.875    2.750    0.000    0.000    0.000 
#    0.000    0.000    0.000    0.000    0.000    0.000 
#
# Total GULP energy -396451.643575 kJ/mol
# GULP energy per Si atom -12389.113862 kJ/mol
# Density = 2.146090 g / cm^3
# Si number density = 21.509859 Si / 1000 Ang^3
#
#
#
# Elastic Constant Matrix: (Units=GPa)
#
#
# Indices 1 2 3 4 5 6 
#
# 1 80.1761 25.1633 26.2080 0.0000 0.0000 0.0000
# 2 25.1633 119.2721 27.4699 0.0000 0.0000 0.0000
# 3 26.2080 27.4699 93.8139 0.0000 0.0000 0.0000
# 4 0.0000 0.0000 0.0000 33.5663 0.0000 0.0000
# 5 0.0000 0.0000 0.0000 0.0000 23.5980 0.0000
# 6 0.0000 0.0000 0.0000 0.0000 0.0000 22.1261
#
#
#
# Elastic Compliance Matrix: (Units=1/GPa)
#
#
# Indices 1 2 3 4 5 6 
#
# 1 0.014264 -0.002243 -0.003328 0.000000 0.000000 0.000000
# 2 -0.002243 0.009343 -0.002109 0.000000 0.000000 0.000000
# 3 -0.003328 -0.002109 0.012207 0.000000 0.000000 0.000000
# 4 0.000000 0.000000 0.000000 0.029792 0.000000 0.000000
# 5 0.000000 0.000000 0.000000 0.000000 0.042377 0.000000
# 6 0.000000 0.000000 0.000000 0.000000 0.000000 0.045196
#
#
# Mechanical properties :
#
#
# Convention : Reuss Voigt Hill
#
# Bulk Modulus (GPa) = 48.89077 50.10493 49.49785
# Shear Modulus (GPa) = 28.51331 30.15279 29.33305
#
# Velocity S-wave (km/s) = 3.64482 3.74814 3.69684
# Velocity P-wave (km/s) = 6.36331 6.48659 6.42525
#
# Compressibility (1/GPa) = 0.02045376
#
# Stress axis : x y z
#
# Youngs Moduli (GPa) = 70.10463 107.03014 81.92172
#
# Poissons Ratio (x) = 0.24006 0.27265
# Poissons Ratio (y) = 0.15724 0.17279
# Poissons Ratio (z) = 0.23332 0.22575
#
# Static dielectric constant tensor:
#      x y z
#    x 3.775900 0.000000 0.000000 
#    y 0.000000 4.402620 0.000000 
#    z 0.000000 0.000000 3.767130 
# 
# 
# High freq. dielectric constant tensor:
#      x y z
#    x 1.809510 0.000000 0.000000 
#    y 0.000000 1.856710 0.000000 
#    z 0.000000 0.000000 1.839360 
# 
# From -- ./inp_files/25865.got.cif
#   From: 2010.03.12/outbox.cif.g09.slc.cpg/sg40_13_cif.got.tgz:25865.got - 2010.04.14 01:38:03.
