data_PCOD8183633
_publ_section_title
;
Structure prediction by ZEFSAII (Michael W. Deem and Ramdas Pophale) SiO2 
 PCOD8183633
Probable space group: A M A 2
;
_chemical_formula_sum "Si O2"
_cell_formula_units_Z 64
_cell_length_a 18.045332
_cell_length_b 18.421651
_cell_length_c 9.949083
_cell_angle_alpha 90.000000
_cell_angle_beta 90.000000
_cell_angle_gamma 90.000000
_cell_volume 3307.322009
_symmetry_space_group_name_H-M "A M A 2"
_symmetry_group_IT_number 40
_symmetry_cell_setting 'orthorhombic'
loop_
_space_group_symop_operation_xyz
x,y,z
-x,-y,z
1/2-x,y,z
1/2+x,-y,z
x,1/2+y,1/2+z
-x,1/2-y,1/2+z
1/2-x,1/2+y,1/2+z
1/2+x,1/2-y,1/2+z
loop_
_atom_site_type_symbol
_atom_site_label
_atom_site_fract_x
_atom_site_fract_y
_atom_site_fract_z
Si Si1 0.837274 0.473980 0.946400
Si Si2 0.464797 0.273988 0.392586
Si Si3 0.170672 0.150182 0.105017
Si Si4 0.939140 0.064355 0.933603
Si Si5 0.161355 0.915446 0.677142
Si Si6 0.836951 0.010606 0.152051
Si Si7 0.570873 0.223372 0.595697
Si Si8 0.330821 0.181929 0.417459
O O1 0.750000 0.465820 0.928978
O O2 0.866092 0.508349 0.806171
O O3 0.866946 0.392361 0.978617
O O4 0.860245 0.524255 0.068909
O O5 0.480358 0.357672 0.431709
O O6 0.514866 0.214347 0.471016
O O7 0.475317 0.262939 0.232719
O O8 0.381046 0.252968 0.436747
O O9 0.250000 0.164905 0.035235
O O10 0.111736 0.204432 0.042896
O O11 0.178105 0.165065 0.261793
O O12 0.148879 0.066903 0.080922
O O13 0.880222 0.060618 0.811755
O O14 0.891157 0.063756 0.070546
O O15 0.000000 0.000000 0.923386
O O16 0.250000 0.908638 0.700291
O O17 0.129906 0.840394 0.617709
O O18 0.750000 0.033520 0.142938
O O19 0.250000 0.199684 0.480810
#
# Coordination Sequence:
#
# PCOD8183633 Si02
#       8
#     8   8   8   8   8   8   8   8
#     4   8  16  32  55  81 102 126 171 225 269 312
#     4  10  22  35  52  74 102 139 177 218 267 319
#     4   8  14  28  52  75  94 126 174 219 255 300
#     4  11  23  36  50  77 115 148 177 219 277 339
#     4  10  21  37  58  82 110 147 186 225 271 330
#     4   9  17  32  55  78 100 132 176 223 267 318
#     4  10  20  35  52  75 105 137 176 222 268 320
#     4   8  15  31  54  76  98 129 175 221 256 304
#
# _framework density 19.351004
#
# number of rings (size 3 to 8) (size 9 to 14) (size 15 to 20)
#    0.000    2.750    0.000    3.000    0.000    6.500 
#    0.000    0.625    0.000    1.500    0.000    0.000 
#    0.000    0.000    0.000    0.000    0.000    0.000 
#
# Total GULP energy -396458.983480 kJ/mol
# GULP energy per Si atom -12389.343234 kJ/mol
# Density = 1.930696 g / cm^3
# Si number density = 19.351004 Si / 1000 Ang^3
#
#
#
# Elastic Constant Matrix: (Units=GPa)
#
#
# Indices 1 2 3 4 5 6 
#
# 1 62.3606 24.8706 24.9963 0.0000 0.0000 0.0000
# 2 24.8706 63.1913 30.0121 0.0000 0.0000 0.0000
# 3 24.9963 30.0121 62.4135 0.0000 0.0000 0.0000
# 4 0.0000 0.0000 0.0000 25.4389 0.0000 0.0000
# 5 0.0000 0.0000 0.0000 0.0000 19.1140 0.0000
# 6 0.0000 0.0000 0.0000 0.0000 0.0000 21.8009
#
#
#
# Elastic Compliance Matrix: (Units=1/GPa)
#
#
# Indices 1 2 3 4 5 6 
#
# 1 0.020424 -0.005383 -0.005591 0.000000 0.000000 0.000000
# 2 -0.005383 0.021927 -0.008388 0.000000 0.000000 0.000000
# 3 -0.005591 -0.008388 0.022295 0.000000 0.000000 0.000000
# 4 0.000000 0.000000 0.000000 0.039310 0.000000 0.000000
# 5 0.000000 0.000000 0.000000 0.000000 0.052318 0.000000
# 6 0.000000 0.000000 0.000000 0.000000 0.000000 0.045870
#
#
# Mechanical properties :
#
#
# Convention : Reuss Voigt Hill
#
# Bulk Modulus (GPa) = 38.57785 38.63595 38.60690
# Shear Modulus (GPa) = 20.03941 20.47652 20.25796
#
# Velocity S-wave (km/s) = 3.22153 3.25647 3.23905
# Velocity P-wave (km/s) = 5.81522 5.84369 5.82947
#
# Compressibility (1/GPa) = 0.02592161
#
# Stress axis : x y z
#
# Youngs Moduli (GPa) = 48.96271 45.60508 44.85317
#
# Poissons Ratio (x) = 0.24548 0.25078
# Poissons Ratio (y) = 0.26356 0.37624
# Poissons Ratio (z) = 0.27376 0.38254
#
# Static dielectric constant tensor:
#      x y z
#    x 4.314800 0.000000 0.000000 
#    y 0.000000 3.897930 0.000000 
#    z 0.000000 0.000000 3.349720 
# 
# 
# High freq. dielectric constant tensor:
#      x y z
#    x 1.746000 0.000000 0.000000 
#    y 0.000000 1.754690 0.000000 
#    z 0.000000 0.000000 1.729580 
# 
# From -- ./inp_files/12432.got.cif
#   From: 2010.03.12/outbox.cif.g09.slc.cpg/sg40_7_cif.got.tgz:12432.got - 2010.04.14 01:38:03.
