data_PCOD8183516
_publ_section_title
;
Structure prediction by ZEFSAII (Michael W. Deem and Ramdas Pophale) SiO2 
 PCOD8183516
Probable space group: A M A 2
;
_chemical_formula_sum "Si O2"
_cell_formula_units_Z 64
_cell_length_a 9.955710
_cell_length_b 18.371725
_cell_length_c 17.734002
_cell_angle_alpha 90.000000
_cell_angle_beta 90.000000
_cell_angle_gamma 90.000000
_cell_volume 3243.612211
_symmetry_space_group_name_H-M "A M A 2"
_symmetry_group_IT_number 40
_symmetry_cell_setting 'orthorhombic'
loop_
_space_group_symop_operation_xyz
x,y,z
-x,-y,z
1/2-x,y,z
1/2+x,-y,z
x,1/2+y,1/2+z
-x,1/2-y,1/2+z
1/2-x,1/2+y,1/2+z
1/2+x,1/2-y,1/2+z
loop_
_atom_site_type_symbol
_atom_site_label
_atom_site_fract_x
_atom_site_fract_y
_atom_site_fract_z
Si Si1 0.097989 0.816750 0.924360
Si Si2 0.904887 0.158098 0.653368
Si Si3 0.403681 0.433018 0.297261
Si Si4 0.396748 0.944066 0.186367
Si Si5 0.907061 0.216055 0.217711
Si Si6 0.594707 0.570493 0.003448
Si Si7 0.892539 0.551277 0.514010
Si Si8 0.903161 0.695745 0.892990
O O1 0.250000 0.787336 0.916772
O O2 0.059707 0.865907 0.852149
O O3 0.999851 0.749762 0.937562
O O4 0.076101 0.864041 0.000246
O O5 0.750000 0.185524 0.655724
O O6 0.927777 0.092914 0.712038
O O7 0.942125 0.125767 0.571531
O O8 0.002221 0.224483 0.676042
O O9 0.500000 0.500000 0.315173
O O10 0.250000 0.457834 0.309037
O O11 0.250000 0.948412 0.227012
O O12 0.448755 0.861802 0.183759
O O13 0.500000 0.000000 0.227275
O O14 0.381471 0.969613 0.100795
O O15 0.750000 0.234815 0.204132
O O16 0.939631 0.205404 0.305695
O O17 0.500000 0.500000 0.004628
O O18 0.750000 0.545165 0.010990
O O19 0.571990 0.614051 0.924613
O O20 0.750000 0.534517 0.473691
O O21 0.000000 0.500000 0.472680
O O22 0.750000 0.718461 0.909060
#
# Coordination Sequence:
#
# PCOD8183516 Si02
#       8
#     8   8   8   8   8   8   8   8
#     4  10  20  34  52  78 111 147 186 228 274 332
#     4  10  21  38  58  84 117 149 189 241 292 347
#     4  10  20  33  52  79 110 144 184 228 278 338
#     4   9  19  35  53  78 108 140 180 226 275 330
#     4  10  21  37  58  84 114 149 191 238 289 347
#     4  10  23  42  62  87 119 155 198 247 296 350
#     4   9  18  32  50  74 106 139 174 217 263 318
#     4  10  22  39  57  82 115 149 188 235 285 338
#
# _framework density 19.731088
#
# number of rings (size 3 to 8) (size 9 to 14) (size 15 to 20)
#    0.000    2.250    1.250    0.750    1.750    3.500 
#    0.000    0.000    0.000    0.000    0.000    0.000 
#    0.000    0.000    0.000    0.000    0.000    0.000 
#
# Total GULP energy -396597.308977 kJ/mol
# GULP energy per Si atom -12393.665906 kJ/mol
# Density = 1.968618 g / cm^3
# Si number density = 19.731088 Si / 1000 Ang^3
#
#
#
# Elastic Constant Matrix: (Units=GPa)
#
#
# Indices 1 2 3 4 5 6 
#
# 1 127.3199 100.3403 32.2536 0.0000 0.0000 0.0000
# 2 100.3403 130.9107 32.8328 0.0000 0.0000 0.0000
# 3 32.2536 32.8328 37.8312 0.0000 0.0000 0.0000
# 4 0.0000 0.0000 0.0000 24.9103 0.0000 0.0000
# 5 0.0000 0.0000 0.0000 0.0000 20.4255 0.0000
# 6 0.0000 0.0000 0.0000 0.0000 0.0000 46.9329
#
#
#
# Elastic Compliance Matrix: (Units=1/GPa)
#
#
# Indices 1 2 3 4 5 6 
#
# 1 0.020528 -0.014501 -0.004916 0.000000 0.000000 0.000000
# 2 -0.014501 0.020008 -0.005001 0.000000 0.000000 0.000000
# 3 -0.004916 -0.005001 0.034965 0.000000 0.000000 0.000000
# 4 0.000000 0.000000 0.000000 0.040144 0.000000 0.000000
# 5 0.000000 0.000000 0.000000 0.000000 0.048958 0.000000
# 6 0.000000 0.000000 0.000000 0.000000 0.000000 0.021307
#
#
# Mechanical properties :
#
#
# Convention : Reuss Voigt Hill
#
# Bulk Modulus (GPa) = 37.50409 69.65724 53.58067
# Shear Modulus (GPa) = 20.52240 27.16273 23.84256
#
# Velocity S-wave (km/s) = 3.22856 3.71434 3.47994
# Velocity P-wave (km/s) = 5.73995 7.33315 6.58491
#
# Compressibility (1/GPa) = 0.02666376
#
# Stress axis : x y z
#
# Youngs Moduli (GPa) = 48.71362 49.97963 28.60002
#
# Poissons Ratio (x) = 0.72478 0.14060
# Poissons Ratio (y) = 0.70642 0.14303
# Poissons Ratio (z) = 0.23948 0.24996
#
# Static dielectric constant tensor:
#      x y z
#    x 3.928710 0.000000 0.000000 
#    y 0.000000 3.470040 0.000000 
#    z 0.000000 0.000000 3.615200 
# 
# 
# High freq. dielectric constant tensor:
#      x y z
#    x 1.772240 0.000000 0.000000 
#    y 0.000000 1.757310 0.000000 
#    z 0.000000 0.000000 1.769090 
# 
# From -- ./inp_files/20148.got.cif
#   From: 2010.03.12/outbox.cif.g09.slc.cpg/sg40_11_cif.got.tgz:20148.got - 2010.04.14 01:38:03.
