data_PCOD8183015
_publ_section_title
;
Structure prediction by ZEFSAII (Michael W. Deem and Ramdas Pophale) SiO2 
 PCOD8183015
Probable space group: A M A 2
;
_chemical_formula_sum "Si O2"
_cell_formula_units_Z 56
_cell_length_a 9.164090
_cell_length_b 23.943585
_cell_length_c 13.549775
_cell_angle_alpha 90.000000
_cell_angle_beta 90.000000
_cell_angle_gamma 90.000000
_cell_volume 2973.107455
_symmetry_space_group_name_H-M "A M A 2"
_symmetry_group_IT_number 40
_symmetry_cell_setting 'orthorhombic'
loop_
_space_group_symop_operation_xyz
x,y,z
-x,-y,z
1/2-x,y,z
1/2+x,-y,z
x,1/2+y,1/2+z
-x,1/2-y,1/2+z
1/2-x,1/2+y,1/2+z
1/2+x,1/2-y,1/2+z
loop_
_atom_site_type_symbol
_atom_site_label
_atom_site_fract_x
_atom_site_fract_y
_atom_site_fract_z
Si Si1 0.579587 0.167561 0.053890
Si Si2 0.417799 0.222414 0.445387
Si Si3 0.081438 0.872299 0.544472
Si Si4 0.420978 0.444261 0.446864
Si Si5 0.422908 0.659239 0.751789
Si Si6 0.079344 0.444805 0.223068
Si Si7 0.077566 0.941016 0.352504
O O1 0.750000 0.167654 0.082630
O O2 0.482836 0.182722 0.148650
O O3 0.547971 0.212841 0.967793
O O4 0.529446 0.107469 0.013506
O O5 0.250000 0.208524 0.460335
O O6 0.498979 0.185054 0.525838
O O7 0.463985 0.205930 0.334039
O O8 0.250000 0.857088 0.542499
O O9 0.031838 0.894486 0.651519
O O10 0.045252 0.919071 0.462546
O O11 0.500000 0.500000 0.485528
O O12 0.250000 0.454949 0.454454
O O13 0.467183 0.430161 0.334573
O O14 0.250000 0.648707 0.746057
O O15 0.505848 0.601515 0.774659
O O16 0.250000 0.456227 0.213720
O O17 0.000000 0.500000 0.185335
O O18 0.250000 0.946291 0.331015
O O19 0.000000 0.000000 0.338353
#
# Coordination Sequence:
#
# PCOD8183015 Si02
#       7
#     8   8   8   8   8   8   8
#     4  10  21  38  57  77 103 137 171 210 262 313
#     4   9  20  37  55  76 104 136 172 213 259 309
#     4   9  18  31  50  77 108 140 175 215 260 306
#     4   9  19  35  54  75 103 135 169 210 255 304
#     4  10  21  37  56  79 105 136 175 218 261 313
#     4   9  17  30  49  75 105 138 173 211 255 304
#     4  10  19  32  51  77 109 144 179 219 264 311
#
# _framework density 18.835512000000001
#
# number of rings (size 3 to 8) (size 9 to 14) (size 15 to 20)
#    0.000    2.571    0.000    1.286    0.000    4.571 
#    0.000    4.286    0.000    0.000    0.000    0.000 
#    0.000    0.000    0.000    0.000    0.000    0.000 
#
# Total GULP energy -347220.862106 kJ/mol
# GULP energy per Si atom -12400.745075 kJ/mol
# Density = 1.879264 g / cm^3
# Si number density = 18.835512 Si / 1000 Ang^3
#
#
#
# Elastic Constant Matrix: (Units=GPa)
#
#
# Indices 1 2 3 4 5 6 
#
# 1 59.6074 48.6124 38.6039 0.0000 0.0000 0.0000
# 2 48.6124 128.2220 58.7453 0.0000 0.0000 0.0000
# 3 38.6039 58.7453 96.6074 0.0000 0.0000 0.0000
# 4 0.0000 0.0000 0.0000 23.8359 0.0000 0.0000
# 5 0.0000 0.0000 0.0000 0.0000 25.4908 0.0000
# 6 0.0000 0.0000 0.0000 0.0000 0.0000 31.6013
#
#
#
# Elastic Compliance Matrix: (Units=1/GPa)
#
#
# Indices 1 2 3 4 5 6 
#
# 1 0.026774 -0.007276 -0.006274 0.000000 0.000000 0.000000
# 2 -0.007276 0.012788 -0.004869 0.000000 0.000000 0.000000
# 3 -0.006274 -0.004869 0.015819 0.000000 0.000000 0.000000
# 4 0.000000 0.000000 0.000000 0.041954 0.000000 0.000000
# 5 0.000000 0.000000 0.000000 0.000000 0.039230 0.000000
# 6 0.000000 0.000000 0.000000 0.000000 0.000000 0.031644
#
#
# Mechanical properties :
#
#
# Convention : Reuss Voigt Hill
#
# Bulk Modulus (GPa) = 53.92946 64.04000 58.98473
# Shear Modulus (GPa) = 23.67112 25.41727 24.54420
#
# Velocity S-wave (km/s) = 3.54888 3.67745 3.61374
# Velocity P-wave (km/s) = 6.74438 7.21837 6.98540
#
# Compressibility (1/GPa) = 0.01854274
#
# Stress axis : x y z
#
# Youngs Moduli (GPa) = 37.34987 78.19717 63.21537
#
# Poissons Ratio (x) = 0.56897 0.39663
# Poissons Ratio (y) = 0.27176 0.30778
# Poissons Ratio (z) = 0.23434 0.38072
#
# Static dielectric constant tensor:
#      x y z
#    x 3.412800 0.000000 0.000000 
#    y 0.000000 3.437820 0.000000 
#    z 0.000000 0.000000 3.534970 
# 
# 
# High freq. dielectric constant tensor:
#      x y z
#    x 1.728900 0.000000 0.000000 
#    y 0.000000 1.727440 0.000000 
#    z 0.000000 0.000000 1.730980 
# 
# From -- ./inp_files/15304.got.cif
#   From: 2010.03.12/outbox.cif.g09.slc.cpg/sg40_8_cif.got.tgz:15304.got - 2010.04.14 01:38:03.
