data_PCOD8183843
_publ_section_title
;
Structure prediction by ZEFSAII (Michael W. Deem and Ramdas Pophale) SiO2 
 PCOD8183843
Probable space group: A M A 2
;
_chemical_formula_sum "Si O2"
_cell_formula_units_Z 64
_cell_length_a 18.308433
_cell_length_b 19.997770
_cell_length_c 9.130232
_cell_angle_alpha 90.000000
_cell_angle_beta 90.000000
_cell_angle_gamma 90.000000
_cell_volume 3342.832050
_symmetry_space_group_name_H-M "A M A 2"
_symmetry_group_IT_number 40
_symmetry_cell_setting 'orthorhombic'
loop_
_space_group_symop_operation_xyz
x,y,z
-x,-y,z
1/2-x,y,z
1/2+x,-y,z
x,1/2+y,1/2+z
-x,1/2-y,1/2+z
1/2-x,1/2+y,1/2+z
1/2+x,1/2-y,1/2+z
loop_
_atom_site_type_symbol
_atom_site_label
_atom_site_fract_x
_atom_site_fract_y
_atom_site_fract_z
Si Si1 0.922212 0.033993 0.018560
Si Si2 0.102485 0.704070 0.325230
Si Si3 0.833637 0.412852 0.489135
Si Si4 0.835753 0.056904 0.312420
Si Si5 0.667475 0.404812 0.814026
Si Si6 0.916510 0.667567 0.996355
Si Si7 0.584469 0.797554 0.490824
Si Si8 0.936674 0.666052 0.333165
O O1 0.878784 0.061078 0.159544
O O2 0.924354 0.095581 0.908743
O O3 0.000000 0.000000 0.059936
O O4 0.876262 0.977847 0.931676
O O5 0.158733 0.647202 0.375286
O O6 0.122684 0.769032 0.421141
O O7 0.021901 0.677954 0.353186
O O8 0.109950 0.718999 0.154515
O O9 0.750000 0.433783 0.506738
O O10 0.866674 0.395339 0.650771
O O11 0.750000 0.078780 0.296284
O O12 0.880238 0.101752 0.427744
O O13 0.839828 0.980934 0.369599
O O14 0.750000 0.380999 0.805626
O O15 0.630417 0.358593 0.932107
O O16 0.904710 0.664110 0.169849
O O17 0.002361 0.676265 0.967636
O O18 0.603090 0.728976 0.407577
#
# Coordination Sequence:
#
# PCOD8183843 Si02
#       8
#     8   8   8   8   8   8   8   8
#     4  11  21  37  64  88 118 156 200 240 292 347
#     4  10  20  37  57  87 116 153 197 246 292 347
#     4  10  21  37  58  85 120 157 193 237 291 352
#     4  10  23  41  59  89 123 155 198 242 291 356
#     4   9  20  38  57  82 116 153 192 238 289 346
#     4  10  22  37  61  85 119 157 193 246 298 344
#     4  10  21  36  61  86 117 148 203 248 289 348
#     4  10  21  39  57  90 117 149 200 250 289 346
#
# _framework density 19.145444000000001
#
# number of rings (size 3 to 8) (size 9 to 14) (size 15 to 20)
#    0.000    2.000    1.250    2.625    3.500    4.000 
#    0.000    5.625    0.000    0.000    0.000    0.000 
#    0.000    0.000    0.000    0.000    0.000    0.000 
#
# Total GULP energy -396672.950952 kJ/mol
# GULP energy per Si atom -12396.029717 kJ/mol
# Density = 1.910187 g / cm^3
# Si number density = 19.145444 Si / 1000 Ang^3
#
#
#
# Elastic Constant Matrix: (Units=GPa)
#
#
# Indices 1 2 3 4 5 6 
#
# 1 62.6298 46.2555 54.4175 0.0000 0.0000 0.0000
# 2 46.2555 133.3867 81.0343 0.0000 0.0000 0.0000
# 3 54.4175 81.0343 111.1244 0.0000 0.0000 0.0000
# 4 0.0000 0.0000 0.0000 42.0517 0.0000 0.0000
# 5 0.0000 0.0000 0.0000 0.0000 22.1078 0.0000
# 6 0.0000 0.0000 0.0000 0.0000 0.0000 27.6339
#
#
#
# Elastic Compliance Matrix: (Units=1/GPa)
#
#
# Indices 1 2 3 4 5 6 
#
# 1 0.028249 -0.002499 -0.012011 0.000000 0.000000 0.000000
# 2 -0.002499 0.013681 -0.008753 0.000000 0.000000 0.000000
# 3 -0.012011 -0.008753 0.021263 0.000000 0.000000 0.000000
# 4 0.000000 0.000000 0.000000 0.023780 0.000000 0.000000
# 5 0.000000 0.000000 0.000000 0.000000 0.045233 0.000000
# 6 0.000000 0.000000 0.000000 0.000000 0.000000 0.036187
#
#
# Mechanical properties :
#
#
# Convention : Reuss Voigt Hill
#
# Bulk Modulus (GPa) = 59.99712 74.50617 67.25165
# Shear Modulus (GPa) = 22.67838 26.72094 24.69966
#
# Velocity S-wave (km/s) = 3.44544 3.73993 3.59570
# Velocity P-wave (km/s) = 6.87267 7.59275 7.24167
#
# Compressibility (1/GPa) = 0.01666747
#
# Stress axis : x y z
#
# Youngs Moduli (GPa) = 35.40011 73.09398 47.02961
#
# Poissons Ratio (x) = 0.18268 0.56486
# Poissons Ratio (y) = 0.08847 0.41163
# Poissons Ratio (z) = 0.42518 0.63976
#
# Static dielectric constant tensor:
#      x y z
#    x 3.456840 0.000000 0.000000 
#    y 0.000000 3.621000 0.000000 
#    z 0.000000 0.000000 3.474350 
# 
# 
# High freq. dielectric constant tensor:
#      x y z
#    x 1.736610 0.000000 0.000000 
#    y 0.000000 1.756720 0.000000 
#    z 0.000000 0.000000 1.741310 
# 
# From -- ./inp_files/7791.got.cif
#   From: 2010.03.12/outbox.cif.g09.slc.cpg/sg40_4_cif.got.tgz:7791.got - 2010.04.14 01:38:03.
