data_PCOD8183575
_publ_section_title
;
Structure prediction by ZEFSAII (Michael W. Deem and Ramdas Pophale) SiO2 
 PCOD8183575
Probable space group: A M A 2
;
_chemical_formula_sum "Si O2"
_cell_formula_units_Z 64
_cell_length_a 8.748852
_cell_length_b 20.792798
_cell_length_c 19.313136
_cell_angle_alpha 90.000000
_cell_angle_beta 90.000000
_cell_angle_gamma 90.000000
_cell_volume 3513.312679
_symmetry_space_group_name_H-M "A M A 2"
_symmetry_group_IT_number 40
_symmetry_cell_setting 'orthorhombic'
loop_
_space_group_symop_operation_xyz
x,y,z
-x,-y,z
1/2-x,y,z
1/2+x,-y,z
x,1/2+y,1/2+z
-x,1/2-y,1/2+z
1/2-x,1/2+y,1/2+z
1/2+x,1/2-y,1/2+z
loop_
_atom_site_type_symbol
_atom_site_label
_atom_site_fract_x
_atom_site_fract_y
_atom_site_fract_z
Si Si1 0.927954 0.619364 0.845850
Si Si2 0.923838 0.747052 0.501268
Si Si3 0.429829 0.566167 0.714031
Si Si4 0.427258 0.312903 0.207714
Si Si5 0.072718 0.812788 0.141041
Si Si6 0.570212 0.433867 0.134625
Si Si7 0.572058 0.119340 0.502810
Si Si8 0.423859 0.252987 0.347433
O O1 0.750000 0.608066 0.832165
O O2 0.974336 0.601154 0.924328
O O3 0.022694 0.574680 0.794124
O O4 0.964814 0.693797 0.830823
O O5 0.750000 0.773167 0.506505
O O6 0.950030 0.691249 0.557770
O O7 0.956811 0.718978 0.424359
O O8 0.035166 0.806238 0.517871
O O9 0.500000 0.500000 0.685330
O O10 0.250000 0.562951 0.708061
O O11 0.489625 0.623795 0.666820
O O12 0.250000 0.316818 0.186844
O O13 0.499505 0.249951 0.174390
O O14 0.511044 0.376130 0.181848
O O15 0.450121 0.308829 0.290977
O O16 0.250000 0.816289 0.161976
O O17 0.500000 0.500000 0.163413
O O18 0.750000 0.437257 0.140433
O O19 0.522537 0.425369 0.054558
O O20 0.750000 0.108056 0.516471
O O21 0.250000 0.226903 0.342140
#
# Coordination Sequence:
#
# PCOD8183575 Si02
#       8
#     8   8   8   8   8   8   8   8
#     4  10  20  34  54  81 113 148 187 229 274 331
#     4   9  18  33  55  83 113 146 184 227 276 328
#     4  12  25  40  57  79 111 151 191 236 283 337
#     4  11  21  35  58  86 115 148 187 232 279 332
#     4  11  21  35  58  86 115 148 187 232 279 332
#     4  12  25  40  57  79 111 151 191 236 283 337
#     4  10  20  34  54  81 113 148 187 229 274 331
#     4   9  18  33  55  83 113 146 184 227 276 328
#
# _framework density 18.216425999999998
#
# number of rings (size 3 to 8) (size 9 to 14) (size 15 to 20)
#    0.000    1.500    2.500    3.750    0.000    3.000 
#    0.000    0.000    0.000    0.750    0.000    0.000 
#    0.000    0.000    0.000    0.000    0.000    0.000 
#
# Total GULP energy -396848.646821 kJ/mol
# GULP energy per Si atom -12401.520213 kJ/mol
# Density = 1.817496 g / cm^3
# Si number density = 18.216426 Si / 1000 Ang^3
#
#
#
# Elastic Constant Matrix: (Units=GPa)
#
#
# Indices 1 2 3 4 5 6 
#
# 1 132.5404 60.3467 43.7192 0.0000 0.0000 0.0000
# 2 60.3467 126.6721 58.2049 0.0000 0.0000 0.0000
# 3 43.7192 58.2049 94.8199 0.0000 0.0000 0.0000
# 4 0.0000 0.0000 0.0000 21.9035 0.0000 0.0000
# 5 0.0000 0.0000 0.0000 0.0000 26.5247 0.0000
# 6 0.0000 0.0000 0.0000 0.0000 0.0000 31.8435
#
#
#
# Elastic Compliance Matrix: (Units=1/GPa)
#
#
# Indices 1 2 3 4 5 6 
#
# 1 0.009996 -0.003683 -0.002348 0.000000 0.000000 0.000000
# 2 -0.003683 0.012353 -0.005885 0.000000 0.000000 0.000000
# 3 -0.002348 -0.005885 0.015241 0.000000 0.000000 0.000000
# 4 0.000000 0.000000 0.000000 0.045655 0.000000 0.000000
# 5 0.000000 0.000000 0.000000 0.000000 0.037701 0.000000
# 6 0.000000 0.000000 0.000000 0.000000 0.000000 0.031404
#
#
# Mechanical properties :
#
#
# Convention : Reuss Voigt Hill
#
# Bulk Modulus (GPa) = 72.68175 75.39712 74.03943
# Shear Modulus (GPa) = 27.65973 28.83845 28.24909
#
# Velocity S-wave (km/s) = 3.90089 3.98314 3.94223
# Velocity P-wave (km/s) = 7.76369 7.91412 7.83927
#
# Compressibility (1/GPa) = 0.01375861
#
# Stress axis : x y z
#
# Youngs Moduli (GPa) = 100.03511 80.95145 65.61174
#
# Poissons Ratio (x) = 0.29818 0.15406
# Poissons Ratio (y) = 0.36847 0.38610
# Poissons Ratio (z) = 0.23489 0.47636
#
# Static dielectric constant tensor:
#      x y z
#    x 3.466200 0.000000 0.000000 
#    y 0.000000 3.171400 0.000000 
#    z 0.000000 0.000000 3.703220 
# 
# 
# High freq. dielectric constant tensor:
#      x y z
#    x 1.720820 0.000000 0.000000 
#    y 0.000000 1.676860 0.000000 
#    z 0.000000 0.000000 1.712030 
# 
# From -- ./inp_files/22434.got.cif
#   From: 2010.03.12/outbox.cif.g09.slc.cpg/sg40_12_cif.got.tgz:22434.got - 2010.04.14 01:38:03.
