data_PCOD8183173
_publ_section_title
;
Structure prediction by ZEFSAII (Michael W. Deem and Ramdas Pophale) SiO2 
 PCOD8183173
Probable space group: A M A 2
;
_chemical_formula_sum "Si O2"
_cell_formula_units_Z 64
_cell_length_a 19.228186
_cell_length_b 12.194406
_cell_length_c 14.944787
_cell_angle_alpha 90.000000
_cell_angle_beta 90.000000
_cell_angle_gamma 90.000000
_cell_volume 3504.198461
_symmetry_space_group_name_H-M "A M A 2"
_symmetry_group_IT_number 40
_symmetry_cell_setting 'orthorhombic'
loop_
_space_group_symop_operation_xyz
x,y,z
-x,-y,z
1/2-x,y,z
1/2+x,-y,z
x,1/2+y,1/2+z
-x,1/2-y,1/2+z
1/2-x,1/2+y,1/2+z
1/2+x,1/2-y,1/2+z
loop_
_atom_site_type_symbol
_atom_site_label
_atom_site_fract_x
_atom_site_fract_y
_atom_site_fract_z
Si Si1 0.828926 0.347373 0.738750
Si Si2 0.168197 0.913231 0.277865
Si Si3 0.560260 0.721742 0.345954
Si Si4 0.922066 0.512848 0.245745
Si Si5 0.542370 0.338423 0.020277
Si Si6 0.896113 0.557107 0.969595
Si Si7 0.071514 0.223586 0.723493
Si Si8 0.172949 0.348153 0.122494
O O1 0.750000 0.330217 0.772227
O O2 0.841420 0.476000 0.719209
O O3 0.876937 0.300234 0.816956
O O4 0.843817 0.278308 0.647786
O O5 0.250000 0.888065 0.294907
O O6 0.124097 0.935471 0.366729
O O7 0.132368 0.813693 0.224770
O O8 0.578031 0.592322 0.332330
O O9 0.551297 0.736690 0.451855
O O10 0.493517 0.757201 0.285988
O O11 0.895374 0.389349 0.264491
O O12 0.878877 0.567709 0.168203
O O13 0.000000 0.500000 0.206474
O O14 0.601689 0.430306 0.002071
O O15 0.468668 0.388030 0.993896
O O16 0.546158 0.293272 0.121218
O O17 0.836187 0.629321 0.017722
O O18 0.250000 0.378132 0.154223
#
# Coordination Sequence:
#
# PCOD8183173 Si02
#       8
#     8   8   8   8   8   8   8   8
#     4   9  19  35  56  84 115 151 190 237 293 349
#     4  11  23  39  57  84 127 161 190 246 305 356
#     4  10  19  36  60  84 113 150 194 244 296 345
#     4   9  18  34  57  80 116 148 184 241 289 342
#     4  11  21  35  61  88 114 151 199 254 292 349
#     4  11  20  36  58  90 115 144 199 254 297 345
#     4  11  22  38  57  86 122 156 197 241 301 360
#     4  10  19  33  57  86 111 146 195 238 286 348
#
# _framework density 18.263805000000001
#
# number of rings (size 3 to 8) (size 9 to 14) (size 15 to 20)
#    0.000    1.750    3.750    2.625    1.750    1.000 
#    0.000    1.875    5.500    0.000    0.000    0.000 
#    0.000    0.000    0.000    0.000    0.000    0.000 
#
# Total GULP energy -396532.604360 kJ/mol
# GULP energy per Si atom -12391.643886 kJ/mol
# Density = 1.822224 g / cm^3
# Si number density = 18.263805 Si / 1000 Ang^3
#
#
#
# Elastic Constant Matrix: (Units=GPa)
#
#
# Indices 1 2 3 4 5 6 
#
# 1 73.0414 58.1670 24.0011 0.0000 0.0000 0.0000
# 2 58.1670 136.7886 45.7764 0.0000 0.0000 0.0000
# 3 24.0011 45.7764 94.0320 0.0000 0.0000 0.0000
# 4 0.0000 0.0000 0.0000 26.7190 0.0000 0.0000
# 5 0.0000 0.0000 0.0000 0.0000 20.0440 0.0000
# 6 0.0000 0.0000 0.0000 0.0000 0.0000 29.8316
#
#
#
# Elastic Compliance Matrix: (Units=1/GPa)
#
#
# Indices 1 2 3 4 5 6 
#
# 1 0.020814 -0.008449 -0.001199 0.000000 0.000000 0.000000
# 2 -0.008449 0.012163 -0.003765 0.000000 0.000000 0.000000
# 3 -0.001199 -0.003765 0.012774 0.000000 0.000000 0.000000
# 4 0.000000 0.000000 0.000000 0.037427 0.000000 0.000000
# 5 0.000000 0.000000 0.000000 0.000000 0.049890 0.000000
# 6 0.000000 0.000000 0.000000 0.000000 0.000000 0.033521
#
#
# Mechanical properties :
#
#
# Convention : Reuss Voigt Hill
#
# Bulk Modulus (GPa) = 52.84321 62.19456 57.51889
# Shear Modulus (GPa) = 25.03466 27.04676 26.04071
#
# Velocity S-wave (km/s) = 3.70635 3.85241 3.78009
# Velocity P-wave (km/s) = 6.87838 7.34272 7.11434
#
# Compressibility (1/GPa) = 0.01892391
#
# Stress axis : x y z
#
# Youngs Moduli (GPa) = 48.04556 82.21435 78.28705
#
# Poissons Ratio (x) = 0.69465 0.09389
# Poissons Ratio (y) = 0.40595 0.29473
# Poissons Ratio (z) = 0.05762 0.30951
#
# Static dielectric constant tensor:
#      x y z
#    x 3.411910 0.000000 0.000000 
#    y 0.000000 3.791370 0.000000 
#    z 0.000000 0.000000 3.231700 
# 
# 
# High freq. dielectric constant tensor:
#      x y z
#    x 1.708070 0.000000 0.000000 
#    y 0.000000 1.711850 0.000000 
#    z 0.000000 0.000000 1.686610 
# 
# From -- ./inp_files/17815.got.cif
#   From: 2010.03.12/outbox.cif.g09.slc.cpg/sg40_9_cif.got.tgz:17815.got - 2010.04.14 01:38:03.
