data_PCOD8183600
_publ_section_title
;
Structure prediction by ZEFSAII (Michael W. Deem and Ramdas Pophale) SiO2 
 PCOD8183600
Probable space group: A M A 2
;
_chemical_formula_sum "Si O2"
_cell_formula_units_Z 48
_cell_length_a 9.274549
_cell_length_b 22.866149
_cell_length_c 11.827684
_cell_angle_alpha 90.000000
_cell_angle_beta 90.000000
_cell_angle_gamma 90.000000
_cell_volume 2508.335023
_symmetry_space_group_name_H-M "A M A 2"
_symmetry_group_IT_number 40
_symmetry_cell_setting 'orthorhombic'
loop_
_space_group_symop_operation_xyz
x,y,z
-x,-y,z
1/2-x,y,z
1/2+x,-y,z
x,1/2+y,1/2+z
-x,1/2-y,1/2+z
1/2-x,1/2+y,1/2+z
1/2+x,1/2-y,1/2+z
loop_
_atom_site_type_symbol
_atom_site_label
_atom_site_fract_x
_atom_site_fract_y
_atom_site_fract_z
Si Si1 0.409832 0.142973 0.504110
Si Si2 0.904506 0.447508 0.804257
Si Si3 0.919054 0.720102 0.842056
Si Si4 0.578110 0.848656 0.150665
Si Si5 0.922375 0.937402 0.710458
Si Si6 0.417445 0.649930 0.399371
O O1 0.250000 0.168671 0.533269
O O2 0.394076 0.098802 0.402350
O O3 0.515488 0.194426 0.460027
O O4 0.471969 0.106727 0.610490
O O5 0.750000 0.475511 0.778522
O O6 0.960084 0.414140 0.692761
O O7 0.000000 0.500000 0.845430
O O8 0.750000 0.704430 0.840669
O O9 0.946713 0.789315 0.836020
O O10 0.995606 0.697544 0.729030
O O11 0.750000 0.835905 0.159217
O O12 0.513516 0.846387 0.024304
O O13 0.750000 0.947030 0.705492
O O14 0.974686 0.904933 0.825520
O O15 0.000000 0.000000 0.699684
O O16 0.250000 0.639579 0.418087
#
# Coordination Sequence:
#
# PCOD8183600 Si02
#       6
#     8   8   8   8   8   8
#     4   9  19  35  55  79 110 148 180 220 279 332
#     4   9  17  29  48  73  99 133 173 212 259 309
#     4  10  20  34  56  85 109 136 184 236 277 324
#     4   9  19  37  54  73 106 145 178 215 275 337
#     4  10  21  38  58  82 115 153 191 229 277 335
#     4   9  20  37  56  78 110 149 181 222 281 337
#
# _framework density 19.136199999999999
#
# number of rings (size 3 to 8) (size 9 to 14) (size 15 to 20)
#    0.000    2.667    0.000    2.000    2.333    4.000 
#    0.000    3.333    0.000    0.000    0.000    0.000 
#    0.000    0.000    0.000    0.000    0.000    0.000 
#
# Total GULP energy -297392.075436 kJ/mol
# GULP energy per Si atom -12391.336477 kJ/mol
# Density = 1.909264 g / cm^3
# Si number density = 19.136200 Si / 1000 Ang^3
#
#
#
# Elastic Constant Matrix: (Units=GPa)
#
#
# Indices 1 2 3 4 5 6 
#
# 1 51.9606 29.8928 25.1967 0.0000 0.0000 0.0000
# 2 29.8928 70.1335 28.0123 0.0000 0.0000 0.0000
# 3 25.1967 28.0123 115.9699 0.0000 0.0000 0.0000
# 4 0.0000 0.0000 0.0000 15.3583 0.0000 0.0000
# 5 0.0000 0.0000 0.0000 0.0000 38.6553 0.0000
# 6 0.0000 0.0000 0.0000 0.0000 0.0000 26.0023
#
#
#
# Elastic Compliance Matrix: (Units=1/GPa)
#
#
# Indices 1 2 3 4 5 6 
#
# 1 0.026637 -0.010007 -0.003370 0.000000 0.000000 0.000000
# 2 -0.010007 0.019541 -0.002546 0.000000 0.000000 0.000000
# 3 -0.003370 -0.002546 0.009970 0.000000 0.000000 0.000000
# 4 0.000000 0.000000 0.000000 0.065111 0.000000 0.000000
# 5 0.000000 0.000000 0.000000 0.000000 0.025870 0.000000
# 6 0.000000 0.000000 0.000000 0.000000 0.000000 0.038458
#
#
# Mechanical properties :
#
#
# Convention : Reuss Voigt Hill
#
# Bulk Modulus (GPa) = 41.15008 44.91862 43.03435
# Shear Modulus (GPa) = 22.16968 26.33399 24.25184
#
# Velocity S-wave (km/s) = 3.40740 3.71365 3.56382
# Velocity P-wave (km/s) = 6.08531 6.47398 6.28265
#
# Compressibility (1/GPa) = 0.02430129
#
# Stress axis : x y z
#
# Youngs Moduli (GPa) = 37.54220 51.17532 100.30018
#
# Poissons Ratio (x) = 0.51212 0.33802
# Poissons Ratio (y) = 0.37569 0.25534
# Poissons Ratio (z) = 0.12652 0.13028
#
# Static dielectric constant tensor:
#      x y z
#    x 2.961510 0.000000 0.000000 
#    y 0.000000 3.477050 0.000000 
#    z 0.000000 0.000000 3.871570 
# 
# 
# High freq. dielectric constant tensor:
#      x y z
#    x 1.720710 0.000000 0.000000 
#    y 0.000000 1.740020 0.000000 
#    z 0.000000 0.000000 1.753180 
# 
# From -- ./inp_files/10229.got.cif
#   From: 2010.03.12/outbox.cif.g09.slc.cpg/sg40_6_cif.got.tgz:10229.got - 2010.04.14 01:38:03.
