data_PCOD8183984
_publ_section_title
;
Structure prediction by ZEFSAII (Michael W. Deem and Ramdas Pophale) SiO2 
 PCOD8183984
Probable space group: A M A 2
;
_chemical_formula_sum "Si O2"
_cell_formula_units_Z 56
_cell_length_a 16.392426
_cell_length_b 5.013501
_cell_length_c 31.372258
_cell_angle_alpha 90.000000
_cell_angle_beta 90.000000
_cell_angle_gamma 90.000000
_cell_volume 2578.280213
_symmetry_space_group_name_H-M "A M A 2"
_symmetry_group_IT_number 40
_symmetry_cell_setting 'orthorhombic'
loop_
_space_group_symop_operation_xyz
x,y,z
-x,-y,z
1/2-x,y,z
1/2+x,-y,z
x,1/2+y,1/2+z
-x,1/2-y,1/2+z
1/2-x,1/2+y,1/2+z
1/2+x,1/2-y,1/2+z
loop_
_atom_site_type_symbol
_atom_site_label
_atom_site_fract_x
_atom_site_fract_y
_atom_site_fract_z
Si Si1 0.156494 0.614097 0.021040
Si Si2 0.590377 0.400257 0.565400
Si Si3 0.556541 0.249398 0.938947
Si Si4 0.656192 0.293718 0.854996
Si Si5 0.156192 0.623154 0.207720
Si Si6 0.910411 0.891009 0.163753
Si Si7 0.343140 0.724293 0.300974
O O1 0.250000 0.527645 0.015554
O O2 0.105857 0.360978 0.037356
O O3 0.151599 0.859711 0.054056
O O4 0.121566 0.709058 0.976125
O O5 0.500000 0.500000 0.554926
O O6 0.601932 0.319387 0.614373
O O7 0.500000 0.500000 0.932526
O O8 0.606172 0.201347 0.895867
O O9 0.500000 0.000000 0.950208
O O10 0.750000 0.341215 0.868973
O O11 0.616758 0.556747 0.832635
O O12 0.648005 0.065906 0.820202
O O13 0.250000 0.529209 0.211940
O O14 0.103556 0.378029 0.190087
O O15 0.118818 0.712440 0.253537
O O16 0.152399 0.876733 0.176480
O O17 0.000000 0.000000 0.173560
O O18 0.250000 0.816916 0.295935
#
# Coordination Sequence:
#
# PCOD8183984 Si02
#       7
#     8   8   8   8   8   8   8
#     4  12  25  42  66  95 123 158 209 260 308 369
#     4  11  24  43  65  89 125 168 206 252 317 380
#     4  12  25  42  63  90 126 161 198 245 308 371
#     4  10  20  39  63  87 118 158 205 251 298 357
#     4  11  22  39  64  92 123 164 214 261 308 369
#     4  11  24  41  61  90 128 167 205 254 319 379
#     4   9  19  36  61  89 119 158 202 251 305 357
#
# _framework density 21.719906000000002
#
# number of rings (size 3 to 8) (size 9 to 14) (size 15 to 20)
#    0.000    1.143    0.000    6.857    0.000    8.000 
#    0.000   11.429    0.000    0.000    0.000    0.000 
#    0.000    0.000    0.000    0.000    0.000    0.000 
#
# Total GULP energy -347338.872525 kJ/mol
# GULP energy per Si atom -12404.959733 kJ/mol
# Density = 2.167047 g / cm^3
# Si number density = 21.719906 Si / 1000 Ang^3
#
#
#
# Elastic Constant Matrix: (Units=GPa)
#
#
# Indices 1 2 3 4 5 6 
#
# 1 70.6945 20.3195 54.2731 0.0000 0.0000 0.0000
# 2 20.3195 130.0119 43.9734 0.0000 0.0000 0.0000
# 3 54.2731 43.9734 131.4707 0.0000 0.0000 0.0000
# 4 0.0000 0.0000 0.0000 37.1208 0.0000 0.0000
# 5 0.0000 0.0000 0.0000 0.0000 21.8679 0.0000
# 6 0.0000 0.0000 0.0000 0.0000 0.0000 28.6847
#
#
#
# Elastic Compliance Matrix: (Units=1/GPa)
#
#
# Indices 1 2 3 4 5 6 
#
# 1 0.020726 -0.000389 -0.008426 0.000000 0.000000 0.000000
# 2 -0.000389 0.008680 -0.002742 0.000000 0.000000 0.000000
# 3 -0.008426 -0.002742 0.012002 0.000000 0.000000 0.000000
# 4 0.000000 0.000000 0.000000 0.026939 0.000000 0.000000
# 5 0.000000 0.000000 0.000000 0.000000 0.045729 0.000000
# 6 0.000000 0.000000 0.000000 0.000000 0.000000 0.034862
#
#
# Mechanical properties :
#
#
# Convention : Reuss Voigt Hill
#
# Bulk Modulus (GPa) = 54.66729 63.25657 58.96193
# Shear Modulus (GPa) = 28.06619 31.77542 29.92081
#
# Velocity S-wave (km/s) = 3.59860 3.82902 3.71560
# Velocity P-wave (km/s) = 6.51847 6.98108 6.75374
#
# Compressibility (1/GPa) = 0.01829247
#
# Stress axis : x y z
#
# Youngs Moduli (GPa) = 48.24899 115.20678 83.32094
#
# Poissons Ratio (x) = 0.04487 0.70204
# Poissons Ratio (y) = 0.01879 0.22851
# Poissons Ratio (z) = 0.40653 0.31595
#
# Static dielectric constant tensor:
#      x y z
#    x 3.822520 0.000000 0.000000 
#    y 0.000000 3.963270 0.000000 
#    z 0.000000 0.000000 4.047850 
# 
# 
# High freq. dielectric constant tensor:
#      x y z
#    x 1.840290 0.000000 0.000000 
#    y 0.000000 1.868700 0.000000 
#    z 0.000000 0.000000 1.867720 
# 
# From -- ./inp_files/26603.got.cif
#   From: 2010.03.12/outbox.cif.g09.slc.cpg/sg40_14_cif.got.tgz:26603.got - 2010.04.14 01:38:03.
