data_PCOD8183146
_publ_section_title
;
Structure prediction by ZEFSAII (Michael W. Deem and Ramdas Pophale) SiO2 
 PCOD8183146
Probable space group: A M A 2
;
_chemical_formula_sum "Si O2"
_cell_formula_units_Z 56
_cell_length_a 8.756786
_cell_length_b 14.474714
_cell_length_c 22.027261
_cell_angle_alpha 90.000000
_cell_angle_beta 90.000000
_cell_angle_gamma 90.000000
_cell_volume 2791.998790
_symmetry_space_group_name_H-M "A M A 2"
_symmetry_group_IT_number 40
_symmetry_cell_setting 'orthorhombic'
loop_
_space_group_symop_operation_xyz
x,y,z
-x,-y,z
1/2-x,y,z
1/2+x,-y,z
x,1/2+y,1/2+z
-x,1/2-y,1/2+z
1/2-x,1/2+y,1/2+z
1/2+x,1/2-y,1/2+z
loop_
_atom_site_type_symbol
_atom_site_label
_atom_site_fract_x
_atom_site_fract_y
_atom_site_fract_z
Si Si1 0.568241 0.904294 0.712680
Si Si2 0.426967 0.092218 0.279268
Si Si3 0.931759 0.404294 0.641304
Si Si4 0.570598 0.708852 0.538166
Si Si5 0.930080 0.398785 0.426992
Si Si6 0.929402 0.208852 0.815819
Si Si7 0.426967 0.592219 0.074716
O O1 0.750000 0.902128 0.721009
O O2 0.490314 0.822790 0.750548
O O3 0.513969 0.890956 0.643312
O O4 0.500000 0.000000 0.738400
O O5 0.250000 0.072591 0.276120
O O6 0.486031 0.109044 0.210672
O O7 0.463837 0.181375 0.320546
O O8 0.500000 0.000000 0.308282
O O9 0.750000 0.402128 0.632975
O O10 0.000000 0.500000 0.615584
O O11 0.009686 0.322790 0.603437
O O12 0.750000 0.688599 0.532215
O O13 0.481013 0.656760 0.485906
O O14 0.536161 0.818625 0.533439
O O15 0.750000 0.408962 0.426992
O O16 0.000000 0.500000 0.426991
O O17 0.981013 0.343238 0.368080
O O18 0.750000 0.188598 0.821769
O O19 0.500000 0.500000 0.045702
O O20 0.250000 0.572592 0.077864
#
# Coordination Sequence:
#
# PCOD8183146 Si02
#       7
#     8   8   8   8   8   8   8
#     4  10  19  33  54  84 117 151 186 226 275 331
#     4   9  20  36  57  84 116 149 185 228 276 326
#     4  10  19  33  54  84 117 151 186 226 275 331
#     4  11  22  38  58  83 113 148 187 232 279 328
#     4  12  26  44  63  84 109 144 185 230 278 330
#     4  11  22  38  58  83 113 148 187 232 279 328
#     4   9  20  36  57  84 116 149 185 228 276 326
#
# _framework density 20.057314999999999
#
# number of rings (size 3 to 8) (size 9 to 14) (size 15 to 20)
#    0.000    1.714    0.000    4.714    0.000    3.429 
#    0.000    0.714    0.000    0.000    0.000    0.000 
#    0.000    0.000    0.000    0.000    0.000    0.000 
#
# Total GULP energy -347249.923507 kJ/mol
# GULP energy per Si atom -12401.782982 kJ/mol
# Density = 2.001166 g / cm^3
# Si number density = 20.057315 Si / 1000 Ang^3
#
#
#
# Elastic Constant Matrix: (Units=GPa)
#
#
# Indices 1 2 3 4 5 6 
#
# 1 109.1219 68.0294 36.9664 0.0000 0.0000 0.0000
# 2 68.0294 152.2723 53.2411 0.0000 0.0000 0.0000
# 3 36.9664 53.2411 67.8344 0.0000 0.0000 0.0000
# 4 0.0000 0.0000 0.0000 40.6655 0.0000 0.0000
# 5 0.0000 0.0000 0.0000 0.0000 30.1362 0.0000
# 6 0.0000 0.0000 0.0000 0.0000 0.0000 36.8724
#
#
#
# Elastic Compliance Matrix: (Units=1/GPa)
#
#
# Indices 1 2 3 4 5 6 
#
# 1 0.013298 -0.004696 -0.003561 0.000000 0.000000 0.000000
# 2 -0.004696 0.010709 -0.005846 0.000000 0.000000 0.000000
# 3 -0.003561 -0.005846 0.021271 0.000000 0.000000 0.000000
# 4 0.000000 0.000000 0.000000 0.024591 0.000000 0.000000
# 5 0.000000 0.000000 0.000000 0.000000 0.033183 0.000000
# 6 0.000000 0.000000 0.000000 0.000000 0.000000 0.027121
#
#
# Mechanical properties :
#
#
# Convention : Reuss Voigt Hill
#
# Bulk Modulus (GPa) = 58.57675 71.74472 65.16074
# Shear Modulus (GPa) = 30.47488 32.93426 31.70457
#
# Velocity S-wave (km/s) = 3.90216 4.05657 3.98011
# Velocity P-wave (km/s) = 7.04064 7.60187 7.32663
#
# Compressibility (1/GPa) = 0.01707162
#
# Stress axis : x y z
#
# Youngs Moduli (GPa) = 75.19949 93.37696 47.01238
#
# Poissons Ratio (x) = 0.43849 0.16741
# Poissons Ratio (y) = 0.35313 0.27485
# Poissons Ratio (z) = 0.26779 0.54591
#
# Static dielectric constant tensor:
#      x y z
#    x 3.662110 0.000000 0.000000 
#    y 0.000000 3.856460 0.000000 
#    z 0.000000 0.000000 3.483680 
# 
# 
# High freq. dielectric constant tensor:
#      x y z
#    x 1.789950 0.000000 0.000000 
#    y 0.000000 1.798580 0.000000 
#    z 0.000000 0.000000 1.759920 
# 
# From -- ./inp_files/22143.got.cif
#   From: 2010.03.12/outbox.cif.g09.slc.cpg/sg40_12_cif.got.tgz:22143.got - 2010.04.14 01:38:03.
