data_PCOD8183635
_publ_section_title
;
Structure prediction by ZEFSAII (Michael W. Deem and Ramdas Pophale) SiO2 
 PCOD8183635
Probable space group: A M A 2
;
_chemical_formula_sum "Si O2"
_cell_formula_units_Z 56
_cell_length_a 9.402409
_cell_length_b 23.808730
_cell_length_c 13.792958
_cell_angle_alpha 90.000000
_cell_angle_beta 90.000000
_cell_angle_gamma 90.000000
_cell_volume 3087.683540
_symmetry_space_group_name_H-M "A M A 2"
_symmetry_group_IT_number 40
_symmetry_cell_setting 'orthorhombic'
loop_
_space_group_symop_operation_xyz
x,y,z
-x,-y,z
1/2-x,y,z
1/2+x,-y,z
x,1/2+y,1/2+z
-x,1/2-y,1/2+z
1/2-x,1/2+y,1/2+z
1/2+x,1/2-y,1/2+z
loop_
_atom_site_type_symbol
_atom_site_label
_atom_site_fract_x
_atom_site_fract_y
_atom_site_fract_z
Si Si1 0.917252 0.876808 0.439880
Si Si2 0.582586 0.329355 0.434130
Si Si3 0.083766 0.054977 0.619430
Si Si4 0.417879 0.166455 0.150297
Si Si5 0.081258 0.732660 0.836517
Si Si6 0.085588 0.054514 0.839465
Si Si7 0.581770 0.943953 0.256485
O O1 0.750000 0.872060 0.428332
O O2 0.963970 0.894090 0.548503
O O3 0.975333 0.815107 0.411714
O O4 0.967446 0.924371 0.363871
O O5 0.750000 0.317508 0.423264
O O6 0.524679 0.318597 0.543178
O O7 0.499103 0.289916 0.360002
O O8 0.546732 0.393575 0.407776
O O9 0.250000 0.042334 0.606430
O O10 0.044867 0.071552 0.729191
O O11 0.000000 0.000000 0.586397
O O12 0.250000 0.164219 0.146696
O O13 0.464702 0.213664 0.227998
O O14 0.469067 0.104611 0.182311
O O15 0.250000 0.742374 0.843799
O O16 0.250000 0.038420 0.846476
O O17 0.000000 0.000000 0.874649
O O18 0.750000 0.954949 0.250575
O O19 0.500000 0.000000 0.226863
#
# Coordination Sequence:
#
# PCOD8183635 Si02
#       7
#     8   8   8   8   8   8   8
#     4   8  15  28  46  66  93 126 157 190 236 286
#     4  10  20  35  53  73  97 127 158 196 245 288
#     4   9  16  28  45  67  94 124 156 194 237 281
#     4   8  17  34  51  67  97 134 160 187 240 301
#     4   9  18  34  53  72  94 126 165 200 233 284
#     4   9  19  33  49  69  95 124 156 193 235 281
#     4   9  16  28  46  68  93 125 160 194 233 281
#
# _framework density 18.136575000000001
#
# number of rings (size 3 to 8) (size 9 to 14) (size 15 to 20)
#    0.000    3.143    0.000    2.143    0.000    2.286 
#    0.000    6.429    0.000    0.000    0.000    0.000 
#    0.000    0.000    0.000    0.000    0.000    0.000 
#
# Total GULP energy -347065.639656 kJ/mol
# GULP energy per Si atom -12395.201416 kJ/mol
# Density = 1.809529 g / cm^3
# Si number density = 18.136575 Si / 1000 Ang^3
#
#
#
# Elastic Constant Matrix: (Units=GPa)
#
#
# Indices 1 2 3 4 5 6 
#
# 1 38.7248 44.5398 31.5427 0.0000 0.0000 0.0000
# 2 44.5398 115.5590 60.4931 0.0000 0.0000 0.0000
# 3 31.5427 60.4931 110.5035 0.0000 0.0000 0.0000
# 4 0.0000 0.0000 0.0000 25.7087 0.0000 0.0000
# 5 0.0000 0.0000 0.0000 0.0000 16.2097 0.0000
# 6 0.0000 0.0000 0.0000 0.0000 0.0000 33.0532
#
#
#
# Elastic Compliance Matrix: (Units=1/GPa)
#
#
# Indices 1 2 3 4 5 6 
#
# 1 0.048311 -0.015981 -0.005041 0.000000 0.000000 0.000000
# 2 -0.015981 0.017416 -0.004972 0.000000 0.000000 0.000000
# 3 -0.005041 -0.004972 0.013211 0.000000 0.000000 0.000000
# 4 0.000000 0.000000 0.000000 0.038897 0.000000 0.000000
# 5 0.000000 0.000000 0.000000 0.000000 0.061691 0.000000
# 6 0.000000 0.000000 0.000000 0.000000 0.000000 0.030254
#
#
# Mechanical properties :
#
#
# Convention : Reuss Voigt Hill
#
# Bulk Modulus (GPa) = 37.10939 59.77093 48.44016
# Shear Modulus (GPa) = 18.46701 23.54178 21.00439
#
# Velocity S-wave (km/s) = 3.19442 3.60672 3.40681
# Velocity P-wave (km/s) = 5.84048 7.09734 6.49936
#
# Compressibility (1/GPa) = 0.02694736
#
# Stress axis : x y z
#
# Youngs Moduli (GPa) = 20.69932 57.41775 75.69698
#
# Poissons Ratio (x) = 0.91761 0.38162
# Poissons Ratio (y) = 0.33080 0.37640
# Poissons Ratio (z) = 0.10435 0.28550
#
# Static dielectric constant tensor:
#      x y z
#    x 2.972550 0.000000 0.000000 
#    y 0.000000 3.286520 0.000000 
#    z 0.000000 0.000000 3.712820 
# 
# 
# High freq. dielectric constant tensor:
#      x y z
#    x 1.666440 0.000000 0.000000 
#    y 0.000000 1.698730 0.000000 
#    z 0.000000 0.000000 1.707830 
# 
# From -- ./inp_files/15360.got.cif
#   From: 2010.03.12/outbox.cif.g09.slc.cpg/sg40_8_cif.got.tgz:15360.got - 2010.04.14 01:38:03.
