data_PCOD8183303
_publ_section_title
;
Structure prediction by ZEFSAII (Michael W. Deem and Ramdas Pophale) SiO2 
 PCOD8183303
Probable space group: A M A 2
;
_chemical_formula_sum "Si O2"
_cell_formula_units_Z 48
_cell_length_a 9.067008
_cell_length_b 20.362043
_cell_length_c 14.376806
_cell_angle_alpha 90.000000
_cell_angle_beta 90.000000
_cell_angle_gamma 90.000000
_cell_volume 2654.286276
_symmetry_space_group_name_H-M "A M A 2"
_symmetry_group_IT_number 40
_symmetry_cell_setting 'orthorhombic'
loop_
_space_group_symop_operation_xyz
x,y,z
-x,-y,z
1/2-x,y,z
1/2+x,-y,z
x,1/2+y,1/2+z
-x,1/2-y,1/2+z
1/2-x,1/2+y,1/2+z
1/2+x,1/2-y,1/2+z
loop_
_atom_site_type_symbol
_atom_site_label
_atom_site_fract_x
_atom_site_fract_y
_atom_site_fract_z
Si Si1 0.575171 0.932447 0.795150
Si Si2 0.575357 0.376583 0.491387
Si Si3 0.578365 0.684152 0.195409
Si Si4 0.575264 0.933140 0.184404
Si Si5 0.923426 0.811909 0.310187
Si Si6 0.421977 0.270930 0.989056
O O1 0.750000 0.939074 0.787836
O O2 0.523533 0.914985 0.899698
O O3 0.520981 0.876738 0.725193
O O4 0.500000 0.000000 0.764760
O O5 0.750000 0.371496 0.498728
O O6 0.515003 0.414674 0.581632
O O7 0.511193 0.302742 0.488973
O O8 0.750000 0.668940 0.213826
O O9 0.526753 0.747987 0.252501
O O10 0.546804 0.695529 0.087308
O O11 0.750000 0.942136 0.184190
O O12 0.525283 0.876216 0.254641
O O13 0.500000 0.000000 0.218011
O O14 0.750000 0.811996 0.324331
O O15 0.999129 0.813842 0.410472
O O16 0.250000 0.268804 0.965933
#
# Coordination Sequence:
#
# PCOD8183303 Si02
#       6
#     8   8   8   8   8   8
#     4  11  22  36  56  82 115 148 184 226 273 330
#     4   9  17  32  55  82 112 143 174 220 275 324
#     4  10  20  36  58  81 109 146 185 227 276 327
#     4  10  20  36  55  79 113 148 181 220 273 327
#     4  10  20  35  56  81 111 144 182 229 273 320
#     4  10  19  35  58  83 110 142 182 225 273 326
#
# _framework density 18.083957000000002
#
# number of rings (size 3 to 8) (size 9 to 14) (size 15 to 20)
#    0.000    2.000    3.333    1.000    0.000    1.333 
#    0.000    2.500    0.000    2.000    0.000    0.000 
#    0.000    0.000    0.000    0.000    0.000    0.000 
#
# Total GULP energy -297676.386821 kJ/mol
# GULP energy per Si atom -12403.182784 kJ/mol
# Density = 1.804280 g / cm^3
# Si number density = 18.083957 Si / 1000 Ang^3
#
#
#
# Elastic Constant Matrix: (Units=GPa)
#
#
# Indices 1 2 3 4 5 6 
#
# 1 41.5474 48.4457 38.6496 0.0000 0.0000 0.0000
# 2 48.4457 152.1289 61.0794 0.0000 0.0000 0.0000
# 3 38.6496 61.0794 111.8529 0.0000 0.0000 0.0000
# 4 0.0000 0.0000 0.0000 26.3676 0.0000 0.0000
# 5 0.0000 0.0000 0.0000 0.0000 30.0533 0.0000
# 6 0.0000 0.0000 0.0000 0.0000 0.0000 30.5543
#
#
#
# Elastic Compliance Matrix: (Units=1/GPa)
#
#
# Indices 1 2 3 4 5 6 
#
# 1 0.045664 -0.010511 -0.010039 0.000000 0.000000 0.000000
# 2 -0.010511 0.010839 -0.002287 0.000000 0.000000 0.000000
# 3 -0.010039 -0.002287 0.013658 0.000000 0.000000 0.000000
# 4 0.000000 0.000000 0.000000 0.037925 0.000000 0.000000
# 5 0.000000 0.000000 0.000000 0.000000 0.033274 0.000000
# 6 0.000000 0.000000 0.000000 0.000000 0.000000 0.032729
#
#
# Mechanical properties :
#
#
# Convention : Reuss Voigt Hill
#
# Bulk Modulus (GPa) = 40.83783 66.87542 53.85662
# Shear Modulus (GPa) = 21.93707 27.88535 24.91121
#
# Velocity S-wave (km/s) = 3.48669 3.93108 3.71554
# Velocity P-wave (km/s) = 6.23223 7.59377 6.94644
#
# Compressibility (1/GPa) = 0.02448710
#
# Stress axis : x y z
#
# Youngs Moduli (GPa) = 21.89906 92.26133 73.21794
#
# Poissons Ratio (x) = 0.96978 0.73503
# Poissons Ratio (y) = 0.23019 0.16743
# Poissons Ratio (z) = 0.21984 0.21097
#
# Static dielectric constant tensor:
#      x y z
#    x 3.069210 0.000000 0.000000 
#    y 0.000000 3.339010 0.000000 
#    z 0.000000 0.000000 3.368650 
# 
# 
# High freq. dielectric constant tensor:
#      x y z
#    x 1.679910 0.000000 0.000000 
#    y 0.000000 1.702970 0.000000 
#    z 0.000000 0.000000 1.703380 
# 
# From -- ./inp_files/11210.got.cif
#   From: 2010.03.12/outbox.cif.g09.slc.cpg/sg40_6_cif.got.tgz:11210.got - 2010.04.14 01:38:03.
