data_PCOD8183485
_publ_section_title
;
Structure prediction by ZEFSAII (Michael W. Deem and Ramdas Pophale) SiO2 
 PCOD8183485
Probable space group: A M A 2
;
_chemical_formula_sum "Si O2"
_cell_formula_units_Z 48
_cell_length_a 8.768761
_cell_length_b 23.499812
_cell_length_c 13.617207
_cell_angle_alpha 90.000000
_cell_angle_beta 90.000000
_cell_angle_gamma 90.000000
_cell_volume 2806.019343
_symmetry_space_group_name_H-M "A M A 2"
_symmetry_group_IT_number 40
_symmetry_cell_setting 'orthorhombic'
loop_
_space_group_symop_operation_xyz
x,y,z
-x,-y,z
1/2-x,y,z
1/2+x,-y,z
x,1/2+y,1/2+z
-x,1/2-y,1/2+z
1/2-x,1/2+y,1/2+z
1/2+x,1/2-y,1/2+z
loop_
_atom_site_type_symbol
_atom_site_label
_atom_site_fract_x
_atom_site_fract_y
_atom_site_fract_z
Si Si1 0.070863 0.559357 0.265560
Si Si2 0.075316 0.838741 0.866877
Si Si3 0.572986 0.731333 0.554903
Si Si4 0.573103 0.169994 0.440882
Si Si5 0.928101 0.058594 0.557979
Si Si6 0.427473 0.723285 0.758358
O O1 0.250000 0.552029 0.256690
O O2 0.000000 0.500000 0.302265
O O3 0.032301 0.608123 0.343993
O O4 0.004052 0.577196 0.160214
O O5 0.250000 0.857494 0.853268
O O6 0.035881 0.787062 0.793700
O O7 0.042079 0.819437 0.978148
O O8 0.750000 0.748415 0.553804
O O9 0.476834 0.786936 0.526579
O O10 0.522564 0.709412 0.661113
O O11 0.750000 0.180135 0.418087
O O12 0.540420 0.106239 0.476733
O O13 0.476948 0.179031 0.342182
O O14 0.750000 0.049939 0.577637
O O15 0.000000 0.000000 0.518385
O O16 0.250000 0.714812 0.736771
#
# Coordination Sequence:
#
# PCOD8183485 Si02
#       6
#     8   8   8   8   8   8
#     4  11  21  32  50  73  98 129 162 199 242 289
#     4   9  19  34  49  70 100 130 161 199 241 285
#     4  10  20  33  51  74 101 132 163 200 245 291
#     4  10  20  33  50  73 101 131 164 203 245 289
#     4  10  20  33  50  72  99 130 162 200 243 287
#     4  10  20  33  51  74 101 132 164 201 243 289
#
# _framework density 17.106083999999999
#
# number of rings (size 3 to 8) (size 9 to 14) (size 15 to 20)
#    0.000    2.000    0.000    6.500    0.000   10.667 
#    0.000    0.000    0.000    1.000    0.000    4.667 
#    0.000    0.000    0.000    0.000    0.000    0.000 
#
# Total GULP energy -297695.728224 kJ/mol
# GULP energy per Si atom -12403.988676 kJ/mol
# Density = 1.706715 g / cm^3
# Si number density = 17.106084 Si / 1000 Ang^3
#
#
#
# Elastic Constant Matrix: (Units=GPa)
#
#
# Indices 1 2 3 4 5 6 
#
# 1 91.1508 53.2570 35.2840 0.0000 0.0000 0.0000
# 2 53.2570 99.9924 47.6707 0.0000 0.0000 0.0000
# 3 35.2840 47.6707 97.8551 0.0000 0.0000 0.0000
# 4 0.0000 0.0000 0.0000 21.2854 0.0000 0.0000
# 5 0.0000 0.0000 0.0000 0.0000 31.2199 0.0000
# 6 0.0000 0.0000 0.0000 0.0000 0.0000 29.8907
#
#
#
# Elastic Compliance Matrix: (Units=1/GPa)
#
#
# Indices 1 2 3 4 5 6 
#
# 1 0.016265 -0.007642 -0.002142 0.000000 0.000000 0.000000
# 2 -0.007642 0.016616 -0.005339 0.000000 0.000000 0.000000
# 3 -0.002142 -0.005339 0.013593 0.000000 0.000000 0.000000
# 4 0.000000 0.000000 0.000000 0.046981 0.000000 0.000000
# 5 0.000000 0.000000 0.000000 0.000000 0.032031 0.000000
# 6 0.000000 0.000000 0.000000 0.000000 0.000000 0.033455
#
#
# Mechanical properties :
#
#
# Convention : Reuss Voigt Hill
#
# Bulk Modulus (GPa) = 61.62280 62.38021 62.00150
# Shear Modulus (GPa) = 25.69432 26.66498 26.17965
#
# Velocity S-wave (km/s) = 3.87984 3.95245 3.91631
# Velocity P-wave (km/s) = 7.49487 7.57463 7.53485
#
# Compressibility (1/GPa) = 0.01622776
#
# Stress axis : x y z
#
# Youngs Moduli (GPa) = 61.48251 60.18201 73.56927
#
# Poissons Ratio (x) = 0.45989 0.15759
# Poissons Ratio (y) = 0.46983 0.39281
# Poissons Ratio (z) = 0.13170 0.32133
#
# Static dielectric constant tensor:
#      x y z
#    x 3.300120 0.000000 0.000000 
#    y 0.000000 3.097200 0.000000 
#    z 0.000000 0.000000 3.096290 
# 
# 
# High freq. dielectric constant tensor:
#      x y z
#    x 1.677700 0.000000 0.000000 
#    y 0.000000 1.647840 0.000000 
#    z 0.000000 0.000000 1.649770 
# 
# From -- ./inp_files/10224.got.cif
#   From: 2010.03.12/outbox.cif.g09.slc.cpg/sg40_6_cif.got.tgz:10224.got - 2010.04.14 01:38:03.
