data_PCOD8183944
_publ_section_title
;
Structure prediction by ZEFSAII (Michael W. Deem and Ramdas Pophale) SiO2 
 PCOD8183944
Probable space group: A M A 2
;
_chemical_formula_sum "Si O2"
_cell_formula_units_Z 64
_cell_length_a 17.701183
_cell_length_b 15.341659
_cell_length_c 11.898969
_cell_angle_alpha 90.000000
_cell_angle_beta 90.000000
_cell_angle_gamma 90.000000
_cell_volume 3231.349626
_symmetry_space_group_name_H-M "A M A 2"
_symmetry_group_IT_number 40
_symmetry_cell_setting 'orthorhombic'
loop_
_space_group_symop_operation_xyz
x,y,z
-x,-y,z
1/2-x,y,z
1/2+x,-y,z
x,1/2+y,1/2+z
-x,1/2-y,1/2+z
1/2-x,1/2+y,1/2+z
1/2+x,1/2-y,1/2+z
loop_
_atom_site_type_symbol
_atom_site_label
_atom_site_fract_x
_atom_site_fract_y
_atom_site_fract_z
Si Si1 0.381499 0.118654 0.476240
Si Si2 0.662871 0.465252 0.744445
Si Si3 0.083583 0.475841 0.142421
Si Si4 0.831723 0.204733 0.035401
Si Si5 0.161323 0.348864 0.295673
Si Si6 0.051284 0.823340 0.475231
Si Si7 0.574302 0.140143 0.229724
Si Si8 0.587318 0.807139 0.160615
O O1 0.358356 0.060954 0.370698
O O2 0.322512 0.196423 0.491405
O O3 0.462538 0.163896 0.457785
O O4 0.378751 0.061052 0.588942
O O5 0.750000 0.494382 0.737010
O O6 0.608736 0.544659 0.709110
O O7 0.650259 0.383497 0.659287
O O8 0.133746 0.441149 0.245504
O O9 0.000000 0.500000 0.186302
O O10 0.082964 0.403512 0.045752
O O11 0.750000 0.173100 0.079051
O O12 0.890277 0.203933 0.137168
O O13 0.855850 0.145608 0.928673
O O14 0.250000 0.334163 0.270746
O O15 0.113013 0.270187 0.243095
O O16 0.092950 0.824203 0.354480
O O17 0.070907 0.731907 0.536889
O O18 0.484929 0.142845 0.211422
#
# Coordination Sequence:
#
# PCOD8183944 Si02
#       8
#     8   8   8   8   8   8   8   8
#     4  11  19  38  64  93 122 157 209 261 308 369
#     4  12  24  39  62  93 126 166 212 260 316 376
#     4   9  20  36  63  92 126 156 203 267 307 361
#     4  11  23  40  61  89 128 168 204 249 312 382
#     4  10  21  40  64  92 126 164 207 254 312 377
#     4  10  20  38  62  95 122 157 207 263 316 359
#     4  12  23  41  64  91 128 163 210 261 314 375
#     4  11  22  38  64  91 122 165 208 260 312 371
#
# _framework density 19.805966999999999
#
# number of rings (size 3 to 8) (size 9 to 14) (size 15 to 20)
#    0.000    1.250    5.000    1.500    0.000    1.000 
#    0.000    4.375    0.000    0.000    0.000    0.000 
#    0.000    0.000    0.000    0.000    0.000    0.000 
#
# Total GULP energy -396760.682348 kJ/mol
# GULP energy per Si atom -12398.771323 kJ/mol
# Density = 1.976089 g / cm^3
# Si number density = 19.805967 Si / 1000 Ang^3
#
#
#
# Elastic Constant Matrix: (Units=GPa)
#
#
# Indices 1 2 3 4 5 6 
#
# 1 92.3633 30.9413 47.5259 0.0000 0.0000 0.0000
# 2 30.9413 85.1414 37.8931 0.0000 0.0000 0.0000
# 3 47.5259 37.8931 99.5223 0.0000 0.0000 0.0000
# 4 0.0000 0.0000 0.0000 31.8150 0.0000 0.0000
# 5 0.0000 0.0000 0.0000 0.0000 26.7309 0.0000
# 6 0.0000 0.0000 0.0000 0.0000 0.0000 28.3906
#
#
#
# Elastic Compliance Matrix: (Units=1/GPa)
#
#
# Indices 1 2 3 4 5 6 
#
# 1 0.014851 -0.002698 -0.006065 0.000000 0.000000 0.000000
# 2 -0.002698 0.014632 -0.004283 0.000000 0.000000 0.000000
# 3 -0.006065 -0.004283 0.014575 0.000000 0.000000 0.000000
# 4 0.000000 0.000000 0.000000 0.031432 0.000000 0.000000
# 5 0.000000 0.000000 0.000000 0.000000 0.037410 0.000000
# 6 0.000000 0.000000 0.000000 0.000000 0.000000 0.035223
#
#
# Mechanical properties :
#
#
# Convention : Reuss Voigt Hill
#
# Bulk Modulus (GPa) = 55.65768 56.63861 56.14814
# Shear Modulus (GPa) = 27.74663 28.09842 27.92252
#
# Velocity S-wave (km/s) = 3.74695 3.77063 3.75881
# Velocity P-wave (km/s) = 6.84704 6.90041 6.87378
#
# Compressibility (1/GPa) = 0.01796697
#
# Stress axis : x y z
#
# Youngs Moduli (GPa) = 67.33425 68.34507 68.61142
#
# Poissons Ratio (x) = 0.18439 0.41612
# Poissons Ratio (y) = 0.18166 0.29384
# Poissons Ratio (z) = 0.40837 0.29270
#
# Static dielectric constant tensor:
#      x y z
#    x 3.577210 0.000000 0.000000 
#    y 0.000000 3.606560 0.000000 
#    z 0.000000 0.000000 3.613720 
# 
# 
# High freq. dielectric constant tensor:
#      x y z
#    x 1.771900 0.000000 0.000000 
#    y 0.000000 1.767820 0.000000 
#    z 0.000000 0.000000 1.763380 
# 
# From -- ./inp_files/13134.got.cif
#   From: 2010.03.12/outbox.cif.g09.slc.cpg/sg40_7_cif.got.tgz:13134.got - 2010.04.14 01:38:03.
