data_PCOD8183324
_publ_section_title
;
Structure prediction by ZEFSAII (Michael W. Deem and Ramdas Pophale) SiO2 
 PCOD8183324
Probable space group: A M A 2
;
_chemical_formula_sum "Si O2"
_cell_formula_units_Z 64
_cell_length_a 8.702437
_cell_length_b 23.811156
_cell_length_c 15.486470
_cell_angle_alpha 90.000000
_cell_angle_beta 90.000000
_cell_angle_gamma 90.000000
_cell_volume 3209.030197
_symmetry_space_group_name_H-M "A M A 2"
_symmetry_group_IT_number 40
_symmetry_cell_setting 'orthorhombic'
loop_
_space_group_symop_operation_xyz
x,y,z
-x,-y,z
1/2-x,y,z
1/2+x,-y,z
x,1/2+y,1/2+z
-x,1/2-y,1/2+z
1/2-x,1/2+y,1/2+z
1/2+x,1/2-y,1/2+z
loop_
_atom_site_type_symbol
_atom_site_label
_atom_site_fract_x
_atom_site_fract_y
_atom_site_fract_z
Si Si1 0.067908 0.060736 0.100880
Si Si2 0.430506 0.639375 0.758013
Si Si3 0.926442 0.754452 0.008779
Si Si4 0.068869 0.560351 0.084410
Si Si5 0.068501 0.626901 0.437120
Si Si6 0.567153 0.372725 0.247418
Si Si7 0.073816 0.866124 0.437190
Si Si8 0.929859 0.750803 0.690962
O O1 0.250000 0.056819 0.097264
O O2 0.014580 0.101189 0.178155
O O3 0.000330 0.086251 0.011293
O O4 0.000000 0.000000 0.117598
O O5 0.250000 0.635103 0.773040
O O6 0.514843 0.616348 0.842990
O O7 0.475687 0.703233 0.739941
O O8 0.750000 0.760441 0.041353
O O9 0.039151 0.750082 0.089356
O O10 0.977170 0.808575 0.954006
O O11 0.946441 0.700676 0.947748
O O12 0.250000 0.555054 0.088491
O O13 0.002768 0.584354 0.175318
O O14 0.000000 0.500000 0.065122
O O15 0.025667 0.602551 0.008541
O O16 0.250000 0.621036 0.438120
O O17 0.005272 0.609232 0.342383
O O18 0.750000 0.372860 0.244749
O O19 0.509726 0.310010 0.227243
O O20 0.250000 0.884678 0.447466
O O21 0.750000 0.741530 0.708720
#
# Coordination Sequence:
#
# PCOD8183324 Si02
#       8
#     8   8   8   8   8   8   8   8
#     4  10  22  39  60  82 111 152 196 242 292 343
#     4  11  23  40  60  87 121 160 198 243 299 359
#     4  10  19  35  60  87 121 157 191 232 295 363
#     4  11  23  41  61  86 118 158 203 253 302 355
#     4   9  17  35  59  84 115 154 192 229 286 356
#     4   9  19  35  59  87 119 156 193 237 294 353
#     4  11  23  39  63  92 119 156 197 246 304 361
#     4  11  20  34  59  91 122 155 196 241 293 352
#
# _framework density 19.943719000000002
#
# number of rings (size 3 to 8) (size 9 to 14) (size 15 to 20)
#    0.000    1.750    2.500    2.250    0.000    4.500 
#    0.000    1.250    0.000    3.750    0.000    0.000 
#    0.000    0.000    0.000    0.000    0.000    0.000 
#
# Total GULP energy -396863.920526 kJ/mol
# GULP energy per Si atom -12401.997516 kJ/mol
# Density = 1.989833 g / cm^3
# Si number density = 19.943719 Si / 1000 Ang^3
#
#
#
# Elastic Constant Matrix: (Units=GPa)
#
#
# Indices 1 2 3 4 5 6 
#
# 1 36.1866 24.1912 22.5913 0.0000 0.0000 0.0000
# 2 24.1912 87.3835 24.9307 0.0000 0.0000 0.0000
# 3 22.5913 24.9307 138.7272 0.0000 0.0000 0.0000
# 4 0.0000 0.0000 0.0000 9.4352 0.0000 0.0000
# 5 0.0000 0.0000 0.0000 0.0000 23.8043 0.0000
# 6 0.0000 0.0000 0.0000 0.0000 0.0000 24.9915
#
#
#
# Elastic Compliance Matrix: (Units=1/GPa)
#
#
# Indices 1 2 3 4 5 6 
#
# 1 0.036207 -0.008792 -0.004316 0.000000 0.000000 0.000000
# 2 -0.008792 0.014197 -0.001120 0.000000 0.000000 0.000000
# 3 -0.004316 -0.001120 0.008112 0.000000 0.000000 0.000000
# 4 0.000000 0.000000 0.000000 0.105986 0.000000 0.000000
# 5 0.000000 0.000000 0.000000 0.000000 0.042009 0.000000
# 6 0.000000 0.000000 0.000000 0.000000 0.000000 0.040014
#
#
# Mechanical properties :
#
#
# Convention : Reuss Voigt Hill
#
# Bulk Modulus (GPa) = 33.26593 45.08040 39.17316
# Shear Modulus (GPa) = 17.54380 24.35181 20.94780
#
# Velocity S-wave (km/s) = 2.96913 3.49811 3.24442
# Velocity P-wave (km/s) = 5.33577 6.24248 5.80685
#
# Compressibility (1/GPa) = 0.03006079
#
# Stress axis : x y z
#
# Youngs Moduli (GPa) = 27.61925 70.43632 123.26703
#
# Poissons Ratio (x) = 0.61928 0.53203
# Poissons Ratio (y) = 0.24283 0.13801
# Poissons Ratio (z) = 0.11921 0.07886
#
# Static dielectric constant tensor:
#      x y z
#    x 3.370060 0.000000 0.000000 
#    y 0.000000 3.666580 0.000000 
#    z 0.000000 0.000000 3.942590 
# 
# 
# High freq. dielectric constant tensor:
#      x y z
#    x 1.752680 0.000000 0.000000 
#    y 0.000000 1.776760 0.000000 
#    z 0.000000 0.000000 1.793960 
# 
# From -- ./inp_files/15554.got.cif
#   From: 2010.03.12/outbox.cif.g09.slc.cpg/sg40_8_cif.got.tgz:15554.got - 2010.04.14 01:38:03.
