data_PCOD8183134
_publ_section_title
;
Structure prediction by ZEFSAII (Michael W. Deem and Ramdas Pophale) SiO2 
 PCOD8183134
Probable space group: A M A 2
;
_chemical_formula_sum "Si O2"
_cell_formula_units_Z 48
_cell_length_a 8.763469
_cell_length_b 9.127407
_cell_length_c 31.465462
_cell_angle_alpha 90.000000
_cell_angle_beta 90.000000
_cell_angle_gamma 90.000000
_cell_volume 2516.851454
_symmetry_space_group_name_H-M "A M A 2"
_symmetry_group_IT_number 40
_symmetry_cell_setting 'orthorhombic'
loop_
_space_group_symop_operation_xyz
x,y,z
-x,-y,z
1/2-x,y,z
1/2+x,-y,z
x,1/2+y,1/2+z
-x,1/2-y,1/2+z
1/2-x,1/2+y,1/2+z
1/2+x,1/2-y,1/2+z
loop_
_atom_site_type_symbol
_atom_site_label
_atom_site_fract_x
_atom_site_fract_y
_atom_site_fract_z
Si Si1 0.426367 0.154843 0.348250
Si Si2 0.569436 0.661223 0.689454
Si Si3 0.926980 0.843688 0.014423
Si Si4 0.430444 0.161123 0.105014
Si Si5 0.072424 0.842797 0.764712
Si Si6 0.570241 0.339127 0.422043
O O1 0.250000 0.132094 0.358402
O O2 0.453805 0.257319 0.308154
O O3 0.503697 0.224786 0.389199
O O4 0.500000 0.000000 0.337537
O O5 0.500000 0.500000 0.695267
O O6 0.750000 0.648783 0.689183
O O7 0.511072 0.738021 0.645435
O O8 0.516856 0.762438 0.727557
O O9 0.750000 0.874648 0.015517
O O10 0.969532 0.759958 0.059081
O O11 0.970014 0.770108 0.969098
O O12 0.000000 0.000000 0.014860
O O13 0.250000 0.154868 0.113405
O O14 0.500000 0.000000 0.102918
O O15 0.250000 0.854861 0.752834
O O16 0.000000 0.000000 0.771659
O O17 0.500000 0.500000 0.415577
O O18 0.750000 0.353897 0.415034
#
# Coordination Sequence:
#
# PCOD8183134 Si02
#       6
#     8   8   8   8   8   8
#     4  11  24  40  59  82 108 140 178 220 268 321
#     4  11  21  34  54  81 112 145 182 223 269 317
#     4   8  15  26  44  72 105 141 178 219 263 309
#     4   9  15  26  45  72 106 141 179 221 265 311
#     4  11  24  41  60  82 108 139 176 218 267 322
#     4  10  19  33  54  81 113 146 182 223 268 316
#
# _framework density 19.071449000000001
#
# number of rings (size 3 to 8) (size 9 to 14) (size 15 to 20)
#    0.000    2.000    0.000    5.500    0.000    6.667 
#    0.000    0.000    0.000    1.000    0.000    4.667 
#    0.000    0.000    0.000    0.000    0.000    0.000 
#
# Total GULP energy -297341.473120 kJ/mol
# GULP energy per Si atom -12389.228047 kJ/mol
# Density = 1.902804 g / cm^3
# Si number density = 19.071449 Si / 1000 Ang^3
#
#
#
# Elastic Constant Matrix: (Units=GPa)
#
#
# Indices 1 2 3 4 5 6 
#
# 1 128.9913 47.1167 77.2227 0.0000 0.0000 0.0000
# 2 47.1167 73.9659 38.3442 0.0000 0.0000 0.0000
# 3 77.2227 38.3442 146.4087 0.0000 0.0000 0.0000
# 4 0.0000 0.0000 0.0000 29.8486 0.0000 0.0000
# 5 0.0000 0.0000 0.0000 0.0000 27.2755 0.0000
# 6 0.0000 0.0000 0.0000 0.0000 0.0000 25.2457
#
#
#
# Elastic Compliance Matrix: (Units=1/GPa)
#
#
# Indices 1 2 3 4 5 6 
#
# 1 0.012996 -0.005467 -0.005423 0.000000 0.000000 0.000000
# 2 -0.005467 0.017944 -0.001816 0.000000 0.000000 0.000000
# 3 -0.005423 -0.001816 0.010166 0.000000 0.000000 0.000000
# 4 0.000000 0.000000 0.000000 0.033502 0.000000 0.000000
# 5 0.000000 0.000000 0.000000 0.000000 0.036663 0.000000
# 6 0.000000 0.000000 0.000000 0.000000 0.000000 0.039611
#
#
# Mechanical properties :
#
#
# Convention : Reuss Voigt Hill
#
# Bulk Modulus (GPa) = 63.71860 74.97034 69.34447
# Shear Modulus (GPa) = 27.54448 28.91944 28.23196
#
# Velocity S-wave (km/s) = 3.80449 3.89829 3.85167
# Velocity P-wave (km/s) = 7.26511 7.72385 7.49799
#
# Compressibility (1/GPa) = 0.01569401
#
# Stress axis : x y z
#
# Youngs Moduli (GPa) = 76.94716 55.72981 98.36759
#
# Poissons Ratio (x) = 0.30469 0.53343
# Poissons Ratio (y) = 0.42069 0.17861
# Poissons Ratio (z) = 0.41727 0.10119
#
# Static dielectric constant tensor:
#      x y z
#    x 3.675400 0.000000 0.000000 
#    y 0.000000 3.048180 0.000000 
#    z 0.000000 0.000000 4.570420 
# 
# 
# High freq. dielectric constant tensor:
#      x y z
#    x 1.759240 0.000000 0.000000 
#    y 0.000000 1.688190 0.000000 
#    z 0.000000 0.000000 1.778590 
# 
# From -- ./inp_files/26137.got.cif
#   From: 2010.03.12/outbox.cif.g09.slc.cpg/sg40_14_cif.got.tgz:26137.got - 2010.04.14 01:38:03.
