data_PCOD8183419
_publ_section_title
;
Structure prediction by ZEFSAII (Michael W. Deem and Ramdas Pophale) SiO2 
 PCOD8183419
Probable space group: A M A 2
;
_chemical_formula_sum "Si O2"
_cell_formula_units_Z 48
_cell_length_a 10.078021
_cell_length_b 8.716190
_cell_length_c 27.988934
_cell_angle_alpha 90.000000
_cell_angle_beta 90.000000
_cell_angle_gamma 90.000000
_cell_volume 2458.602425
_symmetry_space_group_name_H-M "A M A 2"
_symmetry_group_IT_number 40
_symmetry_cell_setting 'orthorhombic'
loop_
_space_group_symop_operation_xyz
x,y,z
-x,-y,z
1/2-x,y,z
1/2+x,-y,z
x,1/2+y,1/2+z
-x,1/2-y,1/2+z
1/2-x,1/2+y,1/2+z
1/2+x,1/2-y,1/2+z
loop_
_atom_site_type_symbol
_atom_site_label
_atom_site_fract_x
_atom_site_fract_y
_atom_site_fract_z
Si Si1 0.250000 0.825226 0.480050
Si Si2 0.097111 0.143088 0.714997
Si Si3 0.488172 0.318326 0.807622
Si Si4 0.096845 0.860634 0.126216
Si Si5 0.250000 0.187762 0.465369
Si Si6 0.490156 0.819846 0.022031
Si Si7 0.250000 0.685723 0.857629
Si Si8 0.750000 0.677601 0.871583
O O1 0.374510 0.766738 0.510071
O O2 0.250000 0.760982 0.425891
O O3 0.250000 0.007091 0.474544
O O4 0.250000 0.092458 0.723438
O O5 0.048779 0.257567 0.755853
O O6 0.083007 0.228514 0.664952
O O7 0.000000 0.000000 0.714479
O O8 0.500000 0.500000 0.803591
O O9 0.626033 0.251998 0.827317
O O10 0.380282 0.259137 0.845606
O O11 0.250000 0.919084 0.122665
O O12 0.050457 0.785890 0.076486
O O13 0.000000 0.000000 0.140299
O O14 0.381163 0.255216 0.487302
O O15 0.250000 0.248875 0.411167
O O16 0.500000 0.000000 0.013337
O O17 0.250000 0.504192 0.865185
#
# Coordination Sequence:
#
# PCOD8183419 Si02
#       8
#     4   8   8   8   4   8   4   4
#     4  11  23  37  66  93 124 171 212 259 312 361
#     4  11  25  43  61  91 128 159 196 254 314 368
#     4  10  19  38  64  89 116 162 209 255 298 357
#     4  10  23  44  68  91 119 160 208 251 299 370
#     4  11  21  41  62  93 128 163 216 263 304 373
#     4  11  23  41  62  93 128 166 206 259 315 369
#     4   9  20  33  62  91 120 157 212 255 298 355
#     4   9  18  37  58  89 122 159 212 259 292 353
#
# _framework density 19.523287
#
# number of rings (size 3 to 8) (size 9 to 14) (size 15 to 20)
#    0.000    1.667    1.667    2.500    4.667    4.667 
#    0.000    5.000    0.000    0.000    0.000    0.000 
#    0.000    0.000    0.000    0.000    0.000    0.000 
#
# Total GULP energy -297594.840228 kJ/mol
# GULP energy per Si atom -12399.785009 kJ/mol
# Density = 1.947885 g / cm^3
# Si number density = 19.523287 Si / 1000 Ang^3
#
#
#
# Elastic Constant Matrix: (Units=GPa)
#
#
# Indices 1 2 3 4 5 6 
#
# 1 195.4982 47.6313 79.7543 0.0000 0.0000 0.0000
# 2 47.6313 60.4587 49.2789 0.0000 0.0000 0.0000
# 3 79.7543 49.2789 133.7205 0.0000 0.0000 0.0000
# 4 0.0000 0.0000 0.0000 28.0942 0.0000 0.0000
# 5 0.0000 0.0000 0.0000 0.0000 40.6987 0.0000
# 6 0.0000 0.0000 0.0000 0.0000 0.0000 18.0897
#
#
#
# Elastic Compliance Matrix: (Units=1/GPa)
#
#
# Indices 1 2 3 4 5 6 
#
# 1 0.007140 -0.003079 -0.003124 0.000000 0.000000 0.000000
# 2 -0.003079 0.024969 -0.007365 0.000000 0.000000 0.000000
# 3 -0.003124 -0.007365 0.012056 0.000000 0.000000 0.000000
# 4 0.000000 0.000000 0.000000 0.035595 0.000000 0.000000
# 5 0.000000 0.000000 0.000000 0.000000 0.024571 0.000000
# 6 0.000000 0.000000 0.000000 0.000000 0.000000 0.055280
#
#
# Mechanical properties :
#
#
# Convention : Reuss Voigt Hill
#
# Bulk Modulus (GPa) = 58.72431 82.55628 70.64029
# Shear Modulus (GPa) = 25.98459 31.57738 28.78099
#
# Velocity S-wave (km/s) = 3.65218 4.02608 3.84368
# Velocity P-wave (km/s) = 6.92308 7.99939 7.48062
#
# Compressibility (1/GPa) = 0.01702872
#
# Stress axis : x y z
#
# Youngs Moduli (GPa) = 140.06509 40.04933 82.94889
#
# Poissons Ratio (x) = 0.12330 0.25910
# Poissons Ratio (y) = 0.43123 0.61096
# Poissons Ratio (z) = 0.43751 0.29498
#
# Static dielectric constant tensor:
#      x y z
#    x 3.851200 0.000000 0.000000 
#    y 0.000000 3.373090 0.000000 
#    z 0.000000 0.000000 3.791310 
# 
# 
# High freq. dielectric constant tensor:
#      x y z
#    x 1.784160 0.000000 0.000000 
#    y 0.000000 1.738370 0.000000 
#    z 0.000000 0.000000 1.778490 
# 
# From -- ./inp_files/26208.got.cif
#   From: 2010.03.12/outbox.cif.g09.slc.cpg/sg40_14_cif.got.tgz:26208.got - 2010.04.14 01:38:03.
