data_PCOD8183835
_publ_section_title
;
Structure prediction by ZEFSAII (Michael W. Deem and Ramdas Pophale) SiO2 
 PCOD8183835
Probable space group: A M A 2
;
_chemical_formula_sum "Si O2"
_cell_formula_units_Z 64
_cell_length_a 17.790675
_cell_length_b 14.204628
_cell_length_c 12.629286
_cell_angle_alpha 90.000000
_cell_angle_beta 90.000000
_cell_angle_gamma 90.000000
_cell_volume 3191.545858
_symmetry_space_group_name_H-M "A M A 2"
_symmetry_group_IT_number 40
_symmetry_cell_setting 'orthorhombic'
loop_
_space_group_symop_operation_xyz
x,y,z
-x,-y,z
1/2-x,y,z
1/2+x,-y,z
x,1/2+y,1/2+z
-x,1/2-y,1/2+z
1/2-x,1/2+y,1/2+z
1/2+x,1/2-y,1/2+z
loop_
_atom_site_type_symbol
_atom_site_label
_atom_site_fract_x
_atom_site_fract_y
_atom_site_fract_z
Si Si1 0.936211 0.718407 0.271240
Si Si2 0.937953 0.700451 0.905893
Si Si3 0.164229 0.952674 0.794400
Si Si4 0.332555 0.541517 0.068873
Si Si5 0.836436 0.379932 0.447138
Si Si6 0.336270 0.117976 0.187540
Si Si7 0.485824 0.608723 0.097867
Si Si8 0.334651 0.952722 0.340481
O O1 0.884805 0.638118 0.324255
O O2 0.884671 0.788618 0.204021
O O3 0.000865 0.672772 0.199452
O O4 0.980496 0.773493 0.361600
O O5 0.888903 0.790387 0.934006
O O6 0.890152 0.635775 0.824668
O O7 0.955526 0.638697 0.008706
O O8 0.250000 0.929758 0.823373
O O9 0.154180 0.973495 0.669774
O O10 0.136130 0.040226 0.865453
O O11 0.250000 0.590149 0.078795
O O12 0.397713 0.620784 0.065725
O O13 0.335671 0.480304 0.963317
O O14 0.750000 0.351028 0.423981
O O15 0.844954 0.417815 0.567041
O O16 0.250000 0.143439 0.213912
O O17 0.365062 0.036521 0.266261
O O18 0.500000 0.500000 0.125530
O O19 0.250000 0.924747 0.305981
#
# Coordination Sequence:
#
# PCOD8183835 Si02
#       8
#     8   8   8   8   8   8   8   8
#     4  12  24  38  62  93 126 161 205 261 312 369
#     4  12  24  38  62  93 126 161 205 261 312 369
#     4  10  21  40  65  92 123 164 208 260 316 371
#     4  10  20  36  64  90 116 158 206 254 309 367
#     4  10  22  42  65  91 124 165 215 259 309 382
#     4  10  22  42  65  91 124 165 215 259 309 382
#     4  12  22  40  60  89 124 155 202 254 312 368
#     4  10  21  40  65  92 123 164 208 260 316 371
#
# _framework density 20.052979000000001
#
# number of rings (size 3 to 8) (size 9 to 14) (size 15 to 20)
#    0.000    1.250    3.750    2.250    0.000    0.000 
#    2.250    2.500    0.000    0.000    0.000    0.000 
#    0.000    0.000    0.000    0.000    0.000    0.000 
#
# Total GULP energy -396839.299296 kJ/mol
# GULP energy per Si atom -12401.228103 kJ/mol
# Density = 2.000734 g / cm^3
# Si number density = 20.052979 Si / 1000 Ang^3
#
#
#
# Elastic Constant Matrix: (Units=GPa)
#
#
# Indices 1 2 3 4 5 6 
#
# 1 111.2427 53.3595 20.0235 0.0000 0.0000 0.0000
# 2 53.3595 100.7129 38.4521 0.0000 0.0000 0.0000
# 3 20.0235 38.4521 78.7513 0.0000 0.0000 0.0000
# 4 0.0000 0.0000 0.0000 21.4888 0.0000 0.0000
# 5 0.0000 0.0000 0.0000 0.0000 27.1685 0.0000
# 6 0.0000 0.0000 0.0000 0.0000 0.0000 47.4965
#
#
#
# Elastic Compliance Matrix: (Units=1/GPa)
#
#
# Indices 1 2 3 4 5 6 
#
# 1 0.012053 -0.006411 0.000066 0.000000 0.000000 0.000000
# 2 -0.006411 0.015614 -0.005994 0.000000 0.000000 0.000000
# 3 0.000066 -0.005994 0.015608 0.000000 0.000000 0.000000
# 4 0.000000 0.000000 0.000000 0.046536 0.000000 0.000000
# 5 0.000000 0.000000 0.000000 0.000000 0.036807 0.000000
# 6 0.000000 0.000000 0.000000 0.000000 0.000000 0.021054
#
#
# Mechanical properties :
#
#
# Convention : Reuss Voigt Hill
#
# Bulk Modulus (GPa) = 53.77244 57.15303 55.46274
# Shear Modulus (GPa) = 28.00342 31.15552 29.57947
#
# Velocity S-wave (km/s) = 3.74099 3.94593 3.84483
# Velocity P-wave (km/s) = 6.74785 7.02306 6.88683
#
# Compressibility (1/GPa) = 0.01859689
#
# Stress axis : x y z
#
# Youngs Moduli (GPa) = 82.96988 64.04406 64.06882
#
# Poissons Ratio (x) = 0.41057 -0.00421
# Poissons Ratio (y) = 0.53190 0.38403
# Poissons Ratio (z) = -0.00545 0.38388
#
# Static dielectric constant tensor:
#      x y z
#    x 4.071260 0.000000 0.000000 
#    y 0.000000 3.449460 0.000000 
#    z 0.000000 0.000000 3.588400 
# 
# 
# High freq. dielectric constant tensor:
#      x y z
#    x 1.801890 0.000000 0.000000 
#    y 0.000000 1.764570 0.000000 
#    z 0.000000 0.000000 1.777450 
# 
# From -- ./inp_files/17854.got.cif
#   From: 2010.03.12/outbox.cif.g09.slc.cpg/sg40_9_cif.got.tgz:17854.got - 2010.04.14 01:38:03.
