data_PCOD8183673
_publ_section_title
;
Structure prediction by ZEFSAII (Michael W. Deem and Ramdas Pophale) SiO2 
 PCOD8183673
Probable space group: A M A 2
;
_chemical_formula_sum "Si O2"
_cell_formula_units_Z 48
_cell_length_a 8.967690
_cell_length_b 23.228810
_cell_length_c 11.638130
_cell_angle_alpha 90.000000
_cell_angle_beta 90.000000
_cell_angle_gamma 90.000000
_cell_volume 2424.324512
_symmetry_space_group_name_H-M "A M A 2"
_symmetry_group_IT_number 40
_symmetry_cell_setting 'orthorhombic'
loop_
_space_group_symop_operation_xyz
x,y,z
-x,-y,z
1/2-x,y,z
1/2+x,-y,z
x,1/2+y,1/2+z
-x,1/2-y,1/2+z
1/2-x,1/2+y,1/2+z
1/2+x,1/2-y,1/2+z
loop_
_atom_site_type_symbol
_atom_site_label
_atom_site_fract_x
_atom_site_fract_y
_atom_site_fract_z
Si Si1 0.073699 0.937234 0.211940
Si Si2 0.572769 0.144112 0.762910
Si Si3 0.573614 0.149890 0.021177
Si Si4 0.914091 0.865105 0.401617
Si Si5 0.426630 0.724587 0.079864
Si Si6 0.414337 0.055148 0.619483
O O1 0.250000 0.946221 0.216990
O O2 0.020561 0.905733 0.094532
O O3 0.029772 0.893843 0.314490
O O4 0.000000 0.000000 0.222835
O O5 0.750000 0.145489 0.756564
O O6 0.510229 0.196224 0.687006
O O7 0.512451 0.083142 0.719565
O O8 0.510605 0.148354 0.892423
O O9 0.750000 0.150141 0.016603
O O10 0.519959 0.209219 0.080113
O O11 0.750000 0.859373 0.342852
O O12 0.969274 0.803792 0.454896
O O13 0.898137 0.903585 0.513089
O O14 0.250000 0.717438 0.099015
O O15 0.250000 0.039704 0.667455
O O16 0.500000 0.000000 0.573387
#
# Coordination Sequence:
#
# PCOD8183673 Si02
#       6
#     8   8   8   8   8   8
#     4  11  23  39  58  82 116 156 196 237 284 340
#     4  10  20  36  57  83 112 145 188 232 282 343
#     4   9  21  39  58  81 114 153 187 235 291 341
#     4   9  19  35  58  85 113 146 184 233 286 337
#     4   9  19  38  60  83 115 148 185 236 295 344
#     4  10  20  35  56  82 113 148 185 233 285 333
#
# _framework density 19.799330000000001
#
# number of rings (size 3 to 8) (size 9 to 14) (size 15 to 20)
#    0.000    2.333    0.000    3.000    2.333    5.333 
#    0.000    7.500    0.000    0.000    0.000    0.000 
#    0.000    0.000    0.000    0.000    0.000    0.000 
#
# Total GULP energy -297479.585595 kJ/mol
# GULP energy per Si atom -12394.982733 kJ/mol
# Density = 1.975427 g / cm^3
# Si number density = 19.799330 Si / 1000 Ang^3
#
#
#
# Elastic Constant Matrix: (Units=GPa)
#
#
# Indices 1 2 3 4 5 6 
#
# 1 79.8437 28.5467 38.5379 0.0000 0.0000 0.0000
# 2 28.5467 81.6831 21.9509 0.0000 0.0000 0.0000
# 3 38.5379 21.9509 102.8884 0.0000 0.0000 0.0000
# 4 0.0000 0.0000 0.0000 14.9220 0.0000 0.0000
# 5 0.0000 0.0000 0.0000 0.0000 15.8406 0.0000
# 6 0.0000 0.0000 0.0000 0.0000 0.0000 23.7119
#
#
#
# Elastic Compliance Matrix: (Units=1/GPa)
#
#
# Indices 1 2 3 4 5 6 
#
# 1 0.016654 -0.004396 -0.005300 0.000000 0.000000 0.000000
# 2 -0.004396 0.014147 -0.001372 0.000000 0.000000 0.000000
# 3 -0.005300 -0.001372 0.011997 0.000000 0.000000 0.000000
# 4 0.000000 0.000000 0.000000 0.067015 0.000000 0.000000
# 5 0.000000 0.000000 0.000000 0.000000 0.063129 0.000000
# 6 0.000000 0.000000 0.000000 0.000000 0.000000 0.042173
#
#
# Mechanical properties :
#
#
# Convention : Reuss Voigt Hill
#
# Bulk Modulus (GPa) = 48.39559 49.16512 48.78036
# Shear Modulus (GPa) = 20.48009 22.58688 21.53349
#
# Velocity S-wave (km/s) = 3.21967 3.38122 3.30144
# Velocity P-wave (km/s) = 6.19014 6.33476 6.26287
#
# Compressibility (1/GPa) = 0.02066304
#
# Stress axis : x y z
#
# Youngs Moduli (GPa) = 60.04406 70.68440 83.35306
#
# Poissons Ratio (x) = 0.31073 0.44179
# Poissons Ratio (y) = 0.26396 0.11434
# Poissons Ratio (z) = 0.31825 0.09696
#
# Static dielectric constant tensor:
#      x y z
#    x 3.574890 0.000000 0.000000 
#    y 0.000000 3.910770 0.000000 
#    z 0.000000 0.000000 3.746420 
# 
# 
# High freq. dielectric constant tensor:
#      x y z
#    x 1.760310 0.000000 0.000000 
#    y 0.000000 1.781720 0.000000 
#    z 0.000000 0.000000 1.766010 
# 
# From -- ./inp_files/10260.got.cif
#   From: 2010.03.12/outbox.cif.g09.slc.cpg/sg40_6_cif.got.tgz:10260.got - 2010.04.14 01:38:03.
