data_PCOD8183630
_publ_section_title
;
Structure prediction by ZEFSAII (Michael W. Deem and Ramdas Pophale) SiO2 
 PCOD8183630
Probable space group: A M A 2
;
_chemical_formula_sum "Si O2"
_cell_formula_units_Z 36
_cell_length_a 14.476025
_cell_length_b 17.259653
_cell_length_c 7.256820
_cell_angle_alpha 90.000000
_cell_angle_beta 90.000000
_cell_angle_gamma 90.000000
_cell_volume 1813.124955
_symmetry_space_group_name_H-M "A M A 2"
_symmetry_group_IT_number 40
_symmetry_cell_setting 'orthorhombic'
loop_
_space_group_symop_operation_xyz
x,y,z
-x,-y,z
1/2-x,y,z
1/2+x,-y,z
x,1/2+y,1/2+z
-x,1/2-y,1/2+z
1/2-x,1/2+y,1/2+z
1/2+x,1/2-y,1/2+z
loop_
_atom_site_type_symbol
_atom_site_label
_atom_site_fract_x
_atom_site_fract_y
_atom_site_fract_z
Si Si1 0.750000 0.169446 0.691251
Si Si2 0.750000 0.639528 0.769866
Si Si3 0.059018 0.351624 0.348896
Si Si4 0.444473 0.681461 0.995059
Si Si5 0.750000 0.785748 0.489203
Si Si6 0.048578 0.921564 0.215230
O O1 0.750000 0.177710 0.471825
O O2 0.841401 0.125799 0.763939
O O3 0.750000 0.255855 0.776827
O O4 0.750000 0.709854 0.623855
O O5 0.840788 0.584966 0.748716
O O6 0.059547 0.273686 0.470111
O O7 0.029184 0.416603 0.495910
O O8 0.987836 0.346616 0.184219
O O9 0.497458 0.647405 0.821297
O O10 0.337187 0.657295 0.014115
O O11 0.000000 0.000000 0.288135
#
# Coordination Sequence:
#
# PCOD8183630 Si02
#       6
#     4   4   8   8   4   8
#     4  10  20  34  65  92 117 162 217 258 316 384
#     4  12  20  43  64  90 132 179 209 260 339 388
#     4  11  20  39  64  94 122 165 221 267 315 384
#     4  11  21  38  66  96 124 166 221 269 316 383
#     4  10  22  37  65 100 127 161 224 278 313 388
#     4  12  26  41  66  95 135 175 214 268 328 392
#
# _framework density 19.855222999999999
#
# number of rings (size 3 to 8) (size 9 to 14) (size 15 to 20)
#    0.000    0.889    8.889    0.000    0.000    1.778 
#    0.000    1.111    0.000    0.000    0.000    0.000 
#    0.000    0.000    0.000    0.000    0.000    0.000 
#
# Total GULP energy -223083.130311 kJ/mol
# GULP energy per Si atom -12393.507240 kJ/mol
# Density = 1.981003 g / cm^3
# Si number density = 19.855223 Si / 1000 Ang^3
#
#
#
# Elastic Constant Matrix: (Units=GPa)
#
#
# Indices 1 2 3 4 5 6 
#
# 1 189.0396 30.9706 58.5974 0.0000 0.0000 0.0000
# 2 30.9706 40.6147 16.2107 0.0000 0.0000 0.0000
# 3 58.5974 16.2107 144.5596 0.0000 0.0000 0.0000
# 4 0.0000 0.0000 0.0000 17.2823 0.0000 0.0000
# 5 0.0000 0.0000 0.0000 0.0000 32.2214 0.0000
# 6 0.0000 0.0000 0.0000 0.0000 0.0000 22.5197
#
#
#
# Elastic Compliance Matrix: (Units=1/GPa)
#
#
# Indices 1 2 3 4 5 6 
#
# 1 0.006669 -0.004194 -0.002233 0.000000 0.000000 0.000000
# 2 -0.004194 0.028413 -0.001486 0.000000 0.000000 0.000000
# 3 -0.002233 -0.001486 0.007989 0.000000 0.000000 0.000000
# 4 0.000000 0.000000 0.000000 0.057863 0.000000 0.000000
# 5 0.000000 0.000000 0.000000 0.000000 0.031035 0.000000
# 6 0.000000 0.000000 0.000000 0.000000 0.000000 0.044405
#
#
# Mechanical properties :
#
#
# Convention : Reuss Voigt Hill
#
# Bulk Modulus (GPa) = 36.70408 65.08571 50.89490
# Shear Modulus (GPa) = 24.84057 32.30036 28.57047
#
# Velocity S-wave (km/s) = 3.54091 4.03773 3.79745
# Velocity P-wave (km/s) = 5.93661 7.38844 6.70195
#
# Compressibility (1/GPa) = 0.02724493
#
# Stress axis : x y z
#
# Youngs Moduli (GPa) = 149.94203 35.19501 125.16629
#
# Poissons Ratio (x) = 0.14762 0.27950
# Poissons Ratio (y) = 0.62891 0.18600
# Poissons Ratio (z) = 0.33483 0.05230
#
# Static dielectric constant tensor:
#      x y z
#    x 4.120110 0.000000 0.000000 
#    y 0.000000 3.077730 0.000000 
#    z 0.000000 0.000000 3.720500 
# 
# 
# High freq. dielectric constant tensor:
#      x y z
#    x 1.797380 0.000000 0.000000 
#    y 0.000000 1.715820 0.000000 
#    z 0.000000 0.000000 1.793640 
# 
# From -- ./inp_files/6108.got.cif
#   From: 2010.03.12/outbox.cif.g09.slc.cpg/sg40_4_cif.got.tgz:6108.got - 2010.04.14 01:38:03.
