data_PCOD8183935
_publ_section_title
;
Structure prediction by ZEFSAII (Michael W. Deem and Ramdas Pophale) SiO2 
 PCOD8183935
Probable space group: A M A 2
;
_chemical_formula_sum "Si O2"
_cell_formula_units_Z 60
_cell_length_a 9.262785
_cell_length_b 25.198552
_cell_length_c 11.881535
_cell_angle_alpha 90.000000
_cell_angle_beta 90.000000
_cell_angle_gamma 90.000000
_cell_volume 2773.254464
_symmetry_space_group_name_H-M "A M A 2"
_symmetry_group_IT_number 40
_symmetry_cell_setting 'orthorhombic'
loop_
_space_group_symop_operation_xyz
x,y,z
-x,-y,z
1/2-x,y,z
1/2+x,-y,z
x,1/2+y,1/2+z
-x,1/2-y,1/2+z
1/2-x,1/2+y,1/2+z
1/2+x,1/2-y,1/2+z
loop_
_atom_site_type_symbol
_atom_site_label
_atom_site_fract_x
_atom_site_fract_y
_atom_site_fract_z
Si Si1 0.915234 0.184436 0.016230
Si Si2 0.500000 0.000000 0.115263
Si Si3 0.909408 0.572903 0.415332
Si Si4 0.077798 0.551949 0.196608
Si Si5 0.598664 0.933477 0.320501
Si Si6 0.585897 0.603478 0.008582
Si Si7 0.091202 0.179603 0.225824
Si Si8 0.584777 0.721376 0.913132
O O1 0.750000 0.203296 0.029964
O O2 0.979838 0.161602 0.130759
O O3 0.926757 0.136062 0.929423
O O4 0.018066 0.233920 0.992011
O O5 0.591245 0.964273 0.201674
O O6 0.416209 0.959155 0.033495
O O7 0.750000 0.561208 0.364495
O O8 0.033304 0.556294 0.328091
O O9 0.250000 0.549698 0.189078
O O10 0.000000 0.500000 0.146232
O O11 0.014276 0.599322 0.119932
O O12 0.750000 0.952144 0.377276
O O13 0.467733 0.938132 0.410262
O O14 0.614128 0.871448 0.300906
O O15 0.750000 0.587652 0.036624
O O16 0.576218 0.664477 0.972457
O O17 0.250000 0.200416 0.184693
O O18 0.011981 0.224317 0.300461
O O19 0.750000 0.735565 0.883691
#
# Coordination Sequence:
#
# PCOD8183935 Si02
#       8
#     8   4   8   8   8   8   8   8
#     4  11  23  40  63  93 128 167 210 263 318 381
#     4  12  22  40  66  96 132 168 212 254 318 370
#     4  11  25  43  65  95 131 171 217 262 317 381
#     4  12  26  44  68  94 129 172 217 266 320 381
#     4  10  22  38  62  95 129 166 210 259 313 373
#     4  10  23  44  68  94 128 168 215 266 321 380
#     4  10  20  38  61  89 124 163 207 260 314 376
#     4  10  22  41  65  93 124 165 211 264 323 381
#
# _framework density 21.635231000000001
#
# number of rings (size 3 to 8) (size 9 to 14) (size 15 to 20)
#    0.000    1.333    2.000    3.200    0.933    5.867 
#    0.000    1.333    0.000    0.000    0.000    0.000 
#    0.000    0.000    0.000    0.000    0.000    0.000 
#
# Total GULP energy -371721.318172 kJ/mol
# GULP energy per Si atom -12390.710606 kJ/mol
# Density = 2.158599 g / cm^3
# Si number density = 21.635231 Si / 1000 Ang^3
#
#
#
# Elastic Constant Matrix: (Units=GPa)
#
#
# Indices 1 2 3 4 5 6 
#
# 1 197.4484 58.3830 52.3971 0.0000 0.0000 0.0000
# 2 58.3830 59.4958 21.9045 0.0000 0.0000 0.0000
# 3 52.3971 21.9045 86.2228 0.0000 0.0000 0.0000
# 4 0.0000 0.0000 0.0000 18.5916 0.0000 0.0000
# 5 0.0000 0.0000 0.0000 0.0000 36.4193 0.0000
# 6 0.0000 0.0000 0.0000 0.0000 0.0000 15.8468
#
#
#
# Elastic Compliance Matrix: (Units=1/GPa)
#
#
# Indices 1 2 3 4 5 6 
#
# 1 0.007816 -0.006532 -0.003090 0.000000 0.000000 0.000000
# 2 -0.006532 0.024001 -0.002128 0.000000 0.000000 0.000000
# 3 -0.003090 -0.002128 0.014016 0.000000 0.000000 0.000000
# 4 0.000000 0.000000 0.000000 0.053788 0.000000 0.000000
# 5 0.000000 0.000000 0.000000 0.000000 0.027458 0.000000
# 6 0.000000 0.000000 0.000000 0.000000 0.000000 0.063104
#
#
# Mechanical properties :
#
#
# Convention : Reuss Voigt Hill
#
# Bulk Modulus (GPa) = 44.77655 67.61514 56.19584
# Shear Modulus (GPa) = 22.61122 28.20371 25.40746
#
# Velocity S-wave (km/s) = 3.23632 3.61446 3.43061
# Velocity P-wave (km/s) = 5.89119 6.98135 6.45931
#
# Compressibility (1/GPa) = 0.02233312
#
# Stress axis : x y z
#
# Youngs Moduli (GPa) = 127.93915 41.66430 71.34488
#
# Poissons Ratio (x) = 0.27216 0.22048
# Poissons Ratio (y) = 0.83573 0.15181
# Poissons Ratio (z) = 0.39538 0.08865
#
# Static dielectric constant tensor:
#      x y z
#    x 4.334060 0.000000 0.000000 
#    y 0.000000 3.802040 0.000000 
#    z 0.000000 0.000000 3.780720 
# 
# 
# High freq. dielectric constant tensor:
#      x y z
#    x 1.865300 0.000000 0.000000 
#    y 0.000000 1.844510 0.000000 
#    z 0.000000 0.000000 1.842530 
# 
# From -- ./inp_files/10404.got.cif
#   From: 2010.03.12/outbox.cif.g09.slc.cpg/sg40_6_cif.got.tgz:10404.got - 2010.04.14 01:38:03.
