data_PCOD8183812
_publ_section_title
;
Structure prediction by ZEFSAII (Michael W. Deem and Ramdas Pophale) SiO2 
 PCOD8183812
Probable space group: A M A 2
;
_chemical_formula_sum "Si O2"
_cell_formula_units_Z 64
_cell_length_a 8.501824
_cell_length_b 33.440710
_cell_length_c 11.573095
_cell_angle_alpha 90.000000
_cell_angle_beta 90.000000
_cell_angle_gamma 90.000000
_cell_volume 3290.312277
_symmetry_space_group_name_H-M "A M A 2"
_symmetry_group_IT_number 40
_symmetry_cell_setting 'orthorhombic'
loop_
_space_group_symop_operation_xyz
x,y,z
-x,-y,z
1/2-x,y,z
1/2+x,-y,z
x,1/2+y,1/2+z
-x,1/2-y,1/2+z
1/2-x,1/2+y,1/2+z
1/2+x,1/2-y,1/2+z
loop_
_atom_site_type_symbol
_atom_site_label
_atom_site_fract_x
_atom_site_fract_y
_atom_site_fract_z
Si Si1 0.062906 0.042354 0.667630
Si Si2 0.064345 0.377397 0.542963
Si Si3 0.422551 0.687313 0.119637
Si Si4 0.068114 0.808939 0.865182
Si Si5 0.562901 0.846743 0.284256
Si Si6 0.076227 0.606510 0.999637
Si Si7 0.569220 0.726725 0.911692
Si Si8 0.436920 0.543611 0.429399
O O1 0.250000 0.044214 0.665096
O O2 0.987106 0.071431 0.569926
O O3 0.006065 0.052504 0.798005
O O4 0.000000 0.000000 0.628946
O O5 0.250000 0.377356 0.562022
O O6 0.012553 0.345537 0.445956
O O7 0.982318 0.363276 0.660301
O O8 0.007937 0.421881 0.510636
O O9 0.250000 0.706813 0.098218
O O10 0.465482 0.691903 0.251422
O O11 0.413315 0.640757 0.094718
O O12 0.552432 0.706773 0.037026
O O13 0.250000 0.813864 0.834585
O O14 0.035103 0.766468 0.923845
O O15 0.750000 0.842779 0.297959
O O16 0.494489 0.877753 0.381471
O O17 0.491205 0.802808 0.309587
O O18 0.250000 0.591361 0.965044
O O19 0.750000 0.737264 0.887596
O O20 0.500000 0.500000 0.469073
O O21 0.250000 0.543760 0.441018
#
# Coordination Sequence:
#
# PCOD8183812 Si02
#       8
#     8   8   8   8   8   8   8   8
#     4   9  17  31  53  83 115 144 180 226 283 344
#     4  11  24  40  59  86 119 155 202 251 298 358
#     4  10  20  37  59  82 108 141 186 235 287 343
#     4  11  24  39  57  83 115 150 192 242 294 351
#     4  10  21  39  61  82 112 154 200 245 296 354
#     4   8  16  33  56  79 106 143 182 226 277 339
#     4  11  23  39  59  83 114 151 191 238 295 353
#     4  10  20  36  60  88 120 156 194 241 300 360
#
# _framework density 19.451042999999999
#
# number of rings (size 3 to 8) (size 9 to 14) (size 15 to 20)
#    0.000    2.000    0.000    4.500    1.750    3.500 
#    0.000    4.375    0.000    1.500    0.000    0.000 
#    0.000    0.000    0.000    0.000    0.000    0.000 
#
# Total GULP energy -396660.173969 kJ/mol
# GULP energy per Si atom -12395.630437 kJ/mol
# Density = 1.940677 g / cm^3
# Si number density = 19.451043 Si / 1000 Ang^3
#
#
#
# Elastic Constant Matrix: (Units=GPa)
#
#
# Indices 1 2 3 4 5 6 
#
# 1 53.3454 20.9632 15.9447 0.0000 0.0000 0.0000
# 2 20.9632 114.4974 49.9236 0.0000 0.0000 0.0000
# 3 15.9447 49.9236 81.5063 0.0000 0.0000 0.0000
# 4 0.0000 0.0000 0.0000 29.2168 0.0000 0.0000
# 5 0.0000 0.0000 0.0000 0.0000 26.1646 0.0000
# 6 0.0000 0.0000 0.0000 0.0000 0.0000 30.3759
#
#
#
# Elastic Compliance Matrix: (Units=1/GPa)
#
#
# Indices 1 2 3 4 5 6 
#
# 1 0.020520 -0.002738 -0.002337 0.000000 0.000000 0.000000
# 2 -0.002738 0.012282 -0.006987 0.000000 0.000000 0.000000
# 3 -0.002337 -0.006987 0.017006 0.000000 0.000000 0.000000
# 4 0.000000 0.000000 0.000000 0.034227 0.000000 0.000000
# 5 0.000000 0.000000 0.000000 0.000000 0.038220 0.000000
# 6 0.000000 0.000000 0.000000 0.000000 0.000000 0.032921
#
#
# Mechanical properties :
#
#
# Convention : Reuss Voigt Hill
#
# Bulk Modulus (GPa) = 38.93580 47.00133 42.96857
# Shear Modulus (GPa) = 26.61549 27.98599 27.30074
#
# Velocity S-wave (km/s) = 3.70311 3.79726 3.75048
# Velocity P-wave (km/s) = 6.19232 6.59105 6.39479
#
# Compressibility (1/GPa) = 0.02568330
#
# Stress axis : x y z
#
# Youngs Moduli (GPa) = 48.73227 81.42250 58.80322
#
# Poissons Ratio (x) = 0.22293 0.13744
# Poissons Ratio (y) = 0.13343 0.41086
# Poissons Ratio (z) = 0.11390 0.56890
#
# Static dielectric constant tensor:
#      x y z
#    x 3.433280 0.000000 0.000000 
#    y 0.000000 3.672380 0.000000 
#    z 0.000000 0.000000 3.532120 
# 
# 
# High freq. dielectric constant tensor:
#      x y z
#    x 1.751250 0.000000 0.000000 
#    y 0.000000 1.760240 0.000000 
#    z 0.000000 0.000000 1.755130 
# 
# From -- ./inp_files/10569.got.cif
#   From: 2010.03.12/outbox.cif.g09.slc.cpg/sg40_6_cif.got.tgz:10569.got - 2010.04.14 01:38:03.
