data_PCOD8183298
_publ_section_title
;
Structure prediction by ZEFSAII (Michael W. Deem and Ramdas Pophale) SiO2 
 PCOD8183298
Probable space group: A M A 2
;
_chemical_formula_sum "Si O2"
_cell_formula_units_Z 64
_cell_length_a 8.716883
_cell_length_b 19.572740
_cell_length_c 20.390422
_cell_angle_alpha 90.000000
_cell_angle_beta 90.000000
_cell_angle_gamma 90.000000
_cell_volume 3478.876871
_symmetry_space_group_name_H-M "A M A 2"
_symmetry_group_IT_number 40
_symmetry_cell_setting 'orthorhombic'
loop_
_space_group_symop_operation_xyz
x,y,z
-x,-y,z
1/2-x,y,z
1/2+x,-y,z
x,1/2+y,1/2+z
-x,1/2-y,1/2+z
1/2-x,1/2+y,1/2+z
1/2+x,1/2-y,1/2+z
loop_
_atom_site_type_symbol
_atom_site_label
_atom_site_fract_x
_atom_site_fract_y
_atom_site_fract_z
Si Si1 0.929203 0.290289 0.055620
Si Si2 0.069322 0.569411 0.117598
Si Si3 0.069238 0.291893 0.304090
Si Si4 0.431308 0.570192 0.267224
Si Si5 0.572067 0.428420 0.877433
Si Si6 0.929679 0.707644 0.921100
Si Si7 0.072450 0.571592 0.723581
Si Si8 0.928835 0.208693 0.185683
O O1 0.750000 0.291074 0.037713
O O2 0.986528 0.365906 0.075873
O O3 0.963739 0.238177 0.114158
O O4 0.026585 0.265323 0.993286
O O5 0.250000 0.563394 0.116162
O O6 0.012669 0.579350 0.192255
O O7 0.000000 0.500000 0.087146
O O8 0.250000 0.298975 0.302735
O O9 0.995170 0.366686 0.308764
O O10 0.020925 0.251147 0.368232
O O11 0.018205 0.252382 0.239215
O O12 0.500000 0.500000 0.296312
O O13 0.250000 0.568538 0.273431
O O14 0.500000 0.500000 0.898975
O O15 0.750000 0.426722 0.897347
O O16 0.481106 0.370937 0.916771
O O17 0.549095 0.415613 0.800490
O O18 0.750000 0.714960 0.908137
O O19 0.250000 0.572179 0.704078
O O20 0.000000 0.500000 0.701658
O O21 0.984218 0.630710 0.684900
O O22 0.750000 0.213255 0.203169
#
# Coordination Sequence:
#
# PCOD8183298 Si02
#       8
#     8   8   8   8   8   8   8   8
#     4  10  22  40  57  79 115 155 192 235 287 341
#     4   9  18  33  53  79 112 151 189 228 274 329
#     4  12  23  37  59  86 115 152 193 239 286 338
#     4  10  19  35  57  87 118 149 188 235 286 339
#     4  10  20  35  55  81 114 153 192 234 280 337
#     4  12  25  39  57  82 114 154 195 240 288 342
#     4  10  20  34  56  86 117 149 187 235 284 339
#     4  11  21  37  61  86 115 151 190 238 288 338
#
# _framework density 18.396742
#
# number of rings (size 3 to 8) (size 9 to 14) (size 15 to 20)
#    0.000    1.500    2.500    3.750    0.000    3.500 
#    0.000    1.250    0.000    0.750    0.000    1.750 
#    0.000    0.000    0.000    0.000    0.000    0.000 
#
# Total GULP energy -396959.348950 kJ/mol
# GULP energy per Si atom -12404.979655 kJ/mol
# Density = 1.835487 g / cm^3
# Si number density = 18.396742 Si / 1000 Ang^3
#
#
#
# Elastic Constant Matrix: (Units=GPa)
#
#
# Indices 1 2 3 4 5 6 
#
# 1 86.8857 37.8037 27.8811 0.0000 0.0000 0.0000
# 2 37.8037 120.1204 38.9985 0.0000 0.0000 0.0000
# 3 27.8811 38.9985 68.0162 0.0000 0.0000 0.0000
# 4 0.0000 0.0000 0.0000 21.6977 0.0000 0.0000
# 5 0.0000 0.0000 0.0000 0.0000 25.8418 0.0000
# 6 0.0000 0.0000 0.0000 0.0000 0.0000 36.3347
#
#
#
# Elastic Compliance Matrix: (Units=1/GPa)
#
#
# Indices 1 2 3 4 5 6 
#
# 1 0.014167 -0.003162 -0.003994 0.000000 0.000000 0.000000
# 2 -0.003162 0.010935 -0.004974 0.000000 0.000000 0.000000
# 3 -0.003994 -0.004974 0.019191 0.000000 0.000000 0.000000
# 4 0.000000 0.000000 0.000000 0.046088 0.000000 0.000000
# 5 0.000000 0.000000 0.000000 0.000000 0.038697 0.000000
# 6 0.000000 0.000000 0.000000 0.000000 0.000000 0.027522
#
#
# Mechanical properties :
#
#
# Convention : Reuss Voigt Hill
#
# Bulk Modulus (GPa) = 49.91617 53.82099 51.86858
# Shear Modulus (GPa) = 26.66139 28.13078 27.39608
#
# Velocity S-wave (km/s) = 3.81103 3.91464 3.86318
# Velocity P-wave (km/s) = 6.82329 7.05349 6.93934
#
# Compressibility (1/GPa) = 0.02003359
#
# Stress axis : x y z
#
# Youngs Moduli (GPa) = 70.58767 91.45150 52.10640
#
# Poissons Ratio (x) = 0.28914 0.20813
# Poissons Ratio (y) = 0.22317 0.25916
# Poissons Ratio (z) = 0.28196 0.45485
#
# Static dielectric constant tensor:
#      x y z
#    x 3.432640 0.000000 0.000000 
#    y 0.000000 3.546560 0.000000 
#    z 0.000000 0.000000 3.208150 
# 
# 
# High freq. dielectric constant tensor:
#      x y z
#    x 1.724100 0.000000 0.000000 
#    y 0.000000 1.720850 0.000000 
#    z 0.000000 0.000000 1.687640 
# 
# From -- ./inp_files/22441.got.cif
#   From: 2010.03.12/outbox.cif.g09.slc.cpg/sg40_12_cif.got.tgz:22441.got - 2010.04.14 01:38:03.
