data_PCOD8183832
_publ_section_title
;
Structure prediction by ZEFSAII (Michael W. Deem and Ramdas Pophale) SiO2 
 PCOD8183832
Probable space group: A M A 2
;
_chemical_formula_sum "Si O2"
_cell_formula_units_Z 64
_cell_length_a 14.558620
_cell_length_b 9.309019
_cell_length_c 22.760178
_cell_angle_alpha 90.000000
_cell_angle_beta 90.000000
_cell_angle_gamma 90.000000
_cell_volume 3084.606585
_symmetry_space_group_name_H-M "A M A 2"
_symmetry_group_IT_number 40
_symmetry_cell_setting 'orthorhombic'
loop_
_space_group_symop_operation_xyz
x,y,z
-x,-y,z
1/2-x,y,z
1/2+x,-y,z
x,1/2+y,1/2+z
-x,1/2-y,1/2+z
1/2-x,1/2+y,1/2+z
1/2+x,1/2-y,1/2+z
loop_
_atom_site_type_symbol
_atom_site_label
_atom_site_fract_x
_atom_site_fract_y
_atom_site_fract_z
Si Si1 0.648244 0.119598 0.235840
Si Si2 0.854822 0.459304 0.393486
Si Si3 0.649144 0.349662 0.520973
Si Si4 0.521894 0.850057 0.787027
Si Si5 0.645832 0.774583 0.436191
Si Si6 0.407495 0.918418 0.109699
Si Si7 0.478809 0.161015 0.545239
Si Si8 0.645345 0.350585 0.811127
O O1 0.750000 0.161654 0.257200
O O2 0.581545 0.254001 0.243461
O O3 0.654390 0.073692 0.167733
O O4 0.610925 0.990049 0.276064
O O5 0.750000 0.461476 0.369298
O O6 0.862459 0.365167 0.451722
O O7 0.922782 0.386588 0.346806
O O8 0.886165 0.619869 0.411146
O O9 0.750000 0.289922 0.536090
O O10 0.637410 0.503528 0.553406
O O11 0.577606 0.233881 0.542315
O O12 0.422994 0.779795 0.798184
O O13 0.500000 0.000000 0.754296
O O14 0.750000 0.764876 0.461807
O O15 0.575833 0.836231 0.483948
O O16 0.643029 0.884226 0.380926
O O17 0.421172 0.750763 0.093186
O O18 0.500000 0.000000 0.126683
O O19 0.500000 0.000000 0.566237
O O20 0.750000 0.308100 0.792164
#
# Coordination Sequence:
#
# PCOD8183832 Si02
#       8
#     8   8   8   8   8   8   8   8
#     4  11  25  44  65  91 121 161 214 260 310 373
#     4  10  20  36  61  93 127 163 211 255 301 365
#     4  10  21  38  64  92 122 164 212 258 301 363
#     4  12  23  36  62  89 126 164 205 256 312 369
#     4  10  20  37  61  91 130 170 207 251 311 373
#     4  10  21  41  67  88 119 162 215 255 304 368
#     4  11  24  38  61  96 130 162 199 256 323 381
#     4  10  22  39  59  87 126 168 210 257 308 366
#
# _framework density 20.748189
#
# number of rings (size 3 to 8) (size 9 to 14) (size 15 to 20)
#    0.000    1.500    2.500    2.625    0.000    4.000 
#    0.000    2.500    0.000    0.000    0.000    0.000 
#    0.000    0.000    0.000    0.000    0.000    0.000 
#
# Total GULP energy -396735.830012 kJ/mol
# GULP energy per Si atom -12397.994688 kJ/mol
# Density = 2.070097 g / cm^3
# Si number density = 20.748189 Si / 1000 Ang^3
#
#
#
# Elastic Constant Matrix: (Units=GPa)
#
#
# Indices 1 2 3 4 5 6 
#
# 1 100.3740 41.1348 23.2267 0.0000 0.0000 0.0000
# 2 41.1348 123.1949 34.5593 0.0000 0.0000 0.0000
# 3 23.2267 34.5593 72.7337 0.0000 0.0000 0.0000
# 4 0.0000 0.0000 0.0000 25.5175 0.0000 0.0000
# 5 0.0000 0.0000 0.0000 0.0000 28.1800 0.0000
# 6 0.0000 0.0000 0.0000 0.0000 0.0000 28.9386
#
#
#
# Elastic Compliance Matrix: (Units=1/GPa)
#
#
# Indices 1 2 3 4 5 6 
#
# 1 0.011838 -0.003337 -0.002195 0.000000 0.000000 0.000000
# 2 -0.003337 0.010306 -0.003831 0.000000 0.000000 0.000000
# 3 -0.002195 -0.003831 0.016270 0.000000 0.000000 0.000000
# 4 0.000000 0.000000 0.000000 0.039189 0.000000 0.000000
# 5 0.000000 0.000000 0.000000 0.000000 0.035486 0.000000
# 6 0.000000 0.000000 0.000000 0.000000 0.000000 0.034556
#
#
# Mechanical properties :
#
#
# Convention : Reuss Voigt Hill
#
# Bulk Modulus (GPa) = 50.79194 54.90490 52.84842
# Shear Modulus (GPa) = 28.91266 29.68601 29.29933
#
# Velocity S-wave (km/s) = 3.73701 3.78666 3.76192
# Velocity P-wave (km/s) = 6.56915 6.75562 6.66304
#
# Compressibility (1/GPa) = 0.01968816
#
# Stress axis : x y z
#
# Youngs Moduli (GPa) = 84.47224 97.02842 61.46242
#
# Poissons Ratio (x) = 0.32379 0.13490
# Poissons Ratio (y) = 0.28189 0.23548
# Poissons Ratio (z) = 0.18540 0.37175
#
# Static dielectric constant tensor:
#      x y z
#    x 3.927320 0.000000 0.000000 
#    y 0.000000 3.669090 0.000000 
#    z 0.000000 0.000000 3.649280 
# 
# 
# High freq. dielectric constant tensor:
#      x y z
#    x 1.830570 0.000000 0.000000 
#    y 0.000000 1.795460 0.000000 
#    z 0.000000 0.000000 1.797890 
# 
# From -- ./inp_files/24781.got.cif
#   From: 2010.03.12/outbox.cif.g09.slc.cpg/sg40_13_cif.got.tgz:24781.got - 2010.04.14 01:38:03.
