data_PCOD8183524
_publ_section_title
;
Structure prediction by ZEFSAII (Michael W. Deem and Ramdas Pophale) SiO2 
 PCOD8183524
Probable space group: A M A 2
;
_chemical_formula_sum "Si O2"
_cell_formula_units_Z 56
_cell_length_a 22.753530
_cell_length_b 15.340213
_cell_length_c 8.696897
_cell_angle_alpha 90.000000
_cell_angle_beta 90.000000
_cell_angle_gamma 90.000000
_cell_volume 3035.599688
_symmetry_space_group_name_H-M "A M A 2"
_symmetry_group_IT_number 40
_symmetry_cell_setting 'orthorhombic'
loop_
_space_group_symop_operation_xyz
x,y,z
-x,-y,z
1/2-x,y,z
1/2+x,-y,z
x,1/2+y,1/2+z
-x,1/2-y,1/2+z
1/2-x,1/2+y,1/2+z
1/2+x,1/2-y,1/2+z
loop_
_atom_site_type_symbol
_atom_site_label
_atom_site_fract_x
_atom_site_fract_y
_atom_site_fract_z
Si Si1 0.816528 0.907778 0.580490
Si Si2 0.815406 0.223828 0.927447
Si Si3 0.524215 0.409799 0.573786
Si Si4 0.381119 0.169519 0.847758
Si Si5 0.317323 0.177396 0.142418
Si Si6 0.902765 0.158313 0.158629
Si Si7 0.120786 0.027047 0.286747
O O1 0.750000 0.949130 0.592936
O O2 0.808812 0.808716 0.531994
O O3 0.850642 0.905973 0.744146
O O4 0.859344 0.959801 0.463330
O O5 0.750000 0.180995 0.910566
O O6 0.845140 0.254157 0.765478
O O7 0.860149 0.157734 0.009797
O O8 0.500000 0.500000 0.505423
O O9 0.564106 0.368704 0.441261
O O10 0.470242 0.346124 0.606941
O O11 0.558692 0.428443 0.735495
O O12 0.400398 0.252560 0.751520
O O13 0.333580 0.203889 0.970605
O O14 0.250000 0.189111 0.173382
O O15 0.332485 0.076227 0.177280
O O16 0.882187 0.076197 0.260013
#
# Coordination Sequence:
#
# PCOD8183524 Si02
#       7
#     8   8   8   8   8   8   8
#     4   9  17  32  52  77 105 135 168 207 258 319
#     4   8  16  30  50  73 101 135 172 209 256 315
#     4   9  20  38  53  70 101 139 177 211 252 316
#     4  10  20  33  54  79 105 136 171 221 273 312
#     4   9  17  33  53  74 102 140 174 207 259 326
#     4  10  20  34  53  78 104 134 176 227 269 307
#     4   9  18  34  54  73  99 137 177 212 256 317
#
# _framework density 18.447755999999998
#
# number of rings (size 3 to 8) (size 9 to 14) (size 15 to 20)
#    0.000    2.857    0.000    1.714    0.000    6.286 
#    0.000    7.857    0.000    5.143    0.000    0.000 
#    0.000    0.000    0.000    0.000    0.000    0.000 
#
# Total GULP energy -346904.408608 kJ/mol
# GULP energy per Si atom -12389.443165 kJ/mol
# Density = 1.840577 g / cm^3
# Si number density = 18.447756 Si / 1000 Ang^3
#
#
#
# Elastic Constant Matrix: (Units=GPa)
#
#
# Indices 1 2 3 4 5 6 
#
# 1 115.5888 45.6373 61.7781 0.0000 0.0000 0.0000
# 2 45.6373 64.4193 38.0981 0.0000 0.0000 0.0000
# 3 61.7781 38.0981 123.6815 0.0000 0.0000 0.0000
# 4 0.0000 0.0000 0.0000 18.2617 0.0000 0.0000
# 5 0.0000 0.0000 0.0000 0.0000 24.8435 0.0000
# 6 0.0000 0.0000 0.0000 0.0000 0.0000 21.8476
#
#
#
# Elastic Compliance Matrix: (Units=1/GPa)
#
#
# Indices 1 2 3 4 5 6 
#
# 1 0.014027 -0.007084 -0.004824 0.000000 0.000000 0.000000
# 2 -0.007084 0.022559 -0.003410 0.000000 0.000000 0.000000
# 3 -0.004824 -0.003410 0.011545 0.000000 0.000000 0.000000
# 4 0.000000 0.000000 0.000000 0.054760 0.000000 0.000000
# 5 0.000000 0.000000 0.000000 0.000000 0.040252 0.000000
# 6 0.000000 0.000000 0.000000 0.000000 0.000000 0.045772
#
#
# Mechanical properties :
#
#
# Convention : Reuss Voigt Hill
#
# Bulk Modulus (GPa) = 57.16324 66.07962 61.62143
# Shear Modulus (GPa) = 22.18450 23.53562 22.86006
#
# Velocity S-wave (km/s) = 3.47155 3.57571 3.52402
# Velocity P-wave (km/s) = 6.86460 7.27635 7.07347
#
# Compressibility (1/GPa) = 0.01749376
#
# Stress axis : x y z
#
# Youngs Moduli (GPa) = 71.29309 44.32842 86.61446
#
# Poissons Ratio (x) = 0.31402 0.41784
# Poissons Ratio (y) = 0.50504 0.29540
# Poissons Ratio (z) = 0.34392 0.15118
#
# Static dielectric constant tensor:
#      x y z
#    x 3.720600 0.000000 0.000000 
#    y 0.000000 3.126040 0.000000 
#    z 0.000000 0.000000 3.523270 
# 
# 
# High freq. dielectric constant tensor:
#      x y z
#    x 1.724400 0.000000 0.000000 
#    y 0.000000 1.688140 0.000000 
#    z 0.000000 0.000000 1.712760 
# 
# From -- ./inp_files/8960.got.cif
#   From: 2010.03.12/outbox.cif.g09.slc.cpg/sg40_5_cif.got.tgz:8960.got - 2010.04.14 01:38:03.
