data_PCOD8183756
_publ_section_title
;
Structure prediction by ZEFSAII (Michael W. Deem and Ramdas Pophale) SiO2 
 PCOD8183756
Probable space group: A M A 2
;
_chemical_formula_sum "Si O2"
_cell_formula_units_Z 48
_cell_length_a 9.199394
_cell_length_b 30.805447
_cell_length_c 9.017339
_cell_angle_alpha 90.000000
_cell_angle_beta 90.000000
_cell_angle_gamma 90.000000
_cell_volume 2555.436723
_symmetry_space_group_name_H-M "A M A 2"
_symmetry_group_IT_number 40
_symmetry_cell_setting 'orthorhombic'
loop_
_space_group_symop_operation_xyz
x,y,z
-x,-y,z
1/2-x,y,z
1/2+x,-y,z
x,1/2+y,1/2+z
-x,1/2-y,1/2+z
1/2-x,1/2+y,1/2+z
1/2+x,1/2-y,1/2+z
loop_
_atom_site_type_symbol
_atom_site_label
_atom_site_fract_x
_atom_site_fract_y
_atom_site_fract_z
Si Si1 0.918802 0.042480 0.381460
Si Si2 0.581617 0.294535 0.893428
Si Si3 0.577482 0.128573 0.886224
Si Si4 0.077960 0.369964 0.721830
Si Si5 0.579199 0.043181 0.722307
Si Si6 0.418354 0.289958 0.196896
O O1 0.750000 0.032912 0.364933
O O2 0.966933 0.082961 0.282218
O O3 0.960602 0.052407 0.551458
O O4 0.000000 0.000000 0.321353
O O5 0.750000 0.306190 0.912328
O O6 0.500556 0.334656 0.820793
O O7 0.558909 0.252426 0.794306
O O8 0.514554 0.284326 0.052297
O O9 0.750000 0.127928 0.886931
O O10 0.518852 0.083787 0.816309
O O11 0.521745 0.168896 0.789043
O O12 0.520299 0.133687 0.053751
O O13 0.250000 0.362373 0.734399
O O14 0.750000 0.036726 0.745072
O O15 0.500000 0.000000 0.780533
O O16 0.250000 0.296628 0.152607
#
# Coordination Sequence:
#
# PCOD8183756 Si02
#       6
#     8   8   8   8   8   8
#     4   9  18  32  52  76 104 142 183 223 268 317
#     4  11  23  37  57  85 111 138 177 224 269 316
#     4   9  18  34  56  78 102 139 184 219 255 318
#     4  10  20  36  57  79 108 147 183 218 269 326
#     4   9  17  31  50  73 101 134 176 220 262 312
#     4  10  21  38  58  79 107 142 178 218 266 321
#
# _framework density 18.783480999999998
#
# number of rings (size 3 to 8) (size 9 to 14) (size 15 to 20)
#    0.000    2.333    0.000    2.500    0.000    6.667 
#    0.000    5.833    0.000    0.000    0.000    0.000 
#    0.000    0.000    0.000    0.000    0.000    0.000 
#
# Total GULP energy -297668.713868 kJ/mol
# GULP energy per Si atom -12402.863078 kJ/mol
# Density = 1.874073 g / cm^3
# Si number density = 18.783481 Si / 1000 Ang^3
#
#
#
# Elastic Constant Matrix: (Units=GPa)
#
#
# Indices 1 2 3 4 5 6 
#
# 1 52.5646 56.4067 46.3647 0.0000 0.0000 0.0000
# 2 56.4067 133.7411 57.8939 0.0000 0.0000 0.0000
# 3 46.3647 57.8939 116.5395 0.0000 0.0000 0.0000
# 4 0.0000 0.0000 0.0000 31.2362 0.0000 0.0000
# 5 0.0000 0.0000 0.0000 0.0000 23.3465 0.0000
# 6 0.0000 0.0000 0.0000 0.0000 0.0000 32.1779
#
#
#
# Elastic Compliance Matrix: (Units=1/GPa)
#
#
# Indices 1 2 3 4 5 6 
#
# 1 0.042537 -0.013523 -0.010205 0.000000 0.000000 0.000000
# 2 -0.013523 0.013824 -0.001488 0.000000 0.000000 0.000000
# 3 -0.010205 -0.001488 0.013380 0.000000 0.000000 0.000000
# 4 0.000000 0.000000 0.000000 0.032014 0.000000 0.000000
# 5 0.000000 0.000000 0.000000 0.000000 0.042833 0.000000
# 6 0.000000 0.000000 0.000000 0.000000 0.000000 0.031077
#
#
# Mechanical properties :
#
#
# Convention : Reuss Voigt Hill
#
# Bulk Modulus (GPa) = 51.78703 69.35287 60.56995
# Shear Modulus (GPa) = 21.50222 26.83077 24.16649
#
# Velocity S-wave (km/s) = 3.38707 3.78355 3.59079
# Velocity P-wave (km/s) = 6.55185 7.48929 7.03620
#
# Compressibility (1/GPa) = 0.01930986
#
# Stress axis : x y z
#
# Youngs Moduli (GPa) = 23.50893 72.33550 74.73830
#
# Poissons Ratio (x) = 0.97817 0.76274
# Poissons Ratio (y) = 0.31790 0.11119
# Poissons Ratio (z) = 0.23992 0.10761
#
# Static dielectric constant tensor:
#      x y z
#    x 3.303690 0.000000 0.000000 
#    y 0.000000 3.694380 0.000000 
#    z 0.000000 0.000000 3.574130 
# 
# 
# High freq. dielectric constant tensor:
#      x y z
#    x 1.705290 0.000000 0.000000 
#    y 0.000000 1.746200 0.000000 
#    z 0.000000 0.000000 1.736510 
# 
# From -- ./inp_files/4591.got.cif
#   From: 2010.03.12/outbox.cif.g09.slc.cpg/sg40_3_cif.got.tgz:4591.got - 2010.04.14 01:38:03.
