data_PCOD8183641
_publ_section_title
;
Structure prediction by ZEFSAII (Michael W. Deem and Ramdas Pophale) SiO2 
 PCOD8183641
Probable space group: A M A 2
;
_chemical_formula_sum "Si O2"
_cell_formula_units_Z 32
_cell_length_a 8.719620
_cell_length_b 14.572599
_cell_length_c 13.910406
_cell_angle_alpha 90.000000
_cell_angle_beta 90.000000
_cell_angle_gamma 90.000000
_cell_volume 1767.560872
_symmetry_space_group_name_H-M "A M A 2"
_symmetry_group_IT_number 40
_symmetry_cell_setting 'orthorhombic'
loop_
_space_group_symop_operation_xyz
x,y,z
-x,-y,z
1/2-x,y,z
1/2+x,-y,z
x,1/2+y,1/2+z
-x,1/2-y,1/2+z
1/2-x,1/2+y,1/2+z
1/2+x,1/2-y,1/2+z
loop_
_atom_site_type_symbol
_atom_site_label
_atom_site_fract_x
_atom_site_fract_y
_atom_site_fract_z
Si Si1 0.430906 0.401149 0.763380
Si Si2 0.577011 0.812118 0.441997
Si Si3 0.422387 0.093679 0.630078
Si Si4 0.931189 0.275479 0.611247
O O1 0.500000 0.500000 0.785255
O O2 0.250000 0.408390 0.755948
O O3 0.476994 0.332517 0.848694
O O4 0.498153 0.363656 0.663467
O O5 0.750000 0.785224 0.410997
O O6 0.580557 0.900930 0.513130
O O7 0.498928 0.728474 0.502293
O O8 0.250000 0.098084 0.671709
O O9 0.517880 0.182169 0.668373
O O10 0.500000 0.000000 0.665017
O O11 0.750000 0.283834 0.608462
#
# Coordination Sequence:
#
# PCOD8183641 Si02
#       4
#     8   8   8   8
#     4  12  23  36  56  84 114 148 189 234 280 332
#     4   9  19  34  53  79 110 142 180 226 275 326
#     4   9  17  29  49  75 105 138 176 219 268 320
#     4  10  20  35  53  78 112 148 183 229 282 332
#
# _framework density 18.104043000000001
#
# number of rings (size 3 to 8) (size 9 to 14) (size 15 to 20)
#    1.500    0.500    0.000    6.000    0.000    2.000 
#    0.000    0.000    0.000    1.500    0.000   10.500 
#    0.000    0.000    0.000    0.000    0.000    0.000 
#
# Total GULP energy -198266.436998 kJ/mol
# GULP energy per Si atom -12391.652312 kJ/mol
# Density = 1.806284 g / cm^3
# Si number density = 18.104043 Si / 1000 Ang^3
#
#
#
# Elastic Constant Matrix: (Units=GPa)
#
#
# Indices 1 2 3 4 5 6 
#
# 1 176.3271 27.8264 34.8815 0.0000 0.0000 0.0000
# 2 27.8264 35.1749 29.9653 0.0000 0.0000 0.0000
# 3 34.8815 29.9653 71.1426 0.0000 0.0000 0.0000
# 4 0.0000 0.0000 0.0000 25.3990 0.0000 0.0000
# 5 0.0000 0.0000 0.0000 0.0000 26.6800 0.0000
# 6 0.0000 0.0000 0.0000 0.0000 0.0000 30.9367
#
#
#
# Elastic Compliance Matrix: (Units=1/GPa)
#
#
# Indices 1 2 3 4 5 6 
#
# 1 0.006597 -0.003842 -0.001616 0.000000 0.000000 0.000000
# 2 -0.003842 0.046576 -0.017734 0.000000 0.000000 0.000000
# 3 -0.001616 -0.017734 0.022318 0.000000 0.000000 0.000000
# 4 0.000000 0.000000 0.000000 0.039372 0.000000 0.000000
# 5 0.000000 0.000000 0.000000 0.000000 0.037481 0.000000
# 6 0.000000 0.000000 0.000000 0.000000 0.000000 0.032324
#
#
# Mechanical properties :
#
#
# Convention : Reuss Voigt Hill
#
# Bulk Modulus (GPa) = 34.35621 51.99902 43.17761
# Shear Modulus (GPa) = 20.76785 29.26792 25.01789
#
# Velocity S-wave (km/s) = 3.39062 4.02512 3.72142
# Velocity P-wave (km/s) = 5.86060 7.09837 6.50897
#
# Compressibility (1/GPa) = 0.02910682
#
# Stress axis : x y z
#
# Youngs Moduli (GPa) = 151.57566 21.47011 44.80594
#
# Poissons Ratio (x) = 0.08249 0.07243
# Poissons Ratio (y) = 0.58236 0.79460
# Poissons Ratio (z) = 0.24501 0.38076
#
# Static dielectric constant tensor:
#      x y z
#    x 3.390610 0.000000 0.000000 
#    y 0.000000 2.773760 0.000000 
#    z 0.000000 0.000000 3.015340 
# 
# 
# High freq. dielectric constant tensor:
#      x y z
#    x 1.724240 0.000000 0.000000 
#    y 0.000000 1.673500 0.000000 
#    z 0.000000 0.000000 1.665510 
# 
# From -- ./inp_files/9884.got.cif
#   From: 2010.03.12/outbox.cif.g09.slc.cpg/sg40_5_cif.got.tgz:9884.got - 2010.04.14 01:38:03.
