data_PCOD8183409
_publ_section_title
;
Structure prediction by ZEFSAII (Michael W. Deem and Ramdas Pophale) SiO2 
 PCOD8183409
Probable space group: A M A 2
;
_chemical_formula_sum "Si O2"
_cell_formula_units_Z 36
_cell_length_a 15.367691
_cell_length_b 7.268088
_cell_length_c 16.990757
_cell_angle_alpha 90.000000
_cell_angle_beta 90.000000
_cell_angle_gamma 90.000000
_cell_volume 1897.761034
_symmetry_space_group_name_H-M "A M A 2"
_symmetry_group_IT_number 40
_symmetry_cell_setting 'orthorhombic'
loop_
_space_group_symop_operation_xyz
x,y,z
-x,-y,z
1/2-x,y,z
1/2+x,-y,z
x,1/2+y,1/2+z
-x,1/2-y,1/2+z
1/2-x,1/2+y,1/2+z
1/2+x,1/2-y,1/2+z
loop_
_atom_site_type_symbol
_atom_site_label
_atom_site_fract_x
_atom_site_fract_y
_atom_site_fract_z
Si Si1 0.155061 0.749739 0.339720
Si Si2 0.853718 0.543031 0.210046
Si Si3 0.000000 0.000000 0.584114
Si Si4 0.413969 0.613952 0.804633
Si Si5 0.498196 0.712681 0.450656
O O1 0.250000 0.679469 0.364278
O O2 0.117836 0.611951 0.273282
O O3 0.096665 0.753627 0.416740
O O4 0.161237 0.960528 0.310052
O O5 0.750000 0.534262 0.191686
O O6 0.910673 0.505468 0.133110
O O7 0.882056 0.743163 0.239884
O O8 0.989833 0.819200 0.531497
O O9 0.500000 0.500000 0.778597
O O10 0.429754 0.722126 0.886969
O O11 0.500000 0.500000 0.470870
#
# Coordination Sequence:
#
# PCOD8183409 Si02
#       5
#     8   8   4   8   8
#     4  10  20  37  64  92 115 154 214 259 297 365
#     4  11  24  41  64  93 129 168 208 260 318 377
#     4  12  24  40  58  92 134 164 198 256 324 378
#     4  10  19  37  66  91 115 159 214 259 305 364
#     4  11  21  38  61  89 119 162 205 250 311 362
#
# _framework density 18.969722000000001
#
# number of rings (size 3 to 8) (size 9 to 14) (size 15 to 20)
#    0.000    1.333    5.556    3.333    0.000    3.556 
#    0.000    1.111    0.000    0.000    0.000    0.000 
#    0.000    0.000    0.000    0.000    0.000    0.000 
#
# Total GULP energy -223130.867072 kJ/mol
# GULP energy per Si atom -12396.159282 kJ/mol
# Density = 1.892655 g / cm^3
# Si number density = 18.969722 Si / 1000 Ang^3
#
#
#
# Elastic Constant Matrix: (Units=GPa)
#
#
# Indices 1 2 3 4 5 6 
#
# 1 90.0906 31.6291 52.7051 0.0000 0.0000 0.0000
# 2 31.6291 163.9561 55.9274 0.0000 0.0000 0.0000
# 3 52.7051 55.9274 107.4421 0.0000 0.0000 0.0000
# 4 0.0000 0.0000 0.0000 37.6205 0.0000 0.0000
# 5 0.0000 0.0000 0.0000 0.0000 -10.9625 0.0000
# 6 0.0000 0.0000 0.0000 0.0000 0.0000 21.8907
#
#
#
# Elastic Compliance Matrix: (Units=1/GPa)
#
#
# Indices 1 2 3 4 5 6 
#
# 1 0.015599 -0.000485 -0.007400 0.000000 0.000000 0.000000
# 2 -0.000485 0.007431 -0.003630 0.000000 0.000000 0.000000
# 3 -0.007400 -0.003630 0.014827 0.000000 0.000000 0.000000
# 4 0.000000 0.000000 0.000000 0.026581 0.000000 0.000000
# 5 0.000000 0.000000 0.000000 0.000000 -0.091220 0.000000
# 6 0.000000 0.000000 0.000000 0.000000 0.000000 0.045682
#
#
# Mechanical properties :
#
#
# Convention : Reuss Voigt Hill
#
# Bulk Modulus (GPa) = 67.44321 71.33469 69.38895
# Shear Modulus (GPa) = 106.67346 24.45821 65.56583
#
# Velocity S-wave (km/s) = 7.50704 3.59462 5.88544
# Velocity P-wave (km/s) = 10.52478 7.41043 9.10180
#
# Compressibility (1/GPa) = 0.01482729
#
# Stress axis : x y z
#
# Youngs Moduli (GPa) = 64.10595 134.57005 67.44576
#
# Poissons Ratio (x) = 0.06529 0.49907
# Poissons Ratio (y) = 0.03110 0.24484
# Poissons Ratio (z) = 0.47435 0.48851
#
# Static dielectric constant tensor:
#      x y z
#    x 4.053550 0.000000 0.000000 
#    y 0.000000 4.062360 0.000000 
#    z 0.000000 0.000000 3.228920 
# 
# 
# High freq. dielectric constant tensor:
#      x y z
#    x 1.737790 0.000000 0.000000 
#    y 0.000000 1.763750 0.000000 
#    z 0.000000 0.000000 1.712030 
# 
# From -- ./inp_files/20345.got.cif
#   From: 2010.03.12/outbox.cif.g09.slc.cpg/sg40_11_cif.got.tgz:20345.got - 2010.04.14 01:38:03.
