data_PCOD8183967
_publ_section_title
;
Structure prediction by ZEFSAII (Michael W. Deem and Ramdas Pophale) SiO2 
 PCOD8183967
Probable space group: A M A 2
;
_chemical_formula_sum "Si O2"
_cell_formula_units_Z 56
_cell_length_a 20.897840
_cell_length_b 9.441057
_cell_length_c 13.144052
_cell_angle_alpha 90.000000
_cell_angle_beta 90.000000
_cell_angle_gamma 90.000000
_cell_volume 2593.291210
_symmetry_space_group_name_H-M "A M A 2"
_symmetry_group_IT_number 40
_symmetry_cell_setting 'orthorhombic'
loop_
_space_group_symop_operation_xyz
x,y,z
-x,-y,z
1/2-x,y,z
1/2+x,-y,z
x,1/2+y,1/2+z
-x,1/2-y,1/2+z
1/2-x,1/2+y,1/2+z
1/2+x,1/2-y,1/2+z
loop_
_atom_site_type_symbol
_atom_site_label
_atom_site_fract_x
_atom_site_fract_y
_atom_site_fract_z
Si Si1 0.679343 0.242672 0.881770
Si Si2 0.944115 0.594958 0.069029
Si Si3 0.822431 0.566432 0.576381
Si Si4 0.823870 0.747921 0.763494
Si Si5 0.406672 0.486021 0.282959
Si Si6 0.942266 0.909765 0.997918
Si Si7 0.176620 0.451183 0.944320
O O1 0.750000 0.211160 0.838119
O O2 0.664815 0.409753 0.875184
O O3 0.629717 0.155185 0.816338
O O4 0.675124 0.197757 0.999378
O O5 0.950351 0.572547 0.191003
O O6 0.000000 0.500000 0.017926
O O7 0.958672 0.750844 0.028543
O O8 0.872724 0.547803 0.037350
O O9 0.750000 0.501608 0.579982
O O10 0.844747 0.626469 0.684613
O O11 0.872083 0.445596 0.542459
O O12 0.750000 0.782871 0.748379
O O13 0.859775 0.893159 0.741393
O O14 0.837642 0.687972 0.876395
O O15 0.444835 0.558439 0.376490
O O16 0.000000 0.000000 0.048066
O O17 0.250000 0.450072 0.984881
#
# Coordination Sequence:
#
# PCOD8183967 Si02
#       7
#     8   8   8   8   8   8   8
#     4   9  19  36  63  98 132 171 218 274 339 403
#     4  12  28  46  68 100 135 181 230 281 341 412
#     4   9  20  39  67  95 131 175 222 278 341 400
#     4  10  20  38  65 101 138 172 221 284 340 404
#     4  11  23  42  69  95 134 175 229 276 340 405
#     4  11  26  47  67  96 137 179 222 287 339 406
#     4  10  22  42  67  99 136 177 227 280 341 408
#
# _framework density 21.594180999999999
#
# number of rings (size 3 to 8) (size 9 to 14) (size 15 to 20)
#    0.000    1.714    1.429    1.714    8.000    3.429 
#    0.000    0.714    0.000    0.000    0.000    0.000 
#    0.000    0.000    0.000    0.000    0.000    0.000 
#
# Total GULP energy -347128.931915 kJ/mol
# GULP energy per Si atom -12397.461854 kJ/mol
# Density = 2.154503 g / cm^3
# Si number density = 21.594181 Si / 1000 Ang^3
#
#
#
# Elastic Constant Matrix: (Units=GPa)
#
#
# Indices 1 2 3 4 5 6 
#
# 1 111.0356 55.4787 41.0061 0.0000 0.0000 0.0000
# 2 55.4787 125.4133 26.9850 0.0000 0.0000 0.0000
# 3 41.0061 26.9850 85.1462 0.0000 0.0000 0.0000
# 4 0.0000 0.0000 0.0000 25.8119 0.0000 0.0000
# 5 0.0000 0.0000 0.0000 0.0000 6.8044 0.0000
# 6 0.0000 0.0000 0.0000 0.0000 0.0000 27.1057
#
#
#
# Elastic Compliance Matrix: (Units=1/GPa)
#
#
# Indices 1 2 3 4 5 6 
#
# 1 0.013185 -0.004793 -0.004831 0.000000 0.000000 0.000000
# 2 -0.004793 0.010300 -0.000956 0.000000 0.000000 0.000000
# 3 -0.004831 -0.000956 0.014374 0.000000 0.000000 0.000000
# 4 0.000000 0.000000 0.000000 0.038742 0.000000 0.000000
# 5 0.000000 0.000000 0.000000 0.000000 0.146963 0.000000
# 6 0.000000 0.000000 0.000000 0.000000 0.000000 0.036893
#
#
# Mechanical properties :
#
#
# Convention : Reuss Voigt Hill
#
# Bulk Modulus (GPa) = 59.88387 63.17053 61.52720
# Shear Modulus (GPa) = 17.41055 25.15276 21.28165
#
# Velocity S-wave (km/s) = 2.84255 3.41661 3.14272
# Velocity P-wave (km/s) = 6.21009 6.69935 6.45935
#
# Compressibility (1/GPa) = 0.01669899
#
# Stress axis : x y z
#
# Youngs Moduli (GPa) = 75.84321 97.09060 69.57041
#
# Poissons Ratio (x) = 0.46538 0.33608
# Poissons Ratio (y) = 0.36353 0.06650
# Poissons Ratio (z) = 0.36638 0.09280
#
# Static dielectric constant tensor:
#      x y z
#    x 3.977040 0.000000 0.000000 
#    y 0.000000 3.783710 0.000000 
#    z 0.000000 0.000000 3.819700 
# 
# 
# High freq. dielectric constant tensor:
#      x y z
#    x 1.852540 0.000000 0.000000 
#    y 0.000000 1.849050 0.000000 
#    z 0.000000 0.000000 1.835030 
# 
# From -- ./inp_files/18204.got.cif
#   From: 2010.03.12/outbox.cif.g09.slc.cpg/sg40_10_cif.got.tgz:18204.got - 2010.04.14 01:38:03.
