data_PCOD8183464
_publ_section_title
;
Structure prediction by ZEFSAII (Michael W. Deem and Ramdas Pophale) SiO2 
 PCOD8183464
Probable space group: A M A 2
;
_chemical_formula_sum "Si O2"
_cell_formula_units_Z 40
_cell_length_a 9.055769
_cell_length_b 25.743767
_cell_length_c 9.575600
_cell_angle_alpha 90.000000
_cell_angle_beta 90.000000
_cell_angle_gamma 90.000000
_cell_volume 2232.355866
_symmetry_space_group_name_H-M "A M A 2"
_symmetry_group_IT_number 40
_symmetry_cell_setting 'orthorhombic'
loop_
_space_group_symop_operation_xyz
x,y,z
-x,-y,z
1/2-x,y,z
1/2+x,-y,z
x,1/2+y,1/2+z
-x,1/2-y,1/2+z
1/2-x,1/2+y,1/2+z
1/2+x,1/2-y,1/2+z
loop_
_atom_site_type_symbol
_atom_site_label
_atom_site_fract_x
_atom_site_fract_y
_atom_site_fract_z
Si Si1 0.419091 0.637141 0.801440
Si Si2 0.075785 0.715867 0.566477
Si Si3 0.923612 0.445110 0.568220
Si Si4 0.075982 0.364924 0.377144
Si Si5 0.922041 0.166410 0.570439
O O1 0.250000 0.638239 0.845674
O O2 0.461033 0.688655 0.714155
O O3 0.455670 0.586682 0.709248
O O4 0.510383 0.634081 0.943440
O O5 0.250000 0.710603 0.534603
O O6 0.017494 0.774636 0.575143
O O7 0.985901 0.687834 0.444128
O O8 0.750000 0.451386 0.540507
O O9 0.000000 0.500000 0.586077
O O10 0.994445 0.415395 0.437038
O O11 0.250000 0.368566 0.406823
O O12 0.040034 0.363309 0.212947
O O13 0.750000 0.169261 0.545014
#
# Coordination Sequence:
#
# PCOD8183464 Si02
#       5
#     8   8   8   8   8
#     4   9  19  34  52  75 104 135 170 210 255 304
#     4   9  18  33  50  73 106 143 179 213 247 293
#     4  10  21  39  60  79  98 127 168 214 260 310
#     4  10  20  34  52  77 106 138 174 211 252 303
#     4  10  20  32  49  76 110 141 172 210 252 298
#
# _framework density 17.918289000000001
#
# number of rings (size 3 to 8) (size 9 to 14) (size 15 to 20)
#    0.000    2.400    0.000    3.600    0.000    8.000 
#    0.000    1.000    0.000    2.400    0.000    0.000 
#    0.000    0.000    0.000    0.000    0.000    0.000 
#
# Total GULP energy -248037.710620 kJ/mol
# GULP energy per Si atom -12401.885531 kJ/mol
# Density = 1.787751 g / cm^3
# Si number density = 17.918289 Si / 1000 Ang^3
#
#
#
# Elastic Constant Matrix: (Units=GPa)
#
#
# Indices 1 2 3 4 5 6 
#
# 1 73.8700 53.2864 67.3856 0.0000 0.0000 0.0000
# 2 53.2864 113.3670 56.8863 0.0000 0.0000 0.0000
# 3 67.3856 56.8863 137.8342 0.0000 0.0000 0.0000
# 4 0.0000 0.0000 0.0000 11.8665 0.0000 0.0000
# 5 0.0000 0.0000 0.0000 0.0000 34.2717 0.0000
# 6 0.0000 0.0000 0.0000 0.0000 0.0000 4.7624
#
#
#
# Elastic Compliance Matrix: (Units=1/GPa)
#
#
# Indices 1 2 3 4 5 6 
#
# 1 0.029668 -0.008408 -0.011034 0.000000 0.000000 0.000000
# 2 -0.008408 0.013508 -0.001464 0.000000 0.000000 0.000000
# 3 -0.011034 -0.001464 0.013254 0.000000 0.000000 0.000000
# 4 0.000000 0.000000 0.000000 0.084271 0.000000 0.000000
# 5 0.000000 0.000000 0.000000 0.000000 0.029179 0.000000
# 6 0.000000 0.000000 0.000000 0.000000 0.000000 0.209980
#
#
# Mechanical properties :
#
#
# Convention : Reuss Voigt Hill
#
# Bulk Modulus (GPa) = 68.41542 75.57641 71.99591
# Shear Modulus (GPa) = 11.72209 20.01430 15.86819
#
# Velocity S-wave (km/s) = 2.56050 3.34574 2.97911
# Velocity P-wave (km/s) = 6.85612 7.56276 7.21809
#
# Compressibility (1/GPa) = 0.01461659
#
# Stress axis : x y z
#
# Youngs Moduli (GPa) = 33.70609 74.03144 75.44943
#
# Poissons Ratio (x) = 0.62247 0.83253
# Poissons Ratio (y) = 0.28341 0.11047
# Poissons Ratio (z) = 0.37192 0.10840
#
# Static dielectric constant tensor:
#      x y z
#    x 3.304630 0.000000 0.000000 
#    y 0.000000 3.252510 0.000000 
#    z 0.000000 0.000000 3.285120 
# 
# 
# High freq. dielectric constant tensor:
#      x y z
#    x 1.697480 0.000000 0.000000 
#    y 0.000000 1.683140 0.000000 
#    z 0.000000 0.000000 1.694070 
# 
# From -- ./inp_files/4217.got.cif
#   From: 2010.03.12/outbox.cif.g09.slc.cpg/sg40_3_cif.got.tgz:4217.got - 2010.04.14 01:38:03.
