data_PCOD8183734
_publ_section_title
;
Structure prediction by ZEFSAII (Michael W. Deem and Ramdas Pophale) SiO2 
 PCOD8183734
Probable space group: A M A 2
;
_chemical_formula_sum "Si O2"
_cell_formula_units_Z 64
_cell_length_a 15.607704
_cell_length_b 9.030122
_cell_length_c 23.233150
_cell_angle_alpha 90.000000
_cell_angle_beta 90.000000
_cell_angle_gamma 90.000000
_cell_volume 3274.467877
_symmetry_space_group_name_H-M "A M A 2"
_symmetry_group_IT_number 40
_symmetry_cell_setting 'orthorhombic'
loop_
_space_group_symop_operation_xyz
x,y,z
-x,-y,z
1/2-x,y,z
1/2+x,-y,z
x,1/2+y,1/2+z
-x,1/2-y,1/2+z
1/2-x,1/2+y,1/2+z
1/2+x,1/2-y,1/2+z
loop_
_atom_site_type_symbol
_atom_site_label
_atom_site_fract_x
_atom_site_fract_y
_atom_site_fract_z
Si Si1 0.848306 0.850312 0.748780
Si Si2 0.655299 0.884548 0.534666
Si Si3 0.652345 0.697148 0.253967
Si Si4 0.016352 0.667277 0.950715
Si Si5 0.091823 0.791211 0.131120
Si Si6 0.845771 0.393930 0.643613
Si Si7 0.073050 0.813936 0.566166
Si Si8 0.502357 0.326007 0.332386
O O1 0.750000 0.810646 0.764834
O O2 0.876048 0.774586 0.690407
O O3 0.910054 0.784352 0.798723
O O4 0.859387 0.025068 0.738537
O O5 0.750000 0.942976 0.520498
O O6 0.613533 0.826503 0.475170
O O7 0.658826 0.751754 0.580697
O O8 0.597675 0.012681 0.564709
O O9 0.750000 0.727107 0.275590
O O10 0.629810 0.794947 0.198696
O O11 0.582850 0.740662 0.302351
O O12 0.000000 0.500000 0.931543
O O13 0.997187 0.769119 0.897008
O O14 0.954978 0.727271 0.001607
O O15 0.999707 0.724571 0.113601
O O16 0.089095 0.969095 0.137276
O O17 0.750000 0.456766 0.649931
O O18 0.848558 0.289032 0.586677
O O19 0.500000 0.500000 0.335784
#
# Coordination Sequence:
#
# PCOD8183734 Si02
#       8
#     8   8   8   8   8   8   8   8
#     4  10  20  36  55  78 110 150 191 232 280 343
#     4  10  20  37  59  83 110 146 188 231 280 346
#     4   9  20  36  55  79 109 145 186 227 280 351
#     4   9  21  38  55  77 105 138 182 228 275 331
#     4  11  21  34  54  84 117 144 179 230 285 335
#     4  11  21  33  52  84 115 141 179 230 282 334
#     4  10  21  37  56  77 109 152 186 218 275 348
#     4  10  21  37  57  78 105 144 189 236 284 336
#
# _framework density 19.545159999999999
#
# number of rings (size 3 to 8) (size 9 to 14) (size 15 to 20)
#    0.000    2.000    0.000    4.500    0.000    6.500 
#    0.000    3.125    0.000    1.500    0.000    0.000 
#    0.000    0.000    0.000    0.000    0.000    0.000 
#
# Total GULP energy -396647.108340 kJ/mol
# GULP energy per Si atom -12395.222136 kJ/mol
# Density = 1.950067 g / cm^3
# Si number density = 19.545160 Si / 1000 Ang^3
#
#
#
# Elastic Constant Matrix: (Units=GPa)
#
#
# Indices 1 2 3 4 5 6 
#
# 1 120.8693 36.9723 71.2400 0.0000 0.0000 0.0000
# 2 36.9723 54.4804 41.4567 0.0000 0.0000 0.0000
# 3 71.2400 41.4567 126.9749 0.0000 0.0000 0.0000
# 4 0.0000 0.0000 0.0000 35.9549 0.0000 0.0000
# 5 0.0000 0.0000 0.0000 0.0000 12.2070 0.0000
# 6 0.0000 0.0000 0.0000 0.0000 0.0000 22.6458
#
#
#
# Elastic Compliance Matrix: (Units=1/GPa)
#
#
# Indices 1 2 3 4 5 6 
#
# 1 0.013105 -0.004389 -0.005920 0.000000 0.000000 0.000000
# 2 -0.004389 0.025893 -0.005991 0.000000 0.000000 0.000000
# 3 -0.005920 -0.005991 0.013153 0.000000 0.000000 0.000000
# 4 0.000000 0.000000 0.000000 0.027813 0.000000 0.000000
# 5 0.000000 0.000000 0.000000 0.000000 0.081920 0.000000
# 6 0.000000 0.000000 0.000000 0.000000 0.000000 0.044158
#
#
# Mechanical properties :
#
#
# Convention : Reuss Voigt Hill
#
# Bulk Modulus (GPa) = 51.14891 66.85139 59.00015
# Shear Modulus (GPa) = 20.39491 24.33856 22.36674
#
# Velocity S-wave (km/s) = 3.23379 3.53263 3.38651
# Velocity P-wave (km/s) = 6.33795 7.13563 6.74858
#
# Compressibility (1/GPa) = 0.01955076
#
# Stress axis : x y z
#
# Youngs Moduli (GPa) = 76.30718 38.62060 76.02832
#
# Poissons Ratio (x) = 0.16950 0.45006
# Poissons Ratio (y) = 0.33491 0.45552
# Poissons Ratio (z) = 0.45171 0.23139
#
# Static dielectric constant tensor:
#      x y z
#    x 3.892240 0.000000 0.000000 
#    y 0.000000 3.525020 0.000000 
#    z 0.000000 0.000000 3.435310 
# 
# 
# High freq. dielectric constant tensor:
#      x y z
#    x 1.772520 0.000000 0.000000 
#    y 0.000000 1.755280 0.000000 
#    z 0.000000 0.000000 1.747340 
# 
# From -- ./inp_files/23387.got.cif
#   From: 2010.03.12/outbox.cif.g09.slc.cpg/sg40_12_cif.got.tgz:23387.got - 2010.04.14 01:38:03.
