data_PCOD8183975
_publ_section_title
;
Structure prediction by ZEFSAII (Michael W. Deem and Ramdas Pophale) SiO2 
 PCOD8183975
Probable space group: A M A 2
;
_chemical_formula_sum "Si O2"
_cell_formula_units_Z 64
_cell_length_a 17.683436
_cell_length_b 12.693522
_cell_length_c 14.703532
_cell_angle_alpha 90.000000
_cell_angle_beta 90.000000
_cell_angle_gamma 90.000000
_cell_volume 3300.429544
_symmetry_space_group_name_H-M "A M A 2"
_symmetry_group_IT_number 40
_symmetry_cell_setting 'orthorhombic'
loop_
_space_group_symop_operation_xyz
x,y,z
-x,-y,z
1/2-x,y,z
1/2+x,-y,z
x,1/2+y,1/2+z
-x,1/2-y,1/2+z
1/2-x,1/2+y,1/2+z
1/2+x,1/2-y,1/2+z
loop_
_atom_site_type_symbol
_atom_site_label
_atom_site_fract_x
_atom_site_fract_y
_atom_site_fract_z
Si Si1 0.836317 0.880225 0.701580
Si Si2 0.020186 0.878561 0.999559
Si Si3 0.836062 0.112057 0.401006
Si Si4 0.938451 0.787909 0.171853
Si Si5 0.336736 0.401491 0.111149
Si Si6 0.164610 0.835301 0.098846
Si Si7 0.664730 0.477718 0.735420
Si Si8 0.051542 0.216494 0.825745
O O1 0.750000 0.882506 0.736360
O O2 0.849321 0.782481 0.634007
O O3 0.892200 0.872675 0.787210
O O4 0.859138 0.986047 0.650747
O O5 0.109614 0.861210 0.014944
O O6 0.974119 0.813848 0.074723
O O7 0.000000 0.000000 0.007837
O O8 0.002679 0.836015 0.899624
O O9 0.750000 0.154865 0.386572
O O10 0.852719 0.086290 0.504850
O O11 0.896505 0.196873 0.371536
O O12 0.846486 0.005365 0.341964
O O13 0.886429 0.686182 0.160404
O O14 0.890923 0.886405 0.206625
O O15 0.003074 0.766813 0.245039
O O16 0.250000 0.371942 0.130160
O O17 0.250000 0.849254 0.062762
O O18 0.146720 0.914977 0.181121
O O19 0.750000 0.439525 0.715524
#
# Coordination Sequence:
#
# PCOD8183975 Si02
#       8
#     8   8   8   8   8   8   8   8
#     4  10  21  41  67  91 123 170 216 258 316 386
#     4  12  25  43  63  98 131 166 215 264 318 379
#     4  10  20  40  66  95 121 158 222 270 312 381
#     4  12  24  42  63  92 136 166 208 266 327 381
#     4  10  23  42  64  92 127 168 214 269 323 378
#     4  10  20  40  67  93 123 168 215 258 314 380
#     4  10  20  38  67  96 124 166 215 270 322 377
#     4  12  25  40  64  94 129 172 209 263 319 379
#
# _framework density 19.391416
#
# number of rings (size 3 to 8) (size 9 to 14) (size 15 to 20)
#    0.000    1.250    5.000    0.750    1.750    1.000 
#    0.000    5.000    0.000    0.000    0.000    0.000 
#    0.000    0.000    0.000    0.000    0.000    0.000 
#
# Total GULP energy -396878.830991 kJ/mol
# GULP energy per Si atom -12402.463468 kJ/mol
# Density = 1.934728 g / cm^3
# Si number density = 19.391416 Si / 1000 Ang^3
#
#
#
# Elastic Constant Matrix: (Units=GPa)
#
#
# Indices 1 2 3 4 5 6 
#
# 1 101.0461 51.2180 43.4831 0.0000 0.0000 0.0000
# 2 51.2180 122.3293 36.1603 0.0000 0.0000 0.0000
# 3 43.4831 36.1603 87.2651 0.0000 0.0000 0.0000
# 4 0.0000 0.0000 0.0000 27.2258 0.0000 0.0000
# 5 0.0000 0.0000 0.0000 0.0000 47.4357 0.0000
# 6 0.0000 0.0000 0.0000 0.0000 0.0000 75.4981
#
#
#
# Elastic Compliance Matrix: (Units=1/GPa)
#
#
# Indices 1 2 3 4 5 6 
#
# 1 0.014469 -0.004475 -0.005356 0.000000 0.000000 0.000000
# 2 -0.004475 0.010700 -0.002204 0.000000 0.000000 0.000000
# 3 -0.005356 -0.002204 0.015041 0.000000 0.000000 0.000000
# 4 0.000000 0.000000 0.000000 0.036730 0.000000 0.000000
# 5 0.000000 0.000000 0.000000 0.000000 0.021081 0.000000
# 6 0.000000 0.000000 0.000000 0.000000 0.000000 0.013245
#
#
# Mechanical properties :
#
#
# Convention : Reuss Voigt Hill
#
# Bulk Modulus (GPa) = 61.95254 63.59592 62.77423
# Shear Modulus (GPa) = 35.53251 42.01720 38.77486
#
# Velocity S-wave (km/s) = 4.28528 4.65993 4.47653
# Velocity P-wave (km/s) = 7.51682 7.86260 7.69165
#
# Compressibility (1/GPa) = 0.01614139
#
# Stress axis : x y z
#
# Youngs Moduli (GPa) = 69.11106 93.45985 66.48429
#
# Poissons Ratio (x) = 0.41824 0.35606
# Poissons Ratio (y) = 0.30928 0.14652
# Poissons Ratio (z) = 0.37013 0.20597
#
# Static dielectric constant tensor:
#      x y z
#    x 3.686090 0.000000 0.000000 
#    y 0.000000 3.511590 0.000000 
#    z 0.000000 0.000000 3.620690 
# 
# 
# High freq. dielectric constant tensor:
#      x y z
#    x 1.770220 0.000000 0.000000 
#    y 0.000000 1.755220 0.000000 
#    z 0.000000 0.000000 1.750050 
# 
# From -- ./inp_files/17894.got.cif
#   From: 2010.03.12/outbox.cif.g09.slc.cpg/sg40_9_cif.got.tgz:17894.got - 2010.04.14 01:38:03.
