data_PCOD8183418
_publ_section_title
;
Structure prediction by ZEFSAII (Michael W. Deem and Ramdas Pophale) SiO2 
 PCOD8183418
Probable space group: A M A 2
;
_chemical_formula_sum "Si O2"
_cell_formula_units_Z 32
_cell_length_a 5.263065
_cell_length_b 27.056351
_cell_length_c 10.449353
_cell_angle_alpha 90.000000
_cell_angle_beta 90.000000
_cell_angle_gamma 90.000000
_cell_volume 1487.980908
_symmetry_space_group_name_H-M "A M A 2"
_symmetry_group_IT_number 40
_symmetry_cell_setting 'orthorhombic'
loop_
_space_group_symop_operation_xyz
x,y,z
-x,-y,z
1/2-x,y,z
1/2+x,-y,z
x,1/2+y,1/2+z
-x,1/2-y,1/2+z
1/2-x,1/2+y,1/2+z
1/2+x,1/2-y,1/2+z
loop_
_atom_site_type_symbol
_atom_site_label
_atom_site_fract_x
_atom_site_fract_y
_atom_site_fract_z
Si Si1 0.250000 0.319305 0.108160
Si Si2 0.750000 0.049588 0.395171
Si Si3 0.250000 0.321808 0.813448
Si Si4 0.750000 0.886588 0.016177
Si Si5 0.750000 0.941613 0.502779
Si Si6 0.750000 0.869011 0.717178
Si Si7 0.750000 0.581862 0.638254
Si Si8 0.250000 0.209969 0.189281
O O1 0.499309 0.339162 0.179257
O O2 0.250000 0.260130 0.109493
O O3 0.250000 0.335678 0.961676
O O4 0.498065 0.080729 0.431864
O O5 0.750000 0.036659 0.242253
O O6 0.750000 0.000791 0.484474
O O7 0.250000 0.372009 0.734047
O O8 0.501517 0.290775 0.778843
O O9 0.750000 0.877603 0.866848
O O10 0.500547 0.918647 0.050954
O O11 0.750000 0.834328 0.087207
O O12 0.750000 0.923187 0.649204
#
# Coordination Sequence:
#
# PCOD8183418 Si02
#       8
#     4   4   4   4   4   4   4   4
#     4  12  25  37  63  86 119 172 213 264 306 368
#     4  10  20  37  67  93 121 153 199 261 317 366
#     4  10  21  39  56  86 114 153 209 270 297 357
#     4  10  23  39  59  86 127 168 200 249 309 380
#     4  10  21  37  63  96 124 153 198 264 308 367
#     4  12  24  41  60  93 125 171 207 249 319 381
#     4  10  19  38  63  86 116 159 206 249 312 364
#     4  10  23  38  57  82 120 161 212 264 304 347
#
# _framework density 21.505652000000001
#
# number of rings (size 3 to 8) (size 9 to 14) (size 15 to 20)
#    0.000    1.500    0.000    5.250    3.500    2.000 
#    0.000    0.000    0.000   18.000    0.000    0.000 
#    0.000    0.000    0.000    0.000    0.000    0.000 
#
# Total GULP energy -198335.168882 kJ/mol
# GULP energy per Si atom -12395.948055 kJ/mol
# Density = 2.145670 g / cm^3
# Si number density = 21.505652 Si / 1000 Ang^3
#
#
#
# Elastic Constant Matrix: (Units=GPa)
#
#
# Indices 1 2 3 4 5 6 
#
# 1 228.6347 18.8926 74.2416 0.0000 0.0000 0.0000
# 2 18.8926 59.0901 17.1324 0.0000 0.0000 0.0000
# 3 74.2416 17.1324 161.2886 0.0000 0.0000 0.0000
# 4 0.0000 0.0000 0.0000 21.1558 0.0000 0.0000
# 5 0.0000 0.0000 0.0000 0.0000 38.4281 0.0000
# 6 0.0000 0.0000 0.0000 0.0000 0.0000 12.9584
#
#
#
# Elastic Compliance Matrix: (Units=1/GPa)
#
#
# Indices 1 2 3 4 5 6 
#
# 1 0.005199 -0.000999 -0.002287 0.000000 0.000000 0.000000
# 2 -0.000999 0.017653 -0.001415 0.000000 0.000000 0.000000
# 3 -0.002287 -0.001415 0.007403 0.000000 0.000000 0.000000
# 4 0.000000 0.000000 0.000000 0.047268 0.000000 0.000000
# 5 0.000000 0.000000 0.000000 0.000000 0.026023 0.000000
# 6 0.000000 0.000000 0.000000 0.000000 0.000000 0.077170
#
#
# Mechanical properties :
#
#
# Convention : Reuss Voigt Hill
#
# Bulk Modulus (GPa) = 47.95605 74.39406 61.17505
# Shear Modulus (GPa) = 25.37171 37.09157 31.23164
#
# Velocity S-wave (km/s) = 3.43850 4.15750 3.81498
# Velocity P-wave (km/s) = 6.17350 7.59699 6.92194
#
# Compressibility (1/GPa) = 0.02085243
#
# Stress axis : x y z
#
# Youngs Moduli (GPa) = 192.34572 56.64732 135.07861
#
# Poissons Ratio (x) = 0.05660 0.30892
# Poissons Ratio (y) = 0.19218 0.19117
# Poissons Ratio (z) = 0.43989 0.08017
#
# Static dielectric constant tensor:
#      x y z
#    x 5.554630 0.000000 0.000000 
#    y 0.000000 3.705090 0.000000 
#    z 0.000000 0.000000 3.855410 
# 
# 
# High freq. dielectric constant tensor:
#      x y z
#    x 1.881080 0.000000 0.000000 
#    y 0.000000 1.826000 0.000000 
#    z 0.000000 0.000000 1.835490 
# 
# From -- ./inp_files/3673.got.cif
#   From: 2010.03.12/outbox.cif.g09.slc.cpg/sg40_2_cif.got.tgz:3673.got - 2010.04.14 01:38:03.
