data_PCOD8183115
_publ_section_title
;
Structure prediction by ZEFSAII (Michael W. Deem and Ramdas Pophale) SiO2 
 PCOD8183115
Probable space group: A M A 2
;
_chemical_formula_sum "Si O2"
_cell_formula_units_Z 48
_cell_length_a 9.004979
_cell_length_b 9.601511
_cell_length_c 30.952613
_cell_angle_alpha 90.000000
_cell_angle_beta 90.000000
_cell_angle_gamma 90.000000
_cell_volume 2676.206406
_symmetry_space_group_name_H-M "A M A 2"
_symmetry_group_IT_number 40
_symmetry_cell_setting 'orthorhombic'
loop_
_space_group_symop_operation_xyz
x,y,z
-x,-y,z
1/2-x,y,z
1/2+x,-y,z
x,1/2+y,1/2+z
-x,1/2-y,1/2+z
1/2-x,1/2+y,1/2+z
1/2+x,1/2-y,1/2+z
loop_
_atom_site_type_symbol
_atom_site_label
_atom_site_fract_x
_atom_site_fract_y
_atom_site_fract_z
Si Si1 0.573808 0.652208 0.277350
Si Si2 0.422796 0.141539 0.921499
Si Si3 0.424079 0.351914 0.090220
Si Si4 0.079973 0.856300 0.683138
Si Si5 0.074803 0.142015 0.019029
Si Si6 0.926112 0.150494 0.346819
O O1 0.500000 0.500000 0.283096
O O2 0.750000 0.640771 0.287084
O O3 0.542370 0.716737 0.229016
O O4 0.496022 0.761979 0.308174
O O5 0.250000 0.109398 0.919197
O O6 0.466153 0.270607 0.891250
O O7 0.500000 0.000000 0.905170
O O8 0.472569 0.181342 0.970116
O O9 0.500000 0.500000 0.086377
O O10 0.250000 0.373914 0.083724
O O11 0.458053 0.278761 0.137532
O O12 0.488203 0.257071 0.051887
O O13 0.250000 0.896574 0.683371
O O14 0.000000 0.000000 0.681860
O O15 0.250000 0.125076 0.023282
O O16 0.000000 0.000000 0.033565
O O17 0.750000 0.135993 0.339991
O O18 0.000000 0.000000 0.348748
#
# Coordination Sequence:
#
# PCOD8183115 Si02
#       6
#     8   8   8   8   8   8
#     4  10  19  33  54  77 101 131 169 208 247 293
#     4   9  19  35  54  74  96 126 164 203 242 289
#     4   9  17  30  49  73 101 130 162 200 241 286
#     4   8  15  28  47  71  98 128 162 201 240 281
#     4   9  18  33  51  72  99 129 162 200 241 288
#     4  11  23  37  52  73 102 132 164 204 252 301
#
# _framework density 17.935836999999999
#
# number of rings (size 3 to 8) (size 9 to 14) (size 15 to 20)
#    0.000    2.667    0.000    1.500    0.000    4.667 
#    0.000    0.833    0.000    2.000    0.000    0.000 
#    0.000    0.000    0.000    0.000    0.000    0.000 
#
# Total GULP energy -297340.156867 kJ/mol
# GULP energy per Si atom -12389.173203 kJ/mol
# Density = 1.789501 g / cm^3
# Si number density = 17.935837 Si / 1000 Ang^3
#
#
#
# Elastic Constant Matrix: (Units=GPa)
#
#
# Indices 1 2 3 4 5 6 
#
# 1 54.9391 47.8011 54.1063 0.0000 0.0000 0.0000
# 2 47.8011 123.0710 92.6844 0.0000 0.0000 0.0000
# 3 54.1063 92.6844 156.7623 0.0000 0.0000 0.0000
# 4 0.0000 0.0000 0.0000 25.9815 0.0000 0.0000
# 5 0.0000 0.0000 0.0000 0.0000 23.4193 0.0000
# 6 0.0000 0.0000 0.0000 0.0000 0.0000 30.2346
#
#
#
# Elastic Compliance Matrix: (Units=1/GPa)
#
#
# Indices 1 2 3 4 5 6 
#
# 1 0.030672 -0.007103 -0.006387 0.000000 0.000000 0.000000
# 2 -0.007103 0.016292 -0.007181 0.000000 0.000000 0.000000
# 3 -0.006387 -0.007181 0.012829 0.000000 0.000000 0.000000
# 4 0.000000 0.000000 0.000000 0.038489 0.000000 0.000000
# 5 0.000000 0.000000 0.000000 0.000000 0.042700 0.000000
# 6 0.000000 0.000000 0.000000 0.000000 0.000000 0.033075
#
#
# Mechanical properties :
#
#
# Convention : Reuss Voigt Hill
#
# Bulk Modulus (GPa) = 54.19569 80.43956 67.31763
# Shear Modulus (GPa) = 22.56828 25.27246 23.92037
#
# Velocity S-wave (km/s) = 3.55107 3.75780 3.65590
# Velocity P-wave (km/s) = 6.86262 7.98586 7.44545
#
# Compressibility (1/GPa) = 0.01845165
#
# Stress axis : x y z
#
# Youngs Moduli (GPa) = 32.60270 61.37843 77.94746
#
# Poissons Ratio (x) = 0.43600 0.49783
# Poissons Ratio (y) = 0.23159 0.55974
# Poissons Ratio (z) = 0.20822 0.44076
#
# Static dielectric constant tensor:
#      x y z
#    x 3.351240 0.000000 0.000000 
#    y 0.000000 3.105020 0.000000 
#    z 0.000000 0.000000 4.216200 
# 
# 
# High freq. dielectric constant tensor:
#      x y z
#    x 1.697760 0.000000 0.000000 
#    y 0.000000 1.661920 0.000000 
#    z 0.000000 0.000000 1.720480 
# 
# From -- ./inp_files/26117.got.cif
#   From: 2010.03.12/outbox.cif.g09.slc.cpg/sg40_14_cif.got.tgz:26117.got - 2010.04.14 01:38:03.
