data_PCOD8183982
_publ_section_title
;
Structure prediction by ZEFSAII (Michael W. Deem and Ramdas Pophale) SiO2 
 PCOD8183982
Probable space group: A M A 2
;
_chemical_formula_sum "Si O2"
_cell_formula_units_Z 56
_cell_length_a 9.019328
_cell_length_b 18.193586
_cell_length_c 17.169223
_cell_angle_alpha 90.000000
_cell_angle_beta 90.000000
_cell_angle_gamma 90.000000
_cell_volume 2817.365099
_symmetry_space_group_name_H-M "A M A 2"
_symmetry_group_IT_number 40
_symmetry_cell_setting 'orthorhombic'
loop_
_space_group_symop_operation_xyz
x,y,z
-x,-y,z
1/2-x,y,z
1/2+x,-y,z
x,1/2+y,1/2+z
-x,1/2-y,1/2+z
1/2-x,1/2+y,1/2+z
1/2+x,1/2-y,1/2+z
loop_
_atom_site_type_symbol
_atom_site_label
_atom_site_fract_x
_atom_site_fract_y
_atom_site_fract_z
Si Si1 0.074699 0.921258 0.308690
Si Si2 0.920927 0.572593 0.522114
Si Si3 0.573933 0.677364 0.116232
Si Si4 0.578706 0.678331 0.663935
Si Si5 0.921539 0.425140 0.230742
Si Si6 0.574331 0.688400 0.939272
Si Si7 0.079140 0.153150 0.889401
O O1 0.250000 0.932834 0.309133
O O2 0.025857 0.873593 0.234098
O O3 0.017575 0.878942 0.386002
O O4 0.000000 0.000000 0.304590
O O5 0.750000 0.554036 0.510783
O O6 0.947687 0.637418 0.582895
O O7 0.000000 0.500000 0.554579
O O8 0.987457 0.594765 0.439209
O O9 0.750000 0.672128 0.121302
O O10 0.520169 0.748922 0.162973
O O11 0.501502 0.605382 0.153887
O O12 0.516446 0.679215 0.027190
O O13 0.750000 0.701296 0.675330
O O14 0.750000 0.440374 0.212315
O O15 0.940521 0.365584 0.299044
O O16 0.000000 0.500000 0.256740
O O17 0.750000 0.689659 0.937026
O O18 0.515117 0.765127 0.903747
O O19 0.250000 0.147673 0.915618
#
# Coordination Sequence:
#
# PCOD8183982 Si02
#       7
#     8   8   8   8   8   8   8
#     4  10  21  39  60  84 117 154 196 240 292 348
#     4  11  22  34  54  86 122 157 194 240 292 351
#     4  11  22  38  63  90 119 154 198 245 294 355
#     4  10  21  38  59  85 119 157 196 241 291 348
#     4  11  24  41  62  87 120 158 200 247 299 354
#     4   9  19  37  61  87 115 152 194 240 293 350
#     4  10  20  39  63  85 114 154 196 243 297 355
#
# _framework density 19.876726999999999
#
# number of rings (size 3 to 8) (size 9 to 14) (size 15 to 20)
#    0.000    1.714    1.429    3.000    0.000    6.286 
#    0.000    3.571    0.000    0.000    0.000    0.000 
#    0.000    0.000    0.000    0.000    0.000    0.000 
#
# Total GULP energy -347332.383976 kJ/mol
# GULP energy per Si atom -12404.727999 kJ/mol
# Density = 1.983149 g / cm^3
# Si number density = 19.876727 Si / 1000 Ang^3
#
#
#
# Elastic Constant Matrix: (Units=GPa)
#
#
# Indices 1 2 3 4 5 6 
#
# 1 78.9802 40.7129 40.8220 0.0000 0.0000 0.0000
# 2 40.7129 90.1358 51.9234 0.0000 0.0000 0.0000
# 3 40.8220 51.9234 114.6842 0.0000 0.0000 0.0000
# 4 0.0000 0.0000 0.0000 29.0282 0.0000 0.0000
# 5 0.0000 0.0000 0.0000 0.0000 24.3768 0.0000
# 6 0.0000 0.0000 0.0000 0.0000 0.0000 37.0595
#
#
#
# Elastic Compliance Matrix: (Units=1/GPa)
#
#
# Indices 1 2 3 4 5 6 
#
# 1 0.017534 -0.005850 -0.003592 0.000000 0.000000 0.000000
# 2 -0.005850 0.016961 -0.005597 0.000000 0.000000 0.000000
# 3 -0.003592 -0.005597 0.012532 0.000000 0.000000 0.000000
# 4 0.000000 0.000000 0.000000 0.034449 0.000000 0.000000
# 5 0.000000 0.000000 0.000000 0.000000 0.041023 0.000000
# 6 0.000000 0.000000 0.000000 0.000000 0.000000 0.026984
#
#
# Mechanical properties :
#
#
# Convention : Reuss Voigt Hill
#
# Bulk Modulus (GPa) = 59.00346 61.19078 60.09712
# Shear Modulus (GPa) = 26.99627 28.11570 27.55599
#
# Velocity S-wave (km/s) = 3.68935 3.76507 3.72740
# Velocity P-wave (km/s) = 6.92081 7.05358 6.98751
#
# Compressibility (1/GPa) = 0.01694816
#
# Stress axis : x y z
#
# Youngs Moduli (GPa) = 57.03209 58.95933 79.79432
#
# Poissons Ratio (x) = 0.34493 0.28666
# Poissons Ratio (y) = 0.33366 0.44658
# Poissons Ratio (z) = 0.20489 0.32997
#
# Static dielectric constant tensor:
#      x y z
#    x 3.449070 0.000000 0.000000 
#    y 0.000000 3.634040 0.000000 
#    z 0.000000 0.000000 3.744350 
# 
# 
# High freq. dielectric constant tensor:
#      x y z
#    x 1.759400 0.000000 0.000000 
#    y 0.000000 1.783610 0.000000 
#    z 0.000000 0.000000 1.783640 
# 
# From -- ./inp_files/15329.got.cif
#   From: 2010.03.12/outbox.cif.g09.slc.cpg/sg40_8_cif.got.tgz:15329.got - 2010.04.14 01:38:03.
