data_PCOD8183313
_publ_section_title
;
Structure prediction by ZEFSAII (Michael W. Deem and Ramdas Pophale) SiO2 
 PCOD8183313
Probable space group: A M A 2
;
_chemical_formula_sum "Si O2"
_cell_formula_units_Z 64
_cell_length_a 8.556727
_cell_length_b 24.796761
_cell_length_c 15.125904
_cell_angle_alpha 90.000000
_cell_angle_beta 90.000000
_cell_angle_gamma 90.000000
_cell_volume 3209.400915
_symmetry_space_group_name_H-M "A M A 2"
_symmetry_group_IT_number 40
_symmetry_cell_setting 'orthorhombic'
loop_
_space_group_symop_operation_xyz
x,y,z
-x,-y,z
1/2-x,y,z
1/2+x,-y,z
x,1/2+y,1/2+z
-x,1/2-y,1/2+z
1/2-x,1/2+y,1/2+z
1/2+x,1/2-y,1/2+z
loop_
_atom_site_type_symbol
_atom_site_label
_atom_site_fract_x
_atom_site_fract_y
_atom_site_fract_z
Si Si1 0.568973 0.852084 0.382630
Si Si2 0.934990 0.942440 0.516971
Si Si3 0.931190 0.641128 0.506119
Si Si4 0.073747 0.253336 0.968551
Si Si5 0.932744 0.835853 0.188119
Si Si6 0.064533 0.897817 0.697246
Si Si7 0.074025 0.281523 0.166051
Si Si8 0.432960 0.056645 0.875533
O O1 0.750000 0.842543 0.403658
O O2 0.501150 0.898944 0.445464
O O3 0.482688 0.795246 0.395148
O O4 0.543553 0.868233 0.279537
O O5 0.750000 0.944264 0.515356
O O6 0.991380 0.928870 0.614893
O O7 0.000000 0.000000 0.486958
O O8 0.750000 0.627641 0.492689
O O9 0.964328 0.700965 0.469891
O O10 0.975939 0.634539 0.609383
O O11 0.034908 0.599626 0.451596
O O12 0.250000 0.234542 0.948011
O O13 0.063786 0.285134 0.060475
O O14 0.750000 0.831856 0.160673
O O15 0.002457 0.774714 0.198732
O O16 0.250000 0.896714 0.683928
O O17 0.994626 0.836447 0.702756
O O18 0.021214 0.928637 0.785628
O O19 0.250000 0.281586 0.201330
O O20 0.250000 0.052873 0.856551
O O21 0.500000 0.000000 0.909471
#
# Coordination Sequence:
#
# PCOD8183313 Si02
#       8
#     8   8   8   8   8   8   8   8
#     4  10  21  36  59  89 122 159 203 252 304 358
#     4  11  23  39  58  85 119 162 208 252 301 357
#     4  11  23  41  63  90 121 158 202 251 303 358
#     4  10  19  35  58  88 122 159 197 241 298 360
#     4   9  19  38  60  87 123 162 199 246 302 358
#     4  11  21  37  60  90 123 161 200 246 302 362
#     4   8  16  31  54  83 118 157 194 231 290 354
#     4  12  26  45  65  90 119 156 203 255 306 364
#
# _framework density 19.941417999999999
#
# number of rings (size 3 to 8) (size 9 to 14) (size 15 to 20)
#    0.000    1.750    1.250    4.500    1.750    1.000 
#    0.000    1.250    0.000    1.500    0.000    0.000 
#    0.000    0.000    0.000    0.000    0.000    0.000 
#
# Total GULP energy -396793.674449 kJ/mol
# GULP energy per Si atom -12399.802327 kJ/mol
# Density = 1.989603 g / cm^3
# Si number density = 19.941418 Si / 1000 Ang^3
#
#
#
# Elastic Constant Matrix: (Units=GPa)
#
#
# Indices 1 2 3 4 5 6 
#
# 1 57.5369 15.6945 15.0164 0.0000 0.0000 0.0000
# 2 15.6945 100.0579 47.3972 0.0000 0.0000 0.0000
# 3 15.0164 47.3972 102.5094 0.0000 0.0000 0.0000
# 4 0.0000 0.0000 0.0000********** 0.0000 0.0000
# 5 0.0000 0.0000 0.0000 0.0000 24.0334 0.0000
# 6 0.0000 0.0000 0.0000 0.0000 0.0000 27.9057
#
#
#
# Elastic Compliance Matrix: (Units=1/GPa)
#
#
# Indices 1 2 3 4 5 6 
#
# 1 0.018397 -0.002060 -0.001742 0.000000 0.000000 0.000000
# 2 -0.002060 0.013028 -0.005722 0.000000 0.000000 0.000000
# 3 -0.001742 -0.005722 0.012656 0.000000 0.000000 0.000000
# 4 0.000000 0.000000 0.000000 -0.000094 0.000000 0.000000
# 5 0.000000 0.000000 0.000000 0.000000 0.041609 0.000000
# 6 0.000000 0.000000 0.000000 0.000000 0.000000 0.035835
#
#
# Mechanical properties :
#
#
# Convention : Reuss Voigt Hill
#
# Bulk Modulus (GPa) = 39.94918 46.25782 43.10350
# Shear Modulus (GPa) = 33.59689 -2102.54018 -1034.47164
#
# Velocity S-wave (km/s) = 4.10906 -32.50611 -22.80091
# Velocity P-wave (km/s) = 6.52604 37.22386 25.91357
#
# Compressibility (1/GPa) = 0.02503180
#
# Stress axis : x y z
#
# Youngs Moduli (GPa) = 54.35706 76.75888 79.01366
#
# Poissons Ratio (x) = 0.15815 0.13767
# Poissons Ratio (y) = 0.11199 0.45210
# Poissons Ratio (z) = 0.09471 0.43920
#
# Static dielectric constant tensor:
#      x y z
#    x 3.492400 0.000000 0.000000 
#    y 0.000000 11.649100 0.000000 
#    z 0.000000 0.000000 3.567660 
# 
# 
# High freq. dielectric constant tensor:
#      x y z
#    x 1.767860 0.000000 0.000000 
#    y 0.000000 1.774300 0.000000 
#    z 0.000000 0.000000 1.777090 
# 
# From -- ./inp_files/15650.got.cif
#   From: 2010.03.12/outbox.cif.g09.slc.cpg/sg40_8_cif.got.tgz:15650.got - 2010.04.14 01:38:03.
