data_PCOD8183161
_publ_section_title
;
Structure prediction by ZEFSAII (Michael W. Deem and Ramdas Pophale) SiO2 
 PCOD8183161
Probable space group: A M A 2
;
_chemical_formula_sum "Si O2"
_cell_formula_units_Z 64
_cell_length_a 8.712410
_cell_length_b 24.606082
_cell_length_c 15.095271
_cell_angle_alpha 90.000000
_cell_angle_beta 90.000000
_cell_angle_gamma 90.000000
_cell_volume 3236.098156
_symmetry_space_group_name_H-M "A M A 2"
_symmetry_group_IT_number 40
_symmetry_cell_setting 'orthorhombic'
loop_
_space_group_symop_operation_xyz
x,y,z
-x,-y,z
1/2-x,y,z
1/2+x,-y,z
x,1/2+y,1/2+z
-x,1/2-y,1/2+z
1/2-x,1/2+y,1/2+z
1/2+x,1/2-y,1/2+z
loop_
_atom_site_type_symbol
_atom_site_label
_atom_site_fract_x
_atom_site_fract_y
_atom_site_fract_z
Si Si1 0.928681 0.284560 0.385480
Si Si2 0.067619 0.556485 0.583672
Si Si3 0.069548 0.836675 0.402265
Si Si4 0.071117 0.146463 0.218894
Si Si5 0.930812 0.606882 0.414852
Si Si6 0.073825 0.369725 0.092131
Si Si7 0.574832 0.731116 0.206606
Si Si8 0.430763 0.059515 0.738516
O O1 0.750000 0.292833 0.406109
O O2 0.990290 0.225294 0.414535
O O3 0.020740 0.331236 0.438056
O O4 0.960111 0.291411 0.280916
O O5 0.250000 0.554365 0.581223
O O6 0.003968 0.603315 0.649076
O O7 0.000000 0.500000 0.619301
O O8 0.005831 0.566334 0.485035
O O9 0.250000 0.833949 0.388200
O O10 0.025550 0.871816 0.488780
O O11 0.998392 0.864524 0.315860
O O12 0.250000 0.137118 0.228355
O O13 0.031972 0.206757 0.182411
O O14 0.750000 0.599988 0.417990
O O15 0.990971 0.592470 0.317553
O O16 0.250000 0.388371 0.105247
O O17 0.054682 0.306749 0.121069
O O18 0.964968 0.409857 0.146372
O O19 0.750000 0.728299 0.242696
O O20 0.250000 0.056300 0.754545
O O21 0.500000 0.000000 0.732995
#
# Coordination Sequence:
#
# PCOD8183161 Si02
#       8
#     8   8   8   8   8   8   8   8
#     4  10  19  33  55  86 121 157 196 235 287 347
#     4  11  24  42  63  87 116 153 200 250 300 352
#     4   9  20  36  59  88 123 160 196 245 295 349
#     4   9  20  38  61  86 116 157 199 246 298 351
#     4  12  24  39  59  87 121 158 196 240 293 353
#     4  10  20  36  59  88 122 160 199 241 294 348
#     4   9  17  32  56  83 117 156 193 235 289 348
#     4  12  25  42  63  87 118 157 199 246 294 351
#
# _framework density 19.776903999999998
#
# number of rings (size 3 to 8) (size 9 to 14) (size 15 to 20)
#    0.000    1.750    1.250    3.375    1.750    2.000 
#    0.000    0.625    0.000    1.500    0.000    0.000 
#    0.000    0.000    0.000    0.000    0.000    0.000 
#
# Total GULP energy -396863.157286 kJ/mol
# GULP energy per Si atom -12401.973665 kJ/mol
# Density = 1.973189 g / cm^3
# Si number density = 19.776904 Si / 1000 Ang^3
#
#
#
# Elastic Constant Matrix: (Units=GPa)
#
#
# Indices 1 2 3 4 5 6 
#
# 1 78.1025 35.1757 26.3482 0.0000 0.0000 0.0000
# 2 35.1757 101.8016 33.1572 0.0000 0.0000 0.0000
# 3 26.3482 33.1572 79.5976 0.0000 0.0000 0.0000
# 4 0.0000 0.0000 0.0000 30.0220 0.0000 0.0000
# 5 0.0000 0.0000 0.0000 0.0000 29.3685 0.0000
# 6 0.0000 0.0000 0.0000 0.0000 0.0000 30.2517
#
#
#
# Elastic Compliance Matrix: (Units=1/GPa)
#
#
# Indices 1 2 3 4 5 6 
#
# 1 0.015943 -0.004385 -0.003451 0.000000 0.000000 0.000000
# 2 -0.004385 0.012571 -0.003785 0.000000 0.000000 0.000000
# 3 -0.003451 -0.003785 0.015282 0.000000 0.000000 0.000000
# 4 0.000000 0.000000 0.000000 0.033309 0.000000 0.000000
# 5 0.000000 0.000000 0.000000 0.000000 0.034050 0.000000
# 6 0.000000 0.000000 0.000000 0.000000 0.000000 0.033056
#
#
# Mechanical properties :
#
#
# Convention : Reuss Voigt Hill
#
# Bulk Modulus (GPa) = 48.65128 49.87377 49.26253
# Shear Modulus (GPa) = 28.68561 28.91649 28.80105
#
# Velocity S-wave (km/s) = 3.81262 3.82794 3.82029
# Velocity P-wave (km/s) = 6.63588 6.69406 6.66503
#
# Compressibility (1/GPa) = 0.02055444
#
# Stress axis : x y z
#
# Youngs Moduli (GPa) = 62.72494 79.54861 65.43563
#
# Poissons Ratio (x) = 0.34880 0.22580
# Poissons Ratio (y) = 0.27503 0.24768
# Poissons Ratio (z) = 0.21645 0.30110
#
# Static dielectric constant tensor:
#      x y z
#    x 3.535720 0.000000 0.000000 
#    y 0.000000 3.731410 0.000000 
#    z 0.000000 0.000000 3.532870 
# 
# 
# High freq. dielectric constant tensor:
#      x y z
#    x 1.766880 0.000000 0.000000 
#    y 0.000000 1.769610 0.000000 
#    z 0.000000 0.000000 1.763130 
# 
# From -- ./inp_files/15599.got.cif
#   From: 2010.03.12/outbox.cif.g09.slc.cpg/sg40_8_cif.got.tgz:15599.got - 2010.04.14 01:38:03.
