data_PCOD8183560
_publ_section_title
;
Structure prediction by ZEFSAII (Michael W. Deem and Ramdas Pophale) SiO2 
 PCOD8183560
Probable space group: A M A 2
;
_chemical_formula_sum "Si O2"
_cell_formula_units_Z 56
_cell_length_a 8.661955
_cell_length_b 15.786397
_cell_length_c 19.890801
_cell_angle_alpha 90.000000
_cell_angle_beta 90.000000
_cell_angle_gamma 90.000000
_cell_volume 2719.889221
_symmetry_space_group_name_H-M "A M A 2"
_symmetry_group_IT_number 40
_symmetry_cell_setting 'orthorhombic'
loop_
_space_group_symop_operation_xyz
x,y,z
-x,-y,z
1/2-x,y,z
1/2+x,-y,z
x,1/2+y,1/2+z
-x,1/2-y,1/2+z
1/2-x,1/2+y,1/2+z
1/2+x,1/2-y,1/2+z
loop_
_atom_site_type_symbol
_atom_site_label
_atom_site_fract_x
_atom_site_fract_y
_atom_site_fract_z
Si Si1 0.933909 0.407124 0.419750
Si Si2 0.577812 0.918372 0.646230
Si Si3 0.081357 0.120665 0.500213
Si Si4 0.567490 0.757627 0.821306
Si Si5 0.570956 0.250922 0.675122
Si Si6 0.573902 0.082725 0.373442
Si Si7 0.931163 0.689918 0.543352
O O1 0.750000 0.411609 0.420978
O O2 0.993679 0.340790 0.361895
O O3 0.000000 0.500000 0.402376
O O4 0.992162 0.378363 0.493476
O O5 0.750000 0.899628 0.677490
O O6 0.596740 0.934531 0.567294
O O7 0.454063 0.844208 0.650904
O O8 0.500000 0.000000 0.681480
O O9 0.250000 0.119327 0.464087
O O10 0.032978 0.217428 0.514857
O O11 0.952443 0.077310 0.453573
O O12 0.750000 0.757936 0.828112
O O13 0.520727 0.749836 0.744473
O O14 0.496160 0.671694 0.852634
O O15 0.750000 0.271502 0.686164
O O16 0.502482 0.315969 0.619184
O O17 0.750000 0.081406 0.353060
O O18 0.500000 0.000000 0.337789
O O19 0.750000 0.671449 0.549262
#
# Coordination Sequence:
#
# PCOD8183560 Si02
#       7
#     8   8   8   8   8   8   8
#     4  11  23  41  66  97 130 169 218 269 325 388
#     4  10  20  34  52  80 116 154 195 243 297 360
#     4   9  18  32  54  83 115 150 187 234 289 347
#     4  10  23  43  62  86 125 167 208 261 319 381
#     4  11  23  38  61  87 117 162 209 259 319 383
#     4  11  22  36  57  85 117 154 192 241 298 357
#     4  10  20  38  63  90 122 160 205 259 311 368
#
# _framework density 20.589074
#
# number of rings (size 3 to 8) (size 9 to 14) (size 15 to 20)
#    0.000    1.714    1.429    4.286    0.000    6.857 
#    0.000    2.143    0.000    1.714    0.000    0.000 
#    0.000    0.000    0.000    0.000    0.000    0.000 
#
# Total GULP energy -346945.999563 kJ/mol
# GULP energy per Si atom -12390.928556 kJ/mol
# Density = 2.054221 g / cm^3
# Si number density = 20.589074 Si / 1000 Ang^3
#
#
#
# Elastic Constant Matrix: (Units=GPa)
#
#
# Indices 1 2 3 4 5 6 
#
# 1 56.8750 35.7264 9.4394 0.0000 0.0000 0.0000
# 2 35.7264 128.3469 41.7289 0.0000 0.0000 0.0000
# 3 9.4394 41.7289 100.6600 0.0000 0.0000 0.0000
# 4 0.0000 0.0000 0.0000 12.6929 0.0000 0.0000
# 5 0.0000 0.0000 0.0000 0.0000 29.7810 0.0000
# 6 0.0000 0.0000 0.0000 0.0000 0.0000 29.1574
#
#
#
# Elastic Compliance Matrix: (Units=1/GPa)
#
#
# Indices 1 2 3 4 5 6 
#
# 1 0.021333 -0.006112 0.000533 0.000000 0.000000 0.000000
# 2 -0.006112 0.010756 -0.003886 0.000000 0.000000 0.000000
# 3 0.000533 -0.003886 0.011495 0.000000 0.000000 0.000000
# 4 0.000000 0.000000 0.000000 0.078784 0.000000 0.000000
# 5 0.000000 0.000000 0.000000 0.000000 0.033578 0.000000
# 6 0.000000 0.000000 0.000000 0.000000 0.000000 0.034297
#
#
# Mechanical properties :
#
#
# Convention : Reuss Voigt Hill
#
# Bulk Modulus (GPa) = 40.55860 51.07458 45.81659
# Shear Modulus (GPa) = 23.00006 27.59207 25.29607
#
# Velocity S-wave (km/s) = 3.34593 3.66475 3.50896
# Velocity P-wave (km/s) = 5.88803 6.53970 6.22240
#
# Compressibility (1/GPa) = 0.02465568
#
# Stress axis : x y z
#
# Youngs Moduli (GPa) = 46.87585 92.97178 86.99197
#
# Poissons Ratio (x) = 0.56820 -0.04637
# Poissons Ratio (y) = 0.28648 0.33803
# Poissons Ratio (z) = -0.02499 0.36127
#
# Static dielectric constant tensor:
#      x y z
#    x 3.862840 0.000000 0.000000 
#    y 0.000000 3.936590 0.000000 
#    z 0.000000 0.000000 3.769540 
# 
# 
# High freq. dielectric constant tensor:
#      x y z
#    x 1.805400 0.000000 0.000000 
#    y 0.000000 1.800830 0.000000 
#    z 0.000000 0.000000 1.789970 
# 
# From -- ./inp_files/22177.got.cif
#   From: 2010.03.12/outbox.cif.g09.slc.cpg/sg40_12_cif.got.tgz:22177.got - 2010.04.14 01:38:03.
