data_PCOD8183140
_publ_section_title
;
Structure prediction by ZEFSAII (Michael W. Deem and Ramdas Pophale) SiO2 
 PCOD8183140
Probable space group: A M A 2
;
_chemical_formula_sum "Si O2"
_cell_formula_units_Z 56
_cell_length_a 8.638197
_cell_length_b 14.407644
_cell_length_c 22.143257
_cell_angle_alpha 90.000000
_cell_angle_beta 90.000000
_cell_angle_gamma 90.000000
_cell_volume 2755.862681
_symmetry_space_group_name_H-M "A M A 2"
_symmetry_group_IT_number 40
_symmetry_cell_setting 'orthorhombic'
loop_
_space_group_symop_operation_xyz
x,y,z
-x,-y,z
1/2-x,y,z
1/2+x,-y,z
x,1/2+y,1/2+z
-x,1/2-y,1/2+z
1/2-x,1/2+y,1/2+z
1/2+x,1/2-y,1/2+z
loop_
_atom_site_type_symbol
_atom_site_label
_atom_site_fract_x
_atom_site_fract_y
_atom_site_fract_z
Si Si1 0.930214 0.101257 0.416710
Si Si2 0.433107 0.097696 0.632449
Si Si3 0.426212 0.711367 0.810740
Si Si4 0.567342 0.598666 0.565219
Si Si5 0.933543 0.218012 0.529718
Si Si6 0.430467 0.595305 0.694596
Si Si7 0.569373 0.093878 0.762951
O O1 0.750000 0.087818 0.424342
O O2 0.997790 0.154106 0.475255
O O3 0.961370 0.163069 0.357908
O O4 0.000000 0.000000 0.409422
O O5 0.250000 0.098370 0.624835
O O6 0.506919 0.178832 0.593032
O O7 0.478798 0.115060 0.701453
O O8 0.500000 0.000000 0.608845
O O9 0.250000 0.688586 0.829411
O O10 0.459735 0.674894 0.743454
O O11 0.456554 0.821963 0.809753
O O12 0.500000 0.500000 0.544097
O O13 0.750000 0.595740 0.560072
O O14 0.500973 0.678440 0.521383
O O15 0.518236 0.622513 0.633579
O O16 0.750000 0.223113 0.529594
O O17 0.500000 0.500000 0.721271
O O18 0.250000 0.582039 0.679540
O O19 0.750000 0.080709 0.747546
O O20 0.500000 0.000000 0.792675
#
# Coordination Sequence:
#
# PCOD8183140 Si02
#       7
#     8   8   8   8   8   8   8
#     4  11  25  42  63  86 113 147 186 232 281 333
#     4  11  21  34  56  87 119 154 190 233 286 342
#     4  10  22  38  58  82 113 151 191 234 283 333
#     4  11  22  37  59  87 117 152 189 234 285 338
#     4  11  23  40  59  83 114 151 193 238 284 337
#     4  10  19  33  54  83 117 152 187 231 283 339
#     4  10  20  36  57  84 117 153 189 234 284 336
#
# _framework density 20.320315000000001
#
# number of rings (size 3 to 8) (size 9 to 14) (size 15 to 20)
#    0.000    1.429    0.000    7.714    0.000    8.000 
#    0.000    0.714    0.000    1.714    0.000    0.000 
#    0.000    0.000    0.000    0.000    0.000    0.000 
#
# Total GULP energy -347313.127475 kJ/mol
# GULP energy per Si atom -12404.040267 kJ/mol
# Density = 2.027406 g / cm^3
# Si number density = 20.320315 Si / 1000 Ang^3
#
#
#
# Elastic Constant Matrix: (Units=GPa)
#
#
# Indices 1 2 3 4 5 6 
#
# 1 110.7802 45.3774 24.9164 0.0000 0.0000 0.0000
# 2 45.3774 151.6618 48.2847 0.0000 0.0000 0.0000
# 3 24.9164 48.2847 55.7280 0.0000 0.0000 0.0000
# 4 0.0000 0.0000 0.0000 28.3630 0.0000 0.0000
# 5 0.0000 0.0000 0.0000 0.0000 16.9198 0.0000
# 6 0.0000 0.0000 0.0000 0.0000 0.0000 37.5873
#
#
#
# Elastic Compliance Matrix: (Units=1/GPa)
#
#
# Indices 1 2 3 4 5 6 
#
# 1 0.010583 -0.002292 -0.002746 0.000000 0.000000 0.000000
# 2 -0.002292 0.009602 -0.007294 0.000000 0.000000 0.000000
# 3 -0.002746 -0.007294 0.025492 0.000000 0.000000 0.000000
# 4 0.000000 0.000000 0.000000 0.035257 0.000000 0.000000
# 5 0.000000 0.000000 0.000000 0.000000 0.059103 0.000000
# 6 0.000000 0.000000 0.000000 0.000000 0.000000 0.026605
#
#
# Mechanical properties :
#
#
# Convention : Reuss Voigt Hill
#
# Bulk Modulus (GPa) = 47.59124 61.70300 54.64712
# Shear Modulus (GPa) = 25.21293 29.88011 27.54652
#
# Velocity S-wave (km/s) = 3.52628 3.83881 3.68586
# Velocity P-wave (km/s) = 6.32858 7.07670 6.71307
#
# Compressibility (1/GPa) = 0.02101227
#
# Stress axis : x y z
#
# Youngs Moduli (GPa) = 94.48703 104.14672 39.22794
#
# Poissons Ratio (x) = 0.23875 0.10771
# Poissons Ratio (y) = 0.21661 0.28614
# Poissons Ratio (z) = 0.25943 0.75969
#
# Static dielectric constant tensor:
#      x y z
#    x 3.764530 0.000000 0.000000 
#    y 0.000000 4.181280 0.000000 
#    z 0.000000 0.000000 3.437960 
# 
# 
# High freq. dielectric constant tensor:
#      x y z
#    x 1.804720 0.000000 0.000000 
#    y 0.000000 1.813490 0.000000 
#    z 0.000000 0.000000 1.765730 
# 
# From -- ./inp_files/22163.got.cif
#   From: 2010.03.12/outbox.cif.g09.slc.cpg/sg40_12_cif.got.tgz:22163.got - 2010.04.14 01:38:03.
