data_PCOD8183562
_publ_section_title
;
Structure prediction by ZEFSAII (Michael W. Deem and Ramdas Pophale) SiO2 
 PCOD8183562
Probable space group: A M A 2
;
_chemical_formula_sum "Si O2"
_cell_formula_units_Z 56
_cell_length_a 9.291914
_cell_length_b 23.815753
_cell_length_c 13.774134
_cell_angle_alpha 90.000000
_cell_angle_beta 90.000000
_cell_angle_gamma 90.000000
_cell_volume 3048.132228
_symmetry_space_group_name_H-M "A M A 2"
_symmetry_group_IT_number 40
_symmetry_cell_setting 'orthorhombic'
loop_
_space_group_symop_operation_xyz
x,y,z
-x,-y,z
1/2-x,y,z
1/2+x,-y,z
x,1/2+y,1/2+z
-x,1/2-y,1/2+z
1/2-x,1/2+y,1/2+z
1/2+x,1/2-y,1/2+z
loop_
_atom_site_type_symbol
_atom_site_label
_atom_site_fract_x
_atom_site_fract_y
_atom_site_fract_z
Si Si1 0.580557 0.056025 0.207180
Si Si2 0.916012 0.127162 0.605718
Si Si3 0.920043 0.167342 0.105477
Si Si4 0.086310 0.944798 0.787414
Si Si5 0.421004 0.221231 0.713026
Si Si6 0.080206 0.330484 0.387370
Si Si7 0.583894 0.554396 0.928867
O O1 0.750000 0.046847 0.192571
O O2 0.519454 0.108148 0.144947
O O3 0.542637 0.069926 0.318951
O O4 0.500000 0.000000 0.171923
O O5 0.750000 0.147123 0.615666
O O6 0.943782 0.074720 0.677331
O O7 0.954114 0.107499 0.496858
O O8 0.020488 0.178009 0.632682
O O9 0.750000 0.162588 0.101958
O O10 0.966832 0.216982 0.177461
O O11 0.975807 0.179572 0.996646
O O12 0.250000 0.961619 0.802907
O O13 0.042669 0.894428 0.859487
O O14 0.000000 0.000000 0.815077
O O15 0.250000 0.214337 0.721917
O O16 0.493860 0.211746 0.817502
O O17 0.250000 0.318804 0.374368
O O18 0.500000 0.500000 0.965738
O O19 0.750000 0.538997 0.939131
#
# Coordination Sequence:
#
# PCOD8183562 Si02
#       7
#     8   8   8   8   8   8   8
#     4   9  18  34  53  75 103 133 166 207 248 294
#     4   9  18  32  48  70 102 140 171 200 248 303
#     4   9  19  36  56  74  99 135 167 197 247 304
#     4   9  17  28  45  68  95 128 165 201 242 288
#     4  10  20  34  53  78 101 126 166 213 250 287
#     4   9  19  37  54  70  99 137 167 198 247 304
#     4   9  17  29  48  73 102 135 170 206 249 296
#
# _framework density 18.371905999999999
#
# number of rings (size 3 to 8) (size 9 to 14) (size 15 to 20)
#    0.000    2.857    0.000    1.714    0.000    4.571 
#    0.000    5.000    0.000    0.000    0.000    0.000 
#    0.000    0.000    0.000    0.000    0.000    0.000 
#
# Total GULP energy -347172.061433 kJ/mol
# GULP energy per Si atom -12399.002194 kJ/mol
# Density = 1.833009 g / cm^3
# Si number density = 18.371906 Si / 1000 Ang^3
#
#
#
# Elastic Constant Matrix: (Units=GPa)
#
#
# Indices 1 2 3 4 5 6 
#
# 1 53.0301 52.1305 42.4809 0.0000 0.0000 0.0000
# 2 52.1305 136.9772 77.6001 0.0000 0.0000 0.0000
# 3 42.4809 77.6001 122.4946 0.0000 0.0000 0.0000
# 4 0.0000 0.0000 0.0000 22.3525 0.0000 0.0000
# 5 0.0000 0.0000 0.0000 0.0000 22.4996 0.0000
# 6 0.0000 0.0000 0.0000 0.0000 0.0000 27.9967
#
#
#
# Elastic Compliance Matrix: (Units=1/GPa)
#
#
# Indices 1 2 3 4 5 6 
#
# 1 0.032200 -0.009247 -0.005309 0.000000 0.000000 0.000000
# 2 -0.009247 0.014043 -0.005689 0.000000 0.000000 0.000000
# 3 -0.005309 -0.005689 0.013609 0.000000 0.000000 0.000000
# 4 0.000000 0.000000 0.000000 0.044738 0.000000 0.000000
# 5 0.000000 0.000000 0.000000 0.000000 0.044445 0.000000
# 6 0.000000 0.000000 0.000000 0.000000 0.000000 0.035718
#
#
# Mechanical properties :
#
#
# Convention : Reuss Voigt Hill
#
# Bulk Modulus (GPa) = 51.64917 72.99165 62.32041
# Shear Modulus (GPa) = 21.57984 23.92246 22.75115
#
# Velocity S-wave (km/s) = 3.43098 3.61241 3.52286
# Velocity P-wave (km/s) = 6.62342 7.56410 7.10933
#
# Compressibility (1/GPa) = 0.01936139
#
# Stress axis : x y z
#
# Youngs Moduli (GPa) = 31.05560 71.21113 73.48162
#
# Poissons Ratio (x) = 0.65850 0.39011
# Poissons Ratio (y) = 0.28717 0.41805
# Poissons Ratio (z) = 0.16487 0.40513
#
# Static dielectric constant tensor:
#      x y z
#    x 3.201370 0.000000 0.000000 
#    y 0.000000 3.330880 0.000000 
#    z 0.000000 0.000000 3.566540 
# 
# 
# High freq. dielectric constant tensor:
#      x y z
#    x 1.693610 0.000000 0.000000 
#    y 0.000000 1.706410 0.000000 
#    z 0.000000 0.000000 1.716300 
# 
# From -- ./inp_files/15288.got.cif
#   From: 2010.03.12/outbox.cif.g09.slc.cpg/sg40_8_cif.got.tgz:15288.got - 2010.04.14 01:38:03.
