data_PCOD8183429
_publ_section_title
;
Structure prediction by ZEFSAII (Michael W. Deem and Ramdas Pophale) SiO2 
 PCOD8183429
Probable space group: A M A 2
;
_chemical_formula_sum "Si O2"
_cell_formula_units_Z 56
_cell_length_a 15.385127
_cell_length_b 20.735048
_cell_length_c 8.834224
_cell_angle_alpha 90.000000
_cell_angle_beta 90.000000
_cell_angle_gamma 90.000000
_cell_volume 2818.217696
_symmetry_space_group_name_H-M "A M A 2"
_symmetry_group_IT_number 40
_symmetry_cell_setting 'orthorhombic'
loop_
_space_group_symop_operation_xyz
x,y,z
-x,-y,z
1/2-x,y,z
1/2+x,-y,z
x,1/2+y,1/2+z
-x,1/2-y,1/2+z
1/2-x,1/2+y,1/2+z
1/2+x,1/2-y,1/2+z
loop_
_atom_site_type_symbol
_atom_site_label
_atom_site_fract_x
_atom_site_fract_y
_atom_site_fract_z
Si Si1 0.847193 0.532352 0.334300
Si Si2 0.847958 0.271755 0.862265
Si Si3 0.976158 0.570133 0.592703
Si Si4 0.970269 0.670233 0.842699
Si Si5 0.915879 0.394041 0.327423
Si Si6 0.343739 0.730619 0.218467
Si Si7 0.090905 0.852375 0.676307
O O1 0.750000 0.517314 0.387761
O O2 0.897857 0.563816 0.474382
O O3 0.889993 0.466070 0.275944
O O4 0.847460 0.585114 0.199459
O O5 0.750000 0.296762 0.817801
O O6 0.868006 0.208124 0.764825
O O7 0.924587 0.324317 0.837894
O O8 0.850209 0.258721 0.039848
O O9 0.944030 0.612007 0.733203
O O10 0.000000 0.500000 0.657157
O O11 0.058801 0.603339 0.506502
O O12 0.929019 0.736487 0.784895
O O13 0.922082 0.660802 0.000504
O O14 0.841590 0.342974 0.282306
O O15 0.996927 0.370753 0.232996
O O16 0.250000 0.759708 0.270187
#
# Coordination Sequence:
#
# PCOD8183429 Si02
#       7
#     8   8   8   8   8   8   8
#     4  10  21  39  62  89 122 164 212 257 302 368
#     4  11  23  41  62  89 124 165 206 257 317 370
#     4   9  22  40  64  85 118 165 211 250 317 366
#     4  12  23  40  62  90 127 162 204 261 312 373
#     4  10  19  39  62  88 117 162 204 252 304 369
#     4  11  23  38  62  93 122 160 205 253 313 375
#     4  11  22  37  62  89 122 161 210 248 311 371
#
# _framework density 19.870715000000001
#
# number of rings (size 3 to 8) (size 9 to 14) (size 15 to 20)
#    0.000    1.429    2.857    3.857    2.000    4.000 
#    0.000    2.857    0.000    0.000    0.000    0.000 
#    0.000    0.000    0.000    0.000    0.000    0.000 
#
# Total GULP energy -346960.465465 kJ/mol
# GULP energy per Si atom -12391.445195 kJ/mol
# Density = 1.982549 g / cm^3
# Si number density = 19.870715 Si / 1000 Ang^3
#
#
#
# Elastic Constant Matrix: (Units=GPa)
#
#
# Indices 1 2 3 4 5 6 
#
# 1 116.8194 26.3758 32.4129 0.0000 0.0000 0.0000
# 2 26.3758 103.1194 64.3807 0.0000 0.0000 0.0000
# 3 32.4129 64.3807 111.5650 0.0000 0.0000 0.0000
# 4 0.0000 0.0000 0.0000 25.8722 0.0000 0.0000
# 5 0.0000 0.0000 0.0000 0.0000 10.5775 0.0000
# 6 0.0000 0.0000 0.0000 0.0000 0.0000 -0.2798
#
#
#
# Elastic Compliance Matrix: (Units=1/GPa)
#
#
# Indices 1 2 3 4 5 6 
#
# 1 0.009389 -0.001092 -0.002098 0.000000 0.000000 0.000000
# 2 -0.001092 0.015286 -0.008504 0.000000 0.000000 0.000000
# 3 -0.002098 -0.008504 0.014480 0.000000 0.000000 0.000000
# 4 0.000000 0.000000 0.000000 0.038651 0.000000 0.000000
# 5 0.000000 0.000000 0.000000 0.000000 0.094541 0.000000
# 6 0.000000 0.000000 0.000000 0.000000 0.000000 -3.573936
#
#
# Mechanical properties :
#
#
# Convention : Reuss Voigt Hill
#
# Bulk Modulus (GPa) = 63.41875 64.20472 63.81173
# Shear Modulus (GPa) = -1.48238 21.12293 9.82028
#
# Velocity S-wave (km/s) = -0.86466 3.26393 2.22549
# Velocity P-wave (km/s) = 5.56670 6.82537 6.22791
#
# Compressibility (1/GPa) = 0.01576821
#
# Stress axis : x y z
#
# Youngs Moduli (GPa) = 106.51039 65.41929 69.06008
#
# Poissons Ratio (x) = 0.07143 0.14486
# Poissons Ratio (y) = 0.11629 0.58728
# Poissons Ratio (z) = 0.22342 0.55632
#
# Static dielectric constant tensor:
#      x y z
#    x 3.936200 0.000000 0.000000 
#    y 0.000000 3.817220 0.000000 
#    z 0.000000 0.000000 3.572300 
# 
# 
# High freq. dielectric constant tensor:
#      x y z
#    x 1.784560 0.000000 0.000000 
#    y 0.000000 1.774230 0.000000 
#    z 0.000000 0.000000 1.760610 
# 
# From -- ./inp_files/6750.got.cif
#   From: 2010.03.12/outbox.cif.g09.slc.cpg/sg40_4_cif.got.tgz:6750.got - 2010.04.14 01:38:03.
