data_PCOD8183615
_publ_section_title
;
Structure prediction by ZEFSAII (Michael W. Deem and Ramdas Pophale) SiO2 
 PCOD8183615
Probable space group: A M A 2
;
_chemical_formula_sum "Si O2"
_cell_formula_units_Z 64
_cell_length_a 15.475217
_cell_length_b 17.121209
_cell_length_c 11.898074
_cell_angle_alpha 90.000000
_cell_angle_beta 90.000000
_cell_angle_gamma 90.000000
_cell_volume 3152.447350
_symmetry_space_group_name_H-M "A M A 2"
_symmetry_group_IT_number 40
_symmetry_cell_setting 'orthorhombic'
loop_
_space_group_symop_operation_xyz
x,y,z
-x,-y,z
1/2-x,y,z
1/2+x,-y,z
x,1/2+y,1/2+z
-x,1/2-y,1/2+z
1/2-x,1/2+y,1/2+z
1/2+x,1/2-y,1/2+z
loop_
_atom_site_type_symbol
_atom_site_label
_atom_site_fract_x
_atom_site_fract_y
_atom_site_fract_z
Si Si1 0.580050 0.450113 0.267690
Si Si2 0.152474 0.789673 0.733076
Si Si3 0.025721 0.211707 0.844631
Si Si4 0.652658 0.558905 0.095616
Si Si5 0.344686 0.012833 0.997089
Si Si6 0.057132 0.929828 0.178551
Si Si7 0.350997 0.358765 0.870346
Si Si8 0.580253 0.334413 0.581733
O O1 0.500000 0.500000 0.310679
O O2 0.559108 0.357356 0.260433
O O3 0.606830 0.480204 0.142345
O O4 0.649454 0.469927 0.364032
O O5 0.250000 0.772900 0.781230
O O6 0.146254 0.879672 0.697653
O O7 0.138038 0.738469 0.620519
O O8 0.075282 0.768136 0.819209
O O9 0.092093 0.283386 0.840756
O O10 0.026484 0.180818 0.969990
O O11 0.750000 0.535602 0.066848
O O12 0.612903 0.596356 0.981698
O O13 0.250000 0.979310 0.019298
O O14 0.410322 0.950113 0.051675
O O15 0.355787 0.093241 0.065300
O O16 0.136382 0.915891 0.263805
O O17 0.994692 0.853963 0.172464
O O18 0.000000 0.000000 0.228161
O O19 0.250000 0.336010 0.884230
#
# Coordination Sequence:
#
# PCOD8183615 Si02
#       8
#     8   8   8   8   8   8   8   8
#     4  11  21  37  58  89 120 156 200 254 319 372
#     4  11  21  37  61  89 120 164 211 254 309 381
#     4  11  22  38  63  93 125 162 205 268 320 372
#     4  10  22  38  59  87 118 158 205 249 304 379
#     4  10  20  34  57  87 118 150 192 255 307 356
#     4  10  21  38  59  86 115 156 202 248 307 368
#     4  11  23  40  62  90 124 166 211 253 312 387
#     4  10  20  37  60  85 117 153 206 249 306 365
#
# _framework density 20.301686
#
# number of rings (size 3 to 8) (size 9 to 14) (size 15 to 20)
#    0.000    1.500    3.750    3.000    0.000    3.000 
#    0.000    0.625    0.000    0.000    0.000    0.875 
#    0.000    0.000    0.000    0.000    0.000    0.000 
#
# Total GULP energy -396539.954462 kJ/mol
# GULP energy per Si atom -12391.873577 kJ/mol
# Density = 2.025548 g / cm^3
# Si number density = 20.301686 Si / 1000 Ang^3
#
#
#
# Elastic Constant Matrix: (Units=GPa)
#
#
# Indices 1 2 3 4 5 6 
#
# 1 124.4040 41.5968 41.6424 0.0000 0.0000 0.0000
# 2 41.5968 86.5074 37.4193 0.0000 0.0000 0.0000
# 3 41.6424 37.4193 70.4185 0.0000 0.0000 0.0000
# 4 0.0000 0.0000 0.0000 24.1431 0.0000 0.0000
# 5 0.0000 0.0000 0.0000 0.0000 28.8900 0.0000
# 6 0.0000 0.0000 0.0000 0.0000 0.0000 21.6900
#
#
#
# Elastic Compliance Matrix: (Units=1/GPa)
#
#
# Indices 1 2 3 4 5 6 
#
# 1 0.010628 -0.003106 -0.004635 0.000000 0.000000 0.000000
# 2 -0.003106 0.015917 -0.006622 0.000000 0.000000 0.000000
# 3 -0.004635 -0.006622 0.020460 0.000000 0.000000 0.000000
# 4 0.000000 0.000000 0.000000 0.041420 0.000000 0.000000
# 5 0.000000 0.000000 0.000000 0.000000 0.034614 0.000000
# 6 0.000000 0.000000 0.000000 0.000000 0.000000 0.046104
#
#
# Mechanical properties :
#
#
# Convention : Reuss Voigt Hill
#
# Bulk Modulus (GPa) = 54.69987 58.07187 56.38587
# Shear Modulus (GPa) = 24.51442 25.65604 25.08523
#
# Velocity S-wave (km/s) = 3.47869 3.55877 3.51896
# Velocity P-wave (km/s) = 6.56788 6.74930 6.65921
#
# Compressibility (1/GPa) = 0.01828158
#
# Stress axis : x y z
#
# Youngs Moduli (GPa) = 94.08929 62.82467 48.87544
#
# Poissons Ratio (x) = 0.19512 0.22652
# Poissons Ratio (y) = 0.29222 0.32363
# Poissons Ratio (z) = 0.43607 0.41600
#
# Static dielectric constant tensor:
#      x y z
#    x 3.646640 0.000000 0.000000 
#    y 0.000000 3.761300 0.000000 
#    z 0.000000 0.000000 3.535490 
# 
# 
# High freq. dielectric constant tensor:
#      x y z
#    x 1.794600 0.000000 0.000000 
#    y 0.000000 1.787550 0.000000 
#    z 0.000000 0.000000 1.776590 
# 
# From -- ./inp_files/12424.got.cif
#   From: 2010.03.12/outbox.cif.g09.slc.cpg/sg40_7_cif.got.tgz:12424.got - 2010.04.14 01:38:03.
