data_PCOD8183932
_publ_section_title
;
Structure prediction by ZEFSAII (Michael W. Deem and Ramdas Pophale) SiO2 
 PCOD8183932
Probable space group: A M A 2
;
_chemical_formula_sum "Si O2"
_cell_formula_units_Z 48
_cell_length_a 8.724843
_cell_length_b 9.113710
_cell_length_c 30.100058
_cell_angle_alpha 90.000000
_cell_angle_beta 90.000000
_cell_angle_gamma 90.000000
_cell_volume 2393.426848
_symmetry_space_group_name_H-M "A M A 2"
_symmetry_group_IT_number 40
_symmetry_cell_setting 'orthorhombic'
loop_
_space_group_symop_operation_xyz
x,y,z
-x,-y,z
1/2-x,y,z
1/2+x,-y,z
x,1/2+y,1/2+z
-x,1/2-y,1/2+z
1/2-x,1/2+y,1/2+z
1/2+x,1/2-y,1/2+z
loop_
_atom_site_type_symbol
_atom_site_label
_atom_site_fract_x
_atom_site_fract_y
_atom_site_fract_z
Si Si1 0.930396 0.658021 0.495840
Si Si2 0.570373 0.348158 0.076847
Si Si3 0.431510 0.158040 0.252932
Si Si4 0.931830 0.344428 0.177601
Si Si5 0.927488 0.343619 0.330603
Si Si6 0.573234 0.155731 0.418507
O O1 0.750000 0.643794 0.492278
O O2 0.982397 0.717463 0.544249
O O3 0.000000 0.500000 0.487198
O O4 0.986510 0.770678 0.459129
O O5 0.500000 0.500000 0.059672
O O6 0.750000 0.369842 0.074869
O O7 0.517284 0.311993 0.126921
O O8 0.250000 0.146388 0.250435
O O9 0.496586 0.213486 0.206010
O O10 0.479920 0.270634 0.290799
O O11 0.500000 0.000000 0.264275
O O12 0.750000 0.347976 0.183626
O O13 0.000000 0.500000 0.193629
O O14 0.750000 0.358101 0.316813
O O15 0.948601 0.251004 0.374790
O O16 0.000000 0.500000 0.340614
O O17 0.750000 0.137305 0.431414
O O18 0.500000 0.000000 0.408100
#
# Coordination Sequence:
#
# PCOD8183932 Si02
#       6
#     8   8   8   8   8   8
#     4  11  23  39  59  86 120 157 198 243 293 347
#     4   9  20  37  59  86 116 153 196 242 291 347
#     4  12  25  41  61  87 119 155 196 242 294 349
#     4  10  20  38  61  87 119 155 197 242 292 347
#     4  11  24  42  64  90 120 155 195 239 289 345
#     4  11  24  41  63  90 120 155 195 240 291 347
#
# _framework density 20.054928
#
# number of rings (size 3 to 8) (size 9 to 14) (size 15 to 20)
#    0.000    1.333    0.000    5.500    0.000    9.333 
#    0.000    1.667    0.000    0.000    0.000    0.000 
#    0.000    0.000    0.000    0.000    0.000    0.000 
#
# Total GULP energy -297742.433543 kJ/mol
# GULP energy per Si atom -12405.934731 kJ/mol
# Density = 2.000928 g / cm^3
# Si number density = 20.054928 Si / 1000 Ang^3
#
#
#
# Elastic Constant Matrix: (Units=GPa)
#
#
# Indices 1 2 3 4 5 6 
#
# 1 113.3718 51.8471 46.4571 0.0000 0.0000 0.0000
# 2 51.8471 129.7477 40.1891 0.0000 0.0000 0.0000
# 3 46.4571 40.1891 90.1646 0.0000 0.0000 0.0000
# 4 0.0000 0.0000 0.0000 29.8713 0.0000 0.0000
# 5 0.0000 0.0000 0.0000 0.0000 32.3831 0.0000
# 6 0.0000 0.0000 0.0000 0.0000 0.0000 37.2137
#
#
#
# Elastic Compliance Matrix: (Units=1/GPa)
#
#
# Indices 1 2 3 4 5 6 
#
# 1 0.012382 -0.003448 -0.004843 0.000000 0.000000 0.000000
# 2 -0.003448 0.009902 -0.002637 0.000000 0.000000 0.000000
# 3 -0.004843 -0.002637 0.014762 0.000000 0.000000 0.000000
# 4 0.000000 0.000000 0.000000 0.033477 0.000000 0.000000
# 5 0.000000 0.000000 0.000000 0.000000 0.030880 0.000000
# 6 0.000000 0.000000 0.000000 0.000000 0.000000 0.026872
#
#
# Mechanical properties :
#
#
# Convention : Reuss Voigt Hill
#
# Bulk Modulus (GPa) = 65.83419 67.80785 66.82102
# Shear Modulus (GPa) = 32.21798 32.87967 32.54882
#
# Velocity S-wave (km/s) = 4.01245 4.05344 4.03300
# Velocity P-wave (km/s) = 7.37323 7.46938 7.42146
#
# Compressibility (1/GPa) = 0.01518968
#
# Stress axis : x y z
#
# Youngs Moduli (GPa) = 80.76415 100.99180 67.74335
#
# Poissons Ratio (x) = 0.34818 0.32808
# Poissons Ratio (y) = 0.27845 0.17865
# Poissons Ratio (z) = 0.39114 0.26633
#
# Static dielectric constant tensor:
#      x y z
#    x 3.791530 0.000000 0.000000 
#    y 0.000000 3.612420 0.000000 
#    z 0.000000 0.000000 3.941120 
# 
# 
# High freq. dielectric constant tensor:
#      x y z
#    x 1.796020 0.000000 0.000000 
#    y 0.000000 1.790460 0.000000 
#    z 0.000000 0.000000 1.797690 
# 
# From -- ./inp_files/26130.got.cif
#   From: 2010.03.12/outbox.cif.g09.slc.cpg/sg40_14_cif.got.tgz:26130.got - 2010.04.14 01:38:03.
