data_PCOD8183411
_publ_section_title
;
Structure prediction by ZEFSAII (Michael W. Deem and Ramdas Pophale) SiO2 
 PCOD8183411
Probable space group: A M A 2
;
_chemical_formula_sum "Si O2"
_cell_formula_units_Z 48
_cell_length_a 14.521693
_cell_length_b 9.263852
_cell_length_c 18.693326
_cell_angle_alpha 90.000000
_cell_angle_beta 90.000000
_cell_angle_gamma 90.000000
_cell_volume 2514.753604
_symmetry_space_group_name_H-M "A M A 2"
_symmetry_group_IT_number 40
_symmetry_cell_setting 'orthorhombic'
loop_
_space_group_symop_operation_xyz
x,y,z
-x,-y,z
1/2-x,y,z
1/2+x,-y,z
x,1/2+y,1/2+z
-x,1/2-y,1/2+z
1/2-x,1/2+y,1/2+z
1/2+x,1/2-y,1/2+z
loop_
_atom_site_type_symbol
_atom_site_label
_atom_site_fract_x
_atom_site_fract_y
_atom_site_fract_z
Si Si1 0.250000 0.697906 0.696610
Si Si2 0.750000 0.636237 0.952305
Si Si3 0.900431 0.684269 0.445825
Si Si4 0.064983 0.130638 0.585280
Si Si5 0.941343 0.863858 0.128423
Si Si6 0.400797 0.134273 0.961916
Si Si7 0.750000 0.515092 0.113439
Si Si8 0.750000 0.849675 0.363482
O O1 0.157181 0.627987 0.665911
O O2 0.250000 0.865791 0.675744
O O3 0.250000 0.660721 0.779192
O O4 0.662882 0.735943 0.937891
O O5 0.750000 0.511918 0.893273
O O6 0.750000 0.580572 0.033538
O O7 0.898474 0.769521 0.520796
O O8 0.855961 0.523589 0.450280
O O9 0.842780 0.773207 0.388989
O O10 0.004740 0.661574 0.418302
O O11 0.003724 0.220830 0.642995
O O12 0.157038 0.076020 0.624937
O O13 0.000000 0.000000 0.556275
O O14 0.925571 0.859750 0.044549
O O15 0.000000 0.000000 0.154328
#
# Coordination Sequence:
#
# PCOD8183411 Si02
#       8
#     4   4   8   8   8   8   4   4
#     4  12  26  45  59  86 142 183 208 261 352 410
#     4  12  21  36  65  96 123 166 211 278 319 379
#     4  10  20  37  60  92 128 158 212 272 322 384
#     4  11  19  33  64 103 124 154 218 285 329 366
#     4  11  21  40  66  95 126 162 214 276 335 391
#     4  10  19  37  67  96 119 159 213 278 329 368
#     4  12  20  35  65  96 128 164 216 279 321 374
#     4  12  27  40  59  94 131 179 211 262 336 409
#
# _framework density 19.087356
#
# number of rings (size 3 to 8) (size 9 to 14) (size 15 to 20)
#    0.000    1.000    8.333    1.500    0.000    0.667 
#    3.000    3.333    3.667    0.000    0.000    0.000 
#    0.000    0.000    0.000    0.000    0.000    0.000 
#
# Total GULP energy -297443.972720 kJ/mol
# GULP energy per Si atom -12393.498863 kJ/mol
# Density = 1.904391 g / cm^3
# Si number density = 19.087356 Si / 1000 Ang^3
#
#
#
# Elastic Constant Matrix: (Units=GPa)
#
#
# Indices 1 2 3 4 5 6 
#
# 1 157.0497 74.3181 35.8989 0.0000 0.0000 0.0000
# 2 74.3181 155.1664 31.4798 0.0000 0.0000 0.0000
# 3 35.8989 31.4798 40.3087 0.0000 0.0000 0.0000
# 4 0.0000 0.0000 0.0000 16.6222 0.0000 0.0000
# 5 0.0000 0.0000 0.0000 0.0000 19.2477 0.0000
# 6 0.0000 0.0000 0.0000 0.0000 0.0000 52.8568
#
#
#
# Elastic Compliance Matrix: (Units=1/GPa)
#
#
# Indices 1 2 3 4 5 6 
#
# 1 0.009202 -0.003261 -0.005648 0.000000 0.000000 0.000000
# 2 -0.003261 0.008814 -0.003979 0.000000 0.000000 0.000000
# 3 -0.005648 -0.003979 0.032946 0.000000 0.000000 0.000000
# 4 0.000000 0.000000 0.000000 0.060161 0.000000 0.000000
# 5 0.000000 0.000000 0.000000 0.000000 0.051954 0.000000
# 6 0.000000 0.000000 0.000000 0.000000 0.000000 0.018919
#
#
# Mechanical properties :
#
#
# Convention : Reuss Voigt Hill
#
# Bulk Modulus (GPa) = 39.70585 70.65761 55.18173
# Shear Modulus (GPa) = 23.13023 31.80054 27.46538
#
# Velocity S-wave (km/s) = 3.48488 4.08616 3.79744
# Velocity P-wave (km/s) = 6.08604 7.70459 6.94264
#
# Compressibility (1/GPa) = 0.02518520
#
# Stress axis : x y z
#
# Youngs Moduli (GPa) = 108.67431 113.45603 30.35268
#
# Poissons Ratio (x) = 0.37003 0.17143
# Poissons Ratio (y) = 0.35443 0.12077
# Poissons Ratio (z) = 0.61380 0.45142
#
# Static dielectric constant tensor:
#      x y z
#    x 3.806280 0.000000 0.000000 
#    y 0.000000 4.093170 0.000000 
#    z 0.000000 0.000000 2.996920 
# 
# 
# High freq. dielectric constant tensor:
#      x y z
#    x 1.769340 0.000000 0.000000 
#    y 0.000000 1.764850 0.000000 
#    z 0.000000 0.000000 1.672860 
# 
# From -- ./inp_files/20609.got.cif
#   From: 2010.03.12/outbox.cif.g09.slc.cpg/sg40_11_cif.got.tgz:20609.got - 2010.04.14 01:38:03.
