data_PCOD8183006
_publ_section_title
;
Structure prediction by ZEFSAII (Michael W. Deem and Ramdas Pophale) SiO2 
 PCOD8183006
Probable space group: A M A 2
;
_chemical_formula_sum "Si O2"
_cell_formula_units_Z 64
_cell_length_a 8.787917
_cell_length_b 14.779831
_cell_length_c 27.076238
_cell_angle_alpha 90.000000
_cell_angle_beta 90.000000
_cell_angle_gamma 90.000000
_cell_volume 3516.768150
_symmetry_space_group_name_H-M "A M A 2"
_symmetry_group_IT_number 40
_symmetry_cell_setting 'orthorhombic'
loop_
_space_group_symop_operation_xyz
x,y,z
-x,-y,z
1/2-x,y,z
1/2+x,-y,z
x,1/2+y,1/2+z
-x,1/2-y,1/2+z
1/2-x,1/2+y,1/2+z
1/2+x,1/2-y,1/2+z
loop_
_atom_site_type_symbol
_atom_site_label
_atom_site_fract_x
_atom_site_fract_y
_atom_site_fract_z
Si Si1 0.426575 0.906533 0.598840
Si Si2 0.070585 0.220075 0.521414
Si Si3 0.071525 0.908676 0.982902
Si Si4 0.931124 0.276119 0.291412
Si Si5 0.428258 0.592298 0.934547
Si Si6 0.068934 0.595446 0.822130
Si Si7 0.571129 0.594817 0.213267
Si Si8 0.430790 0.906212 0.869995
O O1 0.250000 0.915550 0.588697
O O2 0.490547 0.821702 0.568914
O O3 0.463964 0.888636 0.655887
O O4 0.500000 0.000000 0.580223
O O5 0.250000 0.210785 0.528457
O O6 0.019548 0.324539 0.516639
O O7 0.017661 0.171674 0.470872
O O8 0.250000 0.920339 0.984047
O O9 0.018642 0.892274 0.926604
O O10 0.000000 0.000000 0.005022
O O11 0.750000 0.277008 0.293172
O O12 0.993253 0.173763 0.289325
O O13 0.989595 0.324807 0.242168
O O14 0.999036 0.323971 0.339688
O O15 0.500000 0.500000 0.954445
O O16 0.250000 0.579465 0.936084
O O17 0.480643 0.613941 0.878861
O O18 0.250000 0.595303 0.815156
O O19 0.000000 0.500000 0.804226
O O20 0.500000 0.500000 0.230837
O O21 0.750000 0.593855 0.225049
O O22 0.250000 0.906479 0.863067
O O23 0.500000 0.000000 0.849562
#
# Coordination Sequence:
#
# PCOD8183006 Si02
#       8
#     8   8   8   8   8   8   8   8
#     4  10  21  36  55  79 105 133 165 204 253 307
#     4  10  19  32  51  75 103 135 171 210 253 300
#     4   9  19  34  51  72 101 138 176 214 254 297
#     4  12  23  34  52  78 104 135 175 213 256 307
#     4   9  18  31  48  72 103 137 170 205 247 297
#     4  10  20  36  54  74 104 140 177 216 256 298
#     4  10  21  38  57  78 105 134 165 206 256 309
#     4  10  19  33  51  74 106 140 174 212 255 303
#
# _framework density 18.198528
#
# number of rings (size 3 to 8) (size 9 to 14) (size 15 to 20)
#    0.000    2.000    0.000    4.125    0.000    6.500 
#    0.000    1.250    0.000    0.750    0.000    1.750 
#    0.000    0.000    0.000    0.000    0.000    0.000 
#
# Total GULP energy -396892.834391 kJ/mol
# GULP energy per Si atom -12402.901075 kJ/mol
# Density = 1.815711 g / cm^3
# Si number density = 18.198528 Si / 1000 Ang^3
#
#
#
# Elastic Constant Matrix: (Units=GPa)
#
#
# Indices 1 2 3 4 5 6 
#
# 1 87.1647 60.0385 37.6548 0.0000 0.0000 0.0000
# 2 60.0385 163.4854 63.9099 0.0000 0.0000 0.0000
# 3 37.6548 63.9099 70.0423 0.0000 0.0000 0.0000
# 4 0.0000 0.0000 0.0000 25.1240 0.0000 0.0000
# 5 0.0000 0.0000 0.0000 0.0000 26.4605 0.0000
# 6 0.0000 0.0000 0.0000 0.0000 0.0000 35.2544
#
#
#
# Elastic Compliance Matrix: (Units=1/GPa)
#
#
# Indices 1 2 3 4 5 6 
#
# 1 0.016488 -0.004026 -0.005190 0.000000 0.000000 0.000000
# 2 -0.004026 0.010491 -0.007408 0.000000 0.000000 0.000000
# 3 -0.005190 -0.007408 0.023827 0.000000 0.000000 0.000000
# 4 0.000000 0.000000 0.000000 0.039803 0.000000 0.000000
# 5 0.000000 0.000000 0.000000 0.000000 0.037792 0.000000
# 6 0.000000 0.000000 0.000000 0.000000 0.000000 0.028365
#
#
# Mechanical properties :
#
#
# Convention : Reuss Voigt Hill
#
# Bulk Modulus (GPa) = 56.95786 71.54432 64.25109
# Shear Modulus (GPa) = 25.52735 27.97374 26.75055
#
# Velocity S-wave (km/s) = 3.74935 3.92489 3.83812
# Velocity P-wave (km/s) = 7.07880 7.74198 7.41781
#
# Compressibility (1/GPa) = 0.01755684
#
# Stress axis : x y z
#
# Youngs Moduli (GPa) = 60.65084 95.31636 41.96871
#
# Poissons Ratio (x) = 0.38374 0.21783
# Poissons Ratio (y) = 0.24418 0.31092
# Poissons Ratio (z) = 0.31480 0.70615
#
# Static dielectric constant tensor:
#      x y z
#    x 3.397440 0.000000 0.000000 
#    y 0.000000 3.462380 0.000000 
#    z 0.000000 0.000000 3.235980 
# 
# 
# High freq. dielectric constant tensor:
#      x y z
#    x 1.711950 0.000000 0.000000 
#    y 0.000000 1.709440 0.000000 
#    z 0.000000 0.000000 1.683010 
# 
# From -- ./inp_files/26490.got.cif
#   From: 2010.03.12/outbox.cif.g09.slc.cpg/sg40_14_cif.got.tgz:26490.got - 2010.04.14 01:38:03.
