data_PCOD8183685
_publ_section_title
;
Structure prediction by ZEFSAII (Michael W. Deem and Ramdas Pophale) SiO2 
 PCOD8183685
Probable space group: A M A 2
;
_chemical_formula_sum "Si O2"
_cell_formula_units_Z 48
_cell_length_a 8.868768
_cell_length_b 18.696389
_cell_length_c 15.146387
_cell_angle_alpha 90.000000
_cell_angle_beta 90.000000
_cell_angle_gamma 90.000000
_cell_volume 2511.482052
_symmetry_space_group_name_H-M "A M A 2"
_symmetry_group_IT_number 40
_symmetry_cell_setting 'orthorhombic'
loop_
_space_group_symop_operation_xyz
x,y,z
-x,-y,z
1/2-x,y,z
1/2+x,-y,z
x,1/2+y,1/2+z
-x,1/2-y,1/2+z
1/2-x,1/2+y,1/2+z
1/2+x,1/2-y,1/2+z
loop_
_atom_site_type_symbol
_atom_site_label
_atom_site_fract_x
_atom_site_fract_y
_atom_site_fract_z
Si Si1 0.426133 0.686914 0.878530
Si Si2 0.425268 0.187109 0.178122
Si Si3 0.573864 0.924271 0.039009
Si Si4 0.928155 0.153472 0.686985
Si Si5 0.073736 0.161479 0.866550
Si Si6 0.427348 0.424176 0.009777
O O1 0.250000 0.685606 0.901437
O O2 0.456434 0.661997 0.778088
O O3 0.486823 0.766607 0.892928
O O4 0.513929 0.633510 0.941167
O O5 0.250000 0.190689 0.156572
O O6 0.499122 0.131309 0.109701
O O7 0.489230 0.267144 0.162591
O O8 0.750000 0.932799 0.056259
O O9 0.500000 0.000000 0.055057
O O10 0.539704 0.897222 0.940724
O O11 0.750000 0.155315 0.706144
O O12 0.971127 0.099704 0.608689
O O13 0.012648 0.127783 0.775358
O O14 0.250000 0.179155 0.859165
O O15 0.500000 0.500000 0.988599
O O16 0.250000 0.430508 0.998478
#
# Coordination Sequence:
#
# PCOD8183685 Si02
#       6
#     8   8   8   8   8   8
#     4  10  20  36  59  84 110 142 182 227 275 329
#     4   8  16  34  57  78 102 136 177 221 269 318
#     4  10  21  36  53  76 109 145 179 217 265 320
#     4   9  19  37  59  79 104 141 183 228 277 327
#     4  10  20  35  57  83 110 142 182 227 273 324
#     4  11  23  38  56  80 113 150 186 228 280 334
#
# _framework density 19.112223
#
# number of rings (size 3 to 8) (size 9 to 14) (size 15 to 20)
#    0.000    2.333    0.000    3.500    0.000    6.667 
#    0.000    9.167    0.000    0.000    0.000    0.000 
#    0.000    0.000    0.000    0.000    0.000    0.000 
#
# Total GULP energy -297620.044761 kJ/mol
# GULP energy per Si atom -12400.835198 kJ/mol
# Density = 1.906872 g / cm^3
# Si number density = 19.112223 Si / 1000 Ang^3
#
#
#
# Elastic Constant Matrix: (Units=GPa)
#
#
# Indices 1 2 3 4 5 6 
#
# 1 55.3032 16.7532 32.9448 0.0000 0.0000 0.0000
# 2 16.7532 40.9603 7.9600 0.0000 0.0000 0.0000
# 3 32.9448 7.9600 60.2062 0.0000 0.0000 0.0000
# 4 0.0000 0.0000 0.0000 11.4530 0.0000 0.0000
# 5 0.0000 0.0000 0.0000 0.0000 30.3986 0.0000
# 6 0.0000 0.0000 0.0000 0.0000 0.0000 28.4432
#
#
#
# Elastic Compliance Matrix: (Units=1/GPa)
#
#
# Indices 1 2 3 4 5 6 
#
# 1 0.029918 -0.009294 -0.015142 0.000000 0.000000 0.000000
# 2 -0.009294 0.027945 0.001391 0.000000 0.000000 0.000000
# 3 -0.015142 0.001391 0.024712 0.000000 0.000000 0.000000
# 4 0.000000 0.000000 0.000000 0.087314 0.000000 0.000000
# 5 0.000000 0.000000 0.000000 0.000000 0.032896 0.000000
# 6 0.000000 0.000000 0.000000 0.000000 0.000000 0.035158
#
#
# Mechanical properties :
#
#
# Convention : Reuss Voigt Hill
#
# Bulk Modulus (GPa) = 27.40944 30.19841 28.80392
# Shear Modulus (GPa) = 16.88078 20.64639 18.76359
#
# Velocity S-wave (km/s) = 2.97517 3.29031 3.13670
# Velocity P-wave (km/s) = 5.11611 5.50180 5.31246
#
# Compressibility (1/GPa) = 0.03648379
#
# Stress axis : x y z
#
# Youngs Moduli (GPa) = 33.42443 35.78458 40.46676
#
# Poissons Ratio (x) = 0.33259 0.61277
# Poissons Ratio (y) = 0.31065 -0.05630
# Poissons Ratio (z) = 0.50613 -0.04978
#
# Static dielectric constant tensor:
#      x y z
#    x 3.395470 0.000000 0.000000 
#    y 0.000000 3.602270 0.000000 
#    z 0.000000 0.000000 3.691100 
# 
# 
# High freq. dielectric constant tensor:
#      x y z
#    x 1.731420 0.000000 0.000000 
#    y 0.000000 1.739860 0.000000 
#    z 0.000000 0.000000 1.755410 
# 
# From -- ./inp_files/15019.got.cif
#   From: 2010.03.12/outbox.cif.g09.slc.cpg/sg40_8_cif.got.tgz:15019.got - 2010.04.14 01:38:03.
