data_PCOD8183035
_publ_section_title
;
Structure prediction by ZEFSAII (Michael W. Deem and Ramdas Pophale) SiO2 
 PCOD8183035
Probable space group: A M A 2
;
_chemical_formula_sum "Si O2"
_cell_formula_units_Z 64
_cell_length_a 9.035803
_cell_length_b 19.477541
_cell_length_c 20.387935
_cell_angle_alpha 90.000000
_cell_angle_beta 90.000000
_cell_angle_gamma 90.000000
_cell_volume 3588.179175
_symmetry_space_group_name_H-M "A M A 2"
_symmetry_group_IT_number 40
_symmetry_cell_setting 'orthorhombic'
loop_
_space_group_symop_operation_xyz
x,y,z
-x,-y,z
1/2-x,y,z
1/2+x,-y,z
x,1/2+y,1/2+z
-x,1/2-y,1/2+z
1/2-x,1/2+y,1/2+z
1/2+x,1/2-y,1/2+z
loop_
_atom_site_type_symbol
_atom_site_label
_atom_site_fract_x
_atom_site_fract_y
_atom_site_fract_z
Si Si1 0.580641 0.199493 0.717770
Si Si2 0.924086 0.930077 0.915207
Si Si3 0.924333 0.568830 0.871264
Si Si4 0.922450 0.931093 0.763333
Si Si5 0.078494 0.932998 0.522119
Si Si6 0.924510 0.204140 0.960485
Si Si7 0.419977 0.286347 0.070388
Si Si8 0.923437 0.295727 0.836562
O O1 0.750000 0.177045 0.730236
O O2 0.480278 0.132287 0.721165
O O3 0.561568 0.233877 0.646423
O O4 0.530314 0.254307 0.771770
O O5 0.750000 0.934704 0.928164
O O6 0.962070 0.917601 0.839146
O O7 0.992391 0.868080 0.956359
O O8 0.000000 0.000000 0.939963
O O9 0.750000 0.563750 0.860738
O O10 0.000000 0.500000 0.843075
O O11 0.986821 0.633760 0.832136
O O12 0.969854 0.578481 0.946987
O O13 0.750000 0.939971 0.751875
O O14 0.000000 0.000000 0.737783
O O15 0.250000 0.948100 0.527723
O O16 0.031669 0.865721 0.562354
O O17 0.000000 0.000000 0.552377
O O18 0.750000 0.191053 0.960203
O O19 0.972916 0.252465 0.900161
O O20 0.972786 0.238600 0.028415
O O21 0.250000 0.276974 0.046619
O O22 0.750000 0.312274 0.838830
#
# Coordination Sequence:
#
# PCOD8183035 Si02
#       8
#     8   8   8   8   8   8   8   8
#     4  10  21  37  55  76 109 147 182 223 271 322
#     4  10  20  34  55  82 111 142 179 224 273 323
#     4  10  19  32  53  79 107 137 172 219 266 313
#     4  10  20  33  52  77 109 146 184 224 266 320
#     4   9  18  31  48  72 102 137 176 212 254 307
#     4  11  21  34  56  82 109 141 180 227 271 318
#     4  10  21  37  54  76 108 146 183 221 269 322
#     4  10  20  34  54  80 107 140 179 220 266 315
#
# _framework density 17.836345000000001
#
# number of rings (size 3 to 8) (size 9 to 14) (size 15 to 20)
#    0.000    2.000    2.500    1.500    0.000    4.000 
#    0.000    1.250    0.000    0.750    0.000    3.500 
#    0.000    0.000    0.000    0.000    0.000    0.000 
#
# Total GULP energy -396944.738695 kJ/mol
# GULP energy per Si atom -12404.523084 kJ/mol
# Density = 1.779575 g / cm^3
# Si number density = 17.836345 Si / 1000 Ang^3
#
#
#
# Elastic Constant Matrix: (Units=GPa)
#
#
# Indices 1 2 3 4 5 6 
#
# 1 74.2319 53.4835 31.7583 0.0000 0.0000 0.0000
# 2 53.4835 123.7940 45.8980 0.0000 0.0000 0.0000
# 3 31.7583 45.8980 78.0017 0.0000 0.0000 0.0000
# 4 0.0000 0.0000 0.0000 21.6161 0.0000 0.0000
# 5 0.0000 0.0000 0.0000 0.0000 20.9174 0.0000
# 6 0.0000 0.0000 0.0000 0.0000 0.0000 39.0017
#
#
#
# Elastic Compliance Matrix: (Units=1/GPa)
#
#
# Indices 1 2 3 4 5 6 
#
# 1 0.020495 -0.007368 -0.004009 0.000000 0.000000 0.000000
# 2 -0.007368 0.012981 -0.004638 0.000000 0.000000 0.000000
# 3 -0.004009 -0.004638 0.017182 0.000000 0.000000 0.000000
# 4 0.000000 0.000000 0.000000 0.046262 0.000000 0.000000
# 5 0.000000 0.000000 0.000000 0.000000 0.047807 0.000000
# 6 0.000000 0.000000 0.000000 0.000000 0.000000 0.025640
#
#
# Mechanical properties :
#
#
# Convention : Reuss Voigt Hill
#
# Bulk Modulus (GPa) = 53.68588 59.81192 56.74890
# Shear Modulus (GPa) = 23.96853 25.96623 24.96738
#
# Velocity S-wave (km/s) = 3.66977 3.81964 3.74545
# Velocity P-wave (km/s) = 6.93691 7.28419 7.11267
#
# Compressibility (1/GPa) = 0.01862687
#
# Stress axis : x y z
#
# Youngs Moduli (GPa) = 48.79188 77.03546 58.20131
#
# Poissons Ratio (x) = 0.56762 0.23332
# Poissons Ratio (y) = 0.35951 0.26996
# Poissons Ratio (z) = 0.19560 0.35732
#
# Static dielectric constant tensor:
#      x y z
#    x 3.260770 0.000000 0.000000 
#    y 0.000000 3.307800 0.000000 
#    z 0.000000 0.000000 3.096480 
# 
# 
# High freq. dielectric constant tensor:
#      x y z
#    x 1.695100 0.000000 0.000000 
#    y 0.000000 1.692460 0.000000 
#    z 0.000000 0.000000 1.662930 
# 
# From -- ./inp_files/19569.got.cif
#   From: 2010.03.12/outbox.cif.g09.slc.cpg/sg40_10_cif.got.tgz:19569.got - 2010.04.14 01:38:03.
