data_PCOD8183884
_publ_section_title
;
Structure prediction by ZEFSAII (Michael W. Deem and Ramdas Pophale) SiO2 
 PCOD8183884
Probable space group: A M A 2
;
_chemical_formula_sum "Si O2"
_cell_formula_units_Z 56
_cell_length_a 16.623600
_cell_length_b 4.996393
_cell_length_c 31.269797
_cell_angle_alpha 90.000000
_cell_angle_beta 90.000000
_cell_angle_gamma 90.000000
_cell_volume 2597.208009
_symmetry_space_group_name_H-M "A M A 2"
_symmetry_group_IT_number 40
_symmetry_cell_setting 'orthorhombic'
loop_
_space_group_symop_operation_xyz
x,y,z
-x,-y,z
1/2-x,y,z
1/2+x,-y,z
x,1/2+y,1/2+z
-x,1/2-y,1/2+z
1/2-x,1/2+y,1/2+z
1/2+x,1/2-y,1/2+z
loop_
_atom_site_type_symbol
_atom_site_label
_atom_site_fract_x
_atom_site_fract_y
_atom_site_fract_z
Si Si1 0.656343 0.403435 0.353610
Si Si2 0.591982 0.411667 0.898670
Si Si3 0.909508 0.410350 0.534359
Si Si4 0.656986 0.898930 0.489678
Si Si5 0.842948 0.200443 0.263810
Si Si6 0.054737 0.243542 0.126653
Si Si7 0.657031 0.215989 0.709853
O O1 0.750000 0.484267 0.349366
O O2 0.607096 0.670087 0.365543
O O3 0.618945 0.289296 0.309062
O O4 0.646437 0.170364 0.388466
O O5 0.500000 0.500000 0.896868
O O6 0.618008 0.304811 0.945072
O O7 0.851237 0.657330 0.523416
O O8 0.896680 0.332142 0.583789
O O9 0.000000 0.500000 0.525056
O O10 0.890499 0.158883 0.504917
O O11 0.750000 0.971355 0.484062
O O12 0.750000 0.145264 0.273552
O O13 0.856932 0.426319 0.228905
O O14 0.881374 0.932174 0.243046
O O15 0.117905 0.294813 0.163642
O O16 0.000000 0.500000 0.116965
O O17 0.000000 0.000000 0.141912
O O18 0.750000 0.288471 0.703065
#
# Coordination Sequence:
#
# PCOD8183884 Si02
#       7
#     8   8   8   8   8   8   8
#     4  11  22  41  66  90 121 164 214 260 307 369
#     4  12  25  42  62  91 128 164 202 254 319 379
#     4  11  23  43  65  89 124 166 203 249 314 379
#     4  12  25  42  65  94 123 157 208 260 309 369
#     4   9  19  36  60  88 119 158 202 250 303 356
#     4  11  23  41  62  89 124 161 200 244 304 368
#     4  10  20  37  61  89 120 158 204 249 297 356
#
# _framework density 21.561616999999998
#
# number of rings (size 3 to 8) (size 9 to 14) (size 15 to 20)
#    0.000    1.143    0.000    7.714    0.000    3.429 
#    0.000    8.571    0.000    0.000    0.000    0.000 
#    0.000    0.000    0.000    0.000    0.000    0.000 
#
# Total GULP energy -347318.362874 kJ/mol
# GULP energy per Si atom -12404.227246 kJ/mol
# Density = 2.151254 g / cm^3
# Si number density = 21.561617 Si / 1000 Ang^3
#
#
#
# Elastic Constant Matrix: (Units=GPa)
#
#
# Indices 1 2 3 4 5 6 
#
# 1 56.8112 21.3547 47.7838 0.0000 0.0000 0.0000
# 2 21.3547 96.7240 20.4948 0.0000 0.0000 0.0000
# 3 47.7838 20.4948 110.9771 0.0000 0.0000 0.0000
# 4 0.0000 0.0000 0.0000 28.3291 0.0000 0.0000
# 5 0.0000 0.0000 0.0000 0.0000 40.6759 0.0000
# 6 0.0000 0.0000 0.0000 0.0000 0.0000 29.6491
#
#
#
# Elastic Compliance Matrix: (Units=1/GPa)
#
#
# Indices 1 2 3 4 5 6 
#
# 1 0.028946 -0.003902 -0.011743 0.000000 0.000000 0.000000
# 2 -0.003902 0.011286 -0.000404 0.000000 0.000000 0.000000
# 3 -0.011743 -0.000404 0.014142 0.000000 0.000000 0.000000
# 4 0.000000 0.000000 0.000000 0.035299 0.000000 0.000000
# 5 0.000000 0.000000 0.000000 0.000000 0.024585 0.000000
# 6 0.000000 0.000000 0.000000 0.000000 0.000000 0.033728
#
#
# Mechanical properties :
#
#
# Convention : Reuss Voigt Hill
#
# Bulk Modulus (GPa) = 44.89310 49.30877 47.10093
# Shear Modulus (GPa) = 26.66552 31.38941 29.02746
#
# Velocity S-wave (km/s) = 3.52051 3.81963 3.67312
# Velocity P-wave (km/s) = 6.11485 6.50932 6.31516
#
# Compressibility (1/GPa) = 0.02227514
#
# Stress axis : x y z
#
# Youngs Moduli (GPa) = 34.54738 88.60640 70.71378
#
# Poissons Ratio (x) = 0.34579 0.83036
# Poissons Ratio (y) = 0.13482 0.02856
# Poissons Ratio (z) = 0.40568 0.03579
#
# Static dielectric constant tensor:
#      x y z
#    x 3.642820 0.000000 0.000000 
#    y 0.000000 4.095110 0.000000 
#    z 0.000000 0.000000 4.007020 
# 
# 
# High freq. dielectric constant tensor:
#      x y z
#    x 1.825260 0.000000 0.000000 
#    y 0.000000 1.866850 0.000000 
#    z 0.000000 0.000000 1.858690 
# 
# From -- ./inp_files/26598.got.cif
#   From: 2010.03.12/outbox.cif.g09.slc.cpg/sg40_14_cif.got.tgz:26598.got - 2010.04.14 01:38:03.
