data_PCOD8183277
_publ_section_title
;
Structure prediction by ZEFSAII (Michael W. Deem and Ramdas Pophale) SiO2 
 PCOD8183277
Probable space group: A M A 2
;
_chemical_formula_sum "Si O2"
_cell_formula_units_Z 64
_cell_length_a 9.125050
_cell_length_b 30.116634
_cell_length_c 14.168047
_cell_angle_alpha 90.000000
_cell_angle_beta 90.000000
_cell_angle_gamma 90.000000
_cell_volume 3893.603044
_symmetry_space_group_name_H-M "A M A 2"
_symmetry_group_IT_number 40
_symmetry_cell_setting 'orthorhombic'
loop_
_space_group_symop_operation_xyz
x,y,z
-x,-y,z
1/2-x,y,z
1/2+x,-y,z
x,1/2+y,1/2+z
-x,1/2-y,1/2+z
1/2-x,1/2+y,1/2+z
1/2+x,1/2-y,1/2+z
loop_
_atom_site_type_symbol
_atom_site_label
_atom_site_fract_x
_atom_site_fract_y
_atom_site_fract_z
Si Si1 0.417159 0.304931 0.491330
Si Si2 0.080919 0.768665 0.792715
Si Si3 0.579503 0.284527 0.102334
Si Si4 0.076711 0.819874 0.297346
Si Si5 0.576900 0.362960 0.625692
Si Si6 0.921412 0.456305 0.706803
Si Si7 0.583176 0.457982 0.922406
Si Si8 0.582046 0.362101 0.961489
O O1 0.250000 0.315486 0.519782
O O2 0.432948 0.303707 0.378031
O O3 0.464347 0.257831 0.538614
O O4 0.522008 0.345433 0.524138
O O5 0.250000 0.754800 0.777626
O O6 0.016918 0.788147 0.696189
O O7 0.986269 0.727300 0.828362
O O8 0.750000 0.282176 0.130197
O O9 0.542897 0.330191 0.047840
O O10 0.250000 0.818366 0.288162
O O11 0.007453 0.830833 0.196909
O O12 0.027500 0.855054 0.374955
O O13 0.750000 0.356760 0.637255
O O14 0.530999 0.413958 0.643889
O O15 0.750000 0.464247 0.698684
O O16 0.970292 0.447919 0.815174
O O17 0.000000 0.500000 0.665504
O O18 0.500000 0.500000 0.967263
O O19 0.750000 0.472599 0.919668
O O20 0.560253 0.414173 0.987398
O O21 0.750000 0.353774 0.927813
#
# Coordination Sequence:
#
# PCOD8183277 Si02
#       8
#     8   8   8   8   8   8   8   8
#     4  10  21  35  51  73  99 131 167 206 247 290
#     4  11  22  37  52  68 100 136 167 206 251 290
#     4  10  20  34  52  74  99 128 170 209 244 292
#     4  12  22  30  47  73 101 132 171 209 241 286
#     4  11  21  34  51  72 100 135 170 203 245 295
#     4   9  18  31  48  71  99 130 163 198 241 294
#     4   9  17  30  48  70  99 132 163 197 244 294
#     4  10  19  35  52  69 100 138 168 203 250 293
#
# _framework density 16.437215999999999
#
# number of rings (size 3 to 8) (size 9 to 14) (size 15 to 20)
#    0.000    1.750    3.750    1.875    0.000    3.000 
#    0.000    0.000    0.000    0.000    0.000    0.875 
#    0.000    2.000    0.000    0.000    0.000    0.000 
#
# Total GULP energy -396747.504754 kJ/mol
# GULP energy per Si atom -12398.359524 kJ/mol
# Density = 1.639980 g / cm^3
# Si number density = 16.437216 Si / 1000 Ang^3
#
#
#
# Elastic Constant Matrix: (Units=GPa)
#
#
# Indices 1 2 3 4 5 6 
#
# 1 75.0684 38.3870 32.2913 0.0000 0.0000 0.0000
# 2 38.3870 107.1431 30.0217 0.0000 0.0000 0.0000
# 3 32.2913 30.0217 67.9004 0.0000 0.0000 0.0000
# 4 0.0000 0.0000 0.0000 23.6006 0.0000 0.0000
# 5 0.0000 0.0000 0.0000 0.0000 21.3100 0.0000
# 6 0.0000 0.0000 0.0000 0.0000 0.0000 28.2219
#
#
#
# Elastic Compliance Matrix: (Units=1/GPa)
#
#
# Indices 1 2 3 4 5 6 
#
# 1 0.018685 -0.004799 -0.006764 0.000000 0.000000 0.000000
# 2 -0.004799 0.011886 -0.002973 0.000000 0.000000 0.000000
# 3 -0.006764 -0.002973 0.019259 0.000000 0.000000 0.000000
# 4 0.000000 0.000000 0.000000 0.042372 0.000000 0.000000
# 5 0.000000 0.000000 0.000000 0.000000 0.046926 0.000000
# 6 0.000000 0.000000 0.000000 0.000000 0.000000 0.035433
#
#
# Mechanical properties :
#
#
# Convention : Reuss Voigt Hill
#
# Bulk Modulus (GPa) = 48.17606 50.16799 49.17203
# Shear Modulus (GPa) = 23.74710 24.58729 24.16720
#
# Velocity S-wave (km/s) = 3.80507 3.87179 3.83857
# Velocity P-wave (km/s) = 6.97692 7.11161 7.04459
#
# Compressibility (1/GPa) = 0.02075720
#
# Stress axis : x y z
#
# Youngs Moduli (GPa) = 53.51925 84.13450 51.92460
#
# Poissons Ratio (x) = 0.40377 0.35122
# Poissons Ratio (y) = 0.25684 0.15437
# Poissons Ratio (z) = 0.36201 0.25012
#
# Static dielectric constant tensor:
#      x y z
#    x 3.106030 0.000000 0.000000 
#    y 0.000000 3.124210 0.000000 
#    z 0.000000 0.000000 2.890410 
# 
# 
# High freq. dielectric constant tensor:
#      x y z
#    x 1.637660 0.000000 0.000000 
#    y 0.000000 1.624880 0.000000 
#    z 0.000000 0.000000 1.600340 
# 
# From -- ./inp_files/15859.got.cif
#   From: 2010.03.12/outbox.cif.g09.slc.cpg/sg40_8_cif.got.tgz:15859.got - 2010.04.14 01:38:03.
