data_PCOD8183486
_publ_section_title
;
Structure prediction by ZEFSAII (Michael W. Deem and Ramdas Pophale) SiO2 
 PCOD8183486
Probable space group: A M A 2
;
_chemical_formula_sum "Si O2"
_cell_formula_units_Z 48
_cell_length_a 8.835799
_cell_length_b 16.949497
_cell_length_c 17.957514
_cell_angle_alpha 90.000000
_cell_angle_beta 90.000000
_cell_angle_gamma 90.000000
_cell_volume 2689.359472
_symmetry_space_group_name_H-M "A M A 2"
_symmetry_group_IT_number 40
_symmetry_cell_setting 'orthorhombic'
loop_
_space_group_symop_operation_xyz
x,y,z
-x,-y,z
1/2-x,y,z
1/2+x,-y,z
x,1/2+y,1/2+z
-x,1/2-y,1/2+z
1/2-x,1/2+y,1/2+z
1/2+x,1/2-y,1/2+z
loop_
_atom_site_type_symbol
_atom_site_label
_atom_site_fract_x
_atom_site_fract_y
_atom_site_fract_z
Si Si1 0.071797 0.725387 0.176350
Si Si2 0.575327 0.228397 0.833233
Si Si3 0.582479 0.179782 0.452193
Si Si4 0.580980 0.327540 0.560615
Si Si5 0.929133 0.583543 0.088555
Si Si6 0.573472 0.580616 0.437178
O O1 0.250000 0.720082 0.164639
O O2 0.032486 0.733148 0.262694
O O3 0.010356 0.803481 0.134689
O O4 0.996386 0.646084 0.146003
O O5 0.750000 0.234045 0.809563
O O6 0.535942 0.303004 0.886322
O O7 0.539086 0.147396 0.876133
O O8 0.750000 0.165327 0.418276
O O9 0.588938 0.252586 0.507866
O O10 0.529875 0.105550 0.502646
O O11 0.750000 0.355174 0.582784
O O12 0.497296 0.398018 0.517417
O O13 0.750000 0.581756 0.100261
O O14 0.000000 0.500000 0.108431
O O15 0.500000 0.500000 0.407252
O O16 0.750000 0.568453 0.448734
#
# Coordination Sequence:
#
# PCOD8183486 Si02
#       6
#     8   8   8   8   8   8
#     4  11  21  33  51  74 102 134 168 205 249 298
#     4  10  20  33  50  73 101 132 168 207 248 295
#     4   8  16  31  50  71  95 126 164 204 245 292
#     4   9  17  32  52  72  97 128 166 208 247 291
#     4  10  20  34  52  75 103 133 167 205 247 295
#     4  10  20  33  51  75 102 133 168 205 248 297
#
# _framework density 17.848116000000001
#
# number of rings (size 3 to 8) (size 9 to 14) (size 15 to 20)
#    0.000    2.333    0.000    4.500    0.000    7.333 
#    0.000    1.667    0.000    1.000    0.000    4.667 
#    0.000    0.000    0.000    0.000    0.000    0.000 
#
# Total GULP energy -297582.275297 kJ/mol
# GULP energy per Si atom -12399.261471 kJ/mol
# Density = 1.780749 g / cm^3
# Si number density = 17.848116 Si / 1000 Ang^3
#
#
#
# Elastic Constant Matrix: (Units=GPa)
#
#
# Indices 1 2 3 4 5 6 
#
# 1 108.4599 9.9678 45.0613 0.0000 0.0000 0.0000
# 2 9.9678 9.0571 20.8506 0.0000 0.0000 0.0000
# 3 45.0613 20.8506 90.1114 0.0000 0.0000 0.0000
# 4 0.0000 0.0000 0.0000 16.8107 0.0000 0.0000
# 5 0.0000 0.0000 0.0000 0.0000 32.1684 0.0000
# 6 0.0000 0.0000 0.0000 0.0000 0.0000 26.5231
#
#
#
# Elastic Compliance Matrix: (Units=1/GPa)
#
#
# Indices 1 2 3 4 5 6 
#
# 1 0.011645 0.001262 -0.006115 0.000000 0.000000 0.000000
# 2 0.001262 0.236402 -0.055331 0.000000 0.000000 0.000000
# 3 -0.006115 -0.055331 0.026958 0.000000 0.000000 0.000000
# 4 0.000000 0.000000 0.000000 0.059486 0.000000 0.000000
# 5 0.000000 0.000000 0.000000 0.000000 0.031086 0.000000
# 6 0.000000 0.000000 0.000000 0.000000 0.000000 0.037703
#
#
# Mechanical properties :
#
#
# Convention : Reuss Voigt Hill
#
# Bulk Modulus (GPa) = 6.46680 39.93197 23.19938
# Shear Modulus (GPa) = 8.69272 23.88368 16.28820
#
# Velocity S-wave (km/s) = 2.20929 3.66206 3.02421
# Velocity P-wave (km/s) = 3.18419 6.34844 5.02204
#
# Compressibility (1/GPa) = 0.15463604
#
# Stress axis : x y z
#
# Youngs Moduli (GPa) = 85.87667 4.23009 37.09436
#
# Poissons Ratio (x) = -0.00534 0.22684
# Poissons Ratio (y) = -0.10841 2.05248
# Poissons Ratio (z) = 0.52515 0.23406
#
# Static dielectric constant tensor:
#      x y z
#    x 3.435950 0.000000 0.000000 
#    y 0.000000 3.302680 0.000000 
#    z 0.000000 0.000000 3.243860 
# 
# 
# High freq. dielectric constant tensor:
#      x y z
#    x 1.706630 0.000000 0.000000 
#    y 0.000000 1.665410 0.000000 
#    z 0.000000 0.000000 1.678410 
# 
# From -- ./inp_files/15014.got.cif
#   From: 2010.03.12/outbox.cif.g09.slc.cpg/sg40_8_cif.got.tgz:15014.got - 2010.04.14 01:38:03.
