data_PCOD8183389
_publ_section_title
;
Structure prediction by ZEFSAII (Michael W. Deem and Ramdas Pophale) SiO2 
 PCOD8183389
Probable space group: A M A 2
;
_chemical_formula_sum "Si O2"
_cell_formula_units_Z 60
_cell_length_a 28.659046
_cell_length_b 5.921762
_cell_length_c 16.851693
_cell_angle_alpha 90.000000
_cell_angle_beta 90.000000
_cell_angle_gamma 90.000000
_cell_volume 2859.935358
_symmetry_space_group_name_H-M "A M A 2"
_symmetry_group_IT_number 40
_symmetry_cell_setting 'orthorhombic'
loop_
_space_group_symop_operation_xyz
x,y,z
-x,-y,z
1/2-x,y,z
1/2+x,-y,z
x,1/2+y,1/2+z
-x,1/2-y,1/2+z
1/2-x,1/2+y,1/2+z
1/2+x,1/2-y,1/2+z
loop_
_atom_site_type_symbol
_atom_site_label
_atom_site_fract_x
_atom_site_fract_y
_atom_site_fract_z
Si Si1 0.424201 0.313129 0.527740
Si Si2 0.868206 0.938097 0.906360
Si Si3 0.302855 0.689739 0.851879
Si Si4 0.854149 0.453780 0.129911
Si Si5 0.627517 0.121972 0.266670
Si Si6 0.301144 0.365402 0.997879
Si Si7 0.574041 0.321856 0.656924
Si Si8 0.500000 0.000000 0.594452
O O1 0.409587 0.397666 0.439088
O O2 0.382217 0.163861 0.559151
O O3 0.432382 0.539628 0.576742
O O4 0.470119 0.155965 0.534065
O O5 0.890248 0.760040 0.843913
O O6 0.842395 0.813284 0.979741
O O7 0.828343 0.070735 0.858711
O O8 0.250000 0.727989 0.821601
O O9 0.330749 0.545482 0.787505
O O10 0.303613 0.570170 0.936571
O O11 0.847870 0.283163 0.202100
O O12 0.879320 0.677054 0.160751
O O13 0.806665 0.534282 0.087075
O O14 0.581114 0.995978 0.231014
O O15 0.250000 0.248919 0.992977
O O16 0.529792 0.152254 0.656909
#
# Coordination Sequence:
#
# PCOD8183389 Si02
#       8
#     8   8   8   8   8   8   8   4
#     4  10  20  36  65  97 120 154 210 256 318 374
#     4  11  20  38  62  94 123 170 205 257 312 375
#     4  10  21  38  58  90 130 172 216 255 303 364
#     4  10  19  37  59  91 122 162 207 252 308 367
#     4  10  23  36  61  93 128 170 205 251 313 376
#     4  10  20  34  58  91 125 164 214 261 303 360
#     4  10  20  40  61  99 121 157 205 256 321 375
#     4  10  22  36  68 106 114 152 208 276 310 386
#
# _framework density 20.979493999999999
#
# number of rings (size 3 to 8) (size 9 to 14) (size 15 to 20)
#    0.000    1.867    2.667    1.600    0.000    1.067 
#    0.000    2.000    0.000    0.000  156.000    0.000 
#    0.000    0.000    0.000    0.000    0.000    0.000 
#
# Total GULP energy -371791.457328 kJ/mol
# GULP energy per Si atom -12393.048578 kJ/mol
# Density = 2.093174 g / cm^3
# Si number density = 20.979494 Si / 1000 Ang^3
#
#
#
# Elastic Constant Matrix: (Units=GPa)
#
#
# Indices 1 2 3 4 5 6 
#
# 1 104.7647 45.7261 51.2310 0.0000 0.0000 0.0000
# 2 45.7261 108.5468 43.9818 0.0000 0.0000 0.0000
# 3 51.2310 43.9818 100.7109 0.0000 0.0000 0.0000
# 4 0.0000 0.0000 0.0000 33.9644 0.0000 0.0000
# 5 0.0000 0.0000 0.0000 0.0000 21.7842 0.0000
# 6 0.0000 0.0000 0.0000 0.0000 0.0000 30.3065
#
#
#
# Elastic Compliance Matrix: (Units=1/GPa)
#
#
# Indices 1 2 3 4 5 6 
#
# 1 0.013774 -0.003601 -0.005434 0.000000 0.000000 0.000000
# 2 -0.003601 0.012134 -0.003468 0.000000 0.000000 0.000000
# 3 -0.005434 -0.003468 0.014208 0.000000 0.000000 0.000000
# 4 0.000000 0.000000 0.000000 0.029443 0.000000 0.000000
# 5 0.000000 0.000000 0.000000 0.000000 0.045905 0.000000
# 6 0.000000 0.000000 0.000000 0.000000 0.000000 0.032996
#
#
# Mechanical properties :
#
#
# Convention : Reuss Voigt Hill
#
# Bulk Modulus (GPa) = 66.17452 66.21114 66.19283
# Shear Modulus (GPa) = 28.01072 28.74992 28.38032
#
# Velocity S-wave (km/s) = 3.65793 3.70588 3.68199
# Velocity P-wave (km/s) = 7.03218 7.06681 7.04952
#
# Compressibility (1/GPa) = 0.01511156
#
# Stress axis : x y z
#
# Youngs Moduli (GPa) = 72.59942 82.41016 70.38143
#
# Poissons Ratio (x) = 0.29672 0.38249
# Poissons Ratio (y) = 0.26139 0.24406
# Poissons Ratio (z) = 0.39454 0.28577
#
# Static dielectric constant tensor:
#      x y z
#    x 3.699760 0.000000 0.000000 
#    y 0.000000 4.089420 0.000000 
#    z 0.000000 0.000000 3.591030 
# 
# 
# High freq. dielectric constant tensor:
#      x y z
#    x 1.797280 0.000000 0.000000 
#    y 0.000000 1.843340 0.000000 
#    z 0.000000 0.000000 1.802490 
# 
# From -- ./inp_files/21602.got.cif
#   From: 2010.03.12/outbox.cif.g09.slc.cpg/sg40_11_cif.got.tgz:21602.got - 2010.04.14 01:38:03.
