data_PCOD8183314
_publ_section_title
;
Structure prediction by ZEFSAII (Michael W. Deem and Ramdas Pophale) SiO2 
 PCOD8183314
Probable space group: A M A 2
;
_chemical_formula_sum "Si O2"
_cell_formula_units_Z 56
_cell_length_a 22.374574
_cell_length_b 15.609918
_cell_length_c 8.901762
_cell_angle_alpha 90.000000
_cell_angle_beta 90.000000
_cell_angle_gamma 90.000000
_cell_volume 3109.076268
_symmetry_space_group_name_H-M "A M A 2"
_symmetry_group_IT_number 40
_symmetry_cell_setting 'orthorhombic'
loop_
_space_group_symop_operation_xyz
x,y,z
-x,-y,z
1/2-x,y,z
1/2+x,-y,z
x,1/2+y,1/2+z
-x,1/2-y,1/2+z
1/2-x,1/2+y,1/2+z
1/2+x,1/2-y,1/2+z
loop_
_atom_site_type_symbol
_atom_site_label
_atom_site_fract_x
_atom_site_fract_y
_atom_site_fract_z
Si Si1 0.484321 0.598491 0.790950
Si Si2 0.638127 0.361330 0.689100
Si Si3 0.181887 0.972565 0.040130
Si Si4 0.892452 0.673561 0.693478
Si Si5 0.391939 0.151940 0.511082
Si Si6 0.316549 0.743756 0.431956
Si Si7 0.183596 0.069289 0.748701
O O1 0.500000 0.500000 0.794800
O O2 0.432203 0.614965 0.667427
O O3 0.540787 0.654259 0.745301
O O4 0.458717 0.625737 0.955949
O O5 0.678032 0.442095 0.640918
O O6 0.650868 0.339541 0.864234
O O7 0.653329 0.277142 0.592124
O O8 0.250000 0.938359 0.051214
O O9 0.165432 0.995248 0.866993
O O10 0.135277 0.901830 0.094139
O O11 0.893807 0.758683 0.595612
O O12 0.853628 0.683717 0.844697
O O13 0.364886 0.076046 0.615392
O O14 0.250000 0.779637 0.459099
O O15 0.314973 0.658774 0.334152
O O16 0.250000 0.050754 0.683387
#
# Coordination Sequence:
#
# PCOD8183314 Si02
#       7
#     8   8   8   8   8   8   8
#     4  10  21  38  56  77 110 150 194 230 277 348
#     4   9  19  35  57  80 111 147 192 229 285 341
#     4  10  19  35  59  84 111 149 192 232 284 353
#     4  11  20  36  58  80 118 148 192 237 292 340
#     4   9  21  35  56  82 108 148 186 237 298 329
#     4   9  18  33  56  84 112 144 184 232 285 348
#     4   8  16  33  55  80 110 142 184 230 282 344
#
# _framework density 18.011780999999999
#
# number of rings (size 3 to 8) (size 9 to 14) (size 15 to 20)
#    0.857    1.714    1.429    1.714    2.000    1.714 
#    0.000    4.286    0.000    3.429    0.000    0.000 
#    0.000    0.000    0.000    0.000    0.000    0.000 
#
# Total GULP energy -347003.464714 kJ/mol
# GULP energy per Si atom -12392.980883 kJ/mol
# Density = 1.797079 g / cm^3
# Si number density = 18.011781 Si / 1000 Ang^3
#
#
#
# Elastic Constant Matrix: (Units=GPa)
#
#
# Indices 1 2 3 4 5 6 
#
# 1 114.7678 31.8076 61.2413 0.0000 0.0000 0.0000
# 2 31.8076 58.5572 39.8044 0.0000 0.0000 0.0000
# 3 61.2413 39.8044 120.4533 0.0000 0.0000 0.0000
# 4 0.0000 0.0000 0.0000 25.7678 0.0000 0.0000
# 5 0.0000 0.0000 0.0000 0.0000 25.7879 0.0000
# 6 0.0000 0.0000 0.0000 0.0000 0.0000 24.3769
#
#
#
# Elastic Compliance Matrix: (Units=1/GPa)
#
#
# Indices 1 2 3 4 5 6 
#
# 1 0.012394 -0.003158 -0.005258 0.000000 0.000000 0.000000
# 2 -0.003158 0.022830 -0.005938 0.000000 0.000000 0.000000
# 3 -0.005258 -0.005938 0.012938 0.000000 0.000000 0.000000
# 4 0.000000 0.000000 0.000000 0.038808 0.000000 0.000000
# 5 0.000000 0.000000 0.000000 0.000000 0.038778 0.000000
# 6 0.000000 0.000000 0.000000 0.000000 0.000000 0.041022
#
#
# Mechanical properties :
#
#
# Convention : Reuss Voigt Hill
#
# Bulk Modulus (GPa) = 51.40806 62.16498 56.78652
# Shear Modulus (GPa) = 24.75704 25.91485 25.33595
#
# Velocity S-wave (km/s) = 3.71144 3.79723 3.75458
# Velocity P-wave (km/s) = 6.85344 7.33578 7.09871
#
# Compressibility (1/GPa) = 0.01945220
#
# Stress axis : x y z
#
# Youngs Moduli (GPa) = 80.68287 43.80294 77.29460
#
# Poissons Ratio (x) = 0.13835 0.40640
# Poissons Ratio (y) = 0.25483 0.45900
# Poissons Ratio (z) = 0.42421 0.26012
#
# Static dielectric constant tensor:
#      x y z
#    x 3.508140 0.000000 0.000000 
#    y 0.000000 3.096850 0.000000 
#    z 0.000000 0.000000 3.390670 
# 
# 
# High freq. dielectric constant tensor:
#      x y z
#    x 1.698900 0.000000 0.000000 
#    y 0.000000 1.679430 0.000000 
#    z 0.000000 0.000000 1.692270 
# 
# From -- ./inp_files/8299.got.cif
#   From: 2010.03.12/outbox.cif.g09.slc.cpg/sg40_5_cif.got.tgz:8299.got - 2010.04.14 01:38:03.
