data_PCOD8183703
_publ_section_title
;
Structure prediction by ZEFSAII (Michael W. Deem and Ramdas Pophale) SiO2 
 PCOD8183703
Probable space group: A M A 2
;
_chemical_formula_sum "Si O2"
_cell_formula_units_Z 48
_cell_length_a 8.347338
_cell_length_b 23.524695
_cell_length_c 11.944530
_cell_angle_alpha 90.000000
_cell_angle_beta 90.000000
_cell_angle_gamma 90.000000
_cell_volume 2345.530401
_symmetry_space_group_name_H-M "A M A 2"
_symmetry_group_IT_number 40
_symmetry_cell_setting 'orthorhombic'
loop_
_space_group_symop_operation_xyz
x,y,z
-x,-y,z
1/2-x,y,z
1/2+x,-y,z
x,1/2+y,1/2+z
-x,1/2-y,1/2+z
1/2-x,1/2+y,1/2+z
1/2+x,1/2-y,1/2+z
loop_
_atom_site_type_symbol
_atom_site_label
_atom_site_fract_x
_atom_site_fract_y
_atom_site_fract_z
Si Si1 0.059878 0.565095 0.681300
Si Si2 0.434654 0.129698 0.961346
Si Si3 0.438634 0.276994 0.301142
Si Si4 0.067235 0.941334 0.772434
Si Si5 0.939564 0.346883 0.863626
Si Si6 0.062840 0.646706 0.116463
O O1 0.250000 0.562215 0.675726
O O2 0.996578 0.604073 0.577814
O O3 0.998389 0.598462 0.792682
O O4 0.000000 0.500000 0.678852
O O5 0.250000 0.146642 0.974932
O O6 0.526150 0.185301 0.913087
O O7 0.454253 0.079023 0.872972
O O8 0.250000 0.280401 0.278624
O O9 0.500917 0.212787 0.314336
O O10 0.533998 0.297220 0.190991
O O11 0.250000 0.943941 0.813518
O O12 0.051430 0.901145 0.666223
O O13 0.000000 0.000000 0.728940
O O14 0.750000 0.346862 0.861107
O O15 0.000607 0.347896 0.990563
O O16 0.250000 0.630241 0.121453
#
# Coordination Sequence:
#
# PCOD8183703 Si02
#       6
#     8   8   8   8   8   8
#     4  10  22  40  59  83 116 156 195 237 288 342
#     4  10  20  35  58  86 116 149 189 237 287 339
#     4  10  20  36  59  85 115 148 189 237 291 345
#     4  11  21  35  56  82 113 147 186 233 284 335
#     4   9  21  39  58  81 115 154 187 234 292 343
#     4  10  20  37  57  81 112 146 188 234 283 340
#
# _framework density 20.464452999999999
#
# number of rings (size 3 to 8) (size 9 to 14) (size 15 to 20)
#    0.000    2.000    0.000    5.500    2.333    3.333 
#    0.000    7.500    0.000    0.000    0.000    0.000 
#    0.000    0.000    0.000    0.000    0.000    0.000 
#
# Total GULP energy -297461.898594 kJ/mol
# GULP energy per Si atom -12394.245775 kJ/mol
# Density = 2.041787 g / cm^3
# Si number density = 20.464453 Si / 1000 Ang^3
#
#
#
# Elastic Constant Matrix: (Units=GPa)
#
#
# Indices 1 2 3 4 5 6 
#
# 1 42.4315 9.9083 5.4657 0.0000 0.0000 0.0000
# 2 9.9083 120.9751 62.4041 0.0000 0.0000 0.0000
# 3 5.4657 62.4041 150.0152 0.0000 0.0000 0.0000
# 4 0.0000 0.0000 0.0000 1.1281 0.0000 0.0000
# 5 0.0000 0.0000 0.0000 0.0000 18.7207 0.0000
# 6 0.0000 0.0000 0.0000 0.0000 0.0000 28.8410
#
#
#
# Elastic Compliance Matrix: (Units=1/GPa)
#
#
# Indices 1 2 3 4 5 6 
#
# 1 0.024028 -0.001931 -0.000072 0.000000 0.000000 0.000000
# 2 -0.001931 0.010680 -0.004372 0.000000 0.000000 0.000000
# 3 -0.000072 -0.004372 0.008487 0.000000 0.000000 0.000000
# 4 0.000000 0.000000 0.000000 0.886474 0.000000 0.000000
# 5 0.000000 0.000000 0.000000 0.000000 0.053417 0.000000
# 6 0.000000 0.000000 0.000000 0.000000 0.000000 0.034673
#
#
# Mechanical properties :
#
#
# Convention : Reuss Voigt Hill
#
# Bulk Modulus (GPa) = 32.84694 52.10867 42.47781
# Shear Modulus (GPa) = 4.80466 25.44753 15.12609
#
# Velocity S-wave (km/s) = 1.53392 3.53015 2.72166
# Velocity P-wave (km/s) = 4.38438 6.49109 5.53882
#
# Compressibility (1/GPa) = 0.03044423
#
# Stress axis : x y z
#
# Youngs Moduli (GPa) = 41.61891 93.63580 117.82149
#
# Poissons Ratio (x) = 0.18078 0.00852
# Poissons Ratio (y) = 0.08035 0.51514
# Poissons Ratio (z) = 0.00301 0.40940
#
# Static dielectric constant tensor:
#      x y z
#    x 3.510640 0.000000 0.000000 
#    y 0.000000 3.894260 0.000000 
#    z 0.000000 0.000000 3.960940 
# 
# 
# High freq. dielectric constant tensor:
#      x y z
#    x 1.784550 0.000000 0.000000 
#    y 0.000000 1.805950 0.000000 
#    z 0.000000 0.000000 1.800750 
# 
# From -- ./inp_files/10253.got.cif
#   From: 2010.03.12/outbox.cif.g09.slc.cpg/sg40_6_cif.got.tgz:10253.got - 2010.04.14 01:38:03.
