data_PCOD8183074
_publ_section_title
;
Structure prediction by ZEFSAII (Michael W. Deem and Ramdas Pophale) SiO2 
 PCOD8183074
Probable space group: A M A 2
;
_chemical_formula_sum "Si O2"
_cell_formula_units_Z 64
_cell_length_a 8.721572
_cell_length_b 30.099117
_cell_length_c 14.286763
_cell_angle_alpha 90.000000
_cell_angle_beta 90.000000
_cell_angle_gamma 90.000000
_cell_volume 3750.441243
_symmetry_space_group_name_H-M "A M A 2"
_symmetry_group_IT_number 40
_symmetry_cell_setting 'orthorhombic'
loop_
_space_group_symop_operation_xyz
x,y,z
-x,-y,z
1/2-x,y,z
1/2+x,-y,z
x,1/2+y,1/2+z
-x,1/2-y,1/2+z
1/2-x,1/2+y,1/2+z
1/2+x,1/2-y,1/2+z
loop_
_atom_site_type_symbol
_atom_site_label
_atom_site_fract_x
_atom_site_fract_y
_atom_site_fract_z
Si Si1 0.073690 0.628524 0.889760
Si Si2 0.569828 0.729766 0.561452
Si Si3 0.429453 0.699012 0.738921
Si Si4 0.431747 0.285280 0.350770
Si Si5 0.930909 0.453895 0.176244
Si Si6 0.076971 0.369576 0.240244
Si Si7 0.422177 0.820647 0.549799
Si Si8 0.569310 0.545626 0.973110
O O1 0.250000 0.614141 0.897860
O O2 0.039126 0.652595 0.791621
O O3 0.968514 0.585013 0.900461
O O4 0.038653 0.664439 0.969739
O O5 0.750000 0.738372 0.563141
O O6 0.520269 0.694564 0.640816
O O7 0.516084 0.713896 0.458881
O O8 0.479722 0.774104 0.590302
O O9 0.250000 0.705519 0.719549
O O10 0.493901 0.740713 0.800039
O O11 0.250000 0.285711 0.340783
O O12 0.497425 0.330165 0.302777
O O13 0.750000 0.458043 0.169963
O O14 0.000000 0.500000 0.214788
O O15 0.977351 0.414569 0.247943
O O16 0.996025 0.443474 0.073341
O O17 0.250000 0.379831 0.273889
O O18 0.076624 0.355972 0.132298
O O19 0.250000 0.816401 0.509111
O O20 0.500000 0.500000 0.932228
O O21 0.750000 0.541023 0.985278
#
# Coordination Sequence:
#
# PCOD8183074 Si02
#       8
#     8   8   8   8   8   8   8   8
#     4  11  21  34  52  73 102 139 175 211 254 303
#     4  11  21  34  51  73 101 135 177 218 253 296
#     4  10  20  36  52  71 102 138 173 209 256 304
#     4   9  18  34  51  69  98 137 172 207 252 300
#     4  11  21  33  50  73 103 133 168 207 252 304
#     4  10  19  33  51  70  98 137 175 207 252 302
#     4  11  20  30  49  73 102 138 173 211 253 299
#     4  11  21  34  51  74 104 135 170 208 253 306
#
# _framework density 17.064658999999999
#
# number of rings (size 3 to 8) (size 9 to 14) (size 15 to 20)
#    0.000    1.500    3.750    4.125    0.000    1.500 
#    0.000    1.250    0.000    0.000    0.000    0.875 
#    0.000    6.000    0.000    0.000    0.000    0.000 
#
# Total GULP energy -396819.860668 kJ/mol
# GULP energy per Si atom -12400.620646 kJ/mol
# Density = 1.702582 g / cm^3
# Si number density = 17.064659 Si / 1000 Ang^3
#
#
#
# Elastic Constant Matrix: (Units=GPa)
#
#
# Indices 1 2 3 4 5 6 
#
# 1 85.5738 42.0125 23.9209 0.0000 0.0000 0.0000
# 2 42.0125 104.5196 26.7720 0.0000 0.0000 0.0000
# 3 23.9209 26.7720 72.0462 0.0000 0.0000 0.0000
# 4 0.0000 0.0000 0.0000 21.2050 0.0000 0.0000
# 5 0.0000 0.0000 0.0000 0.0000 20.4661 0.0000
# 6 0.0000 0.0000 0.0000 0.0000 0.0000 25.5750
#
#
#
# Elastic Compliance Matrix: (Units=1/GPa)
#
#
# Indices 1 2 3 4 5 6 
#
# 1 0.015145 -0.005304 -0.003057 0.000000 0.000000 0.000000
# 2 -0.005304 0.012432 -0.002858 0.000000 0.000000 0.000000
# 3 -0.003057 -0.002858 0.015957 0.000000 0.000000 0.000000
# 4 0.000000 0.000000 0.000000 0.047159 0.000000 0.000000
# 5 0.000000 0.000000 0.000000 0.000000 0.048861 0.000000
# 6 0.000000 0.000000 0.000000 0.000000 0.000000 0.039101
#
#
# Mechanical properties :
#
#
# Convention : Reuss Voigt Hill
#
# Bulk Modulus (GPa) = 47.40788 49.72784 48.56786
# Shear Modulus (GPa) = 24.02392 24.74483 24.38438
#
# Velocity S-wave (km/s) = 3.75616 3.81210 3.78423
# Velocity P-wave (km/s) = 6.83032 6.96995 6.90049
#
# Compressibility (1/GPa) = 0.02109354
#
# Stress axis : x y z
#
# Youngs Moduli (GPa) = 66.02991 80.43815 62.66747
#
# Poissons Ratio (x) = 0.42668 0.19159
# Poissons Ratio (y) = 0.35025 0.17913
# Poissons Ratio (z) = 0.20187 0.22993
#
# Static dielectric constant tensor:
#      x y z
#    x 3.138970 0.000000 0.000000 
#    y 0.000000 3.278880 0.000000 
#    z 0.000000 0.000000 3.001030 
# 
# 
# High freq. dielectric constant tensor:
#      x y z
#    x 1.658550 0.000000 0.000000 
#    y 0.000000 1.654830 0.000000 
#    z 0.000000 0.000000 1.624530 
# 
# From -- ./inp_files/15888.got.cif
#   From: 2010.03.12/outbox.cif.g09.slc.cpg/sg40_8_cif.got.tgz:15888.got - 2010.04.14 01:38:03.
