data_PCOD8183495
_publ_section_title
;
Structure prediction by ZEFSAII (Michael W. Deem and Ramdas Pophale) SiO2 
 PCOD8183495
Probable space group: A M A 2
;
_chemical_formula_sum "Si O2"
_cell_formula_units_Z 64
_cell_length_a 20.351492
_cell_length_b 18.585565
_cell_length_c 9.333495
_cell_angle_alpha 90.000000
_cell_angle_beta 90.000000
_cell_angle_gamma 90.000000
_cell_volume 3530.338272
_symmetry_space_group_name_H-M "A M A 2"
_symmetry_group_IT_number 40
_symmetry_cell_setting 'orthorhombic'
loop_
_space_group_symop_operation_xyz
x,y,z
-x,-y,z
1/2-x,y,z
1/2+x,-y,z
x,1/2+y,1/2+z
-x,1/2-y,1/2+z
1/2-x,1/2+y,1/2+z
1/2+x,1/2-y,1/2+z
loop_
_atom_site_type_symbol
_atom_site_label
_atom_site_fract_x
_atom_site_fract_y
_atom_site_fract_z
Si Si1 0.826087 0.461575 0.990080
Si Si2 0.443431 0.291067 0.492494
Si Si3 0.178119 0.199984 0.153847
Si Si4 0.935967 0.043145 0.991969
Si Si5 0.064024 0.956843 0.655459
Si Si6 0.826086 0.961552 0.157361
Si Si7 0.556559 0.208941 0.655020
Si Si8 0.321882 0.199963 0.493662
O O1 0.750000 0.480959 0.017559
O O2 0.843869 0.469882 0.823718
O O3 0.840989 0.380451 0.044462
O O4 0.870643 0.515715 0.079210
O O5 0.445928 0.374202 0.534709
O O6 0.500006 0.250031 0.573773
O O7 0.452659 0.279227 0.323760
O O8 0.374599 0.257867 0.547817
O O9 0.250000 0.221318 0.091874
O O10 0.125408 0.257896 0.099709
O O11 0.182081 0.199099 0.323755
O O12 0.159011 0.119576 0.103014
O O13 0.925468 0.033198 0.823711
O O14 0.870638 0.015676 0.068189
O O15 0.000000 0.000000 0.045666
O O16 0.054026 0.874188 0.612765
O O17 0.000000 0.000000 0.601752
O O18 0.750000 0.980933 0.129877
O O19 0.250000 0.221289 0.555644
#
# Coordination Sequence:
#
# PCOD8183495 Si02
#       8
#     8   8   8   8   8   8   8   8
#     4   9  18  33  53  75  97 124 162 206 248 292
#     4  10  20  33  51  73  97 129 166 203 243 287
#     4   8  15  30  51  72  93 121 162 205 239 280
#     4  10  21  34  48  72 105 135 164 201 247 301
#     4  10  21  34  48  72 105 135 164 201 247 301
#     4   9  18  33  53  75  97 124 162 206 248 292
#     4  10  20  33  51  73  97 129 166 203 243 287
#     4   8  15  30  51  72  93 121 162 205 239 280
#
# _framework density 18.128575000000001
#
# number of rings (size 3 to 8) (size 9 to 14) (size 15 to 20)
#    0.000    2.750    0.000    3.000    0.000    3.000 
#    0.000    2.500    0.000    2.250    0.000    0.000 
#    0.000    0.000    0.000    0.000    0.000    0.000 
#
# Total GULP energy -396768.229130 kJ/mol
# GULP energy per Si atom -12399.007160 kJ/mol
# Density = 1.808731 g / cm^3
# Si number density = 18.128575 Si / 1000 Ang^3
#
#
#
# Elastic Constant Matrix: (Units=GPa)
#
#
# Indices 1 2 3 4 5 6 
#
# 1 144.1817 101.0083 44.7144 0.0000 0.0000 0.0000
# 2 101.0083 153.9548 45.7088 0.0000 0.0000 0.0000
# 3 44.7144 45.7088 32.6774 0.0000 0.0000 0.0000
# 4 0.0000 0.0000 0.0000 15.2858 0.0000 0.0000
# 5 0.0000 0.0000 0.0000 0.0000 32.5683 0.0000
# 6 0.0000 0.0000 0.0000 0.0000 0.0000 40.4309
#
#
#
# Elastic Compliance Matrix: (Units=1/GPa)
#
#
# Indices 1 2 3 4 5 6 
#
# 1 0.015023 -0.006419 -0.011578 0.000000 0.000000 0.000000
# 2 -0.006419 0.013852 -0.010592 0.000000 0.000000 0.000000
# 3 -0.011578 -0.010592 0.061261 0.000000 0.000000 0.000000
# 4 0.000000 0.000000 0.000000 0.065420 0.000000 0.000000
# 5 0.000000 0.000000 0.000000 0.000000 0.030705 0.000000
# 6 0.000000 0.000000 0.000000 0.000000 0.000000 0.024734
#
#
# Mechanical properties :
#
#
# Convention : Reuss Voigt Hill
#
# Bulk Modulus (GPa) = 30.34200 79.29744 54.81972
# Shear Modulus (GPa) = 17.91089 26.94916 22.43002
#
# Velocity S-wave (km/s) = 3.14664 3.85977 3.52131
# Velocity P-wave (km/s) = 5.47497 7.98125 6.84382
#
# Compressibility (1/GPa) = 0.03295761
#
# Stress axis : x y z
#
# Youngs Moduli (GPa) = 66.56256 72.19360 16.32351
#
# Poissons Ratio (x) = 0.46342 0.18900
# Poissons Ratio (y) = 0.42727 0.17290
# Poissons Ratio (z) = 0.77069 0.76466
#
# Static dielectric constant tensor:
#      x y z
#    x 0.708500 0.000000 0.000000 
#    y 0.000000 3.477320 0.000000 
#    z 0.000000 0.000000 2.999230 
# 
# 
# High freq. dielectric constant tensor:
#      x y z
#    x 1.715890 0.000000 0.000000 
#    y 0.000000 1.707710 0.000000 
#    z 0.000000 0.000000 1.669020 
# 
# From -- ./inp_files/8463.got.cif
#   From: 2010.03.12/outbox.cif.g09.slc.cpg/sg40_5_cif.got.tgz:8463.got - 2010.04.14 01:38:03.
