data_PCOD8183760
_publ_section_title
;
Structure prediction by ZEFSAII (Michael W. Deem and Ramdas Pophale) SiO2 
 PCOD8183760
Probable space group: A M A 2
;
_chemical_formula_sum "Si O2"
_cell_formula_units_Z 48
_cell_length_a 17.615167
_cell_length_b 13.919754
_cell_length_c 9.469604
_cell_angle_alpha 90.000000
_cell_angle_beta 90.000000
_cell_angle_gamma 90.000000
_cell_volume 2321.935455
_symmetry_space_group_name_H-M "A M A 2"
_symmetry_group_IT_number 40
_symmetry_cell_setting 'orthorhombic'
loop_
_space_group_symop_operation_xyz
x,y,z
-x,-y,z
1/2-x,y,z
1/2+x,-y,z
x,1/2+y,1/2+z
-x,1/2-y,1/2+z
1/2-x,1/2+y,1/2+z
1/2+x,1/2-y,1/2+z
loop_
_atom_site_type_symbol
_atom_site_label
_atom_site_fract_x
_atom_site_fract_y
_atom_site_fract_z
Si Si1 0.337814 0.080631 0.487510
Si Si2 0.340516 0.699392 0.529907
Si Si3 0.954313 0.593517 0.258980
Si Si4 0.942500 0.303220 0.807924
Si Si5 0.164899 0.541711 0.309293
Si Si6 0.918239 0.113147 0.444992
O O1 0.250000 0.085100 0.444271
O O2 0.381869 0.172772 0.429093
O O3 0.348712 0.086475 0.655055
O O4 0.373257 0.985089 0.415203
O O5 0.250000 0.693397 0.567395
O O6 0.396650 0.685576 0.662254
O O7 0.367694 0.616416 0.422755
O O8 0.356244 0.801869 0.456351
O O9 0.973209 0.694467 0.332819
O O10 0.869487 0.565439 0.307550
O O11 0.964713 0.604915 0.091264
O O12 0.000000 0.500000 0.313536
O O13 0.018356 0.369171 0.822676
O O14 0.250000 0.522162 0.348120
#
# Coordination Sequence:
#
# PCOD8183760 Si02
#       6
#     8   8   8   8   8   8
#     4  10  20  37  61  88 117 156 203 247 296 366
#     4  10  21  39  61  89 124 160 198 251 315 372
#     4  10  20  36  57  81 113 153 196 239 289 353
#     4  11  22  35  59  89 120 153 198 257 309 357
#     4   9  19  37  61  84 113 154 199 240 289 362
#     4  10  20  36  59  85 115 156 201 246 296 360
#
# _framework density 20.672408999999998
#
# number of rings (size 3 to 8) (size 9 to 14) (size 15 to 20)
#    0.000    2.000    0.000    4.500    0.000    6.000 
#    0.000   10.000    0.000    4.000    0.000    0.000 
#    0.000    0.000    0.000    0.000    0.000    0.000 
#
# Total GULP energy -297389.249068 kJ/mol
# GULP energy per Si atom -12391.218711 kJ/mol
# Density = 2.062536 g / cm^3
# Si number density = 20.672409 Si / 1000 Ang^3
#
#
#
# Elastic Constant Matrix: (Units=GPa)
#
#
# Indices 1 2 3 4 5 6 
#
# 1 101.9278 41.7871 45.9263 0.0000 0.0000 0.0000
# 2 41.7871 100.1968 38.6756 0.0000 0.0000 0.0000
# 3 45.9263 38.6756 53.2780 0.0000 0.0000 0.0000
# 4 0.0000 0.0000 0.0000 32.1378 0.0000 0.0000
# 5 0.0000 0.0000 0.0000 0.0000 32.3269 0.0000
# 6 0.0000 0.0000 0.0000 0.0000 0.0000 40.9637
#
#
#
# Elastic Compliance Matrix: (Units=1/GPa)
#
#
# Indices 1 2 3 4 5 6 
#
# 1 0.016300 -0.001909 -0.012665 0.000000 0.000000 0.000000
# 2 -0.001909 0.014089 -0.008582 0.000000 0.000000 0.000000
# 3 -0.012665 -0.008582 0.035916 0.000000 0.000000 0.000000
# 4 0.000000 0.000000 0.000000 0.031116 0.000000 0.000000
# 5 0.000000 0.000000 0.000000 0.000000 0.030934 0.000000
# 6 0.000000 0.000000 0.000000 0.000000 0.000000 0.024412
#
#
# Mechanical properties :
#
#
# Convention : Reuss Voigt Hill
#
# Bulk Modulus (GPa) = 50.01551 56.46450 53.24000
# Shear Modulus (GPa) = 24.30201 29.68659 26.99430
#
# Velocity S-wave (km/s) = 3.43239 3.79363 3.61752
# Velocity P-wave (km/s) = 6.32102 6.82364 6.57713
#
# Compressibility (1/GPa) = 0.01999380
#
# Stress axis : x y z
#
# Youngs Moduli (GPa) = 61.34900 70.97648 27.84238
#
# Poissons Ratio (x) = 0.13552 0.35262
# Poissons Ratio (y) = 0.11714 0.23893
# Poissons Ratio (z) = 0.77698 0.60910
#
# Static dielectric constant tensor:
#      x y z
#    x 4.117670 0.000000 0.000000 
#    y 0.000000 4.204050 0.000000 
#    z 0.000000 0.000000 3.514130 
# 
# 
# High freq. dielectric constant tensor:
#      x y z
#    x 1.827770 0.000000 0.000000 
#    y 0.000000 1.812350 0.000000 
#    z 0.000000 0.000000 1.779560 
# 
# From -- ./inp_files/7462.got.cif
#   From: 2010.03.12/outbox.cif.g09.slc.cpg/sg40_4_cif.got.tgz:7462.got - 2010.04.14 01:38:03.
