data_PCOD8183601
_publ_section_title
;
Structure prediction by ZEFSAII (Michael W. Deem and Ramdas Pophale) SiO2 
 PCOD8183601
Probable space group: A M A 2
;
_chemical_formula_sum "Si O2"
_cell_formula_units_Z 48
_cell_length_a 9.112450
_cell_length_b 22.639974
_cell_length_c 11.485102
_cell_angle_alpha 90.000000
_cell_angle_beta 90.000000
_cell_angle_gamma 90.000000
_cell_volume 2369.441216
_symmetry_space_group_name_H-M "A M A 2"
_symmetry_group_IT_number 40
_symmetry_cell_setting 'orthorhombic'
loop_
_space_group_symop_operation_xyz
x,y,z
-x,-y,z
1/2-x,y,z
1/2+x,-y,z
x,1/2+y,1/2+z
-x,1/2-y,1/2+z
1/2-x,1/2+y,1/2+z
1/2+x,1/2-y,1/2+z
loop_
_atom_site_type_symbol
_atom_site_label
_atom_site_fract_x
_atom_site_fract_y
_atom_site_fract_z
Si Si1 0.585272 0.642643 0.780780
Si Si2 0.919687 0.361995 0.142360
Si Si3 0.578513 0.271830 0.938734
Si Si4 0.089190 0.445410 0.991884
Si Si5 0.918900 0.343226 0.404742
Si Si6 0.078846 0.063287 0.093813
O O1 0.750000 0.658134 0.734365
O O2 0.502939 0.701802 0.824278
O O3 0.491296 0.608809 0.684633
O O4 0.599279 0.602175 0.892256
O O5 0.750000 0.379047 0.139274
O O6 0.971716 0.346971 0.271825
O O7 0.008594 0.419809 0.104813
O O8 0.954655 0.307935 0.056243
O O9 0.750000 0.270481 0.910197
O O10 0.518599 0.206470 0.965640
O O11 0.250000 0.466596 0.030277
O O12 0.000000 0.500000 0.939692
O O13 0.750000 0.323099 0.413443
O O14 0.940985 0.406475 0.467477
O O15 0.250000 0.053808 0.124991
O O16 0.000000 0.000000 0.095501
#
# Coordination Sequence:
#
# PCOD8183601 Si02
#       6
#     8   8   8   8   8   8
#     4  10  21  38  61  88 120 157 198 248 302 354
#     4   9  20  39  58  81 114 151 192 239 290 350
#     4  10  21  37  61  91 119 152 198 247 302 362
#     4  10  20  34  56  85 114 149 189 238 291 345
#     4  10  23  41  60  85 120 159 198 246 300 358
#     4  11  24  41  61  88 123 164 209 254 303 362
#
# _framework density 20.257940000000001
#
# number of rings (size 3 to 8) (size 9 to 14) (size 15 to 20)
#    0.000    2.000    0.000    2.500    2.333    6.667 
#    0.000    1.667    0.000    0.000    0.000    0.000 
#    0.000    0.000    0.000    0.000    0.000    0.000 
#
# Total GULP energy -297622.893918 kJ/mol
# GULP energy per Si atom -12400.953913 kJ/mol
# Density = 2.021183 g / cm^3
# Si number density = 20.257940 Si / 1000 Ang^3
#
#
#
# Elastic Constant Matrix: (Units=GPa)
#
#
# Indices 1 2 3 4 5 6 
#
# 1 116.1103 36.8973 37.7416 0.0000 0.0000 0.0000
# 2 36.8973 71.1860 15.7761 0.0000 0.0000 0.0000
# 3 37.7416 15.7761 89.0439 0.0000 0.0000 0.0000
# 4 0.0000 0.0000 0.0000 20.7907 0.0000 0.0000
# 5 0.0000 0.0000 0.0000 0.0000 10.2384 0.0000
# 6 0.0000 0.0000 0.0000 0.0000 0.0000 40.4814
#
#
#
# Elastic Compliance Matrix: (Units=1/GPa)
#
#
# Indices 1 2 3 4 5 6 
#
# 1 0.011525 -0.005091 -0.003983 0.000000 0.000000 0.000000
# 2 -0.005091 0.016871 -0.000831 0.000000 0.000000 0.000000
# 3 -0.003983 -0.000831 0.013066 0.000000 0.000000 0.000000
# 4 0.000000 0.000000 0.000000 0.048098 0.000000 0.000000
# 5 0.000000 0.000000 0.000000 0.000000 0.097672 0.000000
# 6 0.000000 0.000000 0.000000 0.000000 0.000000 0.024703
#
#
# Mechanical properties :
#
#
# Convention : Reuss Voigt Hill
#
# Bulk Modulus (GPa) = 46.18652 50.79671 48.49162
# Shear Modulus (GPa) = 20.92387 26.69711 23.81049
#
# Velocity S-wave (km/s) = 3.21732 3.63417 3.43208
# Velocity P-wave (km/s) = 6.05394 6.53751 6.30037
#
# Compressibility (1/GPa) = 0.02165134
#
# Stress axis : x y z
#
# Youngs Moduli (GPa) = 86.76839 59.27449 76.53540
#
# Poissons Ratio (x) = 0.30176 0.30483
# Poissons Ratio (y) = 0.44173 0.06362
# Poissons Ratio (z) = 0.34559 0.04927
#
# Static dielectric constant tensor:
#      x y z
#    x 3.975370 0.000000 0.000000 
#    y 0.000000 3.644330 0.000000 
#    z 0.000000 0.000000 3.681850 
# 
# 
# High freq. dielectric constant tensor:
#      x y z
#    x 1.802060 0.000000 0.000000 
#    y 0.000000 1.790490 0.000000 
#    z 0.000000 0.000000 1.784800 
# 
# From -- ./inp_files/10238.got.cif
#   From: 2010.03.12/outbox.cif.g09.slc.cpg/sg40_6_cif.got.tgz:10238.got - 2010.04.14 01:38:03.
