data_PCOD8183235
_publ_section_title
;
Structure prediction by ZEFSAII (Michael W. Deem and Ramdas Pophale) SiO2 
 PCOD8183235
Probable space group: A M A 2
;
_chemical_formula_sum "Si O2"
_cell_formula_units_Z 64
_cell_length_a 8.709406
_cell_length_b 20.874048
_cell_length_c 19.530516
_cell_angle_alpha 90.000000
_cell_angle_beta 90.000000
_cell_angle_gamma 90.000000
_cell_volume 3550.658724
_symmetry_space_group_name_H-M "A M A 2"
_symmetry_group_IT_number 40
_symmetry_cell_setting 'orthorhombic'
loop_
_space_group_symop_operation_xyz
x,y,z
-x,-y,z
1/2-x,y,z
1/2+x,-y,z
x,1/2+y,1/2+z
-x,1/2-y,1/2+z
1/2-x,1/2+y,1/2+z
1/2+x,1/2-y,1/2+z
loop_
_atom_site_type_symbol
_atom_site_label
_atom_site_fract_x
_atom_site_fract_y
_atom_site_fract_z
Si Si1 0.426884 0.767148 0.897960
Si Si2 0.930805 0.813112 0.029117
Si Si3 0.071457 0.756479 0.746270
Si Si4 0.567291 0.433817 0.614577
Si Si5 0.431887 0.933935 0.527165
Si Si6 0.431098 0.379577 0.748862
Si Si7 0.930042 0.688803 0.105508
Si Si8 0.069249 0.118949 0.393372
O O1 0.250000 0.778236 0.915060
O O2 0.465717 0.788161 0.819882
O O3 0.472715 0.692999 0.907233
O O4 0.523534 0.811385 0.949281
O O5 0.750000 0.812349 0.036213
O O6 0.993790 0.877391 0.064691
O O7 0.001992 0.750806 0.067384
O O8 0.250000 0.734475 0.744319
O O9 0.034280 0.807648 0.686731
O O10 0.970198 0.694091 0.732917
O O11 0.500000 0.500000 0.584920
O O12 0.750000 0.436268 0.617236
O O13 0.501423 0.423969 0.690314
O O14 0.250000 0.937170 0.529857
O O15 0.499317 0.876614 0.574652
O O16 0.486428 0.924206 0.449601
O O17 0.500000 0.000000 0.556204
O O18 0.250000 0.388982 0.752181
O O19 0.505498 0.402324 0.819978
O O20 0.750000 0.688734 0.091469
O O21 0.250000 0.106993 0.395854
#
# Coordination Sequence:
#
# PCOD8183235 Si02
#       8
#     8   8   8   8   8   8   8   8
#     4   9  18  30  52  82 110 135 170 223 267 309
#     4  10  19  34  57  79 105 141 177 217 263 317
#     4   9  17  34  55  79 108 141 179 220 269 314
#     4  11  23  39  56  77 107 143 179 220 268 319
#     4  11  22  36  54  78 108 143 181 222 268 319
#     4  11  21  33  52  80 110 143 179 218 262 315
#     4   9  17  33  57  79 103 140 180 219 265 317
#     4  10  20  35  53  76 108 146 182 219 260 312
#
# _framework density 18.024823999999999
#
# number of rings (size 3 to 8) (size 9 to 14) (size 15 to 20)
#    0.000    2.000    2.500    3.000    0.000    3.500 
#    0.000    3.750    0.000    0.750    0.000    3.500 
#    0.000    0.000    0.000    0.000    0.000    0.000 
#
# Total GULP energy -396823.764654 kJ/mol
# GULP energy per Si atom -12400.742645 kJ/mol
# Density = 1.798380 g / cm^3
# Si number density = 18.024824 Si / 1000 Ang^3
#
#
#
# Elastic Constant Matrix: (Units=GPa)
#
#
# Indices 1 2 3 4 5 6 
#
# 1 57.4460 31.1133 22.2721 0.0000 0.0000 0.0000
# 2 31.1133 124.1853 65.7804 0.0000 0.0000 0.0000
# 3 22.2721 65.7804 113.8965 0.0000 0.0000 0.0000
# 4 0.0000 0.0000 0.0000 26.7277 0.0000 0.0000
# 5 0.0000 0.0000 0.0000 0.0000 26.5855 0.0000
# 6 0.0000 0.0000 0.0000 0.0000 0.0000 23.1072
#
#
#
# Elastic Compliance Matrix: (Units=1/GPa)
#
#
# Indices 1 2 3 4 5 6 
#
# 1 0.020314 -0.004301 -0.001488 0.000000 0.000000 0.000000
# 2 -0.004301 0.012512 -0.006385 0.000000 0.000000 0.000000
# 3 -0.001488 -0.006385 0.012759 0.000000 0.000000 0.000000
# 4 0.000000 0.000000 0.000000 0.037414 0.000000 0.000000
# 5 0.000000 0.000000 0.000000 0.000000 0.037615 0.000000
# 6 0.000000 0.000000 0.000000 0.000000 0.000000 0.043277
#
#
# Mechanical properties :
#
#
# Convention : Reuss Voigt Hill
#
# Bulk Modulus (GPa) = 47.09042 59.31769 53.20406
# Shear Modulus (GPa) = 25.59912 27.04154 26.32033
#
# Velocity S-wave (km/s) = 3.77266 3.87749 3.82544
# Velocity P-wave (km/s) = 6.72007 7.28196 7.00665
#
# Compressibility (1/GPa) = 0.02123574
#
# Stress axis : x y z
#
# Youngs Moduli (GPa) = 49.22660 79.92058 78.37740
#
# Poissons Ratio (x) = 0.34375 0.11664
# Poissons Ratio (y) = 0.21173 0.50047
# Poissons Ratio (z) = 0.07326 0.51033
#
# Static dielectric constant tensor:
#      x y z
#    x 3.171420 0.000000 0.000000 
#    y 0.000000 3.321300 0.000000 
#    z 0.000000 0.000000 3.462080 
# 
# 
# High freq. dielectric constant tensor:
#      x y z
#    x 1.688860 0.000000 0.000000 
#    y 0.000000 1.675340 0.000000 
#    z 0.000000 0.000000 1.700880 
# 
# From -- ./inp_files/19639.got.cif
#   From: 2010.03.12/outbox.cif.g09.slc.cpg/sg40_10_cif.got.tgz:19639.got - 2010.04.14 01:38:03.
