data_PCOD8183701
_publ_section_title
;
Structure prediction by ZEFSAII (Michael W. Deem and Ramdas Pophale) SiO2 
 PCOD8183701
Probable space group: A M A 2
;
_chemical_formula_sum "Si O2"
_cell_formula_units_Z 52
_cell_length_a 15.267674
_cell_length_b 15.348431
_cell_length_c 11.471605
_cell_angle_alpha 90.000000
_cell_angle_beta 90.000000
_cell_angle_gamma 90.000000
_cell_volume 2688.196733
_symmetry_space_group_name_H-M "A M A 2"
_symmetry_group_IT_number 40
_symmetry_cell_setting 'orthorhombic'
loop_
_space_group_symop_operation_xyz
x,y,z
-x,-y,z
1/2-x,y,z
1/2+x,-y,z
x,1/2+y,1/2+z
-x,1/2-y,1/2+z
1/2-x,1/2+y,1/2+z
1/2+x,1/2-y,1/2+z
loop_
_atom_site_type_symbol
_atom_site_label
_atom_site_fract_x
_atom_site_fract_y
_atom_site_fract_z
Si Si1 0.507775 0.654549 0.571070
Si Si2 0.935381 0.820945 0.704086
Si Si3 0.150151 0.229360 0.925440
Si Si4 0.935742 0.581119 0.343088
Si Si5 0.846511 0.987897 0.651203
Si Si6 0.000000 0.500000 0.749214
Si Si7 0.148867 0.928570 0.409251
O O1 0.558237 0.737895 0.621319
O O2 0.414948 0.681593 0.515014
O O3 0.576327 0.612938 0.476697
O O4 0.485681 0.585373 0.670897
O O5 0.857171 0.814085 0.798433
O O6 0.914440 0.908758 0.633130
O O7 0.026567 0.835638 0.772447
O O8 0.250000 0.221478 0.971933
O O9 0.120977 0.328238 0.902520
O O10 0.852508 0.544343 0.271961
O O11 0.000000 0.500000 0.346354
O O12 0.750000 0.948350 0.644792
O O13 0.865826 0.050826 0.544135
O O14 0.913334 0.512972 0.827609
O O15 0.250000 0.943305 0.370283
#
# Coordination Sequence:
#
# PCOD8183701 Si02
#       7
#     8   8   8   8   8   4   8
#     4  11  22  37  59  89 118 155 200 248 299 364
#     4  10  20  35  58  86 115 152 195 240 290 356
#     4  10  21  39  60  86 119 157 197 244 301 365
#     4   9  19  35  57  82 114 147 192 241 290 355
#     4  10  21  38  59  84 114 152 198 246 298 356
#     4  12  24  40  60  88 126 164 202 256 306 360
#     4  10  23  40  62  91 121 159 204 249 305 366
#
# _framework density 19.343823
#
# number of rings (size 3 to 8) (size 9 to 14) (size 15 to 20)
#    0.000    1.846    2.308    1.385    5.385    0.615 
#    0.000    2.308    0.000    3.692    0.000    0.000 
#    0.000    0.000    0.000    0.000    0.000    0.000 
#
# Total GULP energy -322237.225897 kJ/mol
# GULP energy per Si atom -12393.739458 kJ/mol
# Density = 1.929980 g / cm^3
# Si number density = 19.343823 Si / 1000 Ang^3
#
#
#
# Elastic Constant Matrix: (Units=GPa)
#
#
# Indices 1 2 3 4 5 6 
#
# 1 72.7041 27.2249 42.2807 0.0000 0.0000 0.0000
# 2 27.2249 94.4258 39.4911 0.0000 0.0000 0.0000
# 3 42.2807 39.4911 103.6320 0.0000 0.0000 0.0000
# 4 0.0000 0.0000 0.0000 40.5546 0.0000 0.0000
# 5 0.0000 0.0000 0.0000 0.0000 23.4317 0.0000
# 6 0.0000 0.0000 0.0000 0.0000 0.0000 25.4893
#
#
#
# Elastic Compliance Matrix: (Units=1/GPa)
#
#
# Indices 1 2 3 4 5 6 
#
# 1 0.018553 -0.002598 -0.006580 0.000000 0.000000 0.000000
# 2 -0.002598 0.012962 -0.003880 0.000000 0.000000 0.000000
# 3 -0.006580 -0.003880 0.013812 0.000000 0.000000 0.000000
# 4 0.000000 0.000000 0.000000 0.024658 0.000000 0.000000
# 5 0.000000 0.000000 0.000000 0.000000 0.042677 0.000000
# 6 0.000000 0.000000 0.000000 0.000000 0.000000 0.039232
#
#
# Mechanical properties :
#
#
# Convention : Reuss Voigt Hill
#
# Bulk Modulus (GPa) = 52.04570 54.30614 53.17592
# Shear Modulus (GPa) = 27.11295 28.67945 27.89620
#
# Velocity S-wave (km/s) = 3.74790 3.85465 3.80165
# Velocity P-wave (km/s) = 6.75966 6.92432 6.84249
#
# Compressibility (1/GPa) = 0.01921388
#
# Stress axis : x y z
#
# Youngs Moduli (GPa) = 53.89823 77.14986 72.39872
#
# Poissons Ratio (x) = 0.20040 0.47637
# Poissons Ratio (y) = 0.14000 0.28088
# Poissons Ratio (z) = 0.35464 0.29931
#
# Static dielectric constant tensor:
#      x y z
#    x 3.337230 0.000000 0.000000 
#    y 0.000000 3.635620 0.000000 
#    z 0.000000 0.000000 3.727620 
# 
# 
# High freq. dielectric constant tensor:
#      x y z
#    x 1.729260 0.000000 0.000000 
#    y 0.000000 1.765540 0.000000 
#    z 0.000000 0.000000 1.756400 
# 
# From -- ./inp_files/12245.got.cif
#   From: 2010.03.12/outbox.cif.g09.slc.cpg/sg40_7_cif.got.tgz:12245.got - 2010.04.14 01:38:03.
