data_PCOD8183424
_publ_section_title
;
Structure prediction by ZEFSAII (Michael W. Deem and Ramdas Pophale) SiO2 
 PCOD8183424
Probable space group: A M A 2
;
_chemical_formula_sum "Si O2"
_cell_formula_units_Z 64
_cell_length_a 18.930255
_cell_length_b 15.141294
_cell_length_c 11.501703
_cell_angle_alpha 90.000000
_cell_angle_beta 90.000000
_cell_angle_gamma 90.000000
_cell_volume 3296.716528
_symmetry_space_group_name_H-M "A M A 2"
_symmetry_group_IT_number 40
_symmetry_cell_setting 'orthorhombic'
loop_
_space_group_symop_operation_xyz
x,y,z
-x,-y,z
1/2-x,y,z
1/2+x,-y,z
x,1/2+y,1/2+z
-x,1/2-y,1/2+z
1/2-x,1/2+y,1/2+z
1/2+x,1/2-y,1/2+z
loop_
_atom_site_type_symbol
_atom_site_label
_atom_site_fract_x
_atom_site_fract_y
_atom_site_fract_z
Si Si1 0.329622 0.169939 0.427300
Si Si2 0.671285 0.375021 0.670387
Si Si3 0.170723 0.508005 0.072462
Si Si4 0.569513 0.169848 0.948458
Si Si5 0.445574 0.422380 0.206775
Si Si6 0.330177 0.859035 0.385115
Si Si7 0.667906 0.074345 0.130286
Si Si8 0.569104 0.742125 0.045653
O O1 0.250000 0.205770 0.452009
O O2 0.329933 0.114492 0.309039
O O3 0.354218 0.105886 0.532724
O O4 0.384678 0.247477 0.408768
O O5 0.750000 0.347013 0.629288
O O6 0.651223 0.470765 0.622281
O O7 0.617141 0.301292 0.628847
O O8 0.250000 0.512973 0.117881
O O9 0.129590 0.467834 0.181493
O O10 0.163123 0.447042 0.960060
O O11 0.551465 0.108848 0.838914
O O12 0.615654 0.116324 0.038788
O O13 0.496516 0.200278 0.004461
O O14 0.500000 0.500000 0.181156
O O15 0.459159 0.341641 0.118340
O O16 0.250000 0.821746 0.391157
O O17 0.351326 0.883029 0.254146
O O18 0.384873 0.786255 0.433393
O O19 0.750000 0.092756 0.100482
#
# Coordination Sequence:
#
# PCOD8183424 Si02
#       8
#     8   8   8   8   8   8   8   8
#     4  10  19  38  65  93 117 147 201 257 299 351
#     4  10  20  39  65  92 118 148 200 256 303 355
#     4   9  18  37  67  92 112 149 201 254 305 356
#     4  12  26  39  60  86 127 167 201 245 300 368
#     4  11  25  43  57  85 127 165 200 247 302 366
#     4   9  18  37  64  91 116 149 197 252 305 359
#     4  10  22  40  62  89 121 155 194 247 309 367
#     4  11  24  40  63  88 119 163 206 252 301 355
#
# _framework density 19.413254999999999
#
# number of rings (size 3 to 8) (size 9 to 14) (size 15 to 20)
#    0.000    1.750    2.500    1.500    3.500    1.500 
#    0.000    0.000    0.000    0.000    0.000    0.000 
#    0.000    0.000    0.000    0.000    0.000    0.000 
#
# Total GULP energy -396770.254470 kJ/mol
# GULP energy per Si atom -12399.070452 kJ/mol
# Density = 1.936907 g / cm^3
# Si number density = 19.413255 Si / 1000 Ang^3
#
#
#
# Elastic Constant Matrix: (Units=GPa)
#
#
# Indices 1 2 3 4 5 6 
#
# 1 94.7003 61.8482 47.8062 0.0000 0.0000 0.0000
# 2 61.8482 104.5408 47.8775 0.0000 0.0000 0.0000
# 3 47.8062 47.8775 95.9051 0.0000 0.0000 0.0000
# 4 0.0000 0.0000 0.0000 26.4232 0.0000 0.0000
# 5 0.0000 0.0000 0.0000 0.0000 35.3281 0.0000
# 6 0.0000 0.0000 0.0000 0.0000 0.0000 42.2785
#
#
#
# Elastic Compliance Matrix: (Units=1/GPa)
#
#
# Indices 1 2 3 4 5 6 
#
# 1 0.018875 -0.008890 -0.004970 0.000000 0.000000 0.000000
# 2 -0.008890 0.016588 -0.003850 0.000000 0.000000 0.000000
# 3 -0.004970 -0.003850 0.014826 0.000000 0.000000 0.000000
# 4 0.000000 0.000000 0.000000 0.037846 0.000000 0.000000
# 5 0.000000 0.000000 0.000000 0.000000 0.028306 0.000000
# 6 0.000000 0.000000 0.000000 0.000000 0.000000 0.023653
#
#
# Mechanical properties :
#
#
# Convention : Reuss Voigt Hill
#
# Bulk Modulus (GPa) = 67.25440 67.80110 67.52775
# Shear Modulus (GPa) = 27.70521 29.98026 28.84273
#
# Velocity S-wave (km/s) = 3.78183 3.93405 3.85869
# Velocity P-wave (km/s) = 7.33406 7.45899 7.39679
#
# Compressibility (1/GPa) = 0.01486891
#
# Stress axis : x y z
#
# Youngs Moduli (GPa) = 52.97983 60.28299 67.44731
#
# Poissons Ratio (x) = 0.53594 0.33524
# Poissons Ratio (y) = 0.47102 0.25964
# Poissons Ratio (z) = 0.26333 0.23206
#
# Static dielectric constant tensor:
#      x y z
#    x 3.586390 0.000000 0.000000 
#    y 0.000000 3.612790 0.000000 
#    z 0.000000 0.000000 3.405180 
# 
# 
# High freq. dielectric constant tensor:
#      x y z
#    x 1.759160 0.000000 0.000000 
#    y 0.000000 1.761160 0.000000 
#    z 0.000000 0.000000 1.749480 
# 
# From -- ./inp_files/13114.got.cif
#   From: 2010.03.12/outbox.cif.g09.slc.cpg/sg40_7_cif.got.tgz:13114.got - 2010.04.14 01:38:03.
