data_PCOD8183567
_publ_section_title
;
Structure prediction by ZEFSAII (Michael W. Deem and Ramdas Pophale) SiO2 
 PCOD8183567
Probable space group: A M A 2
;
_chemical_formula_sum "Si O2"
_cell_formula_units_Z 64
_cell_length_a 9.054552
_cell_length_b 24.879362
_cell_length_c 15.230603
_cell_angle_alpha 90.000000
_cell_angle_beta 90.000000
_cell_angle_gamma 90.000000
_cell_volume 3431.020433
_symmetry_space_group_name_H-M "A M A 2"
_symmetry_group_IT_number 40
_symmetry_cell_setting 'orthorhombic'
loop_
_space_group_symop_operation_xyz
x,y,z
-x,-y,z
1/2-x,y,z
1/2+x,-y,z
x,1/2+y,1/2+z
-x,1/2-y,1/2+z
1/2-x,1/2+y,1/2+z
1/2+x,1/2-y,1/2+z
loop_
_atom_site_type_symbol
_atom_site_label
_atom_site_fract_x
_atom_site_fract_y
_atom_site_fract_z
Si Si1 0.574262 0.943433 0.281360
Si Si2 0.925418 0.945300 0.914667
Si Si3 0.425517 0.102291 0.095383
Si Si4 0.924486 0.664835 0.103456
Si Si5 0.075995 0.717509 0.632722
Si Si6 0.918941 0.134666 0.414039
Si Si7 0.921650 0.855117 0.780267
Si Si8 0.916629 0.734897 0.804057
O O1 0.750000 0.949192 0.283436
O O2 0.515874 0.923416 0.186248
O O3 0.526209 0.901792 0.356495
O O4 0.500000 0.000000 0.303086
O O5 0.750000 0.951200 0.913599
O O6 0.979918 0.899301 0.848310
O O7 0.984348 0.931318 0.012451
O O8 0.000000 0.000000 0.883076
O O9 0.250000 0.102037 0.096864
O O10 0.482894 0.163945 0.083660
O O11 0.750000 0.666048 0.117672
O O12 0.986023 0.726336 0.093929
O O13 0.996383 0.636703 0.187704
O O14 0.965983 0.631210 0.016348
O O15 0.250000 0.717985 0.628459
O O16 0.028754 0.711240 0.733425
O O17 0.750000 0.115272 0.400549
O O18 0.933115 0.197977 0.389987
O O19 0.750000 0.863128 0.761380
O O20 0.954823 0.797091 0.824574
O O21 0.750000 0.731415 0.766436
#
# Coordination Sequence:
#
# PCOD8183567 Si02
#       8
#     8   8   8   8   8   8   8   8
#     4  11  22  37  56  79 108 146 183 224 268 316
#     4  10  21  37  56  78 105 140 182 225 267 317
#     4   9  18  32  53  80 109 141 176 213 262 319
#     4   9  19  33  54  80 110 143 176 219 267 319
#     4   9  16  30  51  77 108 141 176 209 254 316
#     4  10  20  34  53  81 111 143 180 220 269 322
#     4   9  19  35  55  78 106 141 180 223 273 319
#     4   9  17  30  50  77 108 138 172 215 262 315
#
# _framework density 18.653344000000001
#
# number of rings (size 3 to 8) (size 9 to 14) (size 15 to 20)
#    0.000    2.500    1.250    0.750    1.750    1.000 
#    0.000    1.875    0.000    1.500    0.000    0.000 
#    0.000    0.000    0.000    0.000    0.000    0.000 
#
# Total GULP energy -396672.401156 kJ/mol
# GULP energy per Si atom -12396.012536 kJ/mol
# Density = 1.861089 g / cm^3
# Si number density = 18.653344 Si / 1000 Ang^3
#
#
#
# Elastic Constant Matrix: (Units=GPa)
#
#
# Indices 1 2 3 4 5 6 
#
# 1 27.1801 31.5162 30.3320 0.0000 0.0000 0.0000
# 2 31.5162 121.5472 64.3023 0.0000 0.0000 0.0000
# 3 30.3320 64.3023 120.7600 0.0000 0.0000 0.0000
# 4 0.0000 0.0000 0.0000 27.7367 0.0000 0.0000
# 5 0.0000 0.0000 0.0000 0.0000 26.5266 0.0000
# 6 0.0000 0.0000 0.0000 0.0000 0.0000 25.4371
#
#
#
# Elastic Compliance Matrix: (Units=1/GPa)
#
#
# Indices 1 2 3 4 5 6 
#
# 1 0.059321 -0.010440 -0.009341 0.000000 0.000000 0.000000
# 2 -0.010440 0.013291 -0.004455 0.000000 0.000000 0.000000
# 3 -0.009341 -0.004455 0.012999 0.000000 0.000000 0.000000
# 4 0.000000 0.000000 0.000000 0.036053 0.000000 0.000000
# 5 0.000000 0.000000 0.000000 0.000000 0.037698 0.000000
# 6 0.000000 0.000000 0.000000 0.000000 0.000000 0.039313
#
#
# Mechanical properties :
#
#
# Convention : Reuss Voigt Hill
#
# Bulk Modulus (GPa) = 26.92524 57.97648 42.45086
# Shear Modulus (GPa) = 19.26580 25.49586 22.38083
#
# Velocity S-wave (km/s) = 3.21726 3.70107 3.46761
# Velocity P-wave (km/s) = 5.31666 7.02939 6.23215
#
# Compressibility (1/GPa) = 0.03713987
#
# Stress axis : x y z
#
# Youngs Moduli (GPa) = 16.85738 75.23863 76.92699
#
# Poissons Ratio (x) = 0.78548 0.71858
# Poissons Ratio (y) = 0.17599 0.34271
# Poissons Ratio (z) = 0.15747 0.33519
#
# Static dielectric constant tensor:
#      x y z
#    x 3.205530 0.000000 0.000000 
#    y 0.000000 3.543620 0.000000 
#    z 0.000000 0.000000 3.407040 
# 
# 
# High freq. dielectric constant tensor:
#      x y z
#    x 1.701210 0.000000 0.000000 
#    y 0.000000 1.725120 0.000000 
#    z 0.000000 0.000000 1.717330 
# 
# From -- ./inp_files/15576.got.cif
#   From: 2010.03.12/outbox.cif.g09.slc.cpg/sg40_8_cif.got.tgz:15576.got - 2010.04.14 01:38:03.
