data_PCOD8183342
_publ_section_title
;
Structure prediction by ZEFSAII (Michael W. Deem and Ramdas Pophale) SiO2 
 PCOD8183342
Probable space group: A M A 2
;
_chemical_formula_sum "Si O2"
_cell_formula_units_Z 64
_cell_length_a 13.499716
_cell_length_b 25.818617
_cell_length_c 9.531500
_cell_angle_alpha 90.000000
_cell_angle_beta 90.000000
_cell_angle_gamma 90.000000
_cell_volume 3322.147108
_symmetry_space_group_name_H-M "A M A 2"
_symmetry_group_IT_number 40
_symmetry_cell_setting 'orthorhombic'
loop_
_space_group_symop_operation_xyz
x,y,z
-x,-y,z
1/2-x,y,z
1/2+x,-y,z
x,1/2+y,1/2+z
-x,1/2-y,1/2+z
1/2-x,1/2+y,1/2+z
1/2+x,1/2-y,1/2+z
loop_
_atom_site_type_symbol
_atom_site_label
_atom_site_fract_x
_atom_site_fract_y
_atom_site_fract_z
Si Si1 0.047952 0.240898 0.360080
Si Si2 0.861314 0.806075 0.864350
Si Si3 0.860726 0.536053 0.788131
Si Si4 0.436283 0.575551 0.860856
Si Si5 0.553897 0.845919 0.590518
Si Si6 0.639711 0.108551 0.047801
Si Si7 0.554114 0.342405 0.638929
Si Si8 0.362243 0.844216 0.767287
O O1 0.070676 0.203747 0.490733
O O2 0.066455 0.213061 0.211986
O O3 0.116462 0.291971 0.358205
O O4 0.932869 0.256698 0.368283
O O5 0.750000 0.785427 0.873031
O O6 0.876194 0.840164 0.724684
O O7 0.885046 0.843716 0.994919
O O8 0.750000 0.550906 0.840295
O O9 0.877535 0.476213 0.824154
O O10 0.872103 0.551298 0.621301
O O11 0.944590 0.568359 0.868947
O O12 0.401383 0.613464 0.737833
O O13 0.411310 0.601785 0.010550
O O14 0.438877 0.849893 0.639171
O O15 0.750000 0.129946 0.080010
O O16 0.562427 0.148259 0.115832
O O17 0.624495 0.107848 0.878266
O O18 0.250000 0.842918 0.707882
#
# Coordination Sequence:
#
# PCOD8183342 Si02
#       8
#     8   8   8   8   8   8   8   8
#     4  10  21  35  52  78 112 154 192 227 269 325
#     4  11  22  34  51  76 113 151 187 226 269 324
#     4   9  18  35  60  86 107 133 183 233 277 336
#     4   9  20  36  60  82 108 146 179 230 288 330
#     4  10  21  37  54  80 116 149 187 230 279 332
#     4   9  17  32  57  83 105 138 185 235 278 320
#     4  10  19  36  54  77 111 146 189 228 270 330
#     4  10  20  33  54  80 115 152 188 234 282 327
#
# _framework density 19.26465
#
# number of rings (size 3 to 8) (size 9 to 14) (size 15 to 20)
#    0.000    2.250    2.500    1.500    0.000    4.500 
#    0.000    5.000    5.500    0.000    0.000    0.000 
#    0.000    0.000    0.000    0.000    0.000    0.000 
#
# Total GULP energy -396474.321712 kJ/mol
# GULP energy per Si atom -12389.822553 kJ/mol
# Density = 1.922080 g / cm^3
# Si number density = 19.264650 Si / 1000 Ang^3
#
#
#
# Elastic Constant Matrix: (Units=GPa)
#
#
# Indices 1 2 3 4 5 6 
#
# 1 75.8958 1.8674 14.3864 0.0000 0.0000 0.0000
# 2 1.8674 77.6682 44.1192 0.0000 0.0000 0.0000
# 3 14.3864 44.1192 117.8913 0.0000 0.0000 0.0000
# 4 0.0000 0.0000 0.0000 20.1887 0.0000 0.0000
# 5 0.0000 0.0000 0.0000 0.0000 16.1953 0.0000
# 6 0.0000 0.0000 0.0000 0.0000 0.0000 12.9439
#
#
#
# Elastic Compliance Matrix: (Units=1/GPa)
#
#
# Indices 1 2 3 4 5 6 
#
# 1 0.013525 0.000778 -0.001941 0.000000 0.000000 0.000000
# 2 0.000778 0.016396 -0.006231 0.000000 0.000000 0.000000
# 3 -0.001941 -0.006231 0.011051 0.000000 0.000000 0.000000
# 4 0.000000 0.000000 0.000000 0.049533 0.000000 0.000000
# 5 0.000000 0.000000 0.000000 0.000000 0.061746 0.000000
# 6 0.000000 0.000000 0.000000 0.000000 0.000000 0.077256
#
#
# Mechanical properties :
#
#
# Convention : Reuss Voigt Hill
#
# Bulk Modulus (GPa) = 38.19328 43.57791 40.88560
# Shear Modulus (GPa) = 19.76093 23.93773 21.84933
#
# Velocity S-wave (km/s) = 3.20623 3.52884 3.37139
# Velocity P-wave (km/s) = 5.79440 6.26685 6.03525
#
# Compressibility (1/GPa) = 0.02618261
#
# Stress axis : x y z
#
# Youngs Moduli (GPa) = 73.93801 60.99037 90.48842
#
# Poissons Ratio (x) = -0.04743 0.17568
# Poissons Ratio (y) = -0.05750 0.56382
# Poissons Ratio (z) = 0.14355 0.38002
#
# Static dielectric constant tensor:
#      x y z
#    x 3.485200 0.000000 0.000000 
#    y 0.000000 3.432200 0.000000 
#    z 0.000000 0.000000 3.610580 
# 
# 
# High freq. dielectric constant tensor:
#      x y z
#    x 1.748120 0.000000 0.000000 
#    y 0.000000 1.725070 0.000000 
#    z 0.000000 0.000000 1.749160 
# 
# From -- ./inp_files/6962.got.cif
#   From: 2010.03.12/outbox.cif.g09.slc.cpg/sg40_4_cif.got.tgz:6962.got - 2010.04.14 01:38:03.
