data_PCOD8183552
_publ_section_title
;
Structure prediction by ZEFSAII (Michael W. Deem and Ramdas Pophale) SiO2 
 PCOD8183552
Probable space group: A M A 2
;
_chemical_formula_sum "Si O2"
_cell_formula_units_Z 64
_cell_length_a 8.920016
_cell_length_b 14.586150
_cell_length_c 27.838161
_cell_angle_alpha 90.000000
_cell_angle_beta 90.000000
_cell_angle_gamma 90.000000
_cell_volume 3621.986698
_symmetry_space_group_name_H-M "A M A 2"
_symmetry_group_IT_number 40
_symmetry_cell_setting 'orthorhombic'
loop_
_space_group_symop_operation_xyz
x,y,z
-x,-y,z
1/2-x,y,z
1/2+x,-y,z
x,1/2+y,1/2+z
-x,1/2-y,1/2+z
1/2-x,1/2+y,1/2+z
1/2+x,1/2-y,1/2+z
loop_
_atom_site_type_symbol
_atom_site_label
_atom_site_fract_x
_atom_site_fract_y
_atom_site_fract_z
Si Si1 0.572833 0.592831 0.233800
Si Si2 0.913570 0.853424 0.641277
Si Si3 0.429467 0.774443 0.270171
Si Si4 0.925438 0.093544 0.353310
Si Si5 0.087970 0.851591 0.175295
Si Si6 0.571111 0.590643 0.576795
Si Si7 0.927044 0.286890 0.040616
Si Si8 0.426481 0.905417 0.462581
O O1 0.500000 0.500000 0.254726
O O2 0.750000 0.590403 0.239782
O O3 0.531690 0.599601 0.177101
O O4 0.506978 0.675818 0.265529
O O5 0.750000 0.903273 0.645113
O O6 0.887241 0.749673 0.655570
O O7 0.972039 0.851606 0.586116
O O8 0.250000 0.761650 0.264909
O O9 0.476180 0.820808 0.320347
O O10 0.492227 0.842025 0.227316
O O11 0.750000 0.078105 0.348888
O O12 0.973971 0.115855 0.407720
O O13 0.000000 0.000000 0.334843
O O14 0.250000 0.898291 0.183786
O O15 0.004839 0.905335 0.132030
O O16 0.500000 0.500000 0.552269
O O17 0.750000 0.584135 0.577876
O O18 0.521491 0.681275 0.547919
O O19 0.750000 0.292346 0.032028
O O20 0.013764 0.321771 0.994067
O O21 0.250000 0.914554 0.468375
O O22 0.500000 0.000000 0.480195
#
# Coordination Sequence:
#
# PCOD8183552 Si02
#       8
#     8   8   8   8   8   8   8   8
#     4  11  21  32  48  72 101 133 168 203 242 289
#     4   8  15  30  48  65  90 125 163 200 239 282
#     4   9  17  33  53  71  97 132 166 201 242 286
#     4   9  19  34  53  76 101 128 158 198 248 299
#     4   7  12  25  44  63  87 121 155 188 227 271
#     4   9  17  29  45  68  98 130 163 196 234 280
#     4   9  18  33  52  72  97 131 168 206 248 292
#     4  10  20  34  52  75 100 126 159 200 249 301
#
# _framework density 17.669861000000001
#
# number of rings (size 3 to 8) (size 9 to 14) (size 15 to 20)
#    0.000    3.000    0.000    3.750    0.000    3.000 
#    0.000    5.000    0.000    0.750    0.000    1.750 
#    0.000    0.000    0.000    0.000    0.000    0.000 
#
# Total GULP energy -396455.134435 kJ/mol
# GULP energy per Si atom -12389.222951 kJ/mol
# Density = 1.762964 g / cm^3
# Si number density = 17.669861 Si / 1000 Ang^3
#
#
#
# Elastic Constant Matrix: (Units=GPa)
#
#
# Indices 1 2 3 4 5 6 
#
# 1 62.9078 46.3354 35.1742 0.0000 0.0000 0.0000
# 2 46.3354 117.7999 61.6488 0.0000 0.0000 0.0000
# 3 35.1742 61.6488 97.5149 0.0000 0.0000 0.0000
# 4 0.0000 0.0000 0.0000 23.7258 0.0000 0.0000
# 5 0.0000 0.0000 0.0000 0.0000 14.2028 0.0000
# 6 0.0000 0.0000 0.0000 0.0000 0.0000 27.2464
#
#
#
# Elastic Compliance Matrix: (Units=1/GPa)
#
#
# Indices 1 2 3 4 5 6 
#
# 1 0.023336 -0.007134 -0.003907 0.000000 0.000000 0.000000
# 2 -0.007134 0.014867 -0.006826 0.000000 0.000000 0.000000
# 3 -0.003907 -0.006826 0.015979 0.000000 0.000000 0.000000
# 4 0.000000 0.000000 0.000000 0.042148 0.000000 0.000000
# 5 0.000000 0.000000 0.000000 0.000000 0.070409 0.000000
# 6 0.000000 0.000000 0.000000 0.000000 0.000000 0.036702
#
#
# Mechanical properties :
#
#
# Convention : Reuss Voigt Hill
#
# Bulk Modulus (GPa) = 54.20549 62.72661 58.46605
# Shear Modulus (GPa) = 20.38117 22.03928 21.21022
#
# Velocity S-wave (km/s) = 3.39992 3.53552 3.46838
# Velocity P-wave (km/s) = 6.79382 7.22792 7.01423
#
# Compressibility (1/GPa) = 0.01844832
#
# Stress axis : x y z
#
# Youngs Moduli (GPa) = 42.85298 67.26194 62.58062
#
# Poissons Ratio (x) = 0.47985 0.24451
# Poissons Ratio (y) = 0.30572 0.42716
# Poissons Ratio (z) = 0.16743 0.45911
#
# Static dielectric constant tensor:
#      x y z
#    x 3.064310 0.000000 0.000000 
#    y 0.000000 3.249700 0.000000 
#    z 0.000000 0.000000 3.438600 
# 
# 
# High freq. dielectric constant tensor:
#      x y z
#    x 1.666370 0.000000 0.000000 
#    y 0.000000 1.674640 0.000000 
#    z 0.000000 0.000000 1.667190 
# 
# From -- ./inp_files/26465.got.cif
#   From: 2010.03.12/outbox.cif.g09.slc.cpg/sg40_14_cif.got.tgz:26465.got - 2010.04.14 01:38:03.
