data_PCOD8183691
_publ_section_title
;
Structure prediction by ZEFSAII (Michael W. Deem and Ramdas Pophale) SiO2 
 PCOD8183691
Probable space group: A M A 2
;
_chemical_formula_sum "Si O2"
_cell_formula_units_Z 64
_cell_length_a 8.672453
_cell_length_b 20.691322
_cell_length_c 19.364562
_cell_angle_alpha 90.000000
_cell_angle_beta 90.000000
_cell_angle_gamma 90.000000
_cell_volume 3474.864486
_symmetry_space_group_name_H-M "A M A 2"
_symmetry_group_IT_number 40
_symmetry_cell_setting 'orthorhombic'
loop_
_space_group_symop_operation_xyz
x,y,z
-x,-y,z
1/2-x,y,z
1/2+x,-y,z
x,1/2+y,1/2+z
-x,1/2-y,1/2+z
1/2-x,1/2+y,1/2+z
1/2+x,1/2-y,1/2+z
loop_
_atom_site_type_symbol
_atom_site_label
_atom_site_fract_x
_atom_site_fract_y
_atom_site_fract_z
Si Si1 0.069938 0.627034 0.437850
Si Si2 0.569333 0.729935 0.089860
Si Si3 0.429899 0.933303 0.223365
Si Si4 0.932156 0.689143 0.809249
Si Si5 0.930510 0.817056 0.725608
Si Si6 0.573300 0.379601 0.592888
Si Si7 0.568003 0.066413 0.808111
Si Si8 0.068862 0.734118 0.945265
O O1 0.250000 0.642178 0.426002
O O2 0.041396 0.598541 0.514229
O O3 0.008439 0.575557 0.383287
O O4 0.979466 0.693371 0.426065
O O5 0.750000 0.716913 0.097978
O O6 0.475746 0.688451 0.145511
O O7 0.527469 0.804831 0.100687
O O8 0.516234 0.708489 0.013773
O O9 0.250000 0.938323 0.231497
O O10 0.493578 0.873568 0.268268
O O11 0.469795 0.922790 0.142914
O O12 0.500000 0.000000 0.251222
O O13 0.750000 0.686853 0.821628
O O14 0.979035 0.751904 0.765115
O O15 0.018977 0.688371 0.882259
O O16 0.750000 0.831182 0.732984
O O17 0.025279 0.875928 0.757071
O O18 0.750000 0.390806 0.613550
O O19 0.750000 0.061635 0.815987
O O20 0.500000 0.000000 0.777156
O O21 0.250000 0.730603 0.957410
#
# Coordination Sequence:
#
# PCOD8183691 Si02
#       8
#     8   8   8   8   8   8   8   8
#     4  10  20  36  55  80 114 152 192 236 283 335
#     4  10  20  35  57  85 118 150 187 235 286 338
#     4  11  23  38  56  80 112 151 190 233 282 336
#     4  10  21  37  58  83 114 150 188 234 288 338
#     4  11  21  37  61  87 116 148 190 239 286 342
#     4   9  19  34  54  79 111 150 190 230 274 330
#     4  12  25  40  58  83 114 154 195 236 288 342
#     4  11  21  33  56  87 116 148 189 235 286 342
#
# _framework density 18.417984000000001
#
# number of rings (size 3 to 8) (size 9 to 14) (size 15 to 20)
#    0.000    1.500    2.500    4.500    0.000    4.500 
#    0.000    0.000    0.000    0.750    0.000    3.500 
#    0.000    0.000    0.000    0.000    0.000    0.000 
#
# Total GULP energy -396952.512746 kJ/mol
# GULP energy per Si atom -12404.766023 kJ/mol
# Density = 1.837606 g / cm^3
# Si number density = 18.417984 Si / 1000 Ang^3
#
#
#
# Elastic Constant Matrix: (Units=GPa)
#
#
# Indices 1 2 3 4 5 6 
#
# 1 53.4959 21.4407 22.9824 0.0000 0.0000 0.0000
# 2 21.4407 95.7122 43.6497 0.0000 0.0000 0.0000
# 3 22.9824 43.6497 102.3583 0.0000 0.0000 0.0000
# 4 0.0000 0.0000 0.0000 18.1166 0.0000 0.0000
# 5 0.0000 0.0000 0.0000 0.0000 34.9992 0.0000
# 6 0.0000 0.0000 0.0000 0.0000 0.0000 27.2977
#
#
#
# Elastic Compliance Matrix: (Units=1/GPa)
#
#
# Indices 1 2 3 4 5 6 
#
# 1 0.021469 -0.003241 -0.003438 0.000000 0.000000 0.000000
# 2 -0.003241 0.013460 -0.005012 0.000000 0.000000 0.000000
# 3 -0.003438 -0.005012 0.012679 0.000000 0.000000 0.000000
# 4 0.000000 0.000000 0.000000 0.055198 0.000000 0.000000
# 5 0.000000 0.000000 0.000000 0.000000 0.028572 0.000000
# 6 0.000000 0.000000 0.000000 0.000000 0.000000 0.036633
#
#
# Mechanical properties :
#
#
# Convention : Reuss Voigt Hill
#
# Bulk Modulus (GPa) = 41.28009 47.52355 44.40182
# Shear Modulus (GPa) = 25.06653 26.98229 26.02441
#
# Velocity S-wave (km/s) = 3.69315 3.83168 3.76305
# Velocity P-wave (km/s) = 6.37553 6.74051 6.56056
#
# Compressibility (1/GPa) = 0.02422475
#
# Stress axis : x y z
#
# Youngs Moduli (GPa) = 46.57831 74.29512 78.87109
#
# Poissons Ratio (x) = 0.24082 0.27118
# Poissons Ratio (y) = 0.15098 0.39530
# Poissons Ratio (z) = 0.16015 0.37237
#
# Static dielectric constant tensor:
#      x y z
#    x 3.370240 0.000000 0.000000 
#    y 0.000000 3.283400 0.000000 
#    z 0.000000 0.000000 3.492150 
# 
# 
# High freq. dielectric constant tensor:
#      x y z
#    x 1.723810 0.000000 0.000000 
#    y 0.000000 1.689460 0.000000 
#    z 0.000000 0.000000 1.717670 
# 
# From -- ./inp_files/19581.got.cif
#   From: 2010.03.12/outbox.cif.g09.slc.cpg/sg40_10_cif.got.tgz:19581.got - 2010.04.14 01:38:03.
