data_PCOD8183040
_publ_section_title
;
Structure prediction by ZEFSAII (Michael W. Deem and Ramdas Pophale) SiO2 
 PCOD8183040
Probable space group: A M A 2
;
_chemical_formula_sum "Si O2"
_cell_formula_units_Z 48
_cell_length_a 9.286193
_cell_length_b 22.589009
_cell_length_c 11.783926
_cell_angle_alpha 90.000000
_cell_angle_beta 90.000000
_cell_angle_gamma 90.000000
_cell_volume 2471.865811
_symmetry_space_group_name_H-M "A M A 2"
_symmetry_group_IT_number 40
_symmetry_cell_setting 'orthorhombic'
loop_
_space_group_symop_operation_xyz
x,y,z
-x,-y,z
1/2-x,y,z
1/2+x,-y,z
x,1/2+y,1/2+z
-x,1/2-y,1/2+z
1/2-x,1/2+y,1/2+z
1/2+x,1/2-y,1/2+z
loop_
_atom_site_type_symbol
_atom_site_label
_atom_site_fract_x
_atom_site_fract_y
_atom_site_fract_z
Si Si1 0.084047 0.880598 0.427500
Si Si2 0.582640 0.225961 0.270613
Si Si3 0.091259 0.051904 0.251502
Si Si4 0.090730 0.161272 0.088598
Si Si5 0.420141 0.642526 0.336461
Si Si6 0.080027 0.937877 0.662802
O O1 0.250000 0.892599 0.397804
O O2 0.038898 0.815286 0.379583
O O3 0.055523 0.890265 0.561095
O O4 0.988124 0.929466 0.366236
O O5 0.750000 0.219570 0.248016
O O6 0.507277 0.208298 0.153132
O O7 0.536780 0.292933 0.291502
O O8 0.250000 0.029584 0.284984
O O9 0.100471 0.102926 0.161328
O O10 0.000000 0.000000 0.193216
O O11 0.250000 0.189641 0.072461
O O12 0.028860 0.142545 0.966947
O O13 0.250000 0.629464 0.322809
O O14 0.510678 0.591894 0.273769
O O15 0.250000 0.949758 0.681765
O O16 0.000000 0.000000 0.637675
#
# Coordination Sequence:
#
# PCOD8183040 Si02
#       6
#     8   8   8   8   8   8
#     4   9  19  36  58  85 114 148 186 234 288 338
#     4   9  19  36  59  86 115 147 187 237 291 344
#     4  10  19  32  53  81 109 144 184 230 281 332
#     4   9  20  37  56  80 112 147 185 232 284 339
#     4  10  22  39  59  83 116 154 191 237 289 344
#     4  11  24  40  60  85 118 158 200 242 288 347
#
# _framework density 19.418528999999999
#
# number of rings (size 3 to 8) (size 9 to 14) (size 15 to 20)
#    0.000    2.333    0.000    1.500    2.333    5.333 
#    0.000    1.667    0.000    0.000    0.000    0.000 
#    0.000    0.000    0.000    0.000    0.000    0.000 
#
# Total GULP energy -297522.713166 kJ/mol
# GULP energy per Si atom -12396.779715 kJ/mol
# Density = 1.937433 g / cm^3
# Si number density = 19.418529 Si / 1000 Ang^3
#
#
#
# Elastic Constant Matrix: (Units=GPa)
#
#
# Indices 1 2 3 4 5 6 
#
# 1 85.2714 36.6202 38.9532 0.0000 0.0000 0.0000
# 2 36.6202 69.1170 22.1467 0.0000 0.0000 0.0000
# 3 38.9532 22.1467 117.1316 0.0000 0.0000 0.0000
# 4 0.0000 0.0000 0.0000 5.6681 0.0000 0.0000
# 5 0.0000 0.0000 0.0000 0.0000 30.0175 0.0000
# 6 0.0000 0.0000 0.0000 0.0000 0.0000 27.8612
#
#
#
# Elastic Compliance Matrix: (Units=1/GPa)
#
#
# Indices 1 2 3 4 5 6 
#
# 1 0.016910 -0.007619 -0.004183 0.000000 0.000000 0.000000
# 2 -0.007619 0.018834 -0.001027 0.000000 0.000000 0.000000
# 3 -0.004183 -0.001027 0.010123 0.000000 0.000000 0.000000
# 4 0.000000 0.000000 0.000000 0.176426 0.000000 0.000000
# 5 0.000000 0.000000 0.000000 0.000000 0.033314 0.000000
# 6 0.000000 0.000000 0.000000 0.000000 0.000000 0.035892
#
#
# Mechanical properties :
#
#
# Convention : Reuss Voigt Hill
#
# Bulk Modulus (GPa) = 49.48481 51.88447 50.68464
# Shear Modulus (GPa) = 15.43713 24.29603 19.86658
#
# Velocity S-wave (km/s) = 2.82258 3.54104 3.20202
# Velocity P-wave (km/s) = 6.01342 6.59512 6.31098
#
# Compressibility (1/GPa) = 0.02020822
#
# Stress axis : x y z
#
# Youngs Moduli (GPa) = 59.13573 53.09479 98.78740
#
# Poissons Ratio (x) = 0.40454 0.41323
# Poissons Ratio (y) = 0.45057 0.10148
# Poissons Ratio (z) = 0.24737 0.05454
#
# Static dielectric constant tensor:
#      x y z
#    x 3.802070 0.000000 0.000000 
#    y 0.000000 3.588680 0.000000 
#    z 0.000000 0.000000 3.527640 
# 
# 
# High freq. dielectric constant tensor:
#      x y z
#    x 1.756360 0.000000 0.000000 
#    y 0.000000 1.756690 0.000000 
#    z 0.000000 0.000000 1.753580 
# 
# From -- ./inp_files/10242.got.cif
#   From: 2010.03.12/outbox.cif.g09.slc.cpg/sg40_6_cif.got.tgz:10242.got - 2010.04.14 01:38:03.
