data_PCOD8183196
_publ_section_title
;
Structure prediction by ZEFSAII (Michael W. Deem and Ramdas Pophale) SiO2 
 PCOD8183196
Probable space group: A M A 2
;
_chemical_formula_sum "Si O2"
_cell_formula_units_Z 40
_cell_length_a 8.520564
_cell_length_b 25.914552
_cell_length_c 9.721262
_cell_angle_alpha 90.000000
_cell_angle_beta 90.000000
_cell_angle_gamma 90.000000
_cell_volume 2146.518799
_symmetry_space_group_name_H-M "A M A 2"
_symmetry_group_IT_number 40
_symmetry_cell_setting 'orthorhombic'
loop_
_space_group_symop_operation_xyz
x,y,z
-x,-y,z
1/2-x,y,z
1/2+x,-y,z
x,1/2+y,1/2+z
-x,1/2-y,1/2+z
1/2-x,1/2+y,1/2+z
1/2+x,1/2-y,1/2+z
loop_
_atom_site_type_symbol
_atom_site_label
_atom_site_fract_x
_atom_site_fract_y
_atom_site_fract_z
Si Si1 0.934984 0.863747 0.506780
Si Si2 0.065395 0.861828 0.935716
Si Si3 0.434732 0.216517 0.729413
Si Si4 0.563845 0.442834 0.226555
Si Si5 0.564426 0.329958 0.715106
O O1 0.750000 0.864643 0.502633
O O2 0.990938 0.813785 0.592903
O O3 0.993688 0.915483 0.584684
O O4 0.998377 0.860056 0.351090
O O5 0.250000 0.864730 0.954842
O O6 0.020505 0.808365 0.860899
O O7 0.005222 0.911723 0.854885
O O8 0.984552 0.863790 0.084828
O O9 0.250000 0.210372 0.753351
O O10 0.479919 0.275224 0.709736
O O11 0.500000 0.500000 0.228102
O O12 0.750000 0.442576 0.239394
O O13 0.750000 0.321270 0.719493
#
# Coordination Sequence:
#
# PCOD8183196 Si02
#       5
#     8   8   8   8   8
#     4   8  18  34  53  76 106 139 175 217 268 321
#     4  11  22  36  53  79 111 147 186 223 263 318
#     4  10  19  34  54  79 110 147 185 224 267 320
#     4  10  20  39  62  82 102 133 176 226 278 331
#     4  11  20  33  53  80 113 148 180 222 271 318
#
# _framework density 18.634823999999998
#
# number of rings (size 3 to 8) (size 9 to 14) (size 15 to 20)
#    0.000    2.000    0.000    6.000    0.000    1.600 
#    0.000   12.000    0.000    2.400    0.000    0.000 
#    0.000    0.000    0.000    0.000    0.000    0.000 
#
# Total GULP energy -247994.748939 kJ/mol
# GULP energy per Si atom -12399.737447 kJ/mol
# Density = 1.859241 g / cm^3
# Si number density = 18.634824 Si / 1000 Ang^3
#
#
#
# Elastic Constant Matrix: (Units=GPa)
#
#
# Indices 1 2 3 4 5 6 
#
# 1 37.1292 7.1845 14.6289 0.0000 0.0000 0.0000
# 2 7.1845 114.9131 56.8937 0.0000 0.0000 0.0000
# 3 14.6289 56.8937 165.0812 0.0000 0.0000 0.0000
# 4 0.0000 0.0000 0.0000 9.1585 0.0000 0.0000
# 5 0.0000 0.0000 0.0000 0.0000 23.5382 0.0000
# 6 0.0000 0.0000 0.0000 0.0000 0.0000 29.4860
#
#
#
# Elastic Compliance Matrix: (Units=1/GPa)
#
#
# Indices 1 2 3 4 5 6 
#
# 1 0.027945 -0.000628 -0.002260 0.000000 0.000000 0.000000
# 2 -0.000628 0.010507 -0.003565 0.000000 0.000000 0.000000
# 3 -0.002260 -0.003565 0.007487 0.000000 0.000000 0.000000
# 4 0.000000 0.000000 0.000000 0.109188 0.000000 0.000000
# 5 0.000000 0.000000 0.000000 0.000000 0.042484 0.000000
# 6 0.000000 0.000000 0.000000 0.000000 0.000000 0.033914
#
#
# Mechanical properties :
#
#
# Convention : Reuss Voigt Hill
#
# Bulk Modulus (GPa) = 30.27428 52.72640 41.50034
# Shear Modulus (GPa) = 19.57390 28.33096 23.95243
#
# Velocity S-wave (km/s) = 3.24449 3.90336 3.58908
# Velocity P-wave (km/s) = 5.50609 6.97646 6.28442
#
# Compressibility (1/GPa) = 0.03303134
#
# Stress axis : x y z
#
# Youngs Moduli (GPa) = 35.78461 95.17711 133.57101
#
# Poissons Ratio (x) = 0.05980 0.30185
# Poissons Ratio (y) = 0.02248 0.47623
# Poissons Ratio (z) = 0.08087 0.33934
#
# Static dielectric constant tensor:
#      x y z
#    x 3.373090 0.000000 0.000000 
#    y 0.000000 3.273320 0.000000 
#    z 0.000000 0.000000 3.887090 
# 
# 
# High freq. dielectric constant tensor:
#      x y z
#    x 1.722440 0.000000 0.000000 
#    y 0.000000 1.707740 0.000000 
#    z 0.000000 0.000000 1.733820 
# 
# From -- ./inp_files/4220.got.cif
#   From: 2010.03.12/outbox.cif.g09.slc.cpg/sg40_3_cif.got.tgz:4220.got - 2010.04.14 01:38:03.
