data_PCOD8183528
_publ_section_title
;
Structure prediction by ZEFSAII (Michael W. Deem and Ramdas Pophale) SiO2 
 PCOD8183528
Probable space group: A M A 2
;
_chemical_formula_sum "Si O2"
_cell_formula_units_Z 64
_cell_length_a 8.948382
_cell_length_b 15.963691
_cell_length_c 22.606662
_cell_angle_alpha 90.000000
_cell_angle_beta 90.000000
_cell_angle_gamma 90.000000
_cell_volume 3229.343699
_symmetry_space_group_name_H-M "A M A 2"
_symmetry_group_IT_number 40
_symmetry_cell_setting 'orthorhombic'
loop_
_space_group_symop_operation_xyz
x,y,z
-x,-y,z
1/2-x,y,z
1/2+x,-y,z
x,1/2+y,1/2+z
-x,1/2-y,1/2+z
1/2-x,1/2+y,1/2+z
1/2+x,1/2-y,1/2+z
loop_
_atom_site_type_symbol
_atom_site_label
_atom_site_fract_x
_atom_site_fract_y
_atom_site_fract_z
Si Si1 0.082902 0.419846 0.325470
Si Si2 0.086682 0.286443 0.423990
Si Si3 0.570332 0.407979 0.206871
Si Si4 0.581797 0.135926 0.369787
Si Si5 0.072210 0.913073 0.239874
Si Si6 0.077191 0.743078 0.533899
Si Si7 0.917627 0.578995 0.997217
Si Si8 0.073591 0.738913 0.667193
O O1 0.250000 0.438805 0.300077
O O2 0.096063 0.365406 0.382907
O O3 0.000000 0.500000 0.350307
O O4 0.980161 0.382764 0.273106
O O5 0.250000 0.255426 0.443230
O O6 0.015373 0.216306 0.383010
O O7 0.999993 0.313636 0.483774
O O8 0.500000 0.500000 0.190301
O O9 0.750000 0.410438 0.200396
O O10 0.502506 0.330936 0.169107
O O11 0.750000 0.167887 0.360846
O O12 0.528227 0.092167 0.309222
O O13 0.571049 0.073691 0.425731
O O14 0.250000 0.915291 0.229082
O O15 0.003840 0.831300 0.207724
O O16 0.000000 0.000000 0.215572
O O17 0.250000 0.746302 0.517485
O O18 0.009405 0.836408 0.523181
O O19 0.049824 0.708592 0.599489
O O20 0.750000 0.572648 0.020067
O O21 0.000000 0.500000 0.025622
O O22 0.250000 0.745924 0.682854
#
# Coordination Sequence:
#
# PCOD8183528 Si02
#       8
#     8   8   8   8   8   8   8   8
#     4  10  20  34  53  81 112 142 177 223 277 336
#     4  10  20  33  54  82 109 138 178 226 276 329
#     4  11  22  37  59  88 120 155 191 233 284 343
#     4   9  19  34  53  78 111 146 178 214 269 336
#     4  11  23  39  60  87 116 151 193 240 291 344
#     4   9  21  39  56  74 103 143 185 227 275 329
#     4   9  17  31  50  76 106 136 169 208 257 318
#     4  11  23  41  61  82 112 153 198 245 290 337
#
# _framework density 19.818269000000001
#
# number of rings (size 3 to 8) (size 9 to 14) (size 15 to 20)
#    0.000    2.000    0.000    5.250    0.000    8.500 
#    0.000    1.875    0.000    1.500    0.000    0.000 
#    0.000    0.000    0.000    0.000    0.000    0.000 
#
# Total GULP energy -396536.860831 kJ/mol
# GULP energy per Si atom -12391.776901 kJ/mol
# Density = 1.977316 g / cm^3
# Si number density = 19.818269 Si / 1000 Ang^3
#
#
#
# Elastic Constant Matrix: (Units=GPa)
#
#
# Indices 1 2 3 4 5 6 
#
# 1 118.7797 42.8292 37.2656 0.0000 0.0000 0.0000
# 2 42.8292 67.7988 22.1877 0.0000 0.0000 0.0000
# 3 37.2656 22.1877 65.8440 0.0000 0.0000 0.0000
# 4 0.0000 0.0000 0.0000 12.7403 0.0000 0.0000
# 5 0.0000 0.0000 0.0000 0.0000 31.9498 0.0000
# 6 0.0000 0.0000 0.0000 0.0000 0.0000 32.0375
#
#
#
# Elastic Compliance Matrix: (Units=1/GPa)
#
#
# Indices 1 2 3 4 5 6 
#
# 1 0.012122 -0.006083 -0.004811 0.000000 0.000000 0.000000
# 2 -0.006083 0.019630 -0.003172 0.000000 0.000000 0.000000
# 3 -0.004811 -0.003172 0.018979 0.000000 0.000000 0.000000
# 4 0.000000 0.000000 0.000000 0.078491 0.000000 0.000000
# 5 0.000000 0.000000 0.000000 0.000000 0.031299 0.000000
# 6 0.000000 0.000000 0.000000 0.000000 0.000000 0.031213
#
#
# Mechanical properties :
#
#
# Convention : Reuss Voigt Hill
#
# Bulk Modulus (GPa) = 44.24894 50.77638 47.51266
# Shear Modulus (GPa) = 21.98773 25.35483 23.67128
#
# Velocity S-wave (km/s) = 3.33448 3.58070 3.45978
# Velocity P-wave (km/s) = 6.09925 6.54002 6.32348
#
# Compressibility (1/GPa) = 0.02259941
#
# Stress axis : x y z
#
# Youngs Moduli (GPa) = 82.49721 50.94159 52.68981
#
# Poissons Ratio (x) = 0.30988 0.25347
# Poissons Ratio (y) = 0.50183 0.16714
# Poissons Ratio (z) = 0.39686 0.16159
#
# Static dielectric constant tensor:
#      x y z
#    x 3.901330 0.000000 0.000000 
#    y 0.000000 3.526000 0.000000 
#    z 0.000000 0.000000 3.559560 
# 
# 
# High freq. dielectric constant tensor:
#      x y z
#    x 1.783500 0.000000 0.000000 
#    y 0.000000 1.758580 0.000000 
#    z 0.000000 0.000000 1.766780 
# 
# From -- ./inp_files/24323.got.cif
#   From: 2010.03.12/outbox.cif.g09.slc.cpg/sg40_13_cif.got.tgz:24323.got - 2010.04.14 01:38:03.
