data_PCOD8183263
_publ_section_title
;
Structure prediction by ZEFSAII (Michael W. Deem and Ramdas Pophale) SiO2 
 PCOD8183263
Probable space group: A M A 2
;
_chemical_formula_sum "Si O2"
_cell_formula_units_Z 64
_cell_length_a 16.654046
_cell_length_b 8.401840
_cell_length_c 23.562135
_cell_angle_alpha 90.000000
_cell_angle_beta 90.000000
_cell_angle_gamma 90.000000
_cell_volume 3296.923018
_symmetry_space_group_name_H-M "A M A 2"
_symmetry_group_IT_number 40
_symmetry_cell_setting 'orthorhombic'
loop_
_space_group_symop_operation_xyz
x,y,z
-x,-y,z
1/2-x,y,z
1/2+x,-y,z
x,1/2+y,1/2+z
-x,1/2-y,1/2+z
1/2-x,1/2+y,1/2+z
1/2+x,1/2-y,1/2+z
loop_
_atom_site_type_symbol
_atom_site_label
_atom_site_fract_x
_atom_site_fract_y
_atom_site_fract_z
Si Si1 0.605574 0.337997 0.336070
Si Si2 0.340966 0.299121 0.717348
Si Si3 0.922716 0.893635 0.238457
Si Si4 0.075032 0.105337 0.447099
Si Si5 0.010436 0.685239 0.151562
Si Si6 0.416117 0.306388 0.340846
Si Si7 0.483562 0.181723 0.030142
Si Si8 0.341104 0.296289 0.956798
O O1 0.646063 0.253599 0.282437
O O2 0.510717 0.322184 0.331309
O O3 0.628467 0.524654 0.336014
O O4 0.636362 0.259604 0.393750
O O5 0.250000 0.262813 0.699016
O O6 0.357057 0.488647 0.711212
O O7 0.398718 0.207353 0.673623
O O8 0.947158 0.747715 0.197852
O O9 0.882758 0.814945 0.293766
O O10 0.000000 0.000000 0.254719
O O11 0.103970 0.233802 0.401718
O O12 0.049457 0.201773 0.502834
O O13 0.148151 0.987242 0.461050
O O14 0.000000 0.000000 0.423909
O O15 0.990012 0.790239 0.096856
O O16 0.000000 0.500000 0.138715
O O17 0.500000 0.000000 0.014841
O O18 0.395619 0.215775 0.004966
O O19 0.250000 0.251166 0.970775
#
# Coordination Sequence:
#
# PCOD8183263 Si02
#       8
#     8   8   8   8   8   8   8   8
#     4  11  20  33  59  90 127 157 199 242 297 351
#     4  11  23  39  59  90 126 158 192 249 307 350
#     4  10  19  34  59  85 115 154 200 238 287 352
#     4  10  19  34  59  85 115 154 200 238 287 352
#     4  11  22  41  65  88 112 154 205 249 288 354
#     4  11  18  32  58  91 116 161 207 244 276 355
#     4  11  22  41  65  88 112 154 205 249 288 354
#     4  11  23  39  59  90 126 158 192 249 307 350
#
# _framework density 19.412040000000001
#
# number of rings (size 3 to 8) (size 9 to 14) (size 15 to 20)
#    0.000    1.250    5.000    5.250    0.000    0.000 
#    0.000   11.250    0.000    0.000    0.000    0.000 
#    0.000    0.000    0.000    0.000    0.000    0.000 
#
# Total GULP energy -396828.698112 kJ/mol
# GULP energy per Si atom -12400.896816 kJ/mol
# Density = 1.936786 g / cm^3
# Si number density = 19.412040 Si / 1000 Ang^3
#
#
#
# Elastic Constant Matrix: (Units=GPa)
#
#
# Indices 1 2 3 4 5 6 
#
# 1 96.2931 25.3988 33.4643 0.0000 0.0000 0.0000
# 2 25.3988 115.4581 14.6846 0.0000 0.0000 0.0000
# 3 33.4643 14.6846 89.9721 0.0000 0.0000 0.0000
# 4 0.0000 0.0000 0.0000 31.2776 0.0000 0.0000
# 5 0.0000 0.0000 0.0000 0.0000 4.6892 0.0000
# 6 0.0000 0.0000 0.0000 0.0000 0.0000 15.1554
#
#
#
# Elastic Compliance Matrix: (Units=1/GPa)
#
#
# Indices 1 2 3 4 5 6 
#
# 1 0.012449 -0.002195 -0.004272 0.000000 0.000000 0.000000
# 2 -0.002195 0.009232 -0.000690 0.000000 0.000000 0.000000
# 3 -0.004272 -0.000690 0.012816 0.000000 0.000000 0.000000
# 4 0.000000 0.000000 0.000000 0.031972 0.000000 0.000000
# 5 0.000000 0.000000 0.000000 0.000000 0.213256 0.000000
# 6 0.000000 0.000000 0.000000 0.000000 0.000000 0.065983
#
#
# Mechanical properties :
#
#
# Convention : Reuss Voigt Hill
#
# Bulk Modulus (GPa) = 49.54934 49.86876 49.70905
# Shear Modulus (GPa) = 13.63328 25.43614 19.53471
#
# Velocity S-wave (km/s) = 2.65299 3.62377 3.17569
# Velocity P-wave (km/s) = 5.91312 6.57680 6.25377
#
# Compressibility (1/GPa) = 0.02018190
#
# Stress axis : x y z
#
# Youngs Moduli (GPa) = 80.33071 108.32073 78.02689
#
# Poissons Ratio (x) = 0.23778 0.33332
# Poissons Ratio (y) = 0.17634 0.05386
# Poissons Ratio (z) = 0.34316 0.07477
#
# Static dielectric constant tensor:
#      x y z
#    x 3.352290 0.000000 0.000000 
#    y 0.000000 3.879840 0.000000 
#    z 0.000000 0.000000 3.453110 
# 
# 
# High freq. dielectric constant tensor:
#      x y z
#    x 1.718280 0.000000 0.000000 
#    y 0.000000 1.776230 0.000000 
#    z 0.000000 0.000000 1.753130 
# 
# From -- ./inp_files/24941.got.cif
#   From: 2010.03.12/outbox.cif.g09.slc.cpg/sg40_13_cif.got.tgz:24941.got - 2010.04.14 01:38:03.
