data_PCOD8183580
_publ_section_title
;
Structure prediction by ZEFSAII (Michael W. Deem and Ramdas Pophale) SiO2 
 PCOD8183580
Probable space group: A M A 2
;
_chemical_formula_sum "Si O2"
_cell_formula_units_Z 64
_cell_length_a 9.214341
_cell_length_b 14.292710
_cell_length_c 23.729353
_cell_angle_alpha 90.000000
_cell_angle_beta 90.000000
_cell_angle_gamma 90.000000
_cell_volume 3125.106048
_symmetry_space_group_name_H-M "A M A 2"
_symmetry_group_IT_number 40
_symmetry_cell_setting 'orthorhombic'
loop_
_space_group_symop_operation_xyz
x,y,z
-x,-y,z
1/2-x,y,z
1/2+x,-y,z
x,1/2+y,1/2+z
-x,1/2-y,1/2+z
1/2-x,1/2+y,1/2+z
1/2+x,1/2-y,1/2+z
loop_
_atom_site_type_symbol
_atom_site_label
_atom_site_fract_x
_atom_site_fract_y
_atom_site_fract_z
Si Si1 0.416677 0.589913 0.642070
Si Si2 0.421156 0.215484 0.648834
Si Si3 0.405327 0.605097 0.771151
Si Si4 0.081983 0.407844 0.376781
Si Si5 0.916623 0.776098 0.436972
Si Si6 0.912034 0.177781 0.759383
Si Si7 0.915596 0.083456 0.371663
Si Si8 0.918046 0.402744 0.040523
O O1 0.500000 0.500000 0.614069
O O2 0.250000 0.596346 0.619515
O O3 0.499280 0.687880 0.630978
O O4 0.416904 0.569524 0.708142
O O5 0.250000 0.236791 0.654685
O O6 0.480068 0.168144 0.706224
O O7 0.454104 0.137950 0.601764
O O8 0.250000 0.569334 0.797801
O O9 0.400308 0.715369 0.775221
O O10 0.549102 0.571109 0.804906
O O11 0.250000 0.430830 0.370847
O O12 0.056541 0.334508 0.428398
O O13 0.025611 0.374633 0.314905
O O14 0.000000 0.500000 0.396219
O O15 0.750000 0.800554 0.423756
O O16 0.963568 0.819487 0.497066
O O17 0.017632 0.818792 0.389004
O O18 0.750000 0.140799 0.743125
O O19 0.750000 0.078846 0.387287
O O20 0.000000 0.000000 0.404916
O O21 0.750000 0.426378 0.033857
O O22 0.000000 0.500000 0.029606
#
# Coordination Sequence:
#
# PCOD8183580 Si02
#       8
#     8   8   8   8   8   8   8   8
#     4  10  20  34  54  81 115 158 200 242 291 347
#     4  10  21  37  58  88 121 156 199 249 300 357
#     4   9  17  32  51  74 109 150 193 233 283 341
#     4  10  21  38  61  87 119 155 194 240 293 353
#     4  10  21  42  63  81 114 154 192 243 296 347
#     4   9  18  35  57  82 115 159 198 237 292 348
#     4  12  23  32  49  79 112 148 190 234 286 347
#     4  10  23  42  66  90 116 153 198 247 303 356
#
# _framework density 20.479306000000001
#
# number of rings (size 3 to 8) (size 9 to 14) (size 15 to 20)
#    0.000    2.000    1.250    3.375    0.000    7.500 
#    0.000    3.125    0.000    1.500    0.000    0.000 
#    0.000    0.000    0.000    0.000    0.000    0.000 
#
# Total GULP energy -396505.034082 kJ/mol
# GULP energy per Si atom -12390.782315 kJ/mol
# Density = 2.043269 g / cm^3
# Si number density = 20.479306 Si / 1000 Ang^3
#
#
#
# Elastic Constant Matrix: (Units=GPa)
#
#
# Indices 1 2 3 4 5 6 
#
# 1 117.8111 61.3619 42.9840 0.0000 0.0000 0.0000
# 2 61.3619 120.7949 47.8686 0.0000 0.0000 0.0000
# 3 42.9840 47.8686 83.1490 0.0000 0.0000 0.0000
# 4 0.0000 0.0000 0.0000 21.1782 0.0000 0.0000
# 5 0.0000 0.0000 0.0000 0.0000 35.0574 0.0000
# 6 0.0000 0.0000 0.0000 0.0000 0.0000 35.2295
#
#
#
# Elastic Compliance Matrix: (Units=1/GPa)
#
#
# Indices 1 2 3 4 5 6 
#
# 1 0.012314 -0.004836 -0.003582 0.000000 0.000000 0.000000
# 2 -0.004836 0.012624 -0.004768 0.000000 0.000000 0.000000
# 3 -0.003582 -0.004768 0.016623 0.000000 0.000000 0.000000
# 4 0.000000 0.000000 0.000000 0.047218 0.000000 0.000000
# 5 0.000000 0.000000 0.000000 0.000000 0.028525 0.000000
# 6 0.000000 0.000000 0.000000 0.000000 0.000000 0.028385
#
#
# Mechanical properties :
#
#
# Convention : Reuss Voigt Hill
#
# Bulk Modulus (GPa) = 65.83124 69.57599 67.70361
# Shear Modulus (GPa) = 28.22887 29.59573 28.91230
#
# Velocity S-wave (km/s) = 3.71672 3.80564 3.76144
# Velocity P-wave (km/s) = 7.11574 7.30466 7.21082
#
# Compressibility (1/GPa) = 0.01519036
#
# Stress axis : x y z
#
# Youngs Moduli (GPa) = 81.21057 79.21121 60.15759
#
# Poissons Ratio (x) = 0.38305 0.21546
# Poissons Ratio (y) = 0.39272 0.28683
# Poissons Ratio (z) = 0.29086 0.37768
#
# Static dielectric constant tensor:
#      x y z
#    x 3.811580 0.000000 0.000000 
#    y 0.000000 3.723230 0.000000 
#    z 0.000000 0.000000 3.610110 
# 
# 
# High freq. dielectric constant tensor:
#      x y z
#    x 1.799890 0.000000 0.000000 
#    y 0.000000 1.804510 0.000000 
#    z 0.000000 0.000000 1.775340 
# 
# From -- ./inp_files/24331.got.cif
#   From: 2010.03.12/outbox.cif.g09.slc.cpg/sg40_13_cif.got.tgz:24331.got - 2010.04.14 01:38:03.
