data_PCOD8183147
_publ_section_title
;
Structure prediction by ZEFSAII (Michael W. Deem and Ramdas Pophale) SiO2 
 PCOD8183147
Probable space group: A M A 2
;
_chemical_formula_sum "Si O2"
_cell_formula_units_Z 64
_cell_length_a 8.913801
_cell_length_b 28.312779
_cell_length_c 12.294191
_cell_angle_alpha 90.000000
_cell_angle_beta 90.000000
_cell_angle_gamma 90.000000
_cell_volume 3102.740033
_symmetry_space_group_name_H-M "A M A 2"
_symmetry_group_IT_number 40
_symmetry_cell_setting 'orthorhombic'
loop_
_space_group_symop_operation_xyz
x,y,z
-x,-y,z
1/2-x,y,z
1/2+x,-y,z
x,1/2+y,1/2+z
-x,1/2-y,1/2+z
1/2-x,1/2+y,1/2+z
1/2+x,1/2-y,1/2+z
loop_
_atom_site_type_symbol
_atom_site_label
_atom_site_fract_x
_atom_site_fract_y
_atom_site_fract_z
Si Si1 0.084419 0.858712 0.614630
Si Si2 0.429217 0.950237 0.092922
Si Si3 0.418220 0.565087 0.815807
Si Si4 0.922317 0.318117 0.299986
Si Si5 0.917024 0.832110 0.404732
Si Si6 0.414789 0.960133 0.529306
Si Si7 0.427404 0.650597 0.538788
Si Si8 0.077649 0.785415 0.222369
O O1 0.250000 0.835850 0.601516
O O2 0.094829 0.914029 0.599494
O O3 0.024567 0.855228 0.736801
O O4 0.970072 0.836664 0.528395
O O5 0.250000 0.950710 0.075315
O O6 0.467755 0.948302 0.220339
O O7 0.496863 0.901754 0.039885
O O8 0.500000 0.000000 0.045891
O O9 0.250000 0.547165 0.787638
O O10 0.415785 0.620797 0.833685
O O11 0.478941 0.542438 0.924613
O O12 0.750000 0.332497 0.289799
O O13 0.967531 0.321379 0.427111
O O14 0.953639 0.270294 0.231062
O O15 0.750000 0.809947 0.407555
O O16 0.035838 0.799341 0.345081
O O17 0.250000 0.976147 0.492524
O O18 0.500000 0.000000 0.601571
O O19 0.250000 0.642835 0.553603
O O20 0.480984 0.686405 0.633425
O O21 0.250000 0.797307 0.198441
#
# Coordination Sequence:
#
# PCOD8183147 Si02
#       8
#     8   8   8   8   8   8   8   8
#     4  10  22  39  61  88 122 160 207 258 308 366
#     4  12  24  39  62  91 126 168 214 267 322 388
#     4  10  19  33  54  84 123 162 201 248 307 372
#     4  10  25  45  65  91 126 166 212 261 319 381
#     4  10  20  35  59  89 124 164 202 247 306 369
#     4  10  20  34  54  84 119 159 205 255 310 369
#     4  11  24  45  67  93 130 171 215 269 324 385
#     4  11  23  40  64  96 127 162 206 256 315 379
#
# _framework density 20.626927999999999
#
# number of rings (size 3 to 8) (size 9 to 14) (size 15 to 20)
#    0.000    1.500    1.250    3.750    1.750    4.500 
#    0.000    0.625    0.000    1.500    0.000    0.000 
#    0.000    0.000    0.000    0.000    0.000    0.000 
#
# Total GULP energy -396507.788730 kJ/mol
# GULP energy per Si atom -12390.868398 kJ/mol
# Density = 2.057998 g / cm^3
# Si number density = 20.626928 Si / 1000 Ang^3
#
#
#
# Elastic Constant Matrix: (Units=GPa)
#
#
# Indices 1 2 3 4 5 6 
#
# 1 128.5612 61.2106 50.4124 0.0000 0.0000 0.0000
# 2 61.2106 75.2997 39.9071 0.0000 0.0000 0.0000
# 3 50.4124 39.9071 92.2270 0.0000 0.0000 0.0000
# 4 0.0000 0.0000 0.0000 82.5365 0.0000 0.0000
# 5 0.0000 0.0000 0.0000 0.0000 37.4009 0.0000
# 6 0.0000 0.0000 0.0000 0.0000 0.0000 31.9263
#
#
#
# Elastic Compliance Matrix: (Units=1/GPa)
#
#
# Indices 1 2 3 4 5 6 
#
# 1 0.013466 -0.009142 -0.003405 0.000000 0.000000 0.000000
# 2 -0.009142 0.023438 -0.005145 0.000000 0.000000 0.000000
# 3 -0.003405 -0.005145 0.014930 0.000000 0.000000 0.000000
# 4 0.000000 0.000000 0.000000 0.012116 0.000000 0.000000
# 5 0.000000 0.000000 0.000000 0.000000 0.026737 0.000000
# 6 0.000000 0.000000 0.000000 0.000000 0.000000 0.031322
#
#
# Mechanical properties :
#
#
# Convention : Reuss Voigt Hill
#
# Bulk Modulus (GPa) = 60.78582 66.57200 63.67891
# Shear Modulus (GPa) = 30.69788 40.00993 35.35391
#
# Velocity S-wave (km/s) = 3.86196 4.40897 4.14450
# Velocity P-wave (km/s) = 7.02990 7.63303 7.33766
#
# Compressibility (1/GPa) = 0.01645121
#
# Stress axis : x y z
#
# Youngs Moduli (GPa) = 74.25920 42.66504 66.97836
#
# Poissons Ratio (x) = 0.39005 0.22806
# Poissons Ratio (y) = 0.67889 0.34459
# Poissons Ratio (z) = 0.25285 0.21950
#
# Static dielectric constant tensor:
#      x y z
#    x 3.960320 0.000000 0.000000 
#    y 0.000000 3.741580 0.000000 
#    z 0.000000 0.000000 3.508210 
# 
# 
# High freq. dielectric constant tensor:
#      x y z
#    x 1.823690 0.000000 0.000000 
#    y 0.000000 1.815200 0.000000 
#    z 0.000000 0.000000 1.783660 
# 
# From -- ./inp_files/10633.got.cif
#   From: 2010.03.12/outbox.cif.g09.slc.cpg/sg40_6_cif.got.tgz:10633.got - 2010.04.14 01:38:03.
