data_PCOD8183385
_publ_section_title
;
Structure prediction by ZEFSAII (Michael W. Deem and Ramdas Pophale) SiO2 
 PCOD8183385
Probable space group: A M A 2
;
_chemical_formula_sum "Si O2"
_cell_formula_units_Z 52
_cell_length_a 23.729229
_cell_length_b 7.199329
_cell_length_c 13.621614
_cell_angle_alpha 90.000000
_cell_angle_beta 90.000000
_cell_angle_gamma 90.000000
_cell_volume 2327.041978
_symmetry_space_group_name_H-M "A M A 2"
_symmetry_group_IT_number 40
_symmetry_cell_setting 'orthorhombic'
loop_
_space_group_symop_operation_xyz
x,y,z
-x,-y,z
1/2-x,y,z
1/2+x,-y,z
x,1/2+y,1/2+z
-x,1/2-y,1/2+z
1/2-x,1/2+y,1/2+z
1/2+x,1/2-y,1/2+z
loop_
_atom_site_type_symbol
_atom_site_label
_atom_site_fract_x
_atom_site_fract_y
_atom_site_fract_z
Si Si1 0.892525 0.768138 0.823040
Si Si2 0.424390 0.877135 0.721769
Si Si3 0.814905 0.161321 0.159862
Si Si4 0.686762 0.390806 0.487003
Si Si5 0.993680 0.219010 0.899401
Si Si6 0.500000 0.000000 0.554132
Si Si7 0.688348 0.090548 0.636829
O O1 0.854684 0.629460 0.756138
O O2 0.944506 0.679175 0.883189
O O3 0.927417 0.909044 0.754729
O O4 0.852274 0.895105 0.891696
O O5 0.453904 0.749611 0.804033
O O6 0.456051 0.878959 0.617848
O O7 0.359064 0.816709 0.706640
O O8 0.750000 0.114573 0.187776
O O9 0.835741 0.030380 0.071450
O O10 0.821624 0.372222 0.123800
O O11 0.750000 0.448280 0.455348
O O12 0.685441 0.181362 0.529104
O O13 0.968637 0.339974 0.989034
O O14 0.000000 0.000000 0.926712
O O15 0.750000 0.131285 0.683960
#
# Coordination Sequence:
#
# PCOD8183385 Si02
#       7
#     8   8   8   8   8   4   8
#     4  10  19  37  58  83 120 150 201 252 289 357
#     4  10  21  41  60  87 123 150 204 250 287 366
#     4   9  19  35  57  82 115 159 194 240 306 348
#     4  10  20  35  57  86 116 152 200 243 293 360
#     4  10  23  41  59  91 118 157 210 242 303 367
#     4  12  22  42  66  82 126 164 188 264 304 338
#     4   9  19  36  59  85 116 154 193 242 298 349
#
# _framework density 22.345963999999999
#
# number of rings (size 3 to 8) (size 9 to 14) (size 15 to 20)
#    0.000    2.154    2.308    1.385    0.000    6.769 
#    1.385    3.077    0.000   13.846    0.000    0.000 
#    0.000    0.000    0.000    0.000    0.000    0.000 
#
# Total GULP energy -322173.642822 kJ/mol
# GULP energy per Si atom -12391.293955 kJ/mol
# Density = 2.229510 g / cm^3
# Si number density = 22.345964 Si / 1000 Ang^3
#
#
#
# Elastic Constant Matrix: (Units=GPa)
#
#
# Indices 1 2 3 4 5 6 
#
# 1 114.2861 8.3302 47.5881 0.0000 0.0000 0.0000
# 2 8.3302 50.8919 27.1136 0.0000 0.0000 0.0000
# 3 47.5881 27.1136 118.4709 0.0000 0.0000 0.0000
# 4 0.0000 0.0000 0.0000 39.8154 0.0000 0.0000
# 5 0.0000 0.0000 0.0000 0.0000 29.5199 0.0000
# 6 0.0000 0.0000 0.0000 0.0000 0.0000 8.1969
#
#
#
# Elastic Compliance Matrix: (Units=1/GPa)
#
#
# Indices 1 2 3 4 5 6 
#
# 1 0.010524 0.000603 -0.004365 0.000000 0.000000 0.000000
# 2 0.000603 0.022413 -0.005372 0.000000 0.000000 0.000000
# 3 -0.004365 -0.005372 0.011424 0.000000 0.000000 0.000000
# 4 0.000000 0.000000 0.000000 0.025116 0.000000 0.000000
# 5 0.000000 0.000000 0.000000 0.000000 0.033875 0.000000
# 6 0.000000 0.000000 0.000000 0.000000 0.000000 0.121997
#
#
# Mechanical properties :
#
#
# Convention : Reuss Voigt Hill
#
# Bulk Modulus (GPa) = 38.32531 49.96807 44.14669
# Shear Modulus (GPa) = 19.81662 28.88092 24.34877
#
# Velocity S-wave (km/s) = 2.98117 3.59896 3.30453
# Velocity P-wave (km/s) = 5.38868 6.29918 5.86164
#
# Compressibility (1/GPa) = 0.02609242
#
# Stress axis : x y z
#
# Youngs Moduli (GPa) = 95.02389 44.61765 87.53713
#
# Poissons Ratio (x) = -0.02691 0.38212
# Poissons Ratio (y) = -0.05731 0.47022
# Poissons Ratio (z) = 0.41480 0.23967
#
# Static dielectric constant tensor:
#      x y z
#    x 4.377990 0.000000 0.000000 
#    y 0.000000 3.671750 0.000000 
#    z 0.000000 0.000000 4.026240 
# 
# 
# High freq. dielectric constant tensor:
#      x y z
#    x 1.893110 0.000000 0.000000 
#    y 0.000000 1.852360 0.000000 
#    z 0.000000 0.000000 1.869280 
# 
# From -- ./inp_files/14190.got.cif
#   From: 2010.03.12/outbox.cif.g09.slc.cpg/sg40_8_cif.got.tgz:14190.got - 2010.04.14 01:38:03.
