data_PCOD8183078
_publ_section_title
;
Structure prediction by ZEFSAII (Michael W. Deem and Ramdas Pophale) SiO2 
 PCOD8183078
Probable space group: A M A 2
;
_chemical_formula_sum "Si O2"
_cell_formula_units_Z 48
_cell_length_a 10.136648
_cell_length_b 9.157070
_cell_length_c 28.581640
_cell_angle_alpha 90.000000
_cell_angle_beta 90.000000
_cell_angle_gamma 90.000000
_cell_volume 2653.004854
_symmetry_space_group_name_H-M "A M A 2"
_symmetry_group_IT_number 40
_symmetry_cell_setting 'orthorhombic'
loop_
_space_group_symop_operation_xyz
x,y,z
-x,-y,z
1/2-x,y,z
1/2+x,-y,z
x,1/2+y,1/2+z
-x,1/2-y,1/2+z
1/2-x,1/2+y,1/2+z
1/2+x,1/2-y,1/2+z
loop_
_atom_site_type_symbol
_atom_site_label
_atom_site_fract_x
_atom_site_fract_y
_atom_site_fract_z
Si Si1 0.901600 0.366466 0.860790
Si Si2 0.490465 0.327275 0.548273
Si Si3 0.509471 0.825188 0.264933
Si Si4 0.250000 0.324493 0.715321
Si Si5 0.250000 0.672504 0.704327
Si Si6 0.096891 0.137921 0.464140
Si Si7 0.250000 0.176690 0.099475
Si Si8 0.250000 0.330289 0.610274
O O1 0.750000 0.415869 0.849750
O O2 0.954730 0.267117 0.817458
O O3 0.908188 0.291032 0.911828
O O4 0.000000 0.500000 0.864573
O O5 0.500000 0.500000 0.542228
O O6 0.458422 0.262437 0.497803
O O7 0.625777 0.266740 0.569912
O O8 0.379517 0.273386 0.584271
O O9 0.372974 0.763509 0.244948
O O10 0.620354 0.767539 0.229672
O O11 0.500000 0.000000 0.266868
O O12 0.250000 0.497866 0.708473
O O13 0.250000 0.263167 0.662452
O O14 0.250000 0.739189 0.652120
O O15 0.250000 0.095020 0.475600
O O16 0.000000 0.000000 0.469296
O O17 0.250000 0.004302 0.107541
#
# Coordination Sequence:
#
# PCOD8183078 Si02
#       8
#     8   8   8   4   4   8   4   4
#     4   9  17  28  42  60  87 123 158 193 239 288
#     4  10  19  33  51  72  99 132 167 204 247 292
#     4   9  15  22  35  57  85 121 155 185 228 288
#     4   9  16  22  37  59  89 123 157 185 232 287
#     4   9  14  24  35  57  89 121 153 189 226 289
#     4  10  21  36  52  72  99 132 168 209 250 294
#     4   9  18  26  44  67  95 127 161 199 242 295
#     4   9  16  30  44  65  95 133 163 197 244 287
#
# _framework density 18.092692
#
# number of rings (size 3 to 8) (size 9 to 14) (size 15 to 20)
#    0.000    2.667    1.667    1.000    4.667    4.000 
#    0.000    0.000    0.000    0.000    0.000    0.000 
#    0.000    8.000    0.000    0.000    0.000    0.000 
#
# Total GULP energy -297329.448400 kJ/mol
# GULP energy per Si atom -12388.727017 kJ/mol
# Density = 1.805151 g / cm^3
# Si number density = 18.092692 Si / 1000 Ang^3
#
#
#
# Elastic Constant Matrix: (Units=GPa)
#
#
# Indices 1 2 3 4 5 6 
#
# 1 181.0605 18.1017 96.2068 0.0000 0.0000 0.0000
# 2 18.1017 13.8484 23.3652 0.0000 0.0000 0.0000
# 3 96.2068 23.3652 187.7321 0.0000 0.0000 0.0000
# 4 0.0000 0.0000 0.0000 16.5440 0.0000 0.0000
# 5 0.0000 0.0000 0.0000 0.0000 37.4414 0.0000
# 6 0.0000 0.0000 0.0000 0.0000 0.0000 8.8359
#
#
#
# Elastic Compliance Matrix: (Units=1/GPa)
#
#
# Indices 1 2 3 4 5 6 
#
# 1 0.007793 -0.004365 -0.003450 0.000000 0.000000 0.000000
# 2 -0.004365 0.093849 -0.009444 0.000000 0.000000 0.000000
# 3 -0.003450 -0.009444 0.008270 0.000000 0.000000 0.000000
# 4 0.000000 0.000000 0.000000 0.060445 0.000000 0.000000
# 5 0.000000 0.000000 0.000000 0.000000 0.026708 0.000000
# 6 0.000000 0.000000 0.000000 0.000000 0.000000 0.113175
#
#
# Mechanical properties :
#
#
# Convention : Reuss Voigt Hill
#
# Bulk Modulus (GPa) = 13.26354 73.10984 43.18669
# Shear Modulus (GPa) = 13.51755 28.89541 21.20648
#
# Velocity S-wave (km/s) = 2.73633 4.00068 3.42731
# Velocity P-wave (km/s) = 4.16295 7.86364 6.29154
#
# Compressibility (1/GPa) = 0.07539465
#
# Stress axis : x y z
#
# Youngs Moduli (GPa) = 128.32536 10.65540 120.91514
#
# Poissons Ratio (x) = 0.04651 0.41719
# Poissons Ratio (y) = 0.56010 1.14189
# Poissons Ratio (z) = 0.44276 0.10063
#
# Static dielectric constant tensor:
#      x y z
#    x 3.713550 0.000000 0.000000 
#    y 0.000000 2.477070 0.000000 
#    z 0.000000 0.000000 3.908620 
# 
# 
# High freq. dielectric constant tensor:
#      x y z
#    x 1.727270 0.000000 0.000000 
#    y 0.000000 1.599110 0.000000 
#    z 0.000000 0.000000 1.728030 
# 
# From -- ./inp_files/25300.got.cif
#   From: 2010.03.12/outbox.cif.g09.slc.cpg/sg40_13_cif.got.tgz:25300.got - 2010.04.14 01:38:03.
