data_PCOD8183916
_publ_section_title
;
Structure prediction by ZEFSAII (Michael W. Deem and Ramdas Pophale) SiO2 
 PCOD8183916
Probable space group: A M A 2
;
_chemical_formula_sum "Si O2"
_cell_formula_units_Z 64
_cell_length_a 18.138253
_cell_length_b 19.912680
_cell_length_c 9.149437
_cell_angle_alpha 90.000000
_cell_angle_beta 90.000000
_cell_angle_gamma 90.000000
_cell_volume 3304.604889
_symmetry_space_group_name_H-M "A M A 2"
_symmetry_group_IT_number 40
_symmetry_cell_setting 'orthorhombic'
loop_
_space_group_symop_operation_xyz
x,y,z
-x,-y,z
1/2-x,y,z
1/2+x,-y,z
x,1/2+y,1/2+z
-x,1/2-y,1/2+z
1/2-x,1/2+y,1/2+z
1/2+x,1/2-y,1/2+z
loop_
_atom_site_type_symbol
_atom_site_label
_atom_site_fract_x
_atom_site_fract_y
_atom_site_fract_z
Si Si1 0.420059 0.470174 0.340600
Si Si2 0.601524 0.796895 0.034145
Si Si3 0.337843 0.945578 0.544390
Si Si4 0.835604 0.925323 0.361346
Si Si5 0.582822 0.169668 0.364036
Si Si6 0.083972 0.706903 0.867552
Si Si7 0.166709 0.067340 0.040453
Si Si8 0.063091 0.838399 0.026200
O O1 0.500000 0.500000 0.297936
O O2 0.375437 0.444030 0.201331
O O3 0.378668 0.531149 0.416085
O O4 0.417322 0.408293 0.451608
O O5 0.597116 0.770934 0.200524
O O6 0.664278 0.852686 0.011530
O O7 0.523440 0.830784 0.999478
O O8 0.622249 0.737027 0.923460
O O9 0.250000 0.930908 0.553018
O O10 0.378727 0.892578 0.442090
O O11 0.354579 0.018795 0.479465
O O12 0.750000 0.917278 0.334200
O O13 0.863889 0.853700 0.418362
O O14 0.869365 0.945028 0.201923
O O15 0.497073 0.178102 0.403206
O O16 0.591367 0.158987 0.191884
O O17 0.103556 0.773583 0.957800
O O18 0.250000 0.041120 0.031359
#
# Coordination Sequence:
#
# PCOD8183916 Si02
#       8
#     8   8   8   8   8   8   8   8
#     4  12  24  38  60  86 118 154 202 243 293 348
#     4   9  18  36  56  89 122 155 191 240 291 347
#     4  11  25  42  57  85 122 155 197 247 297 353
#     4   9  20  39  61  86 119 156 195 239 293 351
#     4  10  21  36  62  86 119 157 195 244 294 342
#     4   9  19  35  60  87 123 151 197 241 289 347
#     4  10  20  38  62  87 117 154 192 240 294 350
#     4  10  20  38  58  90 118 152 199 249 284 344
#
# _framework density 19.366914000000001
#
# number of rings (size 3 to 8) (size 9 to 14) (size 15 to 20)
#    0.000    2.000    1.250    1.875    1.750    2.500 
#    0.000    5.000    0.000    0.000    0.000    0.000 
#    0.000    0.000    0.000    0.000    0.000    0.000 
#
# Total GULP energy -396727.246366 kJ/mol
# GULP energy per Si atom -12397.726449 kJ/mol
# Density = 1.932283 g / cm^3
# Si number density = 19.366914 Si / 1000 Ang^3
#
#
#
# Elastic Constant Matrix: (Units=GPa)
#
#
# Indices 1 2 3 4 5 6 
#
# 1 46.5607 32.9061 35.5500 0.0000 0.0000 0.0000
# 2 32.9061 107.1954 61.2498 0.0000 0.0000 0.0000
# 3 35.5500 61.2498 113.2945 0.0000 0.0000 0.0000
# 4 0.0000 0.0000 0.0000 41.8377 0.0000 0.0000
# 5 0.0000 0.0000 0.0000 0.0000 20.6705 0.0000
# 6 0.0000 0.0000 0.0000 0.0000 0.0000 28.9826
#
#
#
# Elastic Compliance Matrix: (Units=1/GPa)
#
#
# Indices 1 2 3 4 5 6 
#
# 1 0.030416 -0.005620 -0.006506 0.000000 0.000000 0.000000
# 2 -0.005620 0.014537 -0.006096 0.000000 0.000000 0.000000
# 3 -0.006506 -0.006096 0.014164 0.000000 0.000000 0.000000
# 4 0.000000 0.000000 0.000000 0.023902 0.000000 0.000000
# 5 0.000000 0.000000 0.000000 0.000000 0.048378 0.000000
# 6 0.000000 0.000000 0.000000 0.000000 0.000000 0.034504
#
#
# Mechanical properties :
#
#
# Convention : Reuss Voigt Hill
#
# Bulk Modulus (GPa) = 44.10308 58.49582 51.29945
# Shear Modulus (GPa) = 23.82078 27.45446 25.63762
#
# Velocity S-wave (km/s) = 3.51090 3.76918 3.64233
# Velocity P-wave (km/s) = 6.26555 7.01512 6.65090
#
# Compressibility (1/GPa) = 0.02267415
#
# Stress axis : x y z
#
# Youngs Moduli (GPa) = 32.87699 68.79124 70.60398
#
# Poissons Ratio (x) = 0.38657 0.45936
# Poissons Ratio (y) = 0.18475 0.43037
# Poissons Ratio (z) = 0.21390 0.41932
#
# Static dielectric constant tensor:
#      x y z
#    x 3.456270 0.000000 0.000000 
#    y 0.000000 3.617950 0.000000 
#    z 0.000000 0.000000 3.654310 
# 
# 
# High freq. dielectric constant tensor:
#      x y z
#    x 1.740090 0.000000 0.000000 
#    y 0.000000 1.764550 0.000000 
#    z 0.000000 0.000000 1.758360 
# 
# From -- ./inp_files/7775.got.cif
#   From: 2010.03.12/outbox.cif.g09.slc.cpg/sg40_4_cif.got.tgz:7775.got - 2010.04.14 01:38:03.
