data_PCOD8183229
_publ_section_title
;
Structure prediction by ZEFSAII (Michael W. Deem and Ramdas Pophale) SiO2 
 PCOD8183229
Probable space group: A M A 2
;
_chemical_formula_sum "Si O2"
_cell_formula_units_Z 64
_cell_length_a 8.671553
_cell_length_b 20.784977
_cell_length_c 19.628806
_cell_angle_alpha 90.000000
_cell_angle_beta 90.000000
_cell_angle_gamma 90.000000
_cell_volume 3537.857318
_symmetry_space_group_name_H-M "A M A 2"
_symmetry_group_IT_number 40
_symmetry_cell_setting 'orthorhombic'
loop_
_space_group_symop_operation_xyz
x,y,z
-x,-y,z
1/2-x,y,z
1/2+x,-y,z
x,1/2+y,1/2+z
-x,1/2-y,1/2+z
1/2-x,1/2+y,1/2+z
1/2+x,1/2-y,1/2+z
loop_
_atom_site_type_symbol
_atom_site_label
_atom_site_fract_x
_atom_site_fract_y
_atom_site_fract_z
Si Si1 0.431337 0.767322 0.176280
Si Si2 0.569417 0.128488 0.675567
Si Si3 0.067140 0.229798 0.034352
Si Si4 0.569468 0.566904 0.313321
Si Si5 0.067223 0.810786 0.897789
Si Si6 0.067624 0.932768 0.389733
Si Si7 0.930208 0.125327 0.526310
Si Si8 0.568128 0.313927 0.812342
O O1 0.250000 0.777653 0.183152
O O2 0.471298 0.692546 0.184936
O O3 0.489750 0.795215 0.103978
O O4 0.518272 0.806972 0.234406
O O5 0.750000 0.147921 0.680682
O O6 0.523180 0.078376 0.734261
O O7 0.532016 0.096928 0.601580
O O8 0.250000 0.226909 0.042777
O O9 0.005109 0.302169 0.021021
O O10 0.012436 0.186427 0.971474
O O11 0.500000 0.500000 0.339204
O O12 0.750000 0.562070 0.321773
O O13 0.506887 0.626081 0.358188
O O14 0.250000 0.811345 0.906436
O O15 0.013425 0.748177 0.855610
O O16 0.250000 0.937581 0.389359
O O17 0.999398 0.918227 0.465995
O O18 0.015861 0.876810 0.339694
O O19 0.000000 0.000000 0.363876
O O20 0.750000 0.129090 0.513672
O O21 0.750000 0.323129 0.817428
#
# Coordination Sequence:
#
# PCOD8183229 Si02
#       8
#     8   8   8   8   8   8   8   8
#     4  11  21  33  54  85 114 142 182 230 276 333
#     4   9  17  34  53  75 109 150 188 228 275 321
#     4  10  19  34  56  82 111 144 181 227 280 330
#     4  10  21  36  53  77 112 150 188 231 277 328
#     4  10  20  35  56  82 111 143 185 233 280 326
#     4  11  22  37  53  80 113 150 192 233 279 331
#     4   8  16  30  51  75 106 144 183 222 266 321
#     4  11  21  37  59  82 110 147 186 232 284 332
#
# _framework density 18.090043999999999
#
# number of rings (size 3 to 8) (size 9 to 14) (size 15 to 20)
#    0.000    2.000    2.500    3.000    0.000    2.000 
#    0.000    0.625    0.000    0.750    0.000    3.500 
#    0.000    0.000    0.000    0.000    0.000    0.000 
#
# Total GULP energy -396776.112846 kJ/mol
# GULP energy per Si atom -12399.253526 kJ/mol
# Density = 1.804887 g / cm^3
# Si number density = 18.090044 Si / 1000 Ang^3
#
#
#
# Elastic Constant Matrix: (Units=GPa)
#
#
# Indices 1 2 3 4 5 6 
#
# 1 46.6780 21.0576 22.7525 0.0000 0.0000 0.0000
# 2 21.0576 106.6630 52.5011 0.0000 0.0000 0.0000
# 3 22.7525 52.5011 116.8693 0.0000 0.0000 0.0000
# 4 0.0000 0.0000 0.0000 19.8715 0.0000 0.0000
# 5 0.0000 0.0000 0.0000 0.0000 28.5275 0.0000
# 6 0.0000 0.0000 0.0000 0.0000 0.0000 25.4912
#
#
#
# Elastic Compliance Matrix: (Units=1/GPa)
#
#
# Indices 1 2 3 4 5 6 
#
# 1 0.024489 -0.003194 -0.003333 0.000000 0.000000 0.000000
# 2 -0.003194 0.012454 -0.004973 0.000000 0.000000 0.000000
# 3 -0.003333 -0.004973 0.011439 0.000000 0.000000 0.000000
# 4 0.000000 0.000000 0.000000 0.050323 0.000000 0.000000
# 5 0.000000 0.000000 0.000000 0.000000 0.035054 0.000000
# 6 0.000000 0.000000 0.000000 0.000000 0.000000 0.039229
#
#
# Mechanical properties :
#
#
# Convention : Reuss Voigt Hill
#
# Bulk Modulus (GPa) = 39.39712 51.42585 45.41148
# Shear Modulus (GPa) = 24.45613 26.37133 25.41373
#
# Velocity S-wave (km/s) = 3.68082 3.82223 3.75219
# Velocity P-wave (km/s) = 6.31587 6.92594 6.62793
#
# Compressibility (1/GPa) = 0.02538257
#
# Stress axis : x y z
#
# Youngs Moduli (GPa) = 40.83500 80.29844 87.41860
#
# Poissons Ratio (x) = 0.25650 0.29133
# Poissons Ratio (y) = 0.13044 0.43470
# Poissons Ratio (z) = 0.13609 0.39929
#
# Static dielectric constant tensor:
#      x y z
#    x 3.168520 0.000000 0.000000 
#    y 0.000000 3.231260 0.000000 
#    z 0.000000 0.000000 3.599890 
# 
# 
# High freq. dielectric constant tensor:
#      x y z
#    x 1.693460 0.000000 0.000000 
#    y 0.000000 1.671190 0.000000 
#    z 0.000000 0.000000 1.710560 
# 
# From -- ./inp_files/22407.got.cif
#   From: 2010.03.12/outbox.cif.g09.slc.cpg/sg40_12_cif.got.tgz:22407.got - 2010.04.14 01:38:03.
