data_PCOD8183136
_publ_section_title
;
Structure prediction by ZEFSAII (Michael W. Deem and Ramdas Pophale) SiO2 
 PCOD8183136
Probable space group: A M A 2
;
_chemical_formula_sum "Si O2"
_cell_formula_units_Z 56
_cell_length_a 8.931403
_cell_length_b 14.031938
_cell_length_c 22.680919
_cell_angle_alpha 90.000000
_cell_angle_beta 90.000000
_cell_angle_gamma 90.000000
_cell_volume 2842.483750
_symmetry_space_group_name_H-M "A M A 2"
_symmetry_group_IT_number 40
_symmetry_cell_setting 'orthorhombic'
loop_
_space_group_symop_operation_xyz
x,y,z
-x,-y,z
1/2-x,y,z
1/2+x,-y,z
x,1/2+y,1/2+z
-x,1/2-y,1/2+z
1/2-x,1/2+y,1/2+z
1/2+x,1/2-y,1/2+z
loop_
_atom_site_type_symbol
_atom_site_label
_atom_site_fract_x
_atom_site_fract_y
_atom_site_fract_z
Si Si1 0.415887 0.641581 0.172810
Si Si2 0.082726 0.357152 0.633390
Si Si3 0.572419 0.300562 0.519011
Si Si4 0.573909 0.102946 0.908309
Si Si5 0.574953 0.091476 0.558689
Si Si6 0.423725 0.800494 0.784656
Si Si7 0.073906 0.091828 0.248883
O O1 0.250000 0.595416 0.174094
O O2 0.404579 0.749430 0.153112
O O3 0.520534 0.587942 0.126408
O O4 0.486985 0.635062 0.237834
O O5 0.250000 0.401243 0.627687
O O6 0.997079 0.364682 0.571114
O O7 0.985684 0.411728 0.681870
O O8 0.750000 0.314784 0.519078
O O9 0.501680 0.334316 0.458451
O O10 0.527974 0.189446 0.526769
O O11 0.750000 0.092193 0.920278
O O12 0.539765 0.159301 0.848564
O O13 0.500000 0.000000 0.905286
O O14 0.750000 0.077406 0.557379
O O15 0.500000 0.000000 0.526021
O O16 0.250000 0.808218 0.768111
O O17 0.474004 0.689384 0.781803
O O18 0.250000 0.078804 0.248640
O O19 0.000000 0.000000 0.281694
#
# Coordination Sequence:
#
# PCOD8183136 Si02
#       7
#     8   8   8   8   8   8   8
#     4   9  17  30  52  80 110 143 179 220 267 316
#     4   9  17  31  52  79 109 143 180 219 265 318
#     4  10  21  38  58  82 112 146 184 230 278 325
#     4  11  24  42  62  82 105 139 183 231 279 329
#     4  10  20  34  55  83 116 150 184 223 271 327
#     4   9  20  38  57  78 110 148 184 225 274 325
#     4  10  19  33  54  82 114 147 182 222 270 326
#
# _framework density 19.701080999999999
#
# number of rings (size 3 to 8) (size 9 to 14) (size 15 to 20)
#    0.000    2.286    0.000    2.571    0.000    8.000 
#    0.000    5.000    0.000    3.429    0.000    0.000 
#    0.000    0.000    0.000    0.000    0.000    0.000 
#
# Total GULP energy -347150.090212 kJ/mol
# GULP energy per Si atom -12398.217508 kJ/mol
# Density = 1.965624 g / cm^3
# Si number density = 19.701081 Si / 1000 Ang^3
#
#
#
# Elastic Constant Matrix: (Units=GPa)
#
#
# Indices 1 2 3 4 5 6 
#
# 1 105.4801 50.8606 50.8586 0.0000 0.0000 0.0000
# 2 50.8606 114.6918 47.1181 0.0000 0.0000 0.0000
# 3 50.8586 47.1181 112.1136 0.0000 0.0000 0.0000
# 4 0.0000 0.0000 0.0000 11.7752 0.0000 0.0000
# 5 0.0000 0.0000 0.0000 0.0000 29.3806 0.0000
# 6 0.0000 0.0000 0.0000 0.0000 0.0000 33.6924
#
#
#
# Elastic Compliance Matrix: (Units=1/GPa)
#
#
# Indices 1 2 3 4 5 6 
#
# 1 0.013653 -0.004242 -0.004410 0.000000 0.000000 0.000000
# 2 -0.004242 0.011857 -0.003059 0.000000 0.000000 0.000000
# 3 -0.004410 -0.003059 0.012206 0.000000 0.000000 0.000000
# 4 0.000000 0.000000 0.000000 0.084924 0.000000 0.000000
# 5 0.000000 0.000000 0.000000 0.000000 0.034036 0.000000
# 6 0.000000 0.000000 0.000000 0.000000 0.000000 0.029680
#
#
# Mechanical properties :
#
#
# Convention : Reuss Voigt Hill
#
# Bulk Modulus (GPa) = 69.96713 69.99555 69.98134
# Shear Modulus (GPa) = 23.30542 27.19953 25.25248
#
# Velocity S-wave (km/s) = 3.44314 3.71969 3.58408
# Velocity P-wave (km/s) = 7.16927 7.35214 7.26128
#
# Compressibility (1/GPa) = 0.01429243
#
# Stress axis : x y z
#
# Youngs Moduli (GPa) = 73.24628 84.33925 81.92943
#
# Poissons Ratio (x) = 0.35780 0.36133
# Poissons Ratio (y) = 0.31074 0.25059
# Poissons Ratio (z) = 0.32304 0.25796
#
# Static dielectric constant tensor:
#      x y z
#    x 3.797820 0.000000 0.000000 
#    y 0.000000 3.918200 0.000000 
#    z 0.000000 0.000000 3.425610 
# 
# 
# High freq. dielectric constant tensor:
#      x y z
#    x 1.781330 0.000000 0.000000 
#    y 0.000000 1.776970 0.000000 
#    z 0.000000 0.000000 1.741640 
# 
# From -- ./inp_files/22124.got.cif
#   From: 2010.03.12/outbox.cif.g09.slc.cpg/sg40_12_cif.got.tgz:22124.got - 2010.04.14 01:38:03.
