data_PCOD8183403
_publ_section_title
;
Structure prediction by ZEFSAII (Michael W. Deem and Ramdas Pophale) SiO2 
 PCOD8183403
Probable space group: A M A 2
;
_chemical_formula_sum "Si O2"
_cell_formula_units_Z 56
_cell_length_a 21.158676
_cell_length_b 17.167920
_cell_length_c 7.736989
_cell_angle_alpha 90.000000
_cell_angle_beta 90.000000
_cell_angle_gamma 90.000000
_cell_volume 2810.464789
_symmetry_space_group_name_H-M "A M A 2"
_symmetry_group_IT_number 40
_symmetry_cell_setting 'orthorhombic'
loop_
_space_group_symop_operation_xyz
x,y,z
-x,-y,z
1/2-x,y,z
1/2+x,-y,z
x,1/2+y,1/2+z
-x,1/2-y,1/2+z
1/2-x,1/2+y,1/2+z
1/2+x,1/2-y,1/2+z
loop_
_atom_site_type_symbol
_atom_site_label
_atom_site_fract_x
_atom_site_fract_y
_atom_site_fract_z
Si Si1 0.679685 0.425275 0.094540
Si Si2 0.870489 0.924658 0.230490
Si Si3 0.421921 0.795286 0.522660
Si Si4 0.440746 0.943216 0.071126
Si Si5 0.068345 0.959458 0.682084
Si Si6 0.982358 0.822149 0.257372
Si Si7 0.677420 0.319862 0.415091
O O1 0.750000 0.458118 0.137653
O O2 0.624362 0.483414 0.137246
O O3 0.668370 0.350025 0.217727
O O4 0.678937 0.410314 0.886681
O O5 0.936721 0.893208 0.307819
O O6 0.883771 0.015725 0.180886
O O7 0.849496 0.882353 0.053119
O O8 0.420278 0.887112 0.554992
O O9 0.484706 0.778266 0.413445
O O10 0.435044 0.743252 0.688157
O O11 0.358777 0.762830 0.430075
O O12 0.460238 0.858586 0.143290
O O13 0.500000 0.000000 0.067125
O O14 0.419851 0.929379 0.874716
O O15 0.000000 0.000000 0.652755
O O16 0.750000 0.303582 0.458354
#
# Coordination Sequence:
#
# PCOD8183403 Si02
#       7
#     8   8   8   8   8   8   8
#     4  11  23  39  65  92 119 164 215 257 312 383
#     4  10  19  37  63  89 119 161 205 256 308 372
#     4  11  23  36  58  89 125 167 199 263 314 377
#     4   9  18  35  58  88 127 160 200 259 314 377
#     4  11  22  38  64  93 125 164 212 265 320 374
#     4  10  21  33  55  90 125 155 202 248 319 375
#     4  10  23  42  60  85 124 165 206 256 311 376
#
# _framework density 19.925529999999998
#
# number of rings (size 3 to 8) (size 9 to 14) (size 15 to 20)
#    0.000    1.714    1.429    3.000    6.000    1.714 
#    0.000    0.000    0.000    0.857    0.000    0.000 
#    0.000    0.000    0.000    0.000    0.000    0.000 
#
# Total GULP energy -346920.797715 kJ/mol
# GULP energy per Si atom -12390.028490 kJ/mol
# Density = 1.988018 g / cm^3
# Si number density = 19.925530 Si / 1000 Ang^3
#
#
#
# Elastic Constant Matrix: (Units=GPa)
#
#
# Indices 1 2 3 4 5 6 
#
# 1 124.0548 48.2356 29.2576 0.0000 0.0000 0.0000
# 2 48.2356 81.3168 5.6596 0.0000 0.0000 0.0000
# 3 29.2576 5.6596 72.1012 0.0000 0.0000 0.0000
# 4 0.0000 0.0000 0.0000 11.0115 0.0000 0.0000
# 5 0.0000 0.0000 0.0000 0.0000 23.9150 0.0000
# 6 0.0000 0.0000 0.0000 0.0000 0.0000 28.0777
#
#
#
# Elastic Compliance Matrix: (Units=1/GPa)
#
#
# Indices 1 2 3 4 5 6 
#
# 1 0.011616 -0.006598 -0.004196 0.000000 0.000000 0.000000
# 2 -0.006598 0.016113 0.001413 0.000000 0.000000 0.000000
# 3 -0.004196 0.001413 0.015461 0.000000 0.000000 0.000000
# 4 0.000000 0.000000 0.000000 0.090814 0.000000 0.000000
# 5 0.000000 0.000000 0.000000 0.000000 0.041815 0.000000
# 6 0.000000 0.000000 0.000000 0.000000 0.000000 0.035615
#
#
# Mechanical properties :
#
#
# Convention : Reuss Voigt Hill
#
# Bulk Modulus (GPa) = 40.93716 49.30872 45.12294
# Shear Modulus (GPa) = 20.97843 25.55552 23.26698
#
# Velocity S-wave (km/s) = 3.24827 3.58516 3.42087
# Velocity P-wave (km/s) = 5.88711 6.47596 6.18854
#
# Compressibility (1/GPa) = 0.02442768
#
# Stress axis : x y z
#
# Youngs Moduli (GPa) = 86.08708 62.06037 64.67858
#
# Poissons Ratio (x) = 0.40950 0.27137
# Poissons Ratio (y) = 0.56804 -0.09137
# Poissons Ratio (z) = 0.36120 -0.08768
#
# Static dielectric constant tensor:
#      x y z
#    x 3.674180 0.000000 0.000000 
#    y 0.000000 3.510450 0.000000 
#    z 0.000000 0.000000 4.081300 
# 
# 
# High freq. dielectric constant tensor:
#      x y z
#    x 1.768500 0.000000 0.000000 
#    y 0.000000 1.761460 0.000000 
#    z 0.000000 0.000000 1.787590 
# 
# From -- ./inp_files/8384.got.cif
#   From: 2010.03.12/outbox.cif.g09.slc.cpg/sg40_5_cif.got.tgz:8384.got - 2010.04.14 01:38:03.
