data_PCOD8183761
_publ_section_title
;
Structure prediction by ZEFSAII (Michael W. Deem and Ramdas Pophale) SiO2 
 PCOD8183761
Probable space group: A M A 2
;
_chemical_formula_sum "Si O2"
_cell_formula_units_Z 60
_cell_length_a 9.366848
_cell_length_b 11.874615
_cell_length_c 26.183587
_cell_angle_alpha 90.000000
_cell_angle_beta 90.000000
_cell_angle_gamma 90.000000
_cell_volume 2912.340520
_symmetry_space_group_name_H-M "A M A 2"
_symmetry_group_IT_number 40
_symmetry_cell_setting 'orthorhombic'
loop_
_space_group_symop_operation_xyz
x,y,z
-x,-y,z
1/2-x,y,z
1/2+x,-y,z
x,1/2+y,1/2+z
-x,1/2-y,1/2+z
1/2-x,1/2+y,1/2+z
1/2+x,1/2-y,1/2+z
loop_
_atom_site_type_symbol
_atom_site_label
_atom_site_fract_x
_atom_site_fract_y
_atom_site_fract_z
Si Si1 0.500000 0.500000 0.155330
Si Si2 0.090991 0.593863 0.420116
Si Si3 0.080537 0.379256 0.649877
Si Si4 0.909045 0.405014 0.880394
Si Si5 0.411986 0.299565 0.086766
Si Si6 0.407082 0.686298 0.228415
Si Si7 0.088346 0.328122 0.326847
Si Si8 0.090149 0.328179 0.972530
O O1 0.410723 0.412480 0.120956
O O2 0.400140 0.580454 0.189697
O O3 0.250000 0.551274 0.408163
O O4 0.092734 0.699099 0.456482
O O5 0.000000 0.500000 0.450582
O O6 0.011252 0.606705 0.366006
O O7 0.250000 0.398289 0.639782
O O8 0.056318 0.305225 0.701043
O O9 0.000000 0.500000 0.654444
O O10 0.013289 0.302811 0.604837
O O11 0.750000 0.447743 0.890230
O O12 0.912466 0.300774 0.843159
O O13 0.000000 0.500000 0.851016
O O14 0.979508 0.390398 0.936074
O O15 0.250000 0.253078 0.084756
O O16 0.464635 0.336180 0.030478
O O17 0.250000 0.696197 0.253632
O O18 0.526660 0.660836 0.270237
O O19 0.250000 0.375708 0.327003
O O20 0.250000 0.378864 0.966708
#
# Coordination Sequence:
#
# PCOD8183761 Si02
#       8
#     4   8   8   8   8   8   8   8
#     4  10  22  38  60  90 124 158 202 248 300 356
#     4  10  20  36  57  81 115 151 191 239 288 346
#     4  10  22  40  61  86 117 153 197 246 300 356
#     4  10  21  37  57  83 115 151 191 239 289 348
#     4  10  21  39  62  88 120 157 200 248 299 356
#     4  10  22  39  59  85 117 155 197 244 298 355
#     4  10  22  38  57  83 113 149 194 238 292 349
#     4   9  20  37  57  85 116 152 194 238 289 344
#
# _framework density 20.601987000000001
#
# number of rings (size 3 to 8) (size 9 to 14) (size 15 to 20)
#    0.000    2.133    0.000    2.000    1.867    7.467 
#    0.000    4.000    0.000    0.000    0.000    0.000 
#    0.000    0.000    0.000    0.000    0.000    0.000 
#
# Total GULP energy -371805.512031 kJ/mol
# GULP energy per Si atom -12393.517068 kJ/mol
# Density = 2.055510 g / cm^3
# Si number density = 20.601987 Si / 1000 Ang^3
#
#
#
# Elastic Constant Matrix: (Units=GPa)
#
#
# Indices 1 2 3 4 5 6 
#
# 1 141.8309 40.5218 29.0936 0.0000 0.0000 0.0000
# 2 40.5218 104.3705 16.6552 0.0000 0.0000 0.0000
# 3 29.0936 16.6552 91.9372 0.0000 0.0000 0.0000
# 4 0.0000 0.0000 0.0000 -212.9937 0.0000 0.0000
# 5 0.0000 0.0000 0.0000 0.0000 34.9900 0.0000
# 6 0.0000 0.0000 0.0000 0.0000 0.0000 33.3271
#
#
#
# Elastic Compliance Matrix: (Units=1/GPa)
#
#
# Indices 1 2 3 4 5 6 
#
# 1 0.008308 -0.002890 -0.002106 0.000000 0.000000 0.000000
# 2 -0.002890 0.010872 -0.001055 0.000000 0.000000 0.000000
# 3 -0.002106 -0.001055 0.011734 0.000000 0.000000 0.000000
# 4 0.000000 0.000000 0.000000 -0.004695 0.000000 0.000000
# 5 0.000000 0.000000 0.000000 0.000000 0.028580 0.000000
# 6 0.000000 0.000000 0.000000 0.000000 0.000000 0.030006
#
#
# Mechanical properties :
#
#
# Convention : Reuss Voigt Hill
#
# Bulk Modulus (GPa) = 53.15331 56.74219 54.94775
# Shear Modulus (GPa) = 48.46083 -12.14412 18.15836
#
# Velocity S-wave (km/s) = 4.85525 -2.43052 2.97204
# Velocity P-wave (km/s) = 7.56884 4.44132 6.20535
#
# Compressibility (1/GPa) = 0.01881351
#
# Stress axis : x y z
#
# Youngs Moduli (GPa) = 120.36354 91.98354 85.21910
#
# Poissons Ratio (x) = 0.26580 0.17944
# Poissons Ratio (y) = 0.34781 0.08991
# Poissons Ratio (z) = 0.25344 0.09705
#
# Static dielectric constant tensor:
#      x y z
#    x 3.938250 0.000000 0.000000 
#    y 0.000000 4.037490 0.000000 
#    z 0.000000 0.000000 3.514230 
# 
# 
# High freq. dielectric constant tensor:
#      x y z
#    x 1.815960 0.000000 0.000000 
#    y 0.000000 1.817670 0.000000 
#    z 0.000000 0.000000 1.791250 
# 
# From -- ./inp_files/25400.got.cif
#   From: 2010.03.12/outbox.cif.g09.slc.cpg/sg40_13_cif.got.tgz:25400.got - 2010.04.14 01:38:03.
