data_PCOD8183788
_publ_section_title
;
Structure prediction by ZEFSAII (Michael W. Deem and Ramdas Pophale) SiO2 
 PCOD8183788
Probable space group: A M A 2
;
_chemical_formula_sum "Si O2"
_cell_formula_units_Z 48
_cell_length_a 8.674343
_cell_length_b 15.216469
_cell_length_c 18.360096
_cell_angle_alpha 90.000000
_cell_angle_beta 90.000000
_cell_angle_gamma 90.000000
_cell_volume 2423.401789
_symmetry_space_group_name_H-M "A M A 2"
_symmetry_group_IT_number 40
_symmetry_cell_setting 'orthorhombic'
loop_
_space_group_symop_operation_xyz
x,y,z
-x,-y,z
1/2-x,y,z
1/2+x,-y,z
x,1/2+y,1/2+z
-x,1/2-y,1/2+z
1/2-x,1/2+y,1/2+z
1/2+x,1/2-y,1/2+z
loop_
_atom_site_type_symbol
_atom_site_label
_atom_site_fract_x
_atom_site_fract_y
_atom_site_fract_z
Si Si1 0.432370 0.407235 0.981020
Si Si2 0.069271 0.408668 0.813979
Si Si3 0.428161 0.751904 0.213924
Si Si4 0.572305 0.236822 0.046058
Si Si5 0.931382 0.092915 0.789540
Si Si6 0.568315 0.406852 0.444581
O O1 0.500000 0.500000 0.007394
O O2 0.250000 0.405634 0.992738
O O3 0.478363 0.389830 0.897177
O O4 0.512305 0.333964 0.029762
O O5 0.250000 0.416566 0.805086
O O6 0.005161 0.329786 0.764476
O O7 0.000000 0.500000 0.785759
O O8 0.250000 0.732323 0.232207
O O9 0.449875 0.781601 0.131159
O O10 0.525873 0.664501 0.229017
O O11 0.750000 0.228151 0.022541
O O12 0.470985 0.166013 0.003834
O O13 0.750000 0.083383 0.797129
O O14 0.000243 0.122545 0.867072
O O15 0.000000 0.000000 0.764219
O O16 0.500000 0.500000 0.470041
O O17 0.750000 0.415755 0.436782
#
# Coordination Sequence:
#
# PCOD8183788 Si02
#       6
#     8   8   8   8   8   8
#     4  10  20  36  59  84 111 146 189 237 286 338
#     4   9  19  36  58  82 108 141 181 227 277 328
#     4  10  22  39  57  82 118 154 187 230 284 339
#     4  11  23  38  57  84 118 154 192 235 285 341
#     4  11  22  38  62  88 114 147 191 239 288 343
#     4  11  22  39  62  86 115 150 192 240 290 343
#
# _framework density 19.80687
#
# number of rings (size 3 to 8) (size 9 to 14) (size 15 to 20)
#    0.000    1.667    0.000    6.000    0.000    5.333 
#    0.000    1.667    0.000    0.000    0.000    0.000 
#    0.000    0.000    0.000    0.000    0.000    0.000 
#
# Total GULP energy -297744.799989 kJ/mol
# GULP energy per Si atom -12406.033333 kJ/mol
# Density = 1.976179 g / cm^3
# Si number density = 19.806870 Si / 1000 Ang^3
#
#
#
# Elastic Constant Matrix: (Units=GPa)
#
#
# Indices 1 2 3 4 5 6 
#
# 1 112.4594 28.6540 22.4870 0.0000 0.0000 0.0000
# 2 28.6540 93.5030 22.6288 0.0000 0.0000 0.0000
# 3 22.4870 22.6288 43.3943 0.0000 0.0000 0.0000
# 4 0.0000 0.0000 0.0000 16.2604 0.0000 0.0000
# 5 0.0000 0.0000 0.0000 0.0000 23.9829 0.0000
# 6 0.0000 0.0000 0.0000 0.0000 0.0000 39.0083
#
#
#
# Elastic Compliance Matrix: (Units=1/GPa)
#
#
# Indices 1 2 3 4 5 6 
#
# 1 0.010278 -0.002129 -0.004215 0.000000 0.000000 0.000000
# 2 -0.002129 0.012681 -0.005509 0.000000 0.000000 0.000000
# 3 -0.004215 -0.005509 0.028102 0.000000 0.000000 0.000000
# 4 0.000000 0.000000 0.000000 0.061499 0.000000 0.000000
# 5 0.000000 0.000000 0.000000 0.000000 0.041696 0.000000
# 6 0.000000 0.000000 0.000000 0.000000 0.000000 0.025636
#
#
# Mechanical properties :
#
#
# Convention : Reuss Voigt Hill
#
# Bulk Modulus (GPa) = 36.56025 44.09960 40.32993
# Shear Modulus (GPa) = 23.50549 27.55612 25.53080
#
# Velocity S-wave (km/s) = 3.44864 3.73398 3.59414
# Velocity P-wave (km/s) = 5.86139 6.39557 6.13430
#
# Compressibility (1/GPa) = 0.02735211
#
# Stress axis : x y z
#
# Youngs Moduli (GPa) = 97.29935 78.86028 35.58492
#
# Poissons Ratio (x) = 0.16792 0.15001
# Poissons Ratio (y) = 0.20719 0.19604
# Poissons Ratio (z) = 0.41016 0.43445
#
# Static dielectric constant tensor:
#      x y z
#    x 3.642820 0.000000 0.000000 
#    y 0.000000 3.798560 0.000000 
#    z 0.000000 0.000000 3.536920 
# 
# 
# High freq. dielectric constant tensor:
#      x y z
#    x 1.779710 0.000000 0.000000 
#    y 0.000000 1.784290 0.000000 
#    z 0.000000 0.000000 1.764240 
# 
# From -- ./inp_files/19198.got.cif
#   From: 2010.03.12/outbox.cif.g09.slc.cpg/sg40_10_cif.got.tgz:19198.got - 2010.04.14 01:38:03.
