data_PCOD8183252
_publ_section_title
;
Structure prediction by ZEFSAII (Michael W. Deem and Ramdas Pophale) SiO2 
 PCOD8183252
Probable space group: A M A 2
;
_chemical_formula_sum "Si O2"
_cell_formula_units_Z 60
_cell_length_a 19.401688
_cell_length_b 16.371132
_cell_length_c 9.440327
_cell_angle_alpha 90.000000
_cell_angle_beta 90.000000
_cell_angle_gamma 90.000000
_cell_volume 2998.508364
_symmetry_space_group_name_H-M "A M A 2"
_symmetry_group_IT_number 40
_symmetry_cell_setting 'orthorhombic'
loop_
_space_group_symop_operation_xyz
x,y,z
-x,-y,z
1/2-x,y,z
1/2+x,-y,z
x,1/2+y,1/2+z
-x,1/2-y,1/2+z
1/2-x,1/2+y,1/2+z
1/2+x,1/2-y,1/2+z
loop_
_atom_site_type_symbol
_atom_site_label
_atom_site_fract_x
_atom_site_fract_y
_atom_site_fract_z
Si Si1 0.123897 0.578230 0.493970
Si Si2 0.382355 0.184875 0.744760
Si Si3 0.419717 0.695098 0.729758
Si Si4 0.935694 0.645541 0.829258
Si Si5 0.500000 0.500000 0.350506
Si Si6 0.173469 0.749988 0.974546
Si Si7 0.671703 0.085924 0.114051
Si Si8 0.471229 0.367489 0.143141
O O1 0.153428 0.620947 0.351897
O O2 0.125537 0.643144 0.620925
O O3 0.169361 0.500773 0.535827
O O4 0.045887 0.553576 0.455995
O O5 0.406552 0.262483 0.838610
O O6 0.325630 0.209093 0.629781
O O7 0.447296 0.147821 0.659605
O O8 0.491974 0.648550 0.746578
O O9 0.379626 0.701229 0.877665
O O10 0.427862 0.787205 0.677203
O O11 0.881675 0.587651 0.745691
O O12 0.949919 0.607289 0.983767
O O13 0.452676 0.441482 0.250399
O O14 0.250000 0.744674 0.908958
O O15 0.151021 0.844486 0.999305
O O16 0.750000 0.100595 0.168590
#
# Coordination Sequence:
#
# PCOD8183252 Si02
#       8
#     8   8   8   8   4   8   8   8
#     4  11  21  37  58  87 120 155 199 250 298 361
#     4   9  19  35  58  88 114 157 199 248 303 357
#     4  11  21  34  63  93 118 152 205 256 309 355
#     4  10  19  36  61  88 124 156 201 257 307 363
#     4  10  22  34  58  90 124 156 196 248 312 360
#     4  10  21  40  60  83 115 156 199 248 306 371
#     4  10  23  40  60  84 123 167 205 248 311 375
#     4  10  19  34  57  89 122 151 201 252 299 363
#
# _framework density 20.009948999999999
#
# number of rings (size 3 to 8) (size 9 to 14) (size 15 to 20)
#    0.000    1.867    2.667    1.600    0.000    2.133 
#    0.000    0.667    0.000    0.800    0.000    0.000 
#    0.000    0.000    0.000    0.000    0.000    0.000 
#
# Total GULP energy -371939.848179 kJ/mol
# GULP energy per Si atom -12397.994939 kJ/mol
# Density = 1.996441 g / cm^3
# Si number density = 20.009949 Si / 1000 Ang^3
#
#
#
# Elastic Constant Matrix: (Units=GPa)
#
#
# Indices 1 2 3 4 5 6 
#
# 1 67.3171 24.3072 36.8770 0.0000 0.0000 0.0000
# 2 24.3072 105.5367 49.9411 0.0000 0.0000 0.0000
# 3 36.8770 49.9411 110.0319 0.0000 0.0000 0.0000
# 4 0.0000 0.0000 0.0000 32.4862 0.0000 0.0000
# 5 0.0000 0.0000 0.0000 0.0000 21.3407 0.0000
# 6 0.0000 0.0000 0.0000 0.0000 0.0000 19.4786
#
#
#
# Elastic Compliance Matrix: (Units=1/GPa)
#
#
# Indices 1 2 3 4 5 6 
#
# 1 0.018428 -0.001683 -0.005412 0.000000 0.000000 0.000000
# 2 -0.001683 0.012221 -0.004983 0.000000 0.000000 0.000000
# 3 -0.005412 -0.004983 0.013164 0.000000 0.000000 0.000000
# 4 0.000000 0.000000 0.000000 0.030782 0.000000 0.000000
# 5 0.000000 0.000000 0.000000 0.000000 0.046859 0.000000
# 6 0.000000 0.000000 0.000000 0.000000 0.000000 0.051338
#
#
# Mechanical properties :
#
#
# Convention : Reuss Voigt Hill
#
# Bulk Modulus (GPa) = 50.87419 56.12624 53.50021
# Shear Modulus (GPa) = 24.57010 26.11181 25.34095
#
# Velocity S-wave (km/s) = 3.50793 3.61632 3.56254
# Velocity P-wave (km/s) = 6.47202 6.74886 6.61189
#
# Compressibility (1/GPa) = 0.01965633
#
# Stress axis : x y z
#
# Youngs Moduli (GPa) = 54.26648 81.82691 75.96698
#
# Poissons Ratio (x) = 0.13773 0.41113
# Poissons Ratio (y) = 0.09134 0.37852
# Poissons Ratio (z) = 0.29369 0.40772
#
# Static dielectric constant tensor:
#      x y z
#    x 3.280800 0.000000 0.000000 
#    y 0.000000 3.711250 0.000000 
#    z 0.000000 0.000000 3.572850 
# 
# 
# High freq. dielectric constant tensor:
#      x y z
#    x 1.753510 0.000000 0.000000 
#    y 0.000000 1.781070 0.000000 
#    z 0.000000 0.000000 1.780400 
# 
# From -- ./inp_files/7705.got.cif
#   From: 2010.03.12/outbox.cif.g09.slc.cpg/sg40_4_cif.got.tgz:7705.got - 2010.04.14 01:38:03.
