data_PCOD8183271
_publ_section_title
;
Structure prediction by ZEFSAII (Michael W. Deem and Ramdas Pophale) SiO2 
 PCOD8183271
Probable space group: A M A 2
;
_chemical_formula_sum "Si O2"
_cell_formula_units_Z 64
_cell_length_a 15.287170
_cell_length_b 23.485150
_cell_length_c 9.126774
_cell_angle_alpha 90.000000
_cell_angle_beta 90.000000
_cell_angle_gamma 90.000000
_cell_volume 3276.707914
_symmetry_space_group_name_H-M "A M A 2"
_symmetry_group_IT_number 40
_symmetry_cell_setting 'orthorhombic'
loop_
_space_group_symop_operation_xyz
x,y,z
-x,-y,z
1/2-x,y,z
1/2+x,-y,z
x,1/2+y,1/2+z
-x,1/2-y,1/2+z
1/2-x,1/2+y,1/2+z
1/2+x,1/2-y,1/2+z
loop_
_atom_site_type_symbol
_atom_site_label
_atom_site_fract_x
_atom_site_fract_y
_atom_site_fract_z
Si Si1 0.401162 0.994849 0.862810
Si Si2 0.348537 0.619395 0.380761
Si Si3 0.152462 0.884489 0.026410
Si Si4 0.991621 0.809703 0.037101
Si Si5 0.401402 0.000934 0.521496
Si Si6 0.846837 0.107531 0.362233
Si Si7 0.350093 0.627083 0.045103
Si Si8 0.500465 0.190901 0.384120
O O1 0.500000 0.000000 0.921171
O O2 0.349815 0.051729 0.907333
O O3 0.399287 0.984255 0.690525
O O4 0.353669 0.941182 0.931826
O O5 0.250000 0.641386 0.406383
O O6 0.411295 0.649459 0.496558
O O7 0.379631 0.632768 0.214684
O O8 0.250000 0.858677 0.007135
O O9 0.132995 0.902078 0.192335
O O10 0.082102 0.837109 0.977869
O O11 0.993495 0.800803 0.210700
O O12 0.976806 0.750550 0.956827
O O13 0.359138 0.062233 0.491460
O O14 0.500000 0.000000 0.460861
O O15 0.346307 0.954081 0.436081
O O16 0.750000 0.134571 0.385155
O O17 0.920477 0.148804 0.429873
O O18 0.250000 0.646607 0.025525
O O19 0.409391 0.667752 0.946745
#
# Coordination Sequence:
#
# PCOD8183271 Si02
#       8
#     8   8   8   8   8   8   8   8
#     4  10  19  34  60  90 120 152 189 233 285 345
#     4  10  21  38  60  87 120 156 192 235 290 346
#     4  10  22  39  59  85 117 153 191 235 290 347
#     4  11  24  41  61  84 114 152 199 247 294 345
#     4  10  19  34  60  90 120 152 189 233 285 345
#     4  10  22  39  59  85 117 153 191 235 290 347
#     4  10  21  38  60  87 120 156 192 235 290 346
#     4  11  24  41  61  84 114 152 199 247 294 345
#
# _framework density 19.531798999999999
#
# number of rings (size 3 to 8) (size 9 to 14) (size 15 to 20)
#    0.000    1.750    2.500    1.500    0.000    5.500 
#    0.000    2.500    0.000    0.000    0.000    0.000 
#    0.000    0.000    0.000    0.000    0.000    0.000 
#
# Total GULP energy -396910.425788 kJ/mol
# GULP energy per Si atom -12403.450806 kJ/mol
# Density = 1.948734 g / cm^3
# Si number density = 19.531799 Si / 1000 Ang^3
#
#
#
# Elastic Constant Matrix: (Units=GPa)
#
#
# Indices 1 2 3 4 5 6 
#
# 1 97.4192 12.7866 19.0612 0.0000 0.0000 0.0000
# 2 12.7866 63.1623 23.5693 0.0000 0.0000 0.0000
# 3 19.0612 23.5693 50.0515 0.0000 0.0000 0.0000
# 4 0.0000 0.0000 0.0000 34.6361 0.0000 0.0000
# 5 0.0000 0.0000 0.0000 0.0000 29.0296 0.0000
# 6 0.0000 0.0000 0.0000 0.0000 0.0000 12.7010
#
#
#
# Elastic Compliance Matrix: (Units=1/GPa)
#
#
# Indices 1 2 3 4 5 6 
#
# 1 0.011126 -0.000814 -0.003854 0.000000 0.000000 0.000000
# 2 -0.000814 0.019267 -0.008763 0.000000 0.000000 0.000000
# 3 -0.003854 -0.008763 0.025573 0.000000 0.000000 0.000000
# 4 0.000000 0.000000 0.000000 0.028872 0.000000 0.000000
# 5 0.000000 0.000000 0.000000 0.000000 0.034448 0.000000
# 6 0.000000 0.000000 0.000000 0.000000 0.000000 0.078734
#
#
# Mechanical properties :
#
#
# Convention : Reuss Voigt Hill
#
# Bulk Modulus (GPa) = 34.35851 35.71857 35.03854
# Shear Modulus (GPa) = 21.31448 25.62105 23.46776
#
# Velocity S-wave (km/s) = 3.30702 3.62575 3.47005
# Velocity P-wave (km/s) = 5.67548 5.98792 5.83379
#
# Compressibility (1/GPa) = 0.02910487
#
# Stress axis : x y z
#
# Youngs Moduli (GPa) = 89.88115 51.90244 39.10324
#
# Poissons Ratio (x) = 0.04227 0.15069
# Poissons Ratio (y) = 0.07319 0.34265
# Poissons Ratio (z) = 0.34636 0.45480
#
# Static dielectric constant tensor:
#      x y z
#    x 3.745990 0.000000 0.000000 
#    y 0.000000 3.441650 0.000000 
#    z 0.000000 0.000000 3.456780 
# 
# 
# High freq. dielectric constant tensor:
#      x y z
#    x 1.775640 0.000000 0.000000 
#    y 0.000000 1.753870 0.000000 
#    z 0.000000 0.000000 1.752410 
# 
# From -- ./inp_files/6873.got.cif
#   From: 2010.03.12/outbox.cif.g09.slc.cpg/sg40_4_cif.got.tgz:6873.got - 2010.04.14 01:38:03.
