data_PCOD8183341
_publ_section_title
;
Structure prediction by ZEFSAII (Michael W. Deem and Ramdas Pophale) SiO2 
 PCOD8183341
Probable space group: A M A 2
;
_chemical_formula_sum "Si O2"
_cell_formula_units_Z 48
_cell_length_a 13.616861
_cell_length_b 9.777746
_cell_length_c 17.019508
_cell_angle_alpha 90.000000
_cell_angle_beta 90.000000
_cell_angle_gamma 90.000000
_cell_volume 2266.014877
_symmetry_space_group_name_H-M "A M A 2"
_symmetry_group_IT_number 40
_symmetry_cell_setting 'orthorhombic'
loop_
_space_group_symop_operation_xyz
x,y,z
-x,-y,z
1/2-x,y,z
1/2+x,-y,z
x,1/2+y,1/2+z
-x,1/2-y,1/2+z
1/2-x,1/2+y,1/2+z
1/2+x,1/2-y,1/2+z
loop_
_atom_site_type_symbol
_atom_site_label
_atom_site_fract_x
_atom_site_fract_y
_atom_site_fract_z
Si Si1 0.366247 0.924437 0.849780
Si Si2 0.366974 0.207145 0.791129
Si Si3 0.366480 0.702248 0.968780
Si Si4 0.529298 0.343010 0.131422
Si Si5 0.363112 0.497635 0.837157
Si Si6 0.363049 0.723481 0.714868
O O1 0.250000 0.926958 0.839441
O O2 0.408452 0.079613 0.843770
O O3 0.392962 0.850363 0.931279
O O4 0.405221 0.835885 0.776321
O O5 0.250000 0.213495 0.795484
O O6 0.394430 0.188906 0.700582
O O7 0.412698 0.347838 0.827083
O O8 0.250000 0.687500 0.980391
O O9 0.406989 0.582532 0.910516
O O10 0.420047 0.695917 0.050705
O O11 0.500000 0.500000 0.130632
O O12 0.432222 0.246228 0.139192
O O13 0.250000 0.479429 0.855754
O O14 0.377124 0.575421 0.754167
O O15 0.250000 0.747521 0.690490
#
# Coordination Sequence:
#
# PCOD8183341 Si02
#       6
#     8   8   8   8   8   8
#     4   8  15  33  62  85 110 151 192 239 290 346
#     4  10  19  35  64  95 118 147 198 249 294 359
#     4   9  19  38  61  87 122 158 196 243 304 361
#     4  12  23  34  56  95 120 158 201 248 306 351
#     4   8  17  37  66  90 113 155 201 247 301 354
#     4   9  18  36  60  85 116 157 202 243 290 353
#
# _framework density 21.182562000000001
#
# number of rings (size 3 to 8) (size 9 to 14) (size 15 to 20)
#    0.000    2.667    1.667    2.500    0.000    1.333 
#    6.000    0.000    7.333    0.000    0.000    1.167 
#    0.000    0.000    0.000    0.000    0.000    0.000 
#
# Total GULP energy -297461.586392 kJ/mol
# GULP energy per Si atom -12394.232766 kJ/mol
# Density = 2.113435 g / cm^3
# Si number density = 21.182562 Si / 1000 Ang^3
#
#
#
# Elastic Constant Matrix: (Units=GPa)
#
#
# Indices 1 2 3 4 5 6 
#
# 1 51.7062 37.3201 46.1327 0.0000 0.0000 0.0000
# 2 37.3201 182.0030 84.0826 0.0000 0.0000 0.0000
# 3 46.1327 84.0826 151.3606 0.0000 0.0000 0.0000
# 4 0.0000 0.0000 0.0000 24.9054 0.0000 0.0000
# 5 0.0000 0.0000 0.0000 0.0000 33.3968 0.0000
# 6 0.0000 0.0000 0.0000 0.0000 0.0000 18.1964
#
#
#
# Elastic Compliance Matrix: (Units=1/GPa)
#
#
# Indices 1 2 3 4 5 6 
#
# 1 0.027296 -0.002359 -0.007009 0.000000 0.000000 0.000000
# 2 -0.002359 0.007595 -0.003500 0.000000 0.000000 0.000000
# 3 -0.007009 -0.003500 0.010687 0.000000 0.000000 0.000000
# 4 0.000000 0.000000 0.000000 0.040152 0.000000 0.000000
# 5 0.000000 0.000000 0.000000 0.000000 0.029943 0.000000
# 6 0.000000 0.000000 0.000000 0.000000 0.000000 0.054956
#
#
# Mechanical properties :
#
#
# Convention : Reuss Voigt Hill
#
# Bulk Modulus (GPa) = 50.39760 80.01562 65.20661
# Shear Modulus (GPa) = 24.63292 29.80201 27.21747
#
# Velocity S-wave (km/s) = 3.41381 3.75495 3.58844
# Velocity P-wave (km/s) = 6.27555 7.52701 6.92959
#
# Compressibility (1/GPa) = 0.01984221
#
# Stress axis : x y z
#
# Youngs Moduli (GPa) = 36.63503 131.66231 93.56813
#
# Poissons Ratio (x) = 0.31060 0.65582
# Poissons Ratio (y) = 0.08643 0.32751
# Poissons Ratio (z) = 0.25678 0.46084
#
# Static dielectric constant tensor:
#      x y z
#    x 3.853880 0.000000 0.000000 
#    y 0.000000 4.551860 0.000000 
#    z 0.000000 0.000000 3.575060 
# 
# 
# High freq. dielectric constant tensor:
#      x y z
#    x 1.845500 0.000000 0.000000 
#    y 0.000000 1.838450 0.000000 
#    z 0.000000 0.000000 1.793920 
# 
# From -- ./inp_files/20570.got.cif
#   From: 2010.03.12/outbox.cif.g09.slc.cpg/sg40_11_cif.got.tgz:20570.got - 2010.04.14 01:38:03.
