data_PCOD8183960
_publ_section_title
;
Structure prediction by ZEFSAII (Michael W. Deem and Ramdas Pophale) SiO2 
 PCOD8183960
Probable space group: A M A 2
;
_chemical_formula_sum "Si O2"
_cell_formula_units_Z 64
_cell_length_a 17.666620
_cell_length_b 17.660231
_cell_length_c 9.660976
_cell_angle_alpha 90.000000
_cell_angle_beta 90.000000
_cell_angle_gamma 90.000000
_cell_volume 3014.191570
_symmetry_space_group_name_H-M "A M A 2"
_symmetry_group_IT_number 40
_symmetry_cell_setting 'orthorhombic'
loop_
_space_group_symop_operation_xyz
x,y,z
-x,-y,z
1/2-x,y,z
1/2+x,-y,z
x,1/2+y,1/2+z
-x,1/2-y,1/2+z
1/2-x,1/2+y,1/2+z
1/2+x,1/2-y,1/2+z
loop_
_atom_site_type_symbol
_atom_site_label
_atom_site_fract_x
_atom_site_fract_y
_atom_site_fract_z
Si Si1 0.337617 0.547198 0.439780
Si Si2 0.065074 0.797576 0.162237
Si Si3 0.083329 0.974596 0.191774
Si Si4 0.162514 0.470059 0.159752
Si Si5 0.160789 0.067444 0.414880
Si Si6 0.661032 0.284329 0.374441
Si Si7 0.924120 0.777025 0.365159
Si Si8 0.160221 0.805391 0.638090
O O1 0.250000 0.548487 0.489991
O O2 0.393973 0.523713 0.559451
O O3 0.350721 0.487014 0.319469
O O4 0.363788 0.628705 0.384916
O O5 0.088102 0.885742 0.157830
O O6 0.133375 0.750972 0.230691
O O7 0.993954 0.784426 0.261089
O O8 0.051875 0.764432 0.007956
O O9 0.142438 0.998366 0.310560
O O10 0.000000 0.000000 0.237921
O O11 0.250000 0.462445 0.123229
O O12 0.124242 0.389455 0.124943
O O13 0.132465 0.538217 0.064680
O O14 0.250000 0.087350 0.407243
O O15 0.111040 0.140730 0.387045
O O16 0.750000 0.276547 0.372320
O O17 0.626896 0.242078 0.509294
O O18 0.861560 0.727582 0.287068
O O19 0.250000 0.806568 0.633299
#
# Coordination Sequence:
#
# PCOD8183960 Si02
#       8
#     8   8   8   8   8   8   8   8
#     4  10  21  40  66  94 126 166 213 265 322 388
#     4  12  27  43  65  93 139 173 220 276 331 393
#     4  12  25  43  62  96 134 175 221 270 324 396
#     4   9  19  37  62  94 124 157 209 268 321 378
#     4  11  23  44  71  96 128 171 219 272 325 389
#     4  10  22  41  68  98 127 167 214 264 325 394
#     4  12  25  43  63  95 131 179 220 269 331 392
#     4  10  20  38  64  93 126 163 212 265 324 390
#
# _framework density 21.232890000000001
#
# number of rings (size 3 to 8) (size 9 to 14) (size 15 to 20)
#    0.000    1.250    1.250    4.500    1.750    5.000 
#    0.000    0.625    0.000    0.000    0.000    0.000 
#    0.000    0.000    0.000    0.000    0.000    0.000 
#
# Total GULP energy -396799.737786 kJ/mol
# GULP energy per Si atom -12399.991806 kJ/mol
# Density = 2.118456 g / cm^3
# Si number density = 21.232890 Si / 1000 Ang^3
#
#
#
# Elastic Constant Matrix: (Units=GPa)
#
#
# Indices 1 2 3 4 5 6 
#
# 1 35.9257 16.6822 20.6816 0.0000 0.0000 0.0000
# 2 16.6822 103.8769 17.5325 0.0000 0.0000 0.0000
# 3 20.6816 17.5325 94.5755 0.0000 0.0000 0.0000
# 4 0.0000 0.0000 0.0000 23.6385 0.0000 0.0000
# 5 0.0000 0.0000 0.0000 0.0000 16.1208 0.0000
# 6 0.0000 0.0000 0.0000 0.0000 0.0000 20.3677
#
#
#
# Elastic Compliance Matrix: (Units=1/GPa)
#
#
# Indices 1 2 3 4 5 6 
#
# 1 0.033599 -0.004290 -0.006552 0.000000 0.000000 0.000000
# 2 -0.004290 0.010485 -0.001006 0.000000 0.000000 0.000000
# 3 -0.006552 -0.001006 0.012193 0.000000 0.000000 0.000000
# 4 0.000000 0.000000 0.000000 0.042304 0.000000 0.000000
# 5 0.000000 0.000000 0.000000 0.000000 0.062032 0.000000
# 6 0.000000 0.000000 0.000000 0.000000 0.000000 0.049097
#
#
# Mechanical properties :
#
#
# Convention : Reuss Voigt Hill
#
# Bulk Modulus (GPa) = 30.69190 38.24117 34.46654
# Shear Modulus (GPa) = 20.46944 23.99087 22.23015
#
# Velocity S-wave (km/s) = 3.10827 3.36503 3.23920
# Velocity P-wave (km/s) = 5.23145 5.75738 5.50070
#
# Compressibility (1/GPa) = 0.03258189
#
# Stress axis : x y z
#
# Youngs Moduli (GPa) = 29.76258 95.37006 82.01564
#
# Poissons Ratio (x) = 0.40914 0.53738
# Poissons Ratio (y) = 0.12768 0.08248
# Poissons Ratio (z) = 0.19501 0.09591
#
# Static dielectric constant tensor:
#      x y z
#    x 3.695630 0.000000 0.000000 
#    y 0.000000 4.132110 0.000000 
#    z 0.000000 0.000000 4.115290 
# 
# 
# High freq. dielectric constant tensor:
#      x y z
#    x 1.818730 0.000000 0.000000 
#    y 0.000000 1.850180 0.000000 
#    z 0.000000 0.000000 1.842860 
# 
# From -- ./inp_files/8474.got.cif
#   From: 2010.03.12/outbox.cif.g09.slc.cpg/sg40_5_cif.got.tgz:8474.got - 2010.04.14 01:38:03.
