data_PCOD8183663
_publ_section_title
;
Structure prediction by ZEFSAII (Michael W. Deem and Ramdas Pophale) SiO2 
 PCOD8183663
Probable space group: A M A 2
;
_chemical_formula_sum "Si O2"
_cell_formula_units_Z 56
_cell_length_a 8.676128
_cell_length_b 14.451254
_cell_length_c 22.225261
_cell_angle_alpha 90.000000
_cell_angle_beta 90.000000
_cell_angle_gamma 90.000000
_cell_volume 2786.623882
_symmetry_space_group_name_H-M "A M A 2"
_symmetry_group_IT_number 40
_symmetry_cell_setting 'orthorhombic'
loop_
_space_group_symop_operation_xyz
x,y,z
-x,-y,z
1/2-x,y,z
1/2+x,-y,z
x,1/2+y,1/2+z
-x,1/2-y,1/2+z
1/2-x,1/2+y,1/2+z
1/2+x,1/2-y,1/2+z
loop_
_atom_site_type_symbol
_atom_site_label
_atom_site_fract_x
_atom_site_fract_y
_atom_site_fract_z
Si Si1 0.932924 0.597386 0.379470
Si Si2 0.931604 0.601627 0.734526
Si Si3 0.569444 0.094870 0.016446
Si Si4 0.567173 0.403657 0.952479
Si Si5 0.067958 0.904283 0.583456
Si Si6 0.567623 0.716662 0.850384
Si Si7 0.567863 0.223966 0.123012
O O1 0.750000 0.598348 0.371849
O O2 0.986181 0.614114 0.448536
O O3 0.000000 0.500000 0.356064
O O4 0.009765 0.678487 0.339991
O O5 0.750000 0.591921 0.732647
O O6 0.986152 0.655778 0.793844
O O7 0.990565 0.658867 0.676926
O O8 0.000000 0.500000 0.734080
O O9 0.750000 0.082405 0.018537
O O10 0.517619 0.177918 0.059790
O O11 0.500000 0.000000 0.041817
O O12 0.500000 0.500000 0.926909
O O13 0.750000 0.409283 0.955536
O O14 0.516597 0.321054 0.909482
O O15 0.503160 0.383203 0.018369
O O16 0.250000 0.912641 0.578151
O O17 0.018961 0.821989 0.628238
O O18 0.000000 0.000000 0.609471
O O19 0.750000 0.714062 0.859205
O O20 0.750000 0.241020 0.126773
#
# Coordination Sequence:
#
# PCOD8183663 Si02
#       7
#     8   8   8   8   8   8   8
#     4  10  20  35  55  82 112 146 184 229 282 339
#     4  10  23  40  60  84 114 149 188 233 280 329
#     4   9  18  31  52  80 111 142 176 218 270 327
#     4  11  21  35  56  84 116 151 187 231 285 342
#     4  11  22  37  58  85 114 147 184 230 282 337
#     4  11  22  37  56  82 113 150 194 239 284 335
#     4  10  20  37  57  81 113 149 186 228 275 329
#
# _framework density 20.096003
#
# number of rings (size 3 to 8) (size 9 to 14) (size 15 to 20)
#    0.000    1.714    0.000    6.000    0.000    5.143 
#    0.000    0.714    0.000    0.000    0.000    0.000 
#    0.000    0.000    0.000    0.000    0.000    0.000 
#
# Total GULP energy -347306.371771 kJ/mol
# GULP energy per Si atom -12403.798992 kJ/mol
# Density = 2.005026 g / cm^3
# Si number density = 20.096003 Si / 1000 Ang^3
#
#
#
# Elastic Constant Matrix: (Units=GPa)
#
#
# Indices 1 2 3 4 5 6 
#
# 1 99.3406 56.0898 32.6633 0.0000 0.0000 0.0000
# 2 56.0898 185.1946 62.3495 0.0000 0.0000 0.0000
# 3 32.6633 62.3495 64.5999 0.0000 0.0000 0.0000
# 4 0.0000 0.0000 0.0000 33.7888 0.0000 0.0000
# 5 0.0000 0.0000 0.0000 0.0000 18.2316 0.0000
# 6 0.0000 0.0000 0.0000 0.0000 0.0000 41.6240
#
#
#
# Elastic Compliance Matrix: (Units=1/GPa)
#
#
# Indices 1 2 3 4 5 6 
#
# 1 0.012821 -0.002519 -0.004051 0.000000 0.000000 0.000000
# 2 -0.002519 0.008494 -0.006924 0.000000 0.000000 0.000000
# 3 -0.004051 -0.006924 0.024211 0.000000 0.000000 0.000000
# 4 0.000000 0.000000 0.000000 0.029596 0.000000 0.000000
# 5 0.000000 0.000000 0.000000 0.000000 0.054850 0.000000
# 6 0.000000 0.000000 0.000000 0.000000 0.000000 0.024025
#
#
# Mechanical properties :
#
#
# Convention : Reuss Voigt Hill
#
# Bulk Modulus (GPa) = 53.94638 72.37113 63.15876
# Shear Modulus (GPa) = 26.71457 31.93105 29.32281
#
# Velocity S-wave (km/s) = 3.64998 3.99046 3.82401
# Velocity P-wave (km/s) = 6.68324 7.57117 7.14102
#
# Compressibility (1/GPa) = 0.01853692
#
# Stress axis : x y z
#
# Youngs Moduli (GPa) = 77.99861 117.73179 41.30305
#
# Poissons Ratio (x) = 0.29658 0.16732
# Poissons Ratio (y) = 0.19649 0.28599
# Poissons Ratio (z) = 0.31598 0.81521
#
# Static dielectric constant tensor:
#      x y z
#    x 3.613430 0.000000 0.000000 
#    y 0.000000 3.841470 0.000000 
#    z 0.000000 0.000000 3.621910 
# 
# 
# High freq. dielectric constant tensor:
#      x y z
#    x 1.785230 0.000000 0.000000 
#    y 0.000000 1.803330 0.000000 
#    z 0.000000 0.000000 1.761240 
# 
# From -- ./inp_files/22172.got.cif
#   From: 2010.03.12/outbox.cif.g09.slc.cpg/sg40_12_cif.got.tgz:22172.got - 2010.04.14 01:38:03.
