data_PCOD8183798
_publ_section_title
;
Structure prediction by ZEFSAII (Michael W. Deem and Ramdas Pophale) SiO2 
 PCOD8183798
Probable space group: A M A 2
;
_chemical_formula_sum "Si O2"
_cell_formula_units_Z 48
_cell_length_a 8.526208
_cell_length_b 9.472939
_cell_length_c 30.656252
_cell_angle_alpha 90.000000
_cell_angle_beta 90.000000
_cell_angle_gamma 90.000000
_cell_volume 2476.051773
_symmetry_space_group_name_H-M "A M A 2"
_symmetry_group_IT_number 40
_symmetry_cell_setting 'orthorhombic'
loop_
_space_group_symop_operation_xyz
x,y,z
-x,-y,z
1/2-x,y,z
1/2+x,-y,z
x,1/2+y,1/2+z
-x,1/2-y,1/2+z
1/2-x,1/2+y,1/2+z
1/2+x,1/2-y,1/2+z
loop_
_atom_site_type_symbol
_atom_site_label
_atom_site_fract_x
_atom_site_fract_y
_atom_site_fract_z
Si Si1 0.565354 0.848479 0.909420
Si Si2 0.065907 0.842475 0.577343
Si Si3 0.565794 0.649525 0.503410
Si Si4 0.933949 0.344448 0.835195
Si Si5 0.932381 0.343120 0.260452
Si Si6 0.069135 0.153355 0.664056
O O1 0.750000 0.859803 0.910069
O O2 0.512833 0.727299 0.876807
O O3 0.500000 0.000000 0.894159
O O4 0.506670 0.806108 0.957277
O O5 0.250000 0.838276 0.568641
O O6 0.977073 0.765527 0.538691
O O7 0.024298 0.769712 0.624366
O O8 0.000000 0.000000 0.579060
O O9 0.500000 0.500000 0.519606
O O10 0.750000 0.637611 0.497698
O O11 0.750000 0.350371 0.842932
O O12 0.000000 0.500000 0.829576
O O13 0.971196 0.257956 0.791787
O O14 0.750000 0.347187 0.274095
O O15 0.951280 0.275702 0.211692
O O16 0.000000 0.500000 0.264199
O O17 0.250000 0.144356 0.650133
O O18 0.000000 0.000000 0.670557
#
# Coordination Sequence:
#
# PCOD8183798 Si02
#       6
#     8   8   8   8   8   8
#     4  11  22  40  63  87 113 146 188 230 275 329
#     4  11  21  35  56  84 116 151 190 233 281 331
#     4  11  22  39  60  85 115 148 187 231 280 332
#     4  12  25  41  59  83 115 149 185 230 284 337
#     4  10  20  36  59  86 114 148 190 233 277 329
#     4   9  17  31  53  81 112 146 187 233 278 326
#
# _framework density 19.3857
#
# number of rings (size 3 to 8) (size 9 to 14) (size 15 to 20)
#    0.000    1.333    0.000    9.500    0.000    2.667 
#    0.000    4.167    0.000    4.000    0.000    0.000 
#    0.000    0.000    0.000    0.000    0.000    0.000 
#
# Total GULP energy -297591.974930 kJ/mol
# GULP energy per Si atom -12399.665622 kJ/mol
# Density = 1.934158 g / cm^3
# Si number density = 19.385700 Si / 1000 Ang^3
#
#
#
# Elastic Constant Matrix: (Units=GPa)
#
#
# Indices 1 2 3 4 5 6 
#
# 1 159.6024 31.3689 42.0926 0.0000 0.0000 0.0000
# 2 31.3689 81.7791 55.8619 0.0000 0.0000 0.0000
# 3 42.0926 55.8619 120.4554 0.0000 0.0000 0.0000
# 4 0.0000 0.0000 0.0000 82.5783 0.0000 0.0000
# 5 0.0000 0.0000 0.0000 0.0000 40.2610 0.0000
# 6 0.0000 0.0000 0.0000 0.0000 0.0000 30.7378
#
#
#
# Elastic Compliance Matrix: (Units=1/GPa)
#
#
# Indices 1 2 3 4 5 6 
#
# 1 0.007023 -0.001489 -0.001764 0.000000 0.000000 0.000000
# 2 -0.001489 0.018214 -0.007926 0.000000 0.000000 0.000000
# 3 -0.001764 -0.007926 0.012594 0.000000 0.000000 0.000000
# 4 0.000000 0.000000 0.000000 0.012110 0.000000 0.000000
# 5 0.000000 0.000000 0.000000 0.000000 0.024838 0.000000
# 6 0.000000 0.000000 0.000000 0.000000 0.000000 0.032533
#
#
# Mechanical properties :
#
#
# Convention : Reuss Voigt Hill
#
# Bulk Modulus (GPa) = 64.63037 68.94265 66.78651
# Shear Modulus (GPa) = 37.08437 46.21633 41.65035
#
# Velocity S-wave (km/s) = 4.37850 4.88796 4.64023
# Velocity P-wave (km/s) = 7.67941 8.21566 7.95206
#
# Compressibility (1/GPa) = 0.01547260
#
# Stress axis : x y z
#
# Youngs Moduli (GPa) = 142.38082 54.90402 79.40332
#
# Poissons Ratio (x) = 0.08177 0.14004
# Poissons Ratio (y) = 0.21206 0.62937
# Poissons Ratio (z) = 0.25110 0.43518
#
# Static dielectric constant tensor:
#      x y z
#    x 3.783920 0.000000 0.000000 
#    y 0.000000 3.208560 0.000000 
#    z 0.000000 0.000000 4.051690 
# 
# 
# High freq. dielectric constant tensor:
#      x y z
#    x 1.780070 0.000000 0.000000 
#    y 0.000000 1.723740 0.000000 
#    z 0.000000 0.000000 1.777730 
# 
# From -- ./inp_files/26124.got.cif
#   From: 2010.03.12/outbox.cif.g09.slc.cpg/sg40_14_cif.got.tgz:26124.got - 2010.04.14 01:38:03.
