data_PCOD8183864
_publ_section_title
;
Structure prediction by ZEFSAII (Michael W. Deem and Ramdas Pophale) SiO2 
 PCOD8183864
Probable space group: A M A 2
;
_chemical_formula_sum "Si O2"
_cell_formula_units_Z 48
_cell_length_a 8.654174
_cell_length_b 30.298934
_cell_length_c 9.064765
_cell_angle_alpha 90.000000
_cell_angle_beta 90.000000
_cell_angle_gamma 90.000000
_cell_volume 2376.892398
_symmetry_space_group_name_H-M "A M A 2"
_symmetry_group_IT_number 40
_symmetry_cell_setting 'orthorhombic'
loop_
_space_group_symop_operation_xyz
x,y,z
-x,-y,z
1/2-x,y,z
1/2+x,-y,z
x,1/2+y,1/2+z
-x,1/2-y,1/2+z
1/2-x,1/2+y,1/2+z
1/2+x,1/2-y,1/2+z
loop_
_atom_site_type_symbol
_atom_site_label
_atom_site_fract_x
_atom_site_fract_y
_atom_site_fract_z
Si Si1 0.428762 0.212492 0.660640
Si Si2 0.571172 0.793917 0.319044
Si Si3 0.070087 0.953978 0.641037
Si Si4 0.428801 0.368069 0.318680
Si Si5 0.570760 0.624971 0.657372
Si Si6 0.931235 0.953372 0.328248
O O1 0.250000 0.224698 0.685544
O O2 0.471240 0.211842 0.489308
O O3 0.536394 0.248366 0.737575
O O4 0.463074 0.164867 0.728734
O O5 0.750000 0.806440 0.297332
O O6 0.466201 0.832535 0.254789
O O7 0.250000 0.960812 0.613093
O O8 0.035679 0.917490 0.764308
O O9 0.996177 0.938741 0.486903
O O10 0.000000 0.000000 0.698157
O O11 0.250000 0.355633 0.291739
O O12 0.473270 0.364433 0.489464
O O13 0.750000 0.613089 0.673789
O O14 0.472314 0.583171 0.708036
O O15 0.750000 0.958334 0.341433
O O16 0.000000 0.000000 0.276515
#
# Coordination Sequence:
#
# PCOD8183864 Si02
#       6
#     8   8   8   8   8   8
#     4  11  24  40  61  88 117 151 192 239 288 341
#     4  11  24  41  61  88 119 152 193 238 287 344
#     4  10  20  37  60  86 116 152 193 240 292 344
#     4  10  23  40  59  85 118 154 193 238 288 345
#     4  11  23  40  60  86 119 154 194 239 288 342
#     4  11  22  38  60  87 117 153 196 240 289 344
#
# _framework density 20.194436
#
# number of rings (size 3 to 8) (size 9 to 14) (size 15 to 20)
#    0.000    1.333    0.000    6.500    0.000   12.667 
#    0.000    1.667    0.000    0.000    0.000    0.000 
#    0.000    0.000    0.000    0.000    0.000    0.000 
#
# Total GULP energy -297781.389154 kJ/mol
# GULP energy per Si atom -12407.557881 kJ/mol
# Density = 2.014847 g / cm^3
# Si number density = 20.194436 Si / 1000 Ang^3
#
#
#
# Elastic Constant Matrix: (Units=GPa)
#
#
# Indices 1 2 3 4 5 6 
#
# 1 92.3362 37.0571 46.4495 0.0000 0.0000 0.0000
# 2 37.0571 109.5415 56.3964 0.0000 0.0000 0.0000
# 3 46.4495 56.3964 125.2016 0.0000 0.0000 0.0000
# 4 0.0000 0.0000 0.0000 37.5120 0.0000 0.0000
# 5 0.0000 0.0000 0.0000 0.0000 18.6764 0.0000
# 6 0.0000 0.0000 0.0000 0.0000 0.0000 37.8603
#
#
#
# Elastic Compliance Matrix: (Units=1/GPa)
#
#
# Indices 1 2 3 4 5 6 
#
# 1 0.013887 -0.002663 -0.003953 0.000000 0.000000 0.000000
# 2 -0.002663 0.012396 -0.004596 0.000000 0.000000 0.000000
# 3 -0.003953 -0.004596 0.011524 0.000000 0.000000 0.000000
# 4 0.000000 0.000000 0.000000 0.026658 0.000000 0.000000
# 5 0.000000 0.000000 0.000000 0.000000 0.053543 0.000000
# 6 0.000000 0.000000 0.000000 0.000000 0.000000 0.026413
#
#
# Mechanical properties :
#
#
# Convention : Reuss Voigt Hill
#
# Bulk Modulus (GPa) = 65.00215 67.43172 66.21694
# Shear Modulus (GPa) = 29.07460 31.28817 30.18138
#
# Velocity S-wave (km/s) = 3.79850 3.94044 3.87012
# Velocity P-wave (km/s) = 7.17608 7.35979 7.26852
#
# Compressibility (1/GPa) = 0.01538411
#
# Stress axis : x y z
#
# Youngs Moduli (GPa) = 72.00971 80.67197 86.77832
#
# Poissons Ratio (x) = 0.21483 0.34299
# Poissons Ratio (y) = 0.19176 0.39881
# Poissons Ratio (z) = 0.28462 0.37074
#
# Static dielectric constant tensor:
#      x y z
#    x 3.704230 0.000000 0.000000 
#    y 0.000000 3.731570 0.000000 
#    z 0.000000 0.000000 3.712400 
# 
# 
# High freq. dielectric constant tensor:
#      x y z
#    x 1.798790 0.000000 0.000000 
#    y 0.000000 1.800970 0.000000 
#    z 0.000000 0.000000 1.793230 
# 
# From -- ./inp_files/4594.got.cif
#   From: 2010.03.12/outbox.cif.g09.slc.cpg/sg40_3_cif.got.tgz:4594.got - 2010.04.14 01:38:03.
