data_PCOD8183225
_publ_section_title
;
Structure prediction by ZEFSAII (Michael W. Deem and Ramdas Pophale) SiO2 
 PCOD8183225
Probable space group: A M A 2
;
_chemical_formula_sum "Si O2"
_cell_formula_units_Z 64
_cell_length_a 9.285800
_cell_length_b 28.169321
_cell_length_c 12.657439
_cell_angle_alpha 90.000000
_cell_angle_beta 90.000000
_cell_angle_gamma 90.000000
_cell_volume 3310.865568
_symmetry_space_group_name_H-M "A M A 2"
_symmetry_group_IT_number 40
_symmetry_cell_setting 'orthorhombic'
loop_
_space_group_symop_operation_xyz
x,y,z
-x,-y,z
1/2-x,y,z
1/2+x,-y,z
x,1/2+y,1/2+z
-x,1/2-y,1/2+z
1/2-x,1/2+y,1/2+z
1/2+x,1/2-y,1/2+z
loop_
_atom_site_type_symbol
_atom_site_label
_atom_site_fract_x
_atom_site_fract_y
_atom_site_fract_z
Si Si1 0.418093 0.456198 0.119370
Si Si2 0.418188 0.196937 0.526295
Si Si3 0.090927 0.680542 0.257530
Si Si4 0.911923 0.927268 0.822459
Si Si5 0.084085 0.298968 0.450161
Si Si6 0.418492 0.902586 0.019908
Si Si7 0.419411 0.450072 0.741536
Si Si8 0.583799 0.615245 0.934632
O O1 0.500000 0.500000 0.062552
O O2 0.250000 0.467603 0.133267
O O3 0.490882 0.451636 0.233898
O O4 0.442096 0.410614 0.046412
O O5 0.250000 0.185922 0.513517
O O6 0.477673 0.182556 0.641337
O O7 0.452942 0.252709 0.518184
O O8 0.498839 0.165094 0.438396
O O9 0.250000 0.703700 0.254686
O O10 0.099472 0.627360 0.296184
O O11 0.994697 0.709385 0.339174
O O12 0.750000 0.949335 0.826709
O O13 0.990754 0.933364 0.935363
O O14 0.250000 0.302248 0.421148
O O15 0.037593 0.346710 0.512875
O O16 0.250000 0.909374 0.994998
O O17 0.458697 0.921600 0.135306
O O18 0.500000 0.500000 0.744154
O O19 0.250000 0.460318 0.750434
O O20 0.472981 0.417650 0.839132
O O21 0.750000 0.627212 0.915573
#
# Coordination Sequence:
#
# PCOD8183225 Si02
#       8
#     8   8   8   8   8   8   8   8
#     4  11  22  35  54  81 111 143 181 227 281 338
#     4  10  20  35  56  83 113 149 192 237 293 344
#     4   9  18  33  53  76 107 144 181 227 281 334
#     4  10  19  34  56  81 108 142 183 229 282 338
#     4   9  19  34  54  81 111 148 191 236 285 342
#     4   9  19  37  58  80 113 153 193 236 286 344
#     4  10  22  40  61  85 114 154 198 241 295 349
#     4  10  22  38  57  83 113 149 192 235 285 347
#
# _framework density 19.330292
#
# number of rings (size 3 to 8) (size 9 to 14) (size 15 to 20)
#    0.000    2.250    1.250    1.125    0.000    4.500 
#    0.000    3.750    0.000    3.000    0.000    0.000 
#    0.000    0.000    0.000    0.000    0.000    0.000 
#
# Total GULP energy -396748.059371 kJ/mol
# GULP energy per Si atom -12398.376855 kJ/mol
# Density = 1.928630 g / cm^3
# Si number density = 19.330292 Si / 1000 Ang^3
#
#
#
# Elastic Constant Matrix: (Units=GPa)
#
#
# Indices 1 2 3 4 5 6 
#
# 1 73.3803 37.0852 45.1049 0.0000 0.0000 0.0000
# 2 37.0852 74.6037 44.4838 0.0000 0.0000 0.0000
# 3 45.1049 44.4838 123.0507 0.0000 0.0000 0.0000
# 4 0.0000 0.0000 0.0000 22.0160 0.0000 0.0000
# 5 0.0000 0.0000 0.0000 0.0000 26.8077 0.0000
# 6 0.0000 0.0000 0.0000 0.0000 0.0000 30.5101
#
#
#
# Elastic Compliance Matrix: (Units=1/GPa)
#
#
# Indices 1 2 3 4 5 6 
#
# 1 0.020215 -0.007178 -0.004815 0.000000 0.000000 0.000000
# 2 -0.007178 0.019636 -0.004468 0.000000 0.000000 0.000000
# 3 -0.004815 -0.004468 0.011507 0.000000 0.000000 0.000000
# 4 0.000000 0.000000 0.000000 0.045422 0.000000 0.000000
# 5 0.000000 0.000000 0.000000 0.000000 0.037303 0.000000
# 6 0.000000 0.000000 0.000000 0.000000 0.000000 0.032776
#
#
# Mechanical properties :
#
#
# Convention : Reuss Voigt Hill
#
# Bulk Modulus (GPa) = 54.23866 58.26474 56.25170
# Shear Modulus (GPa) = 24.28081 25.49083 24.88582
#
# Velocity S-wave (km/s) = 3.54800 3.63533 3.59193
# Velocity P-wave (km/s) = 6.70106 6.91577 6.80926
#
# Compressibility (1/GPa) = 0.01843703
#
# Stress axis : x y z
#
# Youngs Moduli (GPa) = 49.46874 50.92691 86.90530
#
# Poissons Ratio (x) = 0.36553 0.41846
# Poissons Ratio (y) = 0.35507 0.38825
# Poissons Ratio (z) = 0.23820 0.22752
#
# Static dielectric constant tensor:
#      x y z
#    x 3.663180 0.000000 0.000000 
#    y 0.000000 3.536830 0.000000 
#    z 0.000000 0.000000 3.586760 
# 
# 
# High freq. dielectric constant tensor:
#      x y z
#    x 1.748180 0.000000 0.000000 
#    y 0.000000 1.750510 0.000000 
#    z 0.000000 0.000000 1.751060 
# 
# From -- ./inp_files/10574.got.cif
#   From: 2010.03.12/outbox.cif.g09.slc.cpg/sg40_6_cif.got.tgz:10574.got - 2010.04.14 01:38:03.
