data_PCOD8183412
_publ_section_title
;
Structure prediction by ZEFSAII (Michael W. Deem and Ramdas Pophale) SiO2 
 PCOD8183412
Probable space group: A M A 2
;
_chemical_formula_sum "Si O2"
_cell_formula_units_Z 56
_cell_length_a 21.032541
_cell_length_b 8.762342
_cell_length_c 14.910343
_cell_angle_alpha 90.000000
_cell_angle_beta 90.000000
_cell_angle_gamma 90.000000
_cell_volume 2747.891485
_symmetry_space_group_name_H-M "A M A 2"
_symmetry_group_IT_number 40
_symmetry_cell_setting 'orthorhombic'
loop_
_space_group_symop_operation_xyz
x,y,z
-x,-y,z
1/2-x,y,z
1/2+x,-y,z
x,1/2+y,1/2+z
-x,1/2-y,1/2+z
1/2-x,1/2+y,1/2+z
1/2+x,1/2-y,1/2+z
loop_
_atom_site_type_symbol
_atom_site_label
_atom_site_fract_x
_atom_site_fract_y
_atom_site_fract_z
Si Si1 0.325475 0.387486 0.559120
Si Si2 0.179881 0.399136 0.874698
Si Si3 0.571219 0.521109 0.113996
Si Si4 0.118314 0.707965 0.515861
Si Si5 0.897176 0.337948 0.938175
Si Si6 0.983486 0.829845 0.861927
Si Si7 0.617489 0.267956 0.225437
O O1 0.250000 0.364798 0.577840
O O2 0.341134 0.563227 0.544530
O O3 0.345807 0.285567 0.473688
O O4 0.370873 0.344237 0.642393
O O5 0.250000 0.464906 0.869827
O O6 0.168857 0.320716 0.970355
O O7 0.134739 0.547059 0.866396
O O8 0.171644 0.269891 0.797980
O O9 0.500000 0.500000 0.151228
O O10 0.618968 0.441564 0.186465
O O11 0.589646 0.699300 0.101503
O O12 0.573426 0.434466 0.019139
O O13 0.061448 0.662814 0.449199
O O14 0.952531 0.257896 0.883561
O O15 0.949183 0.742980 0.778817
O O16 0.000000 0.000000 0.831913
#
# Coordination Sequence:
#
# PCOD8183412 Si02
#       7
#     8   8   8   8   8   8   8
#     4  11  22  42  62  90 121 161 215 257 305 371
#     4  10  21  41  60  85 120 164 211 251 305 374
#     4  10  19  38  59  90 125 156 199 251 313 382
#     4  10  21  36  67  91 118 161 205 264 310 364
#     4  10  21  37  66  91 116 163 205 258 309 367
#     4  11  20  40  61  94 130 154 203 257 324 383
#     4  10  24  38  60  86 126 169 192 256 317 367
#
# _framework density 20.379262000000001
#
# number of rings (size 3 to 8) (size 9 to 14) (size 15 to 20)
#    0.000    1.714    2.857    1.714    0.000    0.000 
#    7.714    2.143    0.000    0.000    0.000    0.000 
#    0.000    0.000    0.000    0.000    0.000    0.000 
#
# Total GULP energy -347013.164484 kJ/mol
# GULP energy per Si atom -12393.327303 kJ/mol
# Density = 2.033288 g / cm^3
# Si number density = 20.379262 Si / 1000 Ang^3
#
#
#
# Elastic Constant Matrix: (Units=GPa)
#
#
# Indices 1 2 3 4 5 6 
#
# 1 132.3550 55.2965 45.7342 0.0000 0.0000 0.0000
# 2 55.2965 115.0817 36.8098 0.0000 0.0000 0.0000
# 3 45.7342 36.8098 81.4792 0.0000 0.0000 0.0000
# 4 0.0000 0.0000 0.0000 26.6018 0.0000 0.0000
# 5 0.0000 0.0000 0.0000 0.0000 16.7080 0.0000
# 6 0.0000 0.0000 0.0000 0.0000 0.0000 33.0823
#
#
#
# Elastic Compliance Matrix: (Units=1/GPa)
#
#
# Indices 1 2 3 4 5 6 
#
# 1 0.010582 -0.003723 -0.004258 0.000000 0.000000 0.000000
# 2 -0.003723 0.011467 -0.003091 0.000000 0.000000 0.000000
# 3 -0.004258 -0.003091 0.016059 0.000000 0.000000 0.000000
# 4 0.000000 0.000000 0.000000 0.037591 0.000000 0.000000
# 5 0.000000 0.000000 0.000000 0.000000 0.059851 0.000000
# 6 0.000000 0.000000 0.000000 0.000000 0.000000 0.030228
#
#
# Mechanical properties :
#
#
# Convention : Reuss Voigt Hill
#
# Bulk Modulus (GPa) = 62.63538 67.17743 64.90641
# Shear Modulus (GPa) = 25.87413 28.01681 26.94547
#
# Velocity S-wave (km/s) = 3.56705 3.71181 3.64015
# Velocity P-wave (km/s) = 6.91135 7.16975 7.04173
#
# Compressibility (1/GPa) = 0.01596542
#
# Stress axis : x y z
#
# Youngs Moduli (GPa) = 94.49991 87.20788 62.26912
#
# Poissons Ratio (x) = 0.32465 0.26513
# Poissons Ratio (y) = 0.35180 0.19246
# Poissons Ratio (z) = 0.40237 0.26954
#
# Static dielectric constant tensor:
#      x y z
#    x 3.699930 0.000000 0.000000 
#    y 0.000000 3.840810 0.000000 
#    z 0.000000 0.000000 3.706890 
# 
# 
# High freq. dielectric constant tensor:
#      x y z
#    x 1.790730 0.000000 0.000000 
#    y 0.000000 1.797130 0.000000 
#    z 0.000000 0.000000 1.787770 
# 
# From -- ./inp_files/18193.got.cif
#   From: 2010.03.12/outbox.cif.g09.slc.cpg/sg40_10_cif.got.tgz:18193.got - 2010.04.14 01:38:03.
