data_PCOD8183060
_publ_section_title
;
Structure prediction by ZEFSAII (Michael W. Deem and Ramdas Pophale) SiO2 
 PCOD8183060
Probable space group: A M A 2
;
_chemical_formula_sum "Si O2"
_cell_formula_units_Z 64
_cell_length_a 21.513625
_cell_length_b 27.724228
_cell_length_c 5.459546
_cell_angle_alpha 90.000000
_cell_angle_beta 90.000000
_cell_angle_gamma 90.000000
_cell_volume 3256.338812
_symmetry_space_group_name_H-M "A M A 2"
_symmetry_group_IT_number 40
_symmetry_cell_setting 'orthorhombic'
loop_
_space_group_symop_operation_xyz
x,y,z
-x,-y,z
1/2-x,y,z
1/2+x,-y,z
x,1/2+y,1/2+z
-x,1/2-y,1/2+z
1/2-x,1/2+y,1/2+z
1/2+x,1/2-y,1/2+z
loop_
_atom_site_type_symbol
_atom_site_label
_atom_site_fract_x
_atom_site_fract_y
_atom_site_fract_z
Si Si1 0.820836 0.777612 0.649530
Si Si2 0.480610 0.631400 0.833524
Si Si3 0.936254 0.470035 0.918681
Si Si4 0.593220 0.612094 0.530029
Si Si5 0.819698 0.671805 0.799140
Si Si6 0.426083 0.492296 0.410655
Si Si7 0.892134 0.294345 0.654400
Si Si8 0.931688 0.689401 0.150856
O O1 0.750000 0.795715 0.662285
O O2 0.823841 0.719549 0.630723
O O3 0.850428 0.798964 0.400959
O O4 0.853459 0.794633 0.901989
O O5 0.442629 0.587534 0.951954
O O6 0.540106 0.602978 0.729831
O O7 0.436899 0.659177 0.639549
O O8 0.505283 0.672371 0.018201
O O9 0.900233 0.484065 0.664585
O O10 0.000000 0.500000 0.921929
O O11 0.897619 0.483757 0.164646
O O12 0.660688 0.624619 0.642995
O O13 0.595626 0.563245 0.375914
O O14 0.568993 0.660678 0.402498
O O15 0.750000 0.664576 0.901116
O O16 0.866746 0.675949 0.022977
O O17 0.500000 0.500000 0.410920
O O18 0.935140 0.246801 0.681447
#
# Coordination Sequence:
#
# PCOD8183060 Si02
#       8
#     8   8   8   8   8   8   8   8
#     4  10  21  42  61  81 114 155 205 254 285 333
#     4  11  24  34  56  83 129 153 194 235 295 364
#     4  10  19  36  51  78 108 151 188 234 270 340
#     4  11  20  35  55  83 115 160 184 243 296 355
#     4   9  20  36  55  81 113 154 203 246 286 345
#     4  10  19  32  55  76 111 141 193 224 283 338
#     4  11  24  37  57  90 117 160 197 230 296 357
#     4  10  22  34  52  80 122 162 187 230 294 352
#
# _framework density 19.653974000000002
#
# number of rings (size 3 to 8) (size 9 to 14) (size 15 to 20)
#    0.000    1.750    3.750    1.875    5.250    1.000 
#    0.000    0.000    0.000    0.000    0.000    5.250 
#    0.000    0.000    0.000    0.000    0.000    0.000 
#
# Total GULP energy -396492.265679 kJ/mol
# GULP energy per Si atom -12390.383302 kJ/mol
# Density = 1.960924 g / cm^3
# Si number density = 19.653974 Si / 1000 Ang^3
#
#
#
# Elastic Constant Matrix: (Units=GPa)
#
#
# Indices 1 2 3 4 5 6 
#
# 1 53.0082 36.1706 16.2456 0.0000 0.0000 0.0000
# 2 36.1706 112.0739 27.9808 0.0000 0.0000 0.0000
# 3 16.2456 27.9808 123.4113 0.0000 0.0000 0.0000
# 4 0.0000 0.0000 0.0000 21.7955 0.0000 0.0000
# 5 0.0000 0.0000 0.0000 0.0000 17.2374 0.0000
# 6 0.0000 0.0000 0.0000 0.0000 0.0000 14.1528
#
#
#
# Elastic Compliance Matrix: (Units=1/GPa)
#
#
# Indices 1 2 3 4 5 6 
#
# 1 0.024457 -0.007515 -0.001516 0.000000 0.000000 0.000000
# 2 -0.007515 0.011767 -0.001679 0.000000 0.000000 0.000000
# 3 -0.001516 -0.001679 0.008683 0.000000 0.000000 0.000000
# 4 0.000000 0.000000 0.000000 0.045881 0.000000 0.000000
# 5 0.000000 0.000000 0.000000 0.000000 0.058013 0.000000
# 6 0.000000 0.000000 0.000000 0.000000 0.000000 0.070657
#
#
# Mechanical properties :
#
#
# Convention : Reuss Voigt Hill
#
# Bulk Modulus (GPa) = 42.57304 49.92083 46.24693
# Shear Modulus (GPa) = 20.10394 24.51024 22.30709
#
# Velocity S-wave (km/s) = 3.20174 3.53524 3.37262
# Velocity P-wave (km/s) = 5.94782 6.48991 6.22477
#
# Compressibility (1/GPa) = 0.02348905
#
# Stress axis : x y z
#
# Youngs Moduli (GPa) = 40.88745 84.98228 115.16600
#
# Poissons Ratio (x) = 0.63864 0.17455
# Poissons Ratio (y) = 0.30727 0.19333
# Poissons Ratio (z) = 0.06197 0.14266
#
# Static dielectric constant tensor:
#      x y z
#    x 3.298900 0.000000 0.000000 
#    y 0.000000 3.511730 0.000000 
#    z 0.000000 0.000000 4.200620 
# 
# 
# High freq. dielectric constant tensor:
#      x y z
#    x 1.715670 0.000000 0.000000 
#    y 0.000000 1.759150 0.000000 
#    z 0.000000 0.000000 1.777910 
# 
# From -- ./inp_files/2466.got.cif
#   From: 2010.03.12/outbox.cif.g09.slc.cpg/sg40_2_cif.got.tgz:2466.got - 2010.04.14 01:38:03.
