data_PCOD8183159
_publ_section_title
;
Structure prediction by ZEFSAII (Michael W. Deem and Ramdas Pophale) SiO2 
 PCOD8183159
Probable space group: A M A 2
;
_chemical_formula_sum "Si O2"
_cell_formula_units_Z 56
_cell_length_a 8.633282
_cell_length_b 14.440075
_cell_length_c 22.165936
_cell_angle_alpha 90.000000
_cell_angle_beta 90.000000
_cell_angle_gamma 90.000000
_cell_volume 2763.321722
_symmetry_space_group_name_H-M "A M A 2"
_symmetry_group_IT_number 40
_symmetry_cell_setting 'orthorhombic'
loop_
_space_group_symop_operation_xyz
x,y,z
-x,-y,z
1/2-x,y,z
1/2+x,-y,z
x,1/2+y,1/2+z
-x,1/2-y,1/2+z
1/2-x,1/2+y,1/2+z
1/2+x,1/2-y,1/2+z
loop_
_atom_site_type_symbol
_atom_site_label
_atom_site_fract_x
_atom_site_fract_y
_atom_site_fract_z
Si Si1 0.566330 0.897941 0.894540
Si Si2 0.566222 0.902600 0.105535
Si Si3 0.431465 0.721011 0.281362
Si Si4 0.931079 0.904634 0.243790
Si Si5 0.433537 0.901166 0.539318
Si Si6 0.933189 0.403611 0.169654
Si Si7 0.433227 0.282924 0.503955
O O1 0.750000 0.903417 0.897463
O O2 0.507537 0.841134 0.836420
O O3 0.500000 0.000000 0.889788
O O4 0.504433 0.848841 0.953869
O O5 0.750000 0.899719 0.096243
O O6 0.515572 0.888782 0.174812
O O7 0.485575 0.820287 0.069097
O O8 0.500000 0.000000 0.081199
O O9 0.250000 0.735652 0.286582
O O10 0.511082 0.820836 0.285247
O O11 0.477126 0.673604 0.218333
O O12 0.750000 0.912286 0.248530
O O13 0.000000 0.000000 0.269420
O O14 0.250000 0.903054 0.534642
O O15 0.484464 0.877910 0.607349
O O16 0.501484 0.821247 0.496068
O O17 0.500000 0.000000 0.518042
O O18 0.750000 0.412234 0.158967
O O19 0.000000 0.500000 0.194735
O O20 0.250000 0.281740 0.498707
#
# Coordination Sequence:
#
# PCOD8183159 Si02
#       7
#     8   8   8   8   8   8   8
#     4  11  24  43  63  86 115 150 190 236 283 335
#     4  10  20  35  56  86 119 154 191 234 286 342
#     4  10  22  38  58  83 115 152 192 235 283 334
#     4  10  21  36  58  85 116 150 188 233 283 337
#     4  11  22  38  59  86 118 152 189 234 284 340
#     4  10  19  33  55  86 120 154 189 232 282 337
#     4  12  24  39  59  84 114 152 193 238 287 339
#
# _framework density 20.265466
#
# number of rings (size 3 to 8) (size 9 to 14) (size 15 to 20)
#    0.000    1.429    0.000    6.857    0.000    6.286 
#    0.000    0.714    0.000    3.429    0.000    0.000 
#    0.000    0.000    0.000    0.000    0.000    0.000 
#
# Total GULP energy -347346.005271 kJ/mol
# GULP energy per Si atom -12405.214474 kJ/mol
# Density = 2.021934 g / cm^3
# Si number density = 20.265466 Si / 1000 Ang^3
#
#
#
# Elastic Constant Matrix: (Units=GPa)
#
#
# Indices 1 2 3 4 5 6 
#
# 1 90.5520 59.4007 38.3635 0.0000 0.0000 0.0000
# 2 59.4007 183.3736 61.0801 0.0000 0.0000 0.0000
# 3 38.3635 61.0801 63.0213 0.0000 0.0000 0.0000
# 4 0.0000 0.0000 0.0000 55.8712 0.0000 0.0000
# 5 0.0000 0.0000 0.0000 0.0000 7.4264 0.0000
# 6 0.0000 0.0000 0.0000 0.0000 0.0000 40.8266
#
#
#
# Elastic Compliance Matrix: (Units=1/GPa)
#
#
# Indices 1 2 3 4 5 6 
#
# 1 0.015817 -0.002830 -0.006885 0.000000 0.000000 0.000000
# 2 -0.002830 0.008560 -0.006573 0.000000 0.000000 0.000000
# 3 -0.006885 -0.006573 0.026430 0.000000 0.000000 0.000000
# 4 0.000000 0.000000 0.000000 0.017898 0.000000 0.000000
# 5 0.000000 0.000000 0.000000 0.000000 0.134655 0.000000
# 6 0.000000 0.000000 0.000000 0.000000 0.000000 0.024494
#
#
# Mechanical properties :
#
#
# Convention : Reuss Voigt Hill
#
# Bulk Modulus (GPa) = 54.85793 72.73729 63.79761
# Shear Modulus (GPa) = 18.76124 32.69834 25.72979
#
# Velocity S-wave (km/s) = 3.04595 4.02120 3.56706
# Velocity P-wave (km/s) = 6.28481 7.58487 6.96524
#
# Compressibility (1/GPa) = 0.01822890
#
# Stress axis : x y z
#
# Youngs Moduli (GPa) = 63.22291 116.82829 37.83622
#
# Poissons Ratio (x) = 0.33064 0.26052
# Poissons Ratio (y) = 0.17893 0.24870
# Poissons Ratio (z) = 0.43532 0.76792
#
# Static dielectric constant tensor:
#      x y z
#    x 3.722110 0.000000 0.000000 
#    y 0.000000 3.702240 0.000000 
#    z 0.000000 0.000000 3.629230 
# 
# 
# High freq. dielectric constant tensor:
#      x y z
#    x 1.803130 0.000000 0.000000 
#    y 0.000000 1.810590 0.000000 
#    z 0.000000 0.000000 1.769540 
# 
# From -- ./inp_files/22184.got.cif
#   From: 2010.03.12/outbox.cif.g09.slc.cpg/sg40_12_cif.got.tgz:22184.got - 2010.04.14 01:38:03.
