data_PCOD8183688
_publ_section_title
;
Structure prediction by ZEFSAII (Michael W. Deem and Ramdas Pophale) SiO2 
 PCOD8183688
Probable space group: A M A 2
;
_chemical_formula_sum "Si O2"
_cell_formula_units_Z 64
_cell_length_a 8.959482
_cell_length_b 17.711553
_cell_length_c 20.276732
_cell_angle_alpha 90.000000
_cell_angle_beta 90.000000
_cell_angle_gamma 90.000000
_cell_volume 3217.640394
_symmetry_space_group_name_H-M "A M A 2"
_symmetry_group_IT_number 40
_symmetry_cell_setting 'orthorhombic'
loop_
_space_group_symop_operation_xyz
x,y,z
-x,-y,z
1/2-x,y,z
1/2+x,-y,z
x,1/2+y,1/2+z
-x,1/2-y,1/2+z
1/2-x,1/2+y,1/2+z
1/2+x,1/2-y,1/2+z
loop_
_atom_site_type_symbol
_atom_site_label
_atom_site_fract_x
_atom_site_fract_y
_atom_site_fract_z
Si Si1 0.075941 0.187747 0.942330
Si Si2 0.915238 0.635295 0.088636
Si Si3 0.573746 0.923372 0.316989
Si Si4 0.421179 0.636536 0.217162
Si Si5 0.921175 0.685252 0.717416
Si Si6 0.425939 0.923117 0.843542
Si Si7 0.914998 0.314488 0.588833
Si Si8 0.424338 0.363179 0.942307
O O1 0.250000 0.173634 0.926751
O O2 0.036295 0.275334 0.934245
O O3 0.974179 0.144348 0.890857
O O4 0.035885 0.157961 0.016008
O O5 0.750000 0.603992 0.105403
O O6 0.908128 0.724965 0.086467
O O7 0.030794 0.608063 0.144367
O O8 0.965747 0.607780 0.015978
O O9 0.750000 0.930594 0.313167
O O10 0.520636 0.853549 0.272850
O O11 0.523699 0.911054 0.392251
O O12 0.500000 0.000000 0.289517
O O13 0.250000 0.614426 0.228727
O O14 0.446562 0.725719 0.224687
O O15 0.522148 0.593307 0.269372
O O16 0.750000 0.662618 0.728033
O O17 0.970540 0.657080 0.644617
O O18 0.250000 0.932040 0.844804
O O19 0.500000 0.000000 0.869482
O O20 0.750000 0.346077 0.605935
O O21 0.250000 0.376768 0.927373
#
# Coordination Sequence:
#
# PCOD8183688 Si02
#       8
#     8   8   8   8   8   8   8   8
#     4   9  18  35  59  85 113 143 176 218 267 318
#     4   8  15  30  54  83 112 141 175 217 264 314
#     4  12  25  39  55  76 107 145 185 228 271 320
#     4  10  20  35  57  84 113 143 177 220 268 319
#     4  10  20  35  57  84 113 143 177 220 268 319
#     4  12  25  39  55  76 107 145 185 228 271 320
#     4   8  15  30  54  83 112 141 175 217 264 314
#     4   9  18  35  59  85 113 143 176 218 267 318
#
# _framework density 19.890350999999999
#
# number of rings (size 3 to 8) (size 9 to 14) (size 15 to 20)
#    0.000    2.250    0.000    5.250    0.000    6.000 
#    0.000    3.750    0.000    6.000    0.000    0.000 
#    0.000    0.000    0.000    0.000    0.000    0.000 
#
# Total GULP energy -396808.409304 kJ/mol
# GULP energy per Si atom -12400.262791 kJ/mol
# Density = 1.984508 g / cm^3
# Si number density = 19.890351 Si / 1000 Ang^3
#
#
#
# Elastic Constant Matrix: (Units=GPa)
#
#
# Indices 1 2 3 4 5 6 
#
# 1 116.8308 24.8075 34.7508 0.0000 0.0000 0.0000
# 2 24.8075 30.0656 4.6011 0.0000 0.0000 0.0000
# 3 34.7508 4.6011 88.6342 0.0000 0.0000 0.0000
# 4 0.0000 0.0000 0.0000 3.1861 0.0000 0.0000
# 5 0.0000 0.0000 0.0000 0.0000 38.7510 0.0000
# 6 0.0000 0.0000 0.0000 0.0000 0.0000 22.6139
#
#
#
# Elastic Compliance Matrix: (Units=1/GPa)
#
#
# Indices 1 2 3 4 5 6 
#
# 1 0.011701 -0.009024 -0.004119 0.000000 0.000000 0.000000
# 2 -0.009024 0.040487 0.001436 0.000000 0.000000 0.000000
# 3 -0.004119 0.001436 0.012823 0.000000 0.000000 0.000000
# 4 0.000000 0.000000 0.000000 0.313862 0.000000 0.000000
# 5 0.000000 0.000000 0.000000 0.000000 0.025806 0.000000
# 6 0.000000 0.000000 0.000000 0.000000 0.000000 0.044221
#
#
# Mechanical properties :
#
#
# Convention : Reuss Voigt Hill
#
# Bulk Modulus (GPa) = 24.04043 40.42772 32.23407
# Shear Modulus (GPa) = 10.28431 24.33495 17.30963
#
# Velocity S-wave (km/s) = 2.27634 3.50159 2.95320
# Velocity P-wave (km/s) = 4.36139 6.05950 5.27917
#
# Compressibility (1/GPa) = 0.04159659
#
# Stress axis : x y z
#
# Youngs Moduli (GPa) = 85.46481 24.69949 77.98654
#
# Poissons Ratio (x) = 0.22289 0.32123
# Poissons Ratio (y) = 0.77124 -0.11202
# Poissons Ratio (z) = 0.35203 -0.03548
#
# Static dielectric constant tensor:
#      x y z
#    x 3.607330 0.000000 0.000000 
#    y 0.000000 3.334240 0.000000 
#    z 0.000000 0.000000 3.897540 
# 
# 
# High freq. dielectric constant tensor:
#      x y z
#    x 1.773390 0.000000 0.000000 
#    y 0.000000 1.745800 0.000000 
#    z 0.000000 0.000000 1.789780 
# 
# From -- ./inp_files/22422.got.cif
#   From: 2010.03.12/outbox.cif.g09.slc.cpg/sg40_12_cif.got.tgz:22422.got - 2010.04.14 01:38:03.
