data_PCOD8183733
_publ_section_title
;
Structure prediction by ZEFSAII (Michael W. Deem and Ramdas Pophale) SiO2 
 PCOD8183733
Probable space group: A M A 2
;
_chemical_formula_sum "Si O2"
_cell_formula_units_Z 48
_cell_length_a 8.694194
_cell_length_b 10.202553
_cell_length_c 29.016795
_cell_angle_alpha 90.000000
_cell_angle_beta 90.000000
_cell_angle_gamma 90.000000
_cell_volume 2573.876044
_symmetry_space_group_name_H-M "A M A 2"
_symmetry_group_IT_number 40
_symmetry_cell_setting 'orthorhombic'
loop_
_space_group_symop_operation_xyz
x,y,z
-x,-y,z
1/2-x,y,z
1/2+x,-y,z
x,1/2+y,1/2+z
-x,1/2-y,1/2+z
1/2-x,1/2+y,1/2+z
1/2+x,1/2-y,1/2+z
loop_
_atom_site_type_symbol
_atom_site_label
_atom_site_fract_x
_atom_site_fract_y
_atom_site_fract_z
Si Si1 0.927186 0.363713 0.500000
Si Si2 0.932314 0.360752 0.169219
Si Si3 0.432974 0.860943 0.767823
Si Si4 0.431373 0.636015 0.836540
Si Si5 0.431182 0.636053 0.940835
Si Si6 0.071676 0.637673 0.608158
O O1 0.750000 0.363427 0.485878
O O2 0.950869 0.342099 0.554027
O O3 0.000000 0.500000 0.483778
O O4 0.013639 0.249624 0.473878
O O5 0.750000 0.372143 0.172897
O O6 0.000000 0.500000 0.153069
O O7 0.001008 0.319545 0.218412
O O8 0.978516 0.253080 0.132132
O O9 0.250000 0.870030 0.764828
O O10 0.490240 0.753925 0.804569
O O11 0.500000 0.000000 0.783965
O O12 0.500000 0.500000 0.817773
O O13 0.250000 0.624324 0.834194
O O14 0.488193 0.663538 0.888645
O O15 0.500000 0.500000 0.959201
O O16 0.250000 0.626140 0.943171
O O17 0.250000 0.641629 0.622522
O O18 0.000000 0.500000 0.624259
#
# Coordination Sequence:
#
# PCOD8183733 Si02
#       6
#     8   8   8   8   8   8
#     4  10  21  37  57  81 109 142 179 221 268 318
#     4  11  22  37  57  81 109 142 180 222 269 318
#     4  10  20  36  55  78 108 140 178 221 266 317
#     4   9  20  36  55  79 107 140 178 220 264 315
#     4  10  20  36  56  80 110 143 181 223 268 317
#     4  10  21  38  58  81 109 141 179 221 267 319
#
# _framework density 18.648917000000001
#
# number of rings (size 3 to 8) (size 9 to 14) (size 15 to 20)
#    0.000    2.000    0.000    4.500    0.000    6.000 
#    0.000    3.333    0.000    0.000    0.000    0.000 
#    0.000    0.000    0.000    0.000    0.000    0.000 
#
# Total GULP energy -297692.990407 kJ/mol
# GULP energy per Si atom -12403.874600 kJ/mol
# Density = 1.860647 g / cm^3
# Si number density = 18.648917 Si / 1000 Ang^3
#
#
#
# Elastic Constant Matrix: (Units=GPa)
#
#
# Indices 1 2 3 4 5 6 
#
# 1 97.1280 52.2886 33.9525 0.0000 0.0000 0.0000
# 2 52.2886 149.7571 65.2311 0.0000 0.0000 0.0000
# 3 33.9525 65.2311 56.1096 0.0000 0.0000 0.0000
# 4 0.0000 0.0000 0.0000 40.6572 0.0000 0.0000
# 5 0.0000 0.0000 0.0000 0.0000 36.7769 0.0000
# 6 0.0000 0.0000 0.0000 0.0000 0.0000 38.7804
#
#
#
# Elastic Compliance Matrix: (Units=1/GPa)
#
#
# Indices 1 2 3 4 5 6 
#
# 1 0.013448 -0.002332 -0.005427 0.000000 0.000000 0.000000
# 2 -0.002332 0.013932 -0.014786 0.000000 0.000000 0.000000
# 3 -0.005427 -0.014786 0.038296 0.000000 0.000000 0.000000
# 4 0.000000 0.000000 0.000000 0.024596 0.000000 0.000000
# 5 0.000000 0.000000 0.000000 0.000000 0.027191 0.000000
# 6 0.000000 0.000000 0.000000 0.000000 0.000000 0.025786
#
#
# Mechanical properties :
#
#
# Convention : Reuss Voigt Hill
#
# Bulk Modulus (GPa) = 48.57469 67.32658 57.95063
# Shear Modulus (GPa) = 25.61470 33.34441 29.47955
#
# Velocity S-wave (km/s) = 3.71013 4.23307 3.98020
# Velocity P-wave (km/s) = 6.66760 7.75064 7.22943
#
# Compressibility (1/GPa) = 0.02058685
#
# Stress axis : x y z
#
# Youngs Moduli (GPa) = 74.36087 71.77670 26.11243
#
# Poissons Ratio (x) = 0.16735 0.14171
# Poissons Ratio (y) = 0.17338 0.38610
# Poissons Ratio (z) = 0.40354 1.06130
#
# Static dielectric constant tensor:
#      x y z
#    x 3.453050 0.000000 0.000000 
#    y 0.000000 3.533460 0.000000 
#    z 0.000000 0.000000 3.454960 
# 
# 
# High freq. dielectric constant tensor:
#      x y z
#    x 1.738960 0.000000 0.000000 
#    y 0.000000 1.734640 0.000000 
#    z 0.000000 0.000000 1.719250 
# 
# From -- ./inp_files/26119.got.cif
#   From: 2010.03.12/outbox.cif.g09.slc.cpg/sg40_14_cif.got.tgz:26119.got - 2010.04.14 01:38:03.
