data_PCOD8183510
_publ_section_title
;
Structure prediction by ZEFSAII (Michael W. Deem and Ramdas Pophale) SiO2 
 PCOD8183510
Probable space group: A M A 2
;
_chemical_formula_sum "Si O2"
_cell_formula_units_Z 64
_cell_length_a 8.821915
_cell_length_b 20.758375
_cell_length_c 19.468014
_cell_angle_alpha 90.000000
_cell_angle_beta 90.000000
_cell_angle_gamma 90.000000
_cell_volume 3565.150534
_symmetry_space_group_name_H-M "A M A 2"
_symmetry_group_IT_number 40
_symmetry_cell_setting 'orthorhombic'
loop_
_space_group_symop_operation_xyz
x,y,z
-x,-y,z
1/2-x,y,z
1/2+x,-y,z
x,1/2+y,1/2+z
-x,1/2-y,1/2+z
1/2-x,1/2+y,1/2+z
1/2+x,1/2-y,1/2+z
loop_
_atom_site_type_symbol
_atom_site_label
_atom_site_fract_x
_atom_site_fract_y
_atom_site_fract_z
Si Si1 0.925079 0.241612 0.627200
Si Si2 0.070542 0.934037 0.848767
Si Si3 0.428256 0.684492 0.844951
Si Si4 0.573924 0.382652 0.481430
Si Si5 0.926669 0.123962 0.121996
Si Si6 0.927954 0.067255 0.266742
Si Si7 0.423321 0.268073 0.975113
Si Si8 0.573142 0.188870 0.769230
O O1 0.750000 0.265367 0.630244
O O2 0.956512 0.208892 0.553327
O O3 0.960011 0.190320 0.687500
O O4 0.030677 0.302793 0.639424
O O5 0.250000 0.938651 0.844208
O O6 0.003028 0.875899 0.801952
O O7 0.021056 0.923748 0.927236
O O8 0.000000 0.000000 0.820077
O O9 0.250000 0.677089 0.834570
O O10 0.507584 0.621517 0.816483
O O11 0.467118 0.692028 0.925425
O O12 0.494469 0.747138 0.805118
O O13 0.750000 0.399154 0.473018
O O14 0.520801 0.403066 0.557455
O O15 0.539626 0.307523 0.469781
O O16 0.750000 0.120564 0.104322
O O17 0.970113 0.081240 0.187685
O O18 0.750000 0.064222 0.277778
O O19 0.000000 0.000000 0.289162
O O20 0.250000 0.281760 0.954443
O O21 0.750000 0.188187 0.785381
#
# Coordination Sequence:
#
# PCOD8183510 Si02
#       8
#     8   8   8   8   8   8   8   8
#     4   9  17  33  55  80 107 140 180 223 273 323
#     4  11  22  37  54  78 110 146 185 227 273 325
#     4  11  20  34  58  82 108 143 181 226 271 322
#     4  10  20  34  53  77 108 148 186 223 264 317
#     4  10  20  33  51  78 110 143 179 223 267 318
#     4  11  24  39  55  79 110 145 183 225 272 325
#     4   9  18  31  52  81 111 138 175 224 271 321
#     4   9  18  33  56  81 106 140 182 226 273 321
#
# _framework density 17.951557000000001
#
# number of rings (size 3 to 8) (size 9 to 14) (size 15 to 20)
#    0.000    2.000    2.500    2.625    0.000    4.000 
#    0.000    2.500    0.000    0.750    0.000    1.750 
#    0.000    0.000    0.000    0.000    0.000    0.000 
#
# Total GULP energy -396848.197599 kJ/mol
# GULP energy per Si atom -12401.506175 kJ/mol
# Density = 1.791070 g / cm^3
# Si number density = 17.951557 Si / 1000 Ang^3
#
#
#
# Elastic Constant Matrix: (Units=GPa)
#
#
# Indices 1 2 3 4 5 6 
#
# 1 56.8576 31.1492 33.2411 0.0000 0.0000 0.0000
# 2 31.1492 111.8711 60.1478 0.0000 0.0000 0.0000
# 3 33.2411 60.1478 111.1152 0.0000 0.0000 0.0000
# 4 0.0000 0.0000 0.0000 23.4133 0.0000 0.0000
# 5 0.0000 0.0000 0.0000 0.0000 26.8462 0.0000
# 6 0.0000 0.0000 0.0000 0.0000 0.0000 26.3201
#
#
#
# Elastic Compliance Matrix: (Units=1/GPa)
#
#
# Indices 1 2 3 4 5 6 
#
# 1 0.022356 -0.003708 -0.004681 0.000000 0.000000 0.000000
# 2 -0.003708 0.013223 -0.006049 0.000000 0.000000 0.000000
# 3 -0.004681 -0.006049 0.013674 0.000000 0.000000 0.000000
# 4 0.000000 0.000000 0.000000 0.042711 0.000000 0.000000
# 5 0.000000 0.000000 0.000000 0.000000 0.037249 0.000000
# 6 0.000000 0.000000 0.000000 0.000000 0.000000 0.037994
#
#
# Mechanical properties :
#
#
# Convention : Reuss Voigt Hill
#
# Bulk Modulus (GPa) = 49.07152 58.76890 53.92021
# Shear Modulus (GPa) = 24.64573 25.66964 25.15769
#
# Velocity S-wave (km/s) = 3.70929 3.78556 3.74762
# Velocity P-wave (km/s) = 6.76313 7.20526 6.98770
#
# Compressibility (1/GPa) = 0.02037842
#
# Stress axis : x y z
#
# Youngs Moduli (GPa) = 44.73111 75.62343 73.13084
#
# Poissons Ratio (x) = 0.28042 0.34230
# Poissons Ratio (y) = 0.16587 0.44234
# Poissons Ratio (z) = 0.20937 0.45742
#
# Static dielectric constant tensor:
#      x y z
#    x 3.241800 0.000000 0.000000 
#    y 0.000000 3.203050 0.000000 
#    z 0.000000 0.000000 3.436180 
# 
# 
# High freq. dielectric constant tensor:
#      x y z
#    x 1.692270 0.000000 0.000000 
#    y 0.000000 1.669670 0.000000 
#    z 0.000000 0.000000 1.698600 
# 
# From -- ./inp_files/22526.got.cif
#   From: 2010.03.12/outbox.cif.g09.slc.cpg/sg40_12_cif.got.tgz:22526.got - 2010.04.14 01:38:03.
