data_PCOD8183145
_publ_section_title
;
Structure prediction by ZEFSAII (Michael W. Deem and Ramdas Pophale) SiO2 
 PCOD8183145
Probable space group: A M A 2
;
_chemical_formula_sum "Si O2"
_cell_formula_units_Z 56
_cell_length_a 8.747070
_cell_length_b 14.156983
_cell_length_c 22.760460
_cell_angle_alpha 90.000000
_cell_angle_beta 90.000000
_cell_angle_gamma 90.000000
_cell_volume 2818.476043
_symmetry_space_group_name_H-M "A M A 2"
_symmetry_group_IT_number 40
_symmetry_cell_setting 'orthorhombic'
loop_
_space_group_symop_operation_xyz
x,y,z
-x,-y,z
1/2-x,y,z
1/2+x,-y,z
x,1/2+y,1/2+z
-x,1/2-y,1/2+z
1/2-x,1/2+y,1/2+z
1/2+x,1/2-y,1/2+z
loop_
_atom_site_type_symbol
_atom_site_label
_atom_site_fract_x
_atom_site_fract_y
_atom_site_fract_z
Si Si1 0.932361 0.404729 0.107940
Si Si2 0.916641 0.855568 0.482498
Si Si3 0.931974 0.292321 0.641251
Si Si4 0.430450 0.093492 0.909925
Si Si5 0.432659 0.895883 0.252579
Si Si6 0.580216 0.144367 0.025768
Si Si7 0.570601 0.203694 0.370952
O O1 0.750000 0.398196 0.115199
O O2 0.000000 0.500000 0.137599
O O3 0.007604 0.314797 0.139005
O O4 0.981988 0.410590 0.039071
O O5 0.750000 0.895003 0.464435
O O6 0.900805 0.749416 0.503549
O O7 0.024072 0.863432 0.425622
O O8 0.750000 0.292238 0.641233
O O9 0.997094 0.337687 0.699728
O O10 0.991316 0.356601 0.587505
O O11 0.250000 0.089110 0.906069
O O12 0.493996 0.189096 0.878671
O O13 0.500000 0.000000 0.878237
O O14 0.482138 0.088020 0.977891
O O15 0.250000 0.899597 0.247799
O O16 0.489931 0.842327 0.311240
O O17 0.500000 0.000000 0.253161
O O18 0.750000 0.099386 0.033467
O O19 0.750000 0.209330 0.370736
#
# Coordination Sequence:
#
# PCOD8183145 Si02
#       7
#     8   8   8   8   8   8   8
#     4  10  20  35  56  86 120 155 190 230 278 334
#     4   8  16  30  51  78 110 144 180 221 269 319
#     4  11  22  38  59  84 113 149 189 235 285 336
#     4  10  19  33  54  84 116 149 185 225 274 332
#     4  11  24  43  62  82 107 141 186 237 286 338
#     4   9  17  32  53  79 110 146 182 223 271 323
#     4   9  20  37  57  79 110 148 186 229 279 330
#
# _framework density 19.868893
#
# number of rings (size 3 to 8) (size 9 to 14) (size 15 to 20)
#    0.000    2.286    0.000    3.857    0.000    6.857 
#    0.000    6.429    0.000    1.714    0.000    0.000 
#    0.000    0.000    0.000    0.000    0.000    0.000 
#
# Total GULP energy -347055.593892 kJ/mol
# GULP energy per Si atom -12394.842639 kJ/mol
# Density = 1.982367 g / cm^3
# Si number density = 19.868893 Si / 1000 Ang^3
#
#
#
# Elastic Constant Matrix: (Units=GPa)
#
#
# Indices 1 2 3 4 5 6 
#
# 1 92.3507 40.7603 47.2598 0.0000 0.0000 0.0000
# 2 40.7603 115.8064 56.2168 0.0000 0.0000 0.0000
# 3 47.2598 56.2168 130.7558 0.0000 0.0000 0.0000
# 4 0.0000 0.0000 0.0000 21.1439 0.0000 0.0000
# 5 0.0000 0.0000 0.0000 0.0000 28.1868 0.0000
# 6 0.0000 0.0000 0.0000 0.0000 0.0000 24.9021
#
#
#
# Elastic Compliance Matrix: (Units=1/GPa)
#
#
# Indices 1 2 3 4 5 6 
#
# 1 0.014142 -0.003155 -0.003755 0.000000 0.000000 0.000000
# 2 -0.003155 0.011616 -0.003854 0.000000 0.000000 0.000000
# 3 -0.003755 -0.003854 0.010662 0.000000 0.000000 0.000000
# 4 0.000000 0.000000 0.000000 0.047295 0.000000 0.000000
# 5 0.000000 0.000000 0.000000 0.000000 0.035478 0.000000
# 6 0.000000 0.000000 0.000000 0.000000 0.000000 0.040157
#
#
# Mechanical properties :
#
#
# Convention : Reuss Voigt Hill
#
# Bulk Modulus (GPa) = 67.14654 69.70964 68.42809
# Shear Modulus (GPa) = 26.90439 27.82494 27.36467
#
# Velocity S-wave (km/s) = 3.68380 3.74629 3.71517
# Velocity P-wave (km/s) = 7.20847 7.33988 7.27447
#
# Compressibility (1/GPa) = 0.01489280
#
# Stress axis : x y z
#
# Youngs Moduli (GPa) = 70.70937 86.08514 93.78989
#
# Poissons Ratio (x) = 0.27158 0.35220
# Poissons Ratio (y) = 0.22307 0.36147
# Poissons Ratio (z) = 0.26553 0.33178
#
# Static dielectric constant tensor:
#      x y z
#    x 3.695020 0.000000 0.000000 
#    y 0.000000 4.017270 0.000000 
#    z 0.000000 0.000000 3.678860 
# 
# 
# High freq. dielectric constant tensor:
#      x y z
#    x 1.780420 0.000000 0.000000 
#    y 0.000000 1.780250 0.000000 
#    z 0.000000 0.000000 1.754140 
# 
# From -- ./inp_files/22181.got.cif
#   From: 2010.03.12/outbox.cif.g09.slc.cpg/sg40_12_cif.got.tgz:22181.got - 2010.04.14 01:38:03.
