data_PCOD8183116
_publ_section_title
;
Structure prediction by ZEFSAII (Michael W. Deem and Ramdas Pophale) SiO2 
 PCOD8183116
Probable space group: A M A 2
;
_chemical_formula_sum "Si O2"
_cell_formula_units_Z 48
_cell_length_a 16.709073
_cell_length_b 9.017957
_cell_length_c 16.274634
_cell_angle_alpha 90.000000
_cell_angle_beta 90.000000
_cell_angle_gamma 90.000000
_cell_volume 2452.289548
_symmetry_space_group_name_H-M "A M A 2"
_symmetry_group_IT_number 40
_symmetry_cell_setting 'orthorhombic'
loop_
_space_group_symop_operation_xyz
x,y,z
-x,-y,z
1/2-x,y,z
1/2+x,-y,z
x,1/2+y,1/2+z
-x,1/2-y,1/2+z
1/2-x,1/2+y,1/2+z
1/2+x,1/2-y,1/2+z
loop_
_atom_site_type_symbol
_atom_site_label
_atom_site_fract_x
_atom_site_fract_y
_atom_site_fract_z
Si Si1 0.614143 0.781001 0.651400
Si Si2 0.338841 0.041690 0.506877
Si Si3 0.931582 0.687458 0.104331
Si Si4 0.156520 0.508736 0.583038
Si Si5 0.656681 0.170826 0.926674
Si Si6 0.090133 0.981489 0.768661
O O1 0.674877 0.860506 0.589183
O O2 0.527026 0.811579 0.610073
O O3 0.637431 0.607868 0.656795
O O4 0.620842 0.853025 0.742910
O O5 0.250000 0.979696 0.482700
O O6 0.374168 0.157708 0.437524
O O7 0.400300 0.906258 0.524835
O O8 0.897574 0.850843 0.099258
O O9 0.898348 0.615965 0.187492
O O10 0.250000 0.552463 0.581380
O O11 0.124006 0.436582 0.498312
O O12 0.750000 0.181925 0.939661
O O13 0.639313 0.098324 0.839306
O O14 0.000000 0.000000 0.800206
#
# Coordination Sequence:
#
# PCOD8183116 Si02
#       6
#     8   8   8   8   8   8
#     4   9  18  33  52  75 104 136 175 216 256 310
#     4   9  17  31  50  74 101 132 170 212 253 308
#     4  10  19  33  54  77 101 133 176 221 262 308
#     4  10  20  34  53  79 104 134 176 222 265 312
#     4   9  19  33  50  73 103 135 169 209 261 316
#     4   9  19  34  52  76 104 136 174 212 257 314
#
# _framework density 19.573544999999999
#
# number of rings (size 3 to 8) (size 9 to 14) (size 15 to 20)
#    0.000    2.667    0.000    4.000    0.000    6.667 
#    0.000    1.667    0.000    6.000    0.000    0.000 
#    0.000    0.000    0.000    0.000    0.000    0.000 
#
# Total GULP energy -297337.930584 kJ/mol
# GULP energy per Si atom -12389.080441 kJ/mol
# Density = 1.952900 g / cm^3
# Si number density = 19.573545 Si / 1000 Ang^3
#
#
#
# Elastic Constant Matrix: (Units=GPa)
#
#
# Indices 1 2 3 4 5 6 
#
# 1 48.4830 16.2881 17.5384 0.0000 0.0000 0.0000
# 2 16.2881 108.3182 30.4736 0.0000 0.0000 0.0000
# 3 17.5384 30.4736 71.6359 0.0000 0.0000 0.0000
# 4 0.0000 0.0000 0.0000 31.7076 0.0000 0.0000
# 5 0.0000 0.0000 0.0000 0.0000 22.1380 0.0000
# 6 0.0000 0.0000 0.0000 0.0000 0.0000 19.4365
#
#
#
# Elastic Compliance Matrix: (Units=1/GPa)
#
#
# Indices 1 2 3 4 5 6 
#
# 1 0.023056 -0.002134 -0.004737 0.000000 0.000000 0.000000
# 2 -0.002134 0.010685 -0.004023 0.000000 0.000000 0.000000
# 3 -0.004737 -0.004023 0.016830 0.000000 0.000000 0.000000
# 4 0.000000 0.000000 0.000000 0.031538 0.000000 0.000000
# 5 0.000000 0.000000 0.000000 0.000000 0.045171 0.000000
# 6 0.000000 0.000000 0.000000 0.000000 0.000000 0.051450
#
#
# Mechanical properties :
#
#
# Convention : Reuss Voigt Hill
#
# Bulk Modulus (GPa) = 34.74194 39.67082 37.20638
# Shear Modulus (GPa) = 23.79672 25.59888 24.69780
#
# Velocity S-wave (km/s) = 3.49056 3.62032 3.55603
# Velocity P-wave (km/s) = 5.83381 6.14713 5.99251
#
# Compressibility (1/GPa) = 0.02878365
#
# Stress axis : x y z
#
# Youngs Moduli (GPa) = 43.37191 93.59147 59.41624
#
# Poissons Ratio (x) = 0.19976 0.28145
# Poissons Ratio (y) = 0.09257 0.23901
# Poissons Ratio (z) = 0.20545 0.37649
#
# Static dielectric constant tensor:
#      x y z
#    x 3.513610 0.000000 0.000000 
#    y 0.000000 3.791760 0.000000 
#    z 0.000000 0.000000 3.267340 
# 
# 
# High freq. dielectric constant tensor:
#      x y z
#    x 1.762790 0.000000 0.000000 
#    y 0.000000 1.769700 0.000000 
#    z 0.000000 0.000000 1.720680 
# 
# From -- ./inp_files/17611.got.cif
#   From: 2010.03.12/outbox.cif.g09.slc.cpg/sg40_9_cif.got.tgz:17611.got - 2010.04.14 01:38:03.
