data_PCOD8183578
_publ_section_title
;
Structure prediction by ZEFSAII (Michael W. Deem and Ramdas Pophale) SiO2 
 PCOD8183578
Probable space group: A M A 2
;
_chemical_formula_sum "Si O2"
_cell_formula_units_Z 64
_cell_length_a 8.915694
_cell_length_b 15.958415
_cell_length_c 22.637743
_cell_angle_alpha 90.000000
_cell_angle_beta 90.000000
_cell_angle_gamma 90.000000
_cell_volume 3220.905881
_symmetry_space_group_name_H-M "A M A 2"
_symmetry_group_IT_number 40
_symmetry_cell_setting 'orthorhombic'
loop_
_space_group_symop_operation_xyz
x,y,z
-x,-y,z
1/2-x,y,z
1/2+x,-y,z
x,1/2+y,1/2+z
-x,1/2-y,1/2+z
1/2-x,1/2+y,1/2+z
1/2+x,1/2-y,1/2+z
loop_
_atom_site_type_symbol
_atom_site_label
_atom_site_fract_x
_atom_site_fract_y
_atom_site_fract_z
Si Si1 0.573581 0.590846 0.970910
Si Si2 0.573916 0.411565 0.086431
Si Si3 0.079063 0.301286 0.172531
Si Si4 0.429322 0.585708 0.505830
Si Si5 0.423700 0.232672 0.915686
Si Si6 0.921161 0.256332 0.799772
Si Si7 0.577387 0.638947 0.625825
Si Si8 0.081251 0.918763 0.254632
O O1 0.500000 0.500000 0.952461
O O2 0.750000 0.574969 0.980231
O O3 0.544619 0.667864 0.925948
O O4 0.498881 0.632922 0.029332
O O5 0.500000 0.500000 0.082804
O O6 0.750000 0.415377 0.080029
O O7 0.528441 0.373354 0.148847
O O8 0.250000 0.316711 0.153156
O O9 0.062608 0.303470 0.242975
O O10 0.024572 0.217714 0.140976
O O11 0.500000 0.500000 0.477980
O O12 0.250000 0.576966 0.511651
O O13 0.474683 0.667714 0.467120
O O14 0.503902 0.593134 0.570344
O O15 0.250000 0.217419 0.904041
O O16 0.512043 0.208231 0.856166
O O17 0.750000 0.279869 0.811904
O O18 0.008428 0.340291 0.785835
O O19 0.750000 0.665244 0.612017
O O20 0.572460 0.580252 0.683460
O O21 0.250000 0.921322 0.277267
O O22 0.000000 0.000000 0.279774
#
# Coordination Sequence:
#
# PCOD8183578 Si02
#       8
#     8   8   8   8   8   8   8   8
#     4  10  20  36  58  86 118 152 187 229 281 340
#     4  11  21  34  55  83 113 145 180 225 278 335
#     4  10  20  36  56  81 112 145 182 227 278 334
#     4  11  23  39  59  84 114 151 192 239 289 339
#     4  10  23  41  59  79 111 153 193 235 285 335
#     4  10  22  38  58  80 105 141 186 232 277 327
#     4  10  20  34  56  86 115 147 183 224 276 336
#     4  10  20  34  54  81 115 148 181 221 270 328
#
# _framework density 19.870187999999999
#
# number of rings (size 3 to 8) (size 9 to 14) (size 15 to 20)
#    0.000    1.750    0.000    5.250    0.000    7.500 
#    0.000    1.875    0.000    1.500    0.000    0.000 
#    0.000    0.000    0.000    0.000    0.000    0.000 
#
# Total GULP energy -396620.338305 kJ/mol
# GULP energy per Si atom -12394.385572 kJ/mol
# Density = 1.982496 g / cm^3
# Si number density = 19.870188 Si / 1000 Ang^3
#
#
#
# Elastic Constant Matrix: (Units=GPa)
#
#
# Indices 1 2 3 4 5 6 
#
# 1 142.2491 16.4752 59.8893 0.0000 0.0000 0.0000
# 2 16.4752 66.3279 15.2757 0.0000 0.0000 0.0000
# 3 59.8893 15.2757 91.3008 0.0000 0.0000 0.0000
# 4 0.0000 0.0000 0.0000 16.1306 0.0000 0.0000
# 5 0.0000 0.0000 0.0000 0.0000 32.5596 0.0000
# 6 0.0000 0.0000 0.0000 0.0000 0.0000 36.3209
#
#
#
# Elastic Compliance Matrix: (Units=1/GPa)
#
#
# Indices 1 2 3 4 5 6 
#
# 1 0.009774 -0.000989 -0.006246 0.000000 0.000000 0.000000
# 2 -0.000989 0.015781 -0.001991 0.000000 0.000000 0.000000
# 3 -0.006246 -0.001991 0.015383 0.000000 0.000000 0.000000
# 4 0.000000 0.000000 0.000000 0.061994 0.000000 0.000000
# 5 0.000000 0.000000 0.000000 0.000000 0.030713 0.000000
# 6 0.000000 0.000000 0.000000 0.000000 0.000000 0.027532
#
#
# Mechanical properties :
#
#
# Convention : Reuss Voigt Hill
#
# Bulk Modulus (GPa) = 44.47424 53.68425 49.07924
# Shear Modulus (GPa) = 26.72005 30.88471 28.80238
#
# Velocity S-wave (km/s) = 3.67103 3.94677 3.81140
# Velocity P-wave (km/s) = 6.35607 6.91704 6.64248
#
# Compressibility (1/GPa) = 0.02248493
#
# Stress axis : x y z
#
# Youngs Moduli (GPa) = 102.31099 63.36737 65.00688
#
# Poissons Ratio (x) = 0.06269 0.40602
# Poissons Ratio (y) = 0.10122 0.12945
# Poissons Ratio (z) = 0.63902 0.12619
#
# Static dielectric constant tensor:
#      x y z
#    x 3.715840 0.000000 0.000000 
#    y 0.000000 3.595330 0.000000 
#    z 0.000000 0.000000 3.294780 
# 
# 
# High freq. dielectric constant tensor:
#      x y z
#    x 1.791650 0.000000 0.000000 
#    y 0.000000 1.763790 0.000000 
#    z 0.000000 0.000000 1.770400 
# 
# From -- ./inp_files/24310.got.cif
#   From: 2010.03.12/outbox.cif.g09.slc.cpg/sg40_13_cif.got.tgz:24310.got - 2010.04.14 01:38:03.
