data_PCOD8183117
_publ_section_title
;
Structure prediction by ZEFSAII (Michael W. Deem and Ramdas Pophale) SiO2 
 PCOD8183117
Probable space group: A M A 2
;
_chemical_formula_sum "Si O2"
_cell_formula_units_Z 40
_cell_length_a 17.335592
_cell_length_b 4.998739
_cell_length_c 21.978702
_cell_angle_alpha 90.000000
_cell_angle_beta 90.000000
_cell_angle_gamma 90.000000
_cell_volume 1904.588594
_symmetry_space_group_name_H-M "A M A 2"
_symmetry_group_IT_number 40
_symmetry_cell_setting 'orthorhombic'
loop_
_space_group_symop_operation_xyz
x,y,z
-x,-y,z
1/2-x,y,z
1/2+x,-y,z
x,1/2+y,1/2+z
-x,1/2-y,1/2+z
1/2-x,1/2+y,1/2+z
1/2+x,1/2-y,1/2+z
loop_
_atom_site_type_symbol
_atom_site_label
_atom_site_fract_x
_atom_site_fract_y
_atom_site_fract_z
Si Si1 0.335988 0.896490 0.562320
Si Si2 0.550684 0.252785 0.878267
Si Si3 0.091314 0.009816 0.686415
Si Si4 0.337092 0.406072 0.483098
Si Si5 0.409710 0.018233 0.254893
O O1 0.250000 0.843513 0.587507
O O2 0.368886 0.621284 0.532731
O O3 0.387066 0.023532 0.615716
O O4 0.335371 0.111014 0.509210
O O5 0.500000 0.500000 0.906278
O O6 0.605793 0.107319 0.926187
O O7 0.601897 0.395388 0.825318
O O8 0.500000 0.000000 0.852032
O O9 0.126710 0.242060 0.730104
O O10 0.128933 0.740583 0.712352
O O11 0.000000 0.000000 0.691475
O O12 0.250000 0.491953 0.463087
O O13 0.500000 0.000000 0.242694
#
# Coordination Sequence:
#
# PCOD8183117 Si02
#       5
#     8   8   8   8   8
#     4  10  21  37  55  77 110 148 185 230 285 339
#     4  11  21  36  59  85 113 148 193 239 285 346
#     4  10  19  33  54  78 105 139 179 223 272 329
#     4  10  22  39  56  78 113 152 186 231 292 343
#     4   9  18  33  53  78 108 139 172 221 283 327
#
# _framework density 21.001912999999998
#
# number of rings (size 3 to 8) (size 9 to 14) (size 15 to 20)
#    0.000    2.000    0.000    5.400    0.000    2.400 
#    0.000    2.000    0.000    0.000    0.000    1.400 
#    0.000    0.000    0.000    0.000    0.000    0.000 
#
# Total GULP energy -247774.447856 kJ/mol
# GULP energy per Si atom -12388.722393 kJ/mol
# Density = 2.095411 g / cm^3
# Si number density = 21.001913 Si / 1000 Ang^3
#
#
#
# Elastic Constant Matrix: (Units=GPa)
#
#
# Indices 1 2 3 4 5 6 
#
# 1 30.2733 21.9349 33.6893 0.0000 0.0000 0.0000
# 2 21.9349 124.5449 44.3110 0.0000 0.0000 0.0000
# 3 33.6893 44.3110 121.4294 0.0000 0.0000 0.0000
# 4 0.0000 0.0000 0.0000 47.2611 0.0000 0.0000
# 5 0.0000 0.0000 0.0000 0.0000 2.4507 0.0000
# 6 0.0000 0.0000 0.0000 0.0000 0.0000 18.6095
#
#
#
# Elastic Compliance Matrix: (Units=1/GPa)
#
#
# Indices 1 2 3 4 5 6 
#
# 1 0.049828 -0.004433 -0.012207 0.000000 0.000000 0.000000
# 2 -0.004433 0.009622 -0.002281 0.000000 0.000000 0.000000
# 3 -0.012207 -0.002281 0.012454 0.000000 0.000000 0.000000
# 4 0.000000 0.000000 0.000000 0.021159 0.000000 0.000000
# 5 0.000000 0.000000 0.000000 0.000000 0.408048 0.000000
# 6 0.000000 0.000000 0.000000 0.000000 0.000000 0.053736
#
#
# Mechanical properties :
#
#
# Convention : Reuss Voigt Hill
#
# Bulk Modulus (GPa) = 29.35761 52.90200 41.12980
# Shear Modulus (GPa) = 8.27756 25.41841 16.84799
#
# Velocity S-wave (km/s) = 1.98743 3.48270 2.83541
# Velocity P-wave (km/s) = 4.39038 6.43553 5.50870
#
# Compressibility (1/GPa) = 0.03406272
#
# Stress axis : x y z
#
# Youngs Moduli (GPa) = 20.06886 103.93337 80.29364
#
# Poissons Ratio (x) = 0.46072 0.98012
# Poissons Ratio (y) = 0.08896 0.18316
# Poissons Ratio (z) = 0.24498 0.23709
#
# Static dielectric constant tensor:
#      x y z
#    x 3.452950 0.000000 0.000000 
#    y 0.000000 4.365690 0.000000 
#    z 0.000000 0.000000 3.618540 
# 
# 
# High freq. dielectric constant tensor:
#      x y z
#    x 1.772030 0.000000 0.000000 
#    y 0.000000 1.853030 0.000000 
#    z 0.000000 0.000000 1.816780 
# 
# From -- ./inp_files/20898.got.cif
#   From: 2010.03.12/outbox.cif.g09.slc.cpg/sg40_11_cif.got.tgz:20898.got - 2010.04.14 01:38:03.
