data_PCOD8183754
_publ_section_title
;
Structure prediction by ZEFSAII (Michael W. Deem and Ramdas Pophale) SiO2 
 PCOD8183754
Probable space group: A M A 2
;
_chemical_formula_sum "Si O2"
_cell_formula_units_Z 64
_cell_length_a 8.782548
_cell_length_b 24.853409
_cell_length_c 15.086671
_cell_angle_alpha 90.000000
_cell_angle_beta 90.000000
_cell_angle_gamma 90.000000
_cell_volume 3293.062084
_symmetry_space_group_name_H-M "A M A 2"
_symmetry_group_IT_number 40
_symmetry_cell_setting 'orthorhombic'
loop_
_space_group_symop_operation_xyz
x,y,z
-x,-y,z
1/2-x,y,z
1/2+x,-y,z
x,1/2+y,1/2+z
-x,1/2-y,1/2+z
1/2-x,1/2+y,1/2+z
1/2+x,1/2-y,1/2+z
loop_
_atom_site_type_symbol
_atom_site_label
_atom_site_fract_x
_atom_site_fract_y
_atom_site_fract_z
Si Si1 0.074083 0.833916 0.118840
Si Si2 0.428727 0.763880 0.398143
Si Si3 0.070761 0.394848 0.112223
Si Si4 0.928979 0.555921 0.296200
Si Si5 0.427268 0.712867 0.082023
Si Si6 0.072510 0.646226 0.792112
Si Si7 0.429295 0.846810 0.917781
Si Si8 0.571203 0.942453 0.435180
O O1 0.250000 0.845630 0.138596
O O2 0.038094 0.770220 0.126192
O O3 0.971482 0.866147 0.189879
O O4 0.029719 0.854732 0.021120
O O5 0.250000 0.766230 0.417790
O O6 0.522682 0.787253 0.480188
O O7 0.471592 0.801692 0.315982
O O8 0.478758 0.703166 0.376773
O O9 0.250000 0.397151 0.097363
O O10 0.018917 0.429668 0.196717
O O11 0.020818 0.333519 0.132151
O O12 0.989657 0.418068 0.026221
O O13 0.750000 0.550770 0.301320
O O14 0.985286 0.600948 0.365137
O O15 0.000000 0.500000 0.326407
O O16 0.250000 0.698514 0.085462
O O17 0.250000 0.659485 0.801036
O O18 0.026681 0.595902 0.853329
O O19 0.250000 0.835207 0.906199
O O20 0.750000 0.949328 0.444840
O O21 0.500000 0.000000 0.414865
#
# Coordination Sequence:
#
# PCOD8183754 Si02
#       8
#     8   8   8   8   8   8   8   8
#     4   9  20  37  59  85 118 156 195 243 296 350
#     4  11  21  34  57  88 118 153 196 238 289 353
#     4  11  22  36  58  89 120 157 199 241 290 355
#     4  10  23  41  61  87 117 154 200 247 300 352
#     4  10  20  36  56  84 122 159 193 236 293 349
#     4  11  23  38  58  85 120 158 196 243 298 350
#     4   9  20  41  62  84 118 156 195 246 303 352
#     4  11  24  41  61  84 116 159 199 246 300 353
#
# _framework density 19.434799000000002
#
# number of rings (size 3 to 8) (size 9 to 14) (size 15 to 20)
#    0.000    1.750    1.250    3.750    1.750    6.500 
#    0.000    0.625    0.000    3.000    0.000    0.000 
#    0.000    0.000    0.000    0.000    0.000    0.000 
#
# Total GULP energy -396911.581058 kJ/mol
# GULP energy per Si atom -12403.486908 kJ/mol
# Density = 1.939056 g / cm^3
# Si number density = 19.434799 Si / 1000 Ang^3
#
#
#
# Elastic Constant Matrix: (Units=GPa)
#
#
# Indices 1 2 3 4 5 6 
#
# 1 57.6892 46.7836 45.6389 0.0000 0.0000 0.0000
# 2 46.7836 133.3664 68.5174 0.0000 0.0000 0.0000
# 3 45.6389 68.5174 109.0583 0.0000 0.0000 0.0000
# 4 0.0000 0.0000 0.0000 26.5256 0.0000 0.0000
# 5 0.0000 0.0000 0.0000 0.0000 26.9617 0.0000
# 6 0.0000 0.0000 0.0000 0.0000 0.0000 32.6138
#
#
#
# Elastic Compliance Matrix: (Units=1/GPa)
#
#
# Indices 1 2 3 4 5 6 
#
# 1 0.028605 -0.005736 -0.008367 0.000000 0.000000 0.000000
# 2 -0.005736 0.012222 -0.005278 0.000000 0.000000 0.000000
# 3 -0.008367 -0.005278 0.015987 0.000000 0.000000 0.000000
# 4 0.000000 0.000000 0.000000 0.037699 0.000000 0.000000
# 5 0.000000 0.000000 0.000000 0.000000 0.037090 0.000000
# 6 0.000000 0.000000 0.000000 0.000000 0.000000 0.030662
#
#
# Mechanical properties :
#
#
# Convention : Reuss Voigt Hill
#
# Bulk Modulus (GPa) = 55.39632 69.11041 62.25337
# Shear Modulus (GPa) = 24.14938 26.49849 25.32394
#
# Velocity S-wave (km/s) = 3.52886 3.69651 3.61365
# Velocity P-wave (km/s) = 6.72081 7.33868 7.03653
#
# Compressibility (1/GPa) = 0.01805174
#
# Stress axis : x y z
#
# Youngs Moduli (GPa) = 34.95877 81.82027 62.55055
#
# Poissons Ratio (x) = 0.46930 0.52337
# Poissons Ratio (y) = 0.20051 0.33016
# Poissons Ratio (z) = 0.29251 0.43187
#
# Static dielectric constant tensor:
#      x y z
#    x 3.492990 0.000000 0.000000 
#    y 0.000000 3.755410 0.000000 
#    z 0.000000 0.000000 3.563720 
# 
# 
# High freq. dielectric constant tensor:
#      x y z
#    x 1.759020 0.000000 0.000000 
#    y 0.000000 1.749940 0.000000 
#    z 0.000000 0.000000 1.758520 
# 
# From -- ./inp_files/15676.got.cif
#   From: 2010.03.12/outbox.cif.g09.slc.cpg/sg40_8_cif.got.tgz:15676.got - 2010.04.14 01:38:03.
