data_PCOD8183645
_publ_section_title
;
Structure prediction by ZEFSAII (Michael W. Deem and Ramdas Pophale) SiO2 
 PCOD8183645
Probable space group: A M A 2
;
_chemical_formula_sum "Si O2"
_cell_formula_units_Z 64
_cell_length_a 8.731007
_cell_length_b 19.983044
_cell_length_c 20.023255
_cell_angle_alpha 90.000000
_cell_angle_beta 90.000000
_cell_angle_gamma 90.000000
_cell_volume 3493.499290
_symmetry_space_group_name_H-M "A M A 2"
_symmetry_group_IT_number 40
_symmetry_cell_setting 'orthorhombic'
loop_
_space_group_symop_operation_xyz
x,y,z
-x,-y,z
1/2-x,y,z
1/2+x,-y,z
x,1/2+y,1/2+z
-x,1/2-y,1/2+z
1/2-x,1/2+y,1/2+z
1/2+x,1/2-y,1/2+z
loop_
_atom_site_type_symbol
_atom_site_label
_atom_site_fract_x
_atom_site_fract_y
_atom_site_fract_z
Si Si1 0.430013 0.177303 0.329400
Si Si2 0.931825 0.570916 0.577978
Si Si3 0.068482 0.070709 0.936713
Si Si4 0.430402 0.929269 0.580346
Si Si5 0.926887 0.827670 0.679974
Si Si6 0.427744 0.681685 0.332161
Si Si7 0.067783 0.071417 0.438771
Si Si8 0.929199 0.175720 0.188662
O O1 0.250000 0.176110 0.326218
O O2 0.482563 0.251149 0.349992
O O3 0.489638 0.125264 0.384773
O O4 0.491529 0.155099 0.257470
O O5 0.750000 0.565454 0.572326
O O6 0.985261 0.625532 0.631552
O O7 0.000000 0.500000 0.600586
O O8 0.999914 0.593648 0.507289
O O9 0.250000 0.064461 0.942646
O O10 0.016325 0.124335 0.882052
O O11 0.000000 0.000000 0.914071
O O12 0.250000 0.937434 0.571242
O O13 0.464883 0.874005 0.635944
O O14 0.504064 0.906044 0.510620
O O15 0.500000 0.000000 0.603788
O O16 0.750000 0.841557 0.661871
O O17 0.960834 0.843688 0.757354
O O18 0.971918 0.750681 0.665825
O O19 0.250000 0.698450 0.340944
O O20 0.250000 0.066694 0.442644
O O21 0.000000 0.000000 0.417510
O O22 0.750000 0.170513 0.201930
#
# Coordination Sequence:
#
# PCOD8183645 Si02
#       8
#     8   8   8   8   8   8   8   8
#     4  10  21  35  55  81 107 135 173 217 260 307
#     4  10  20  35  54  78 106 140 177 215 260 309
#     4  10  20  35  54  78 106 138 175 217 260 307
#     4  11  22  36  55  79 105 137 174 215 260 310
#     4   9  18  36  56  76 105 138 171 213 260 310
#     4   9  20  37  56  78 107 140 174 212 260 311
#     4  10  21  37  55  78 106 138 174 215 260 309
#     4   9  20  37  56  76 105 142 176 212 260 311
#
# _framework density 18.319739999999999
#
# number of rings (size 3 to 8) (size 9 to 14) (size 15 to 20)
#    0.000    2.250    0.000    4.875    0.000    8.000 
#    0.000    7.500    0.000    0.000    0.000    0.000 
#    0.000    0.000    0.000    0.000    0.000    0.000 
#
# Total GULP energy -396882.572102 kJ/mol
# GULP energy per Si atom -12402.580378 kJ/mol
# Density = 1.827804 g / cm^3
# Si number density = 18.319740 Si / 1000 Ang^3
#
#
#
# Elastic Constant Matrix: (Units=GPa)
#
#
# Indices 1 2 3 4 5 6 
#
# 1 76.0943 43.1694 46.9695 0.0000 0.0000 0.0000
# 2 43.1694 123.5308 106.7092 0.0000 0.0000 0.0000
# 3 46.9695 106.7092 134.8979 0.0000 0.0000 0.0000
# 4 0.0000 0.0000 0.0000 45.4585 0.0000 0.0000
# 5 0.0000 0.0000 0.0000 0.0000 7.2111 0.0000
# 6 0.0000 0.0000 0.0000 0.0000 0.0000 25.6603
#
#
#
# Elastic Compliance Matrix: (Units=1/GPa)
#
#
# Indices 1 2 3 4 5 6 
#
# 1 0.017002 -0.002614 -0.003852 0.000000 0.000000 0.000000
# 2 -0.002614 0.025964 -0.019629 0.000000 0.000000 0.000000
# 3 -0.003852 -0.019629 0.024281 0.000000 0.000000 0.000000
# 4 0.000000 0.000000 0.000000 0.021998 0.000000 0.000000
# 5 0.000000 0.000000 0.000000 0.000000 0.138675 0.000000
# 6 0.000000 0.000000 0.000000 0.000000 0.000000 0.038971
#
#
# Mechanical properties :
#
#
# Convention : Reuss Voigt Hill
#
# Bulk Modulus (GPa) = 66.40860 80.91324 73.66092
# Shear Modulus (GPa) = 15.42731 24.84431 20.13581
#
# Velocity S-wave (km/s) = 2.90507 3.68659 3.31891
# Velocity P-wave (km/s) = 6.89790 7.89838 7.41503
#
# Compressibility (1/GPa) = 0.01505829
#
# Stress axis : x y z
#
# Youngs Moduli (GPa) = 58.81542 38.51428 41.18415
#
# Poissons Ratio (x) = 0.10068 0.15864
# Poissons Ratio (y) = 0.15375 0.80839
# Poissons Ratio (z) = 0.22656 0.75598
#
# Static dielectric constant tensor:
#      x y z
#    x 3.364480 0.000000 0.000000 
#    y 0.000000 3.511670 0.000000 
#    z 0.000000 0.000000 3.491780 
# 
# 
# High freq. dielectric constant tensor:
#      x y z
#    x 1.716850 0.000000 0.000000 
#    y 0.000000 1.713180 0.000000 
#    z 0.000000 0.000000 1.714280 
# 
# From -- ./inp_files/19602.got.cif
#   From: 2010.03.12/outbox.cif.g09.slc.cpg/sg40_10_cif.got.tgz:19602.got - 2010.04.14 01:38:03.
