data_PCOD8183226
_publ_section_title
;
Structure prediction by ZEFSAII (Michael W. Deem and Ramdas Pophale) SiO2 
 PCOD8183226
Probable space group: A M A 2
;
_chemical_formula_sum "Si O2"
_cell_formula_units_Z 48
_cell_length_a 14.586921
_cell_length_b 16.669275
_cell_length_c 9.517393
_cell_angle_alpha 90.000000
_cell_angle_beta 90.000000
_cell_angle_gamma 90.000000
_cell_volume 2314.186444
_symmetry_space_group_name_H-M "A M A 2"
_symmetry_group_IT_number 40
_symmetry_cell_setting 'orthorhombic'
loop_
_space_group_symop_operation_xyz
x,y,z
-x,-y,z
1/2-x,y,z
1/2+x,-y,z
x,1/2+y,1/2+z
-x,1/2-y,1/2+z
1/2-x,1/2+y,1/2+z
1/2+x,1/2-y,1/2+z
loop_
_atom_site_type_symbol
_atom_site_label
_atom_site_fract_x
_atom_site_fract_y
_atom_site_fract_z
Si Si1 0.071250 0.337088 0.702310
Si Si2 0.070069 0.572399 0.546633
Si Si3 0.851254 0.506146 0.798173
Si Si4 0.856316 0.370762 0.008483
Si Si5 0.352232 0.303355 0.412932
Si Si6 0.457047 0.664077 0.287241
O O1 0.088620 0.413537 0.802010
O O2 0.145345 0.331442 0.576064
O O3 0.071423 0.257549 0.797710
O O4 0.973779 0.351608 0.628299
O O5 0.149998 0.536395 0.643986
O O6 0.101679 0.610673 0.398382
O O7 0.000000 0.500000 0.517356
O O8 0.750000 0.532655 0.836493
O O9 0.888809 0.445598 0.915237
O O10 0.750000 0.378281 0.059405
O O11 0.929010 0.368579 0.135267
O O12 0.867076 0.292370 0.911170
O O13 0.250000 0.325658 0.354565
O O14 0.433016 0.344706 0.319466
#
# Coordination Sequence:
#
# PCOD8183226 Si02
#       6
#     8   8   8   8   8   8
#     4   9  18  33  55  82 110 146 190 233 279 335
#     4   9  19  35  53  80 110 144 189 230 276 336
#     4  10  19  34  56  81 110 150 193 232 277 340
#     4   9  19  34  54  82 117 150 183 231 293 343
#     4   9  17  32  55  83 113 149 189 232 283 342
#     4  10  19  34  57  86 115 149 190 238 289 336
#
# _framework density 20.741629
#
# number of rings (size 3 to 8) (size 9 to 14) (size 15 to 20)
#    0.000    2.667    0.000    1.500    0.000    1.333 
#    0.000    7.500    0.000    6.000    0.000   42.000 
#    0.000    0.000    0.000    0.000    0.000    0.000 
#
# Total GULP energy -297363.574522 kJ/mol
# GULP energy per Si atom -12390.148938 kJ/mol
# Density = 2.069442 g / cm^3
# Si number density = 20.741629 Si / 1000 Ang^3
#
#
#
# Elastic Constant Matrix: (Units=GPa)
#
#
# Indices 1 2 3 4 5 6 
#
# 1 77.4550 11.2400 41.0540 0.0000 0.0000 0.0000
# 2 11.2400 108.4667 49.8871 0.0000 0.0000 0.0000
# 3 41.0540 49.8871 85.0708 0.0000 0.0000 0.0000
# 4 0.0000 0.0000 0.0000 42.9930 0.0000 0.0000
# 5 0.0000 0.0000 0.0000 0.0000 29.4801 0.0000
# 6 0.0000 0.0000 0.0000 0.0000 0.0000 16.7672
#
#
#
# Elastic Compliance Matrix: (Units=1/GPa)
#
#
# Indices 1 2 3 4 5 6 
#
# 1 0.017997 0.002916 -0.010395 0.000000 0.000000 0.000000
# 2 0.002916 0.013097 -0.009088 0.000000 0.000000 0.000000
# 3 -0.010395 -0.009088 0.022101 0.000000 0.000000 0.000000
# 4 0.000000 0.000000 0.000000 0.023260 0.000000 0.000000
# 5 0.000000 0.000000 0.000000 0.000000 0.033921 0.000000
# 6 0.000000 0.000000 0.000000 0.000000 0.000000 0.059640
#
#
# Mechanical properties :
#
#
# Convention : Reuss Voigt Hill
#
# Bulk Modulus (GPa) = 49.84689 52.81720 51.33205
# Shear Modulus (GPa) = 23.82803 29.10216 26.46509
#
# Velocity S-wave (km/s) = 3.39308 3.74983 3.57591
# Velocity P-wave (km/s) = 6.27974 6.65342 6.46928
#
# Compressibility (1/GPa) = 0.02006143
#
# Stress axis : x y z
#
# Youngs Moduli (GPa) = 55.56329 76.35412 45.24738
#
# Poissons Ratio (x) = -0.22266 0.47037
# Poissons Ratio (y) = -0.16203 0.41119
# Poissons Ratio (z) = 0.57760 0.69387
#
# Static dielectric constant tensor:
#      x y z
#    x 3.605260 0.000000 0.000000 
#    y 0.000000 3.862540 0.000000 
#    z 0.000000 0.000000 3.616470 
# 
# 
# High freq. dielectric constant tensor:
#      x y z
#    x 1.792340 0.000000 0.000000 
#    y 0.000000 1.817190 0.000000 
#    z 0.000000 0.000000 1.786470 
# 
# From -- ./inp_files/6435.got.cif
#   From: 2010.03.12/outbox.cif.g09.slc.cpg/sg40_4_cif.got.tgz:6435.got - 2010.04.14 01:38:03.
