data_PCOD8183833
_publ_section_title
;
Structure prediction by ZEFSAII (Michael W. Deem and Ramdas Pophale) SiO2 
 PCOD8183833
Probable space group: A M A 2
;
_chemical_formula_sum "Si O2"
_cell_formula_units_Z 48
_cell_length_a 13.542191
_cell_length_b 25.210241
_cell_length_c 6.822486
_cell_angle_alpha 90.000000
_cell_angle_beta 90.000000
_cell_angle_gamma 90.000000
_cell_volume 2329.209675
_symmetry_space_group_name_H-M "A M A 2"
_symmetry_group_IT_number 40
_symmetry_cell_setting 'orthorhombic'
loop_
_space_group_symop_operation_xyz
x,y,z
-x,-y,z
1/2-x,y,z
1/2+x,-y,z
x,1/2+y,1/2+z
-x,1/2-y,1/2+z
1/2-x,1/2+y,1/2+z
1/2+x,1/2-y,1/2+z
loop_
_atom_site_type_symbol
_atom_site_label
_atom_site_fract_x
_atom_site_fract_y
_atom_site_fract_z
Si Si1 0.520139 0.188914 0.168850
Si Si2 0.634040 0.544583 0.194189
Si Si3 0.969480 0.569504 0.581863
Si Si4 0.858878 0.156585 0.531366
Si Si5 0.638574 0.992882 0.305437
Si Si6 0.139218 0.755943 0.846313
O O1 0.518456 0.132399 0.057658
O O2 0.569435 0.183945 0.378954
O O3 0.409962 0.209992 0.212735
O O4 0.578153 0.233161 0.044558
O O5 0.750000 0.545604 0.260906
O O6 0.558335 0.541061 0.375875
O O7 0.605309 0.597974 0.081207
O O8 0.616965 0.495476 0.040880
O O9 0.879097 0.553104 0.725434
O O10 0.068871 0.546341 0.681863
O O11 0.750000 0.155836 0.437456
O O12 0.858817 0.189052 0.731998
O O13 0.750000 0.974539 0.266814
O O14 0.250000 0.737032 0.899422
#
# Coordination Sequence:
#
# PCOD8183833 Si02
#       6
#     8   8   8   8   8   8
#     4  12  22  40  64  93 131 170 216 267 323 386
#     4  10  20  38  65  94 124 162 216 271 320 376
#     4  11  23  37  65  95 123 167 214 267 318 383
#     4  10  20  36  62  91 120 159 212 266 315 371
#     4  10  23  41  60  91 129 168 211 263 323 387
#     4  11  24  39  61  95 130 168 215 268 322 385
#
# _framework density 20.607847
#
# number of rings (size 3 to 8) (size 9 to 14) (size 15 to 20)
#    0.000    1.333    5.000    1.000    0.000    4.667 
#    0.000    0.000    0.000    2.000    0.000    0.000 
#    0.000    0.000    0.000    0.000    0.000    0.000 
#
# Total GULP energy -297404.355880 kJ/mol
# GULP energy per Si atom -12391.848162 kJ/mol
# Density = 2.056094 g / cm^3
# Si number density = 20.607847 Si / 1000 Ang^3
#
#
#
# Elastic Constant Matrix: (Units=GPa)
#
#
# Indices 1 2 3 4 5 6 
#
# 1 130.6882 33.3373 66.8849 0.0000 0.0000 0.0000
# 2 33.3373 60.5501 24.6382 0.0000 0.0000 0.0000
# 3 66.8849 24.6382 111.7627 0.0000 0.0000 0.0000
# 4 0.0000 0.0000 0.0000 32.6469 0.0000 0.0000
# 5 0.0000 0.0000 0.0000 0.0000 32.9879 0.0000
# 6 0.0000 0.0000 0.0000 0.0000 0.0000 29.3889
#
#
#
# Elastic Compliance Matrix: (Units=1/GPa)
#
#
# Indices 1 2 3 4 5 6 
#
# 1 0.011850 -0.003997 -0.006210 0.000000 0.000000 0.000000
# 2 -0.003997 0.019491 -0.001905 0.000000 0.000000 0.000000
# 3 -0.006210 -0.001905 0.013084 0.000000 0.000000 0.000000
# 4 0.000000 0.000000 0.000000 0.030631 0.000000 0.000000
# 5 0.000000 0.000000 0.000000 0.000000 0.030314 0.000000
# 6 0.000000 0.000000 0.000000 0.000000 0.000000 0.034026
#
#
# Mechanical properties :
#
#
# Convention : Reuss Voigt Hill
#
# Bulk Modulus (GPa) = 49.50401 61.41353 55.45877
# Shear Modulus (GPa) = 29.35057 30.88077 30.11567
#
# Velocity S-wave (km/s) = 3.77801 3.87524 3.82693
# Velocity P-wave (km/s) = 6.56545 7.06322 6.81888
#
# Compressibility (1/GPa) = 0.02020038
#
# Stress axis : x y z
#
# Youngs Moduli (GPa) = 84.38908 51.30570 76.42876
#
# Poissons Ratio (x) = 0.20508 0.47466
# Poissons Ratio (y) = 0.33732 0.14557
# Poissons Ratio (z) = 0.52409 0.09772
#
# Static dielectric constant tensor:
#      x y z
#    x 3.780970 0.000000 0.000000 
#    y 0.000000 3.513660 0.000000 
#    z 0.000000 0.000000 3.864790 
# 
# 
# High freq. dielectric constant tensor:
#      x y z
#    x 1.803990 0.000000 0.000000 
#    y 0.000000 1.784240 0.000000 
#    z 0.000000 0.000000 1.816730 
# 
# From -- ./inp_files/1330.got.cif
#   From: 2010.03.12/outbox.cif.g09.slc.cpg/sg40_1_cif.got.tgz:1330.got - 2010.04.14 01:38:03.
