data_PCOD8183803
_publ_section_title
;
Structure prediction by ZEFSAII (Michael W. Deem and Ramdas Pophale) SiO2 
 PCOD8183803
Probable space group: A M A 2
;
_chemical_formula_sum "Si O2"
_cell_formula_units_Z 64
_cell_length_a 18.561189
_cell_length_b 15.565316
_cell_length_c 11.906101
_cell_angle_alpha 90.000000
_cell_angle_beta 90.000000
_cell_angle_gamma 90.000000
_cell_volume 3439.800833
_symmetry_space_group_name_H-M "A M A 2"
_symmetry_group_IT_number 40
_symmetry_cell_setting 'orthorhombic'
loop_
_space_group_symop_operation_xyz
x,y,z
-x,-y,z
1/2-x,y,z
1/2+x,-y,z
x,1/2+y,1/2+z
-x,1/2-y,1/2+z
1/2-x,1/2+y,1/2+z
1/2+x,1/2-y,1/2+z
loop_
_atom_site_type_symbol
_atom_site_label
_atom_site_fract_x
_atom_site_fract_y
_atom_site_fract_z
Si Si1 0.420695 0.721429 0.031950
Si Si2 0.666804 0.358683 0.429553
Si Si3 0.557868 0.120129 0.177309
Si Si4 0.166864 0.133309 0.358051
Si Si5 0.831311 0.403355 0.181161
Si Si6 0.831264 0.533007 0.001145
Si Si7 0.897508 0.436128 0.643145
Si Si8 0.926699 0.187767 0.426939
O O1 0.410938 0.816076 0.083208
O O2 0.391342 0.656948 0.126277
O O3 0.375123 0.712050 0.917114
O O4 0.503445 0.702225 0.003088
O O5 0.750000 0.335129 0.449393
O O6 0.654963 0.409021 0.313289
O O7 0.639075 0.424543 0.522887
O O8 0.622334 0.271294 0.429503
O O9 0.479343 0.093078 0.137680
O O10 0.553877 0.163896 0.299246
O O11 0.608881 0.036035 0.179849
O O12 0.250000 0.154998 0.368652
O O13 0.144886 0.125184 0.228990
O O14 0.145628 0.045074 0.420078
O O15 0.750000 0.367613 0.155459
O O16 0.837663 0.499034 0.129273
O O17 0.750000 0.563012 0.973047
O O18 0.884758 0.610921 0.985915
#
# Coordination Sequence:
#
# PCOD8183803 Si02
#       8
#     8   8   8   8   8   8   8   8
#     4  11  21  37  61  89 120 152 200 248 303 353
#     4  11  23  40  59  85 122 165 196 237 304 364
#     4  11  23  39  60  90 123 154 201 252 301 360
#     4  10  20  36  59  88 121 154 196 252 305 349
#     4   9  20  38  59  83 120 157 195 245 299 356
#     4   9  19  36  58  90 117 146 196 249 291 347
#     4  11  22  40  60  86 123 161 197 250 302 365
#     4  12  21  37  63  89 119 154 201 248 297 356
#
# _framework density 18.605729
#
# number of rings (size 3 to 8) (size 9 to 14) (size 15 to 20)
#    0.000    1.500    5.000    1.875    0.000    2.000 
#    0.000    7.500    0.000    1.500    0.000    0.000 
#    0.000    0.000    0.000    0.000    0.000    0.000 
#
# Total GULP energy -396809.960934 kJ/mol
# GULP energy per Si atom -12400.311279 kJ/mol
# Density = 1.856338 g / cm^3
# Si number density = 18.605729 Si / 1000 Ang^3
#
#
#
# Elastic Constant Matrix: (Units=GPa)
#
#
# Indices 1 2 3 4 5 6 
#
# 1 88.6538 33.6137 46.7773 0.0000 0.0000 0.0000
# 2 33.6137 75.2635 41.1508 0.0000 0.0000 0.0000
# 3 46.7773 41.1508 127.6742 0.0000 0.0000 0.0000
# 4 0.0000 0.0000 0.0000 32.5659 0.0000 0.0000
# 5 0.0000 0.0000 0.0000 0.0000 31.9950 0.0000
# 6 0.0000 0.0000 0.0000 0.0000 0.0000 11.2541
#
#
#
# Elastic Compliance Matrix: (Units=1/GPa)
#
#
# Indices 1 2 3 4 5 6 
#
# 1 0.015158 -0.004532 -0.004093 0.000000 0.000000 0.000000
# 2 -0.004532 0.017484 -0.003975 0.000000 0.000000 0.000000
# 3 -0.004093 -0.003975 0.010613 0.000000 0.000000 0.000000
# 4 0.000000 0.000000 0.000000 0.030707 0.000000 0.000000
# 5 0.000000 0.000000 0.000000 0.000000 0.031255 0.000000
# 6 0.000000 0.000000 0.000000 0.000000 0.000000 0.088856
#
#
# Mechanical properties :
#
#
# Convention : Reuss Voigt Hill
#
# Bulk Modulus (GPa) = 55.38438 59.40831 57.39635
# Shear Modulus (GPa) = 22.19357 26.49965 24.34661
#
# Velocity S-wave (km/s) = 3.45749 3.77805 3.62132
# Velocity P-wave (km/s) = 6.76543 7.14360 6.95708
#
# Compressibility (1/GPa) = 0.01805563
#
# Stress axis : x y z
#
# Youngs Moduli (GPa) = 65.97337 57.19541 94.22317
#
# Poissons Ratio (x) = 0.25920 0.38564
# Poissons Ratio (y) = 0.29898 0.37453
# Poissons Ratio (z) = 0.27002 0.22734
#
# Static dielectric constant tensor:
#      x y z
#    x 3.489740 0.000000 0.000000 
#    y 0.000000 3.384500 0.000000 
#    z 0.000000 0.000000 3.583770 
# 
# 
# High freq. dielectric constant tensor:
#      x y z
#    x 1.730180 0.000000 0.000000 
#    y 0.000000 1.704810 0.000000 
#    z 0.000000 0.000000 1.730060 
# 
# From -- ./inp_files/13099.got.cif
#   From: 2010.03.12/outbox.cif.g09.slc.cpg/sg40_7_cif.got.tgz:13099.got - 2010.04.14 01:38:03.
