data_PCOD8183251
_publ_section_title
;
Structure prediction by ZEFSAII (Michael W. Deem and Ramdas Pophale) SiO2 
 PCOD8183251
Probable space group: A M A 2
;
_chemical_formula_sum "Si O2"
_cell_formula_units_Z 64
_cell_length_a 8.916915
_cell_length_b 24.608017
_cell_length_c 14.950649
_cell_angle_alpha 90.000000
_cell_angle_beta 90.000000
_cell_angle_gamma 90.000000
_cell_volume 3280.584967
_symmetry_space_group_name_H-M "A M A 2"
_symmetry_group_IT_number 40
_symmetry_cell_setting 'orthorhombic'
loop_
_space_group_symop_operation_xyz
x,y,z
-x,-y,z
1/2-x,y,z
1/2+x,-y,z
x,1/2+y,1/2+z
-x,1/2-y,1/2+z
1/2-x,1/2+y,1/2+z
1/2+x,1/2-y,1/2+z
loop_
_atom_site_type_symbol
_atom_site_label
_atom_site_fract_x
_atom_site_fract_y
_atom_site_fract_z
Si Si1 0.076664 0.103468 0.799900
Si Si2 0.078239 0.866873 0.136072
Si Si3 0.921480 0.356239 0.009715
Si Si4 0.427186 0.058243 0.991278
Si Si5 0.423653 0.166815 0.305578
Si Si6 0.079984 0.265447 0.520470
Si Si7 0.422610 0.224115 0.841420
Si Si8 0.573797 0.056297 0.628790
O O1 0.250000 0.088239 0.784440
O O2 0.022457 0.084623 0.897566
O O3 0.051932 0.167982 0.788470
O O4 0.978377 0.072190 0.727798
O O5 0.250000 0.886302 0.135603
O O6 0.062784 0.804070 0.105857
O O7 0.013340 0.870894 0.236106
O O8 0.983821 0.904856 0.071714
O O9 0.750000 0.372963 0.029689
O O10 0.955742 0.296351 0.049436
O O11 0.030823 0.398222 0.056887
O O12 0.955007 0.356563 0.903996
O O13 0.250000 0.053089 0.997882
O O14 0.500000 0.000000 0.001378
O O15 0.250000 0.164991 0.280570
O O16 0.477058 0.229101 0.297895
O O17 0.250000 0.267420 0.481448
O O18 0.966788 0.285834 0.444486
O O19 0.250000 0.242281 0.837124
O O20 0.750000 0.048765 0.629486
O O21 0.500000 0.000000 0.598582
#
# Coordination Sequence:
#
# PCOD8183251 Si02
#       8
#     8   8   8   8   8   8   8   8
#     4  10  22  39  60  88 123 161 200 245 298 355
#     4  11  22  37  60  91 124 163 204 249 301 360
#     4   9  20  41  63  85 119 158 198 248 302 355
#     4  11  23  41  62  88 121 163 206 253 303 358
#     4  10  22  39  60  88 124 163 200 248 303 360
#     4   9  19  35  57  86 121 159 195 237 295 355
#     4  10  19  34  57  87 122 160 198 241 294 352
#     4  12  26  42  63  89 117 155 202 253 303 360
#
# _framework density 19.508716
#
# number of rings (size 3 to 8) (size 9 to 14) (size 15 to 20)
#    0.000    1.750    1.250    3.750    1.750    6.000 
#    0.000    0.625    0.000    3.000    0.000    0.000 
#    0.000    0.000    0.000    0.000    0.000    0.000 
#
# Total GULP energy -396925.093487 kJ/mol
# GULP energy per Si atom -12403.909171 kJ/mol
# Density = 1.946431 g / cm^3
# Si number density = 19.508716 Si / 1000 Ang^3
#
#
#
# Elastic Constant Matrix: (Units=GPa)
#
#
# Indices 1 2 3 4 5 6 
#
# 1 97.8013 50.7075 41.8461 0.0000 0.0000 0.0000
# 2 50.7075 105.5032 46.3284 0.0000 0.0000 0.0000
# 3 41.8461 46.3284 90.7376 0.0000 0.0000 0.0000
# 4 0.0000 0.0000 0.0000 20.2365 0.0000 0.0000
# 5 0.0000 0.0000 0.0000 0.0000 34.1070 0.0000
# 6 0.0000 0.0000 0.0000 0.0000 0.0000 31.9880
#
#
#
# Elastic Compliance Matrix: (Units=1/GPa)
#
#
# Indices 1 2 3 4 5 6 
#
# 1 0.014709 -0.005273 -0.004091 0.000000 0.000000 0.000000
# 2 -0.005273 0.014108 -0.004771 0.000000 0.000000 0.000000
# 3 -0.004091 -0.004771 0.015344 0.000000 0.000000 0.000000
# 4 0.000000 0.000000 0.000000 0.049416 0.000000 0.000000
# 5 0.000000 0.000000 0.000000 0.000000 0.029319 0.000000
# 6 0.000000 0.000000 0.000000 0.000000 0.000000 0.031262
#
#
# Mechanical properties :
#
#
# Convention : Reuss Voigt Hill
#
# Bulk Modulus (GPa) = 62.93448 63.53400 63.23424
# Shear Modulus (GPa) = 26.63458 27.61032 27.12245
#
# Velocity S-wave (km/s) = 3.69896 3.76610 3.73268
# Velocity P-wave (km/s) = 7.11145 7.17977 7.14569
#
# Compressibility (1/GPa) = 0.01588954
#
# Stress axis : x y z
#
# Youngs Moduli (GPa) = 67.98416 70.88201 65.17321
#
# Poissons Ratio (x) = 0.37377 0.26664
# Poissons Ratio (y) = 0.35849 0.31096
# Poissons Ratio (z) = 0.27814 0.33820
#
# Static dielectric constant tensor:
#      x y z
#    x 3.596250 0.000000 0.000000 
#    y 0.000000 3.701290 0.000000 
#    z 0.000000 0.000000 3.484270 
# 
# 
# High freq. dielectric constant tensor:
#      x y z
#    x 1.765530 0.000000 0.000000 
#    y 0.000000 1.755630 0.000000 
#    z 0.000000 0.000000 1.757080 
# 
# From -- ./inp_files/15559.got.cif
#   From: 2010.03.12/outbox.cif.g09.slc.cpg/sg40_8_cif.got.tgz:15559.got - 2010.04.14 01:38:03.
