data_PCOD8183270
_publ_section_title
;
Structure prediction by ZEFSAII (Michael W. Deem and Ramdas Pophale) SiO2 
 PCOD8183270
Probable space group: A M A 2
;
_chemical_formula_sum "Si O2"
_cell_formula_units_Z 64
_cell_length_a 17.551962
_cell_length_b 11.861287
_cell_length_c 16.260767
_cell_angle_alpha 90.000000
_cell_angle_beta 90.000000
_cell_angle_gamma 90.000000
_cell_volume 3385.310523
_symmetry_space_group_name_H-M "A M A 2"
_symmetry_group_IT_number 40
_symmetry_cell_setting 'orthorhombic'
loop_
_space_group_symop_operation_xyz
x,y,z
-x,-y,z
1/2-x,y,z
1/2+x,-y,z
x,1/2+y,1/2+z
-x,1/2-y,1/2+z
1/2-x,1/2+y,1/2+z
1/2+x,1/2-y,1/2+z
loop_
_atom_site_type_symbol
_atom_site_label
_atom_site_fract_x
_atom_site_fract_y
_atom_site_fract_z
Si Si1 0.415762 0.450579 0.294570
Si Si2 0.913784 0.478141 0.618898
Si Si3 0.159717 0.679756 0.026503
Si Si4 0.160315 0.422828 0.467575
Si Si5 0.338436 0.541480 0.874450
Si Si6 0.660637 0.352074 0.209085
Si Si7 0.085188 0.193979 0.250381
Si Si8 0.414920 0.863567 0.270525
O O1 0.500000 0.500000 0.289622
O O2 0.387665 0.453939 0.387748
O O3 0.357506 0.524280 0.241687
O O4 0.413428 0.328133 0.252706
O O5 0.858453 0.489205 0.540613
O O6 0.902532 0.352438 0.657201
O O7 0.890489 0.568778 0.688688
O O8 0.000000 0.500000 0.589515
O O9 0.250000 0.682122 0.029380
O O10 0.126544 0.656569 0.116945
O O11 0.130562 0.800668 0.995690
O O12 0.132350 0.582250 0.964028
O O13 0.250000 0.426505 0.447891
O O14 0.250000 0.511297 0.875857
O O15 0.350546 0.644415 0.810571
O O16 0.383611 0.428706 0.850276
O O17 0.750000 0.329169 0.210556
O O18 0.620419 0.260752 0.267515
O O19 0.005235 0.143029 0.281645
#
# Coordination Sequence:
#
# PCOD8183270 Si02
#       8
#     8   8   8   8   8   8   8   8
#     4  12  24  40  59  84 121 163 199 242 302 362
#     4   9  19  35  60  88 115 147 195 249 294 343
#     4   9  19  35  57  85 117 150 191 238 289 350
#     4  11  21  37  60  88 118 154 199 244 292 355
#     4  10  19  34  60  90 117 149 193 246 295 345
#     4  11  22  38  60  86 116 156 199 244 295 357
#     4  10  21  38  59  86 123 153 198 246 299 352
#     4  10  19  36  60  87 118 152 196 246 294 352
#
# _framework density 18.905207000000001
#
# number of rings (size 3 to 8) (size 9 to 14) (size 15 to 20)
#    0.000    1.750    3.750    2.250    0.000    2.500 
#    0.000    2.500    2.750    1.500    0.000    0.000 
#    0.000    0.000    0.000    0.000    0.000    0.000 
#
# Total GULP energy -396860.309397 kJ/mol
# GULP energy per Si atom -12401.884669 kJ/mol
# Density = 1.886218 g / cm^3
# Si number density = 18.905207 Si / 1000 Ang^3
#
#
#
# Elastic Constant Matrix: (Units=GPa)
#
#
# Indices 1 2 3 4 5 6 
#
# 1 38.1426 15.6868 18.6642 0.0000 0.0000 0.0000
# 2 15.6868 121.9657 49.9255 0.0000 0.0000 0.0000
# 3 18.6642 49.9255 96.5474 0.0000 0.0000 0.0000
# 4 0.0000 0.0000 0.0000 32.2814 0.0000 0.0000
# 5 0.0000 0.0000 0.0000 0.0000 26.5700 0.0000
# 6 0.0000 0.0000 0.0000 0.0000 0.0000 29.0752
#
#
#
# Elastic Compliance Matrix: (Units=1/GPa)
#
#
# Indices 1 2 3 4 5 6 
#
# 1 0.029278 -0.001838 -0.004710 0.000000 0.000000 0.000000
# 2 -0.001838 0.010516 -0.005083 0.000000 0.000000 0.000000
# 3 -0.004710 -0.005083 0.013896 0.000000 0.000000 0.000000
# 4 0.000000 0.000000 0.000000 0.030978 0.000000 0.000000
# 5 0.000000 0.000000 0.000000 0.000000 0.037636 0.000000
# 6 0.000000 0.000000 0.000000 0.000000 0.000000 0.034394
#
#
# Mechanical properties :
#
#
# Convention : Reuss Voigt Hill
#
# Bulk Modulus (GPa) = 32.86220 47.24542 40.05381
# Shear Modulus (GPa) = 26.30184 29.07726 27.68955
#
# Velocity S-wave (km/s) = 3.73399 3.92606 3.83123
# Velocity P-wave (km/s) = 6.00088 6.75255 6.38778
#
# Compressibility (1/GPa) = 0.03043010
#
# Stress axis : x y z
#
# Youngs Moduli (GPa) = 34.15559 95.09409 71.96164
#
# Poissons Ratio (x) = 0.17476 0.33891
# Poissons Ratio (y) = 0.06277 0.36575
# Poissons Ratio (z) = 0.16086 0.48332
#
# Static dielectric constant tensor:
#      x y z
#    x 3.338120 0.000000 0.000000 
#    y 0.000000 3.496300 0.000000 
#    z 0.000000 0.000000 3.501030 
# 
# 
# High freq. dielectric constant tensor:
#      x y z
#    x 1.728950 0.000000 0.000000 
#    y 0.000000 1.731210 0.000000 
#    z 0.000000 0.000000 1.727380 
# 
# From -- ./inp_files/17881.got.cif
#   From: 2010.03.12/outbox.cif.g09.slc.cpg/sg40_9_cif.got.tgz:17881.got - 2010.04.14 01:38:03.
