data_PCOD8183670
_publ_section_title
;
Structure prediction by ZEFSAII (Michael W. Deem and Ramdas Pophale) SiO2 
 PCOD8183670
Probable space group: A M A 2
;
_chemical_formula_sum "Si O2"
_cell_formula_units_Z 48
_cell_length_a 8.789209
_cell_length_b 18.707612
_cell_length_c 15.075836
_cell_angle_alpha 90.000000
_cell_angle_beta 90.000000
_cell_angle_gamma 90.000000
_cell_volume 2478.846019
_symmetry_space_group_name_H-M "A M A 2"
_symmetry_group_IT_number 40
_symmetry_cell_setting 'orthorhombic'
loop_
_space_group_symop_operation_xyz
x,y,z
-x,-y,z
1/2-x,y,z
1/2+x,-y,z
x,1/2+y,1/2+z
-x,1/2-y,1/2+z
1/2-x,1/2+y,1/2+z
1/2+x,1/2-y,1/2+z
loop_
_atom_site_type_symbol
_atom_site_label
_atom_site_fract_x
_atom_site_fract_y
_atom_site_fract_z
Si Si1 0.429673 0.925247 0.428000
Si Si2 0.071539 0.305502 0.066896
Si Si3 0.072237 0.343780 0.579869
Si Si4 0.928255 0.075803 0.903555
Si Si5 0.430327 0.649897 0.765114
Si Si6 0.071550 0.310028 0.266718
O O1 0.250000 0.932525 0.424474
O O2 0.482338 0.866069 0.498883
O O3 0.491096 0.905243 0.331235
O O4 0.500000 0.000000 0.458935
O O5 0.250000 0.288215 0.058431
O O6 0.031898 0.332455 0.166056
O O7 0.979209 0.233861 0.045136
O O8 0.250000 0.341313 0.602627
O O9 0.034571 0.400482 0.503294
O O10 0.978650 0.369757 0.665255
O O11 0.750000 0.069883 0.887080
O O12 0.001296 0.133171 0.834679
O O13 0.000000 0.000000 0.882793
O O14 0.250000 0.642921 0.773389
O O15 0.490339 0.730099 0.786337
O O16 0.250000 0.307670 0.282103
#
# Coordination Sequence:
#
# PCOD8183670 Si02
#       6
#     8   8   8   8   8   8
#     4  11  23  37  54  80 113 147 184 226 275 332
#     4   9  19  36  58  82 109 142 181 224 269 321
#     4  10  20  35  56  82 110 141 182 227 270 322
#     4  10  21  35  52  76 108 143 176 213 260 315
#     4  10  20  37  60  81 105 140 181 228 280 328
#     4   8  16  34  57  79 104 137 175 216 265 316
#
# _framework density 19.363849999999999
#
# number of rings (size 3 to 8) (size 9 to 14) (size 15 to 20)
#    0.000    2.333    0.000    3.500    0.000    5.333 
#    0.000    5.833    0.000    0.000    0.000    0.000 
#    0.000    0.000    0.000    0.000    0.000    0.000 
#
# Total GULP energy -297642.432742 kJ/mol
# GULP energy per Si atom -12401.768031 kJ/mol
# Density = 1.931978 g / cm^3
# Si number density = 19.363850 Si / 1000 Ang^3
#
#
#
# Elastic Constant Matrix: (Units=GPa)
#
#
# Indices 1 2 3 4 5 6 
#
# 1 45.6790 15.2086 18.1666 0.0000 0.0000 0.0000
# 2 15.2086 58.8249 18.6875 0.0000 0.0000 0.0000
# 3 18.1666 18.6875 60.4191 0.0000 0.0000 0.0000
# 4 0.0000 0.0000 0.0000 23.3817 0.0000 0.0000
# 5 0.0000 0.0000 0.0000 0.0000 23.9773 0.0000
# 6 0.0000 0.0000 0.0000 0.0000 0.0000 33.4214
#
#
#
# Elastic Compliance Matrix: (Units=1/GPa)
#
#
# Indices 1 2 3 4 5 6 
#
# 1 0.025985 -0.004698 -0.006360 0.000000 0.000000 0.000000
# 2 -0.004698 0.019701 -0.004681 0.000000 0.000000 0.000000
# 3 -0.006360 -0.004681 0.019911 0.000000 0.000000 0.000000
# 4 0.000000 0.000000 0.000000 0.042768 0.000000 0.000000
# 5 0.000000 0.000000 0.000000 0.000000 0.041706 0.000000
# 6 0.000000 0.000000 0.000000 0.000000 0.000000 0.029921
#
#
# Mechanical properties :
#
#
# Convention : Reuss Voigt Hill
#
# Bulk Modulus (GPa) = 29.30838 29.89425 29.60132
# Shear Modulus (GPa) = 22.43713 23.68010 23.05862
#
# Velocity S-wave (km/s) = 3.40768 3.50080 3.45455
# Velocity P-wave (km/s) = 5.53638 5.64025 5.58856
#
# Compressibility (1/GPa) = 0.03411993
#
# Stress axis : x y z
#
# Youngs Moduli (GPa) = 38.48302 50.75823 50.22289
#
# Poissons Ratio (x) = 0.23845 0.31943
# Poissons Ratio (y) = 0.18079 0.23509
# Poissons Ratio (z) = 0.24476 0.23760
#
# Static dielectric constant tensor:
#      x y z
#    x 3.348120 0.000000 0.000000 
#    y 0.000000 3.639610 0.000000 
#    z 0.000000 0.000000 3.667630 
# 
# 
# High freq. dielectric constant tensor:
#      x y z
#    x 1.739780 0.000000 0.000000 
#    y 0.000000 1.750910 0.000000 
#    z 0.000000 0.000000 1.763790 
# 
# From -- ./inp_files/15038.got.cif
#   From: 2010.03.12/outbox.cif.g09.slc.cpg/sg40_8_cif.got.tgz:15038.got - 2010.04.14 01:38:03.
