data_PCOD8183744
_publ_section_title
;
Structure prediction by ZEFSAII (Michael W. Deem and Ramdas Pophale) SiO2 
 PCOD8183744
Probable space group: A M A 2
;
_chemical_formula_sum "Si O2"
_cell_formula_units_Z 64
_cell_length_a 8.741717
_cell_length_b 20.291663
_cell_length_c 19.377588
_cell_angle_alpha 90.000000
_cell_angle_beta 90.000000
_cell_angle_gamma 90.000000
_cell_volume 3437.273593
_symmetry_space_group_name_H-M "A M A 2"
_symmetry_group_IT_number 40
_symmetry_cell_setting 'orthorhombic'
loop_
_space_group_symop_operation_xyz
x,y,z
-x,-y,z
1/2-x,y,z
1/2+x,-y,z
x,1/2+y,1/2+z
-x,1/2-y,1/2+z
1/2-x,1/2+y,1/2+z
1/2+x,1/2-y,1/2+z
loop_
_atom_site_type_symbol
_atom_site_label
_atom_site_fract_x
_atom_site_fract_y
_atom_site_fract_z
Si Si1 0.069089 0.069542 0.959180
Si Si2 0.071552 0.432371 0.951262
Si Si3 0.426030 0.179522 0.361339
Si Si4 0.569193 0.069881 0.104974
Si Si5 0.571331 0.815288 0.698107
Si Si6 0.931031 0.068985 0.609180
Si Si7 0.927697 0.322578 0.700366
Si Si8 0.427011 0.184687 0.856994
O O1 0.250000 0.062653 0.966972
O O2 0.021468 0.122363 0.901804
O O3 0.000000 0.000000 0.935452
O O4 0.999514 0.092568 0.031864
O O5 0.250000 0.441427 0.945839
O O6 0.000000 0.500000 0.922926
O O7 0.022618 0.371924 0.904529
O O8 0.021009 0.418967 0.029907
O O9 0.250000 0.170088 0.380115
O O10 0.459008 0.167459 0.281074
O O11 0.475910 0.252921 0.382339
O O12 0.750000 0.063059 0.098492
O O13 0.526954 0.122929 0.162193
O O14 0.500000 0.000000 0.127889
O O15 0.750000 0.805481 0.683573
O O16 0.506451 0.873972 0.653187
O O17 0.483747 0.749044 0.676153
O O18 0.538595 0.832482 0.777707
O O19 0.750000 0.068789 0.619969
O O20 0.000000 0.000000 0.635392
O O21 0.750000 0.330362 0.681522
O O22 0.250000 0.201986 0.868502
#
# Coordination Sequence:
#
# PCOD8183744 Si02
#       8
#     8   8   8   8   8   8   8   8
#     4  10  20  36  56  79 109 143 178 221 267 317
#     4  10  21  37  57  79 108 142 178 220 266 316
#     4  10  21  36  57  82 108 139 178 221 266 316
#     4  11  22  37  57  81 108 141 179 222 268 318
#     4  10  20  36  57  82 110 142 180 223 268 318
#     4  10  21  37  56  80 109 144 182 223 269 318
#     4  10  21  38  57  80 109 142 179 221 267 318
#     4   9  20  37  56  79 109 143 179 219 267 317
#
# _framework density 18.619408
#
# number of rings (size 3 to 8) (size 9 to 14) (size 15 to 20)
#    0.000    2.000    0.000    4.125    0.000    6.500 
#    0.000    2.500    0.000    0.000    0.000    0.000 
#    0.000    0.000    0.000    0.000    0.000    0.000 
#
# Total GULP energy -396947.314566 kJ/mol
# GULP energy per Si atom -12404.603580 kJ/mol
# Density = 1.857703 g / cm^3
# Si number density = 18.619408 Si / 1000 Ang^3
#
#
#
# Elastic Constant Matrix: (Units=GPa)
#
#
# Indices 1 2 3 4 5 6 
#
# 1 84.1132 48.7301 38.9566 0.0000 0.0000 0.0000
# 2 48.7301 132.8106 72.8966 0.0000 0.0000 0.0000
# 3 38.9566 72.8966 72.8833 0.0000 0.0000 0.0000
# 4 0.0000 0.0000 0.0000 42.4890 0.0000 0.0000
# 5 0.0000 0.0000 0.0000 0.0000 4.6768 0.0000
# 6 0.0000 0.0000 0.0000 0.0000 0.0000 40.3357
#
#
#
# Elastic Compliance Matrix: (Units=1/GPa)
#
#
# Indices 1 2 3 4 5 6 
#
# 1 0.016208 -0.002643 -0.006020 0.000000 0.000000 0.000000
# 2 -0.002643 0.017125 -0.015716 0.000000 0.000000 0.000000
# 3 -0.006020 -0.015716 0.032657 0.000000 0.000000 0.000000
# 4 0.000000 0.000000 0.000000 0.023535 0.000000 0.000000
# 5 0.000000 0.000000 0.000000 0.000000 0.213821 0.000000
# 6 0.000000 0.000000 0.000000 0.000000 0.000000 0.024792
#
#
# Mechanical properties :
#
#
# Convention : Reuss Voigt Hill
#
# Bulk Modulus (GPa) = 58.02816 67.88596 62.95706
# Shear Modulus (GPa) = 13.06710 26.11523 19.59116
#
# Velocity S-wave (km/s) = 2.65202 3.74917 3.24727
# Velocity P-wave (km/s) = 6.37265 7.43509 6.92428
#
# Compressibility (1/GPa) = 0.01723301
#
# Stress axis : x y z
#
# Youngs Moduli (GPa) = 61.69835 58.39365 30.62125
#
# Poissons Ratio (x) = 0.15431 0.18434
# Poissons Ratio (y) = 0.16304 0.48124
# Poissons Ratio (z) = 0.37143 0.91770
#
# Static dielectric constant tensor:
#      x y z
#    x 3.745150 0.000000 0.000000 
#    y 0.000000 3.487640 0.000000 
#    z 0.000000 0.000000 3.415490 
# 
# 
# High freq. dielectric constant tensor:
#      x y z
#    x 1.739190 0.000000 0.000000 
#    y 0.000000 1.731520 0.000000 
#    z 0.000000 0.000000 1.718910 
# 
# From -- ./inp_files/19616.got.cif
#   From: 2010.03.12/outbox.cif.g09.slc.cpg/sg40_10_cif.got.tgz:19616.got - 2010.04.14 01:38:03.
