data_PCOD8183075
_publ_section_title
;
Structure prediction by ZEFSAII (Michael W. Deem and Ramdas Pophale) SiO2 
 PCOD8183075
Probable space group: A M A 2
;
_chemical_formula_sum "Si O2"
_cell_formula_units_Z 64
_cell_length_a 9.101949
_cell_length_b 18.453685
_cell_length_c 20.965288
_cell_angle_alpha 90.000000
_cell_angle_beta 90.000000
_cell_angle_gamma 90.000000
_cell_volume 3521.424111
_symmetry_space_group_name_H-M "A M A 2"
_symmetry_group_IT_number 40
_symmetry_cell_setting 'orthorhombic'
loop_
_space_group_symop_operation_xyz
x,y,z
-x,-y,z
1/2-x,y,z
1/2+x,-y,z
x,1/2+y,1/2+z
-x,1/2-y,1/2+z
1/2-x,1/2+y,1/2+z
1/2+x,1/2-y,1/2+z
loop_
_atom_site_type_symbol
_atom_site_label
_atom_site_fract_x
_atom_site_fract_y
_atom_site_fract_z
Si Si1 0.921895 0.930321 0.626080
Si Si2 0.586945 0.319973 0.882967
Si Si3 0.080132 0.073547 0.030130
Si Si4 0.920919 0.867751 0.169830
Si Si5 0.091212 0.060590 0.484273
Si Si6 0.425642 0.925463 0.291592
Si Si7 0.422193 0.730784 0.122945
Si Si8 0.078049 0.789199 0.985257
O O1 0.750000 0.942973 0.633058
O O2 0.979259 0.926074 0.553383
O O3 0.962328 0.849413 0.650825
O O4 0.000000 0.000000 0.660347
O O5 0.750000 0.313037 0.851065
O O6 0.601382 0.366369 0.946496
O O7 0.473156 0.355765 0.833953
O O8 0.532871 0.245474 0.916104
O O9 0.250000 0.065983 0.013222
O O10 0.054915 0.090114 0.104303
O O11 0.000000 0.000000 0.011321
O O12 0.012942 0.137080 0.987481
O O13 0.750000 0.865772 0.190083
O O14 0.016779 0.911854 0.220627
O O15 0.981231 0.786035 0.164531
O O16 0.250000 0.026023 0.494589
O O17 0.000000 0.000000 0.445543
O O18 0.250000 0.933472 0.293082
O O19 0.500000 0.000000 0.317060
O O20 0.250000 0.747088 0.133869
O O21 0.459423 0.739367 0.047380
O O22 0.250000 0.807211 0.985401
#
# Coordination Sequence:
#
# PCOD8183075 Si02
#       8
#     8   8   8   8   8   8   8   8
#     4   9  16  26  41  65  97 131 166 202 243 294
#     4  10  19  33  51  71 100 136 173 210 250 297
#     4  10  20  33  52  78 105 132 166 210 261 312
#     4  10  21  36  54  76 101 132 174 220 263 309
#     4   9  16  26  40  61  90 127 166 199 235 280
#     4  12  25  39  54  74 102 139 180 220 258 300
#     4   9  16  30  50  72 100 134 170 210 259 311
#     4   9  17  31  51  73 101 135 168 205 254 309
#
# _framework density 18.174464
#
# number of rings (size 3 to 8) (size 9 to 14) (size 15 to 20)
#    0.000    2.250    1.250    2.625    0.000    5.000 
#    0.000    0.000    0.000    0.000    0.000    0.875 
#    0.000    2.000    0.000    0.000    0.000    0.125 
#
# Total GULP energy -396490.067160 kJ/mol
# GULP energy per Si atom -12390.314599 kJ/mol
# Density = 1.813310 g / cm^3
# Si number density = 18.174464 Si / 1000 Ang^3
#
#
#
# Elastic Constant Matrix: (Units=GPa)
#
#
# Indices 1 2 3 4 5 6 
#
# 1 102.9265 61.4207 30.0869 0.0000 0.0000 0.0000
# 2 61.4207 126.8016 23.6716 0.0000 0.0000 0.0000
# 3 30.0869 23.6716 45.0953 0.0000 0.0000 0.0000
# 4 0.0000 0.0000 0.0000 19.0171 0.0000 0.0000
# 5 0.0000 0.0000 0.0000 0.0000 22.3879 0.0000
# 6 0.0000 0.0000 0.0000 0.0000 0.0000 33.0661
#
#
#
# Elastic Compliance Matrix: (Units=1/GPa)
#
#
# Indices 1 2 3 4 5 6 
#
# 1 0.015468 -0.006170 -0.007081 0.000000 0.000000 0.000000
# 2 -0.006170 0.011205 -0.001765 0.000000 0.000000 0.000000
# 3 -0.007081 -0.001765 0.027826 0.000000 0.000000 0.000000
# 4 0.000000 0.000000 0.000000 0.052584 0.000000 0.000000
# 5 0.000000 0.000000 0.000000 0.000000 0.044667 0.000000
# 6 0.000000 0.000000 0.000000 0.000000 0.000000 0.030242
#
#
# Mechanical properties :
#
#
# Convention : Reuss Voigt Hill
#
# Bulk Modulus (GPa) = 40.87280 56.13133 48.50207
# Shear Modulus (GPa) = 22.70881 25.53719 24.12300
#
# Velocity S-wave (km/s) = 3.53865 3.75255 3.64717
# Velocity P-wave (km/s) = 6.26370 7.05176 6.66938
#
# Compressibility (1/GPa) = 0.02446615
#
# Stress axis : x y z
#
# Youngs Moduli (GPa) = 64.65114 89.24861 35.93791
#
# Poissons Ratio (x) = 0.55070 0.25447
# Poissons Ratio (y) = 0.39893 0.06342
# Poissons Ratio (z) = 0.45778 0.15750
#
# Static dielectric constant tensor:
#      x y z
#    x 3.343680 0.000000 0.000000 
#    y 0.000000 3.586420 0.000000 
#    z 0.000000 0.000000 2.986230 
# 
# 
# High freq. dielectric constant tensor:
#      x y z
#    x 1.703420 0.000000 0.000000 
#    y 0.000000 1.708810 0.000000 
#    z 0.000000 0.000000 1.657220 
# 
# From -- ./inp_files/22418.got.cif
#   From: 2010.03.12/outbox.cif.g09.slc.cpg/sg40_12_cif.got.tgz:22418.got - 2010.04.14 01:38:03.
