data_PCOD8183771
_publ_section_title
;
Structure prediction by ZEFSAII (Michael W. Deem and Ramdas Pophale) SiO2 
 PCOD8183771
Probable space group: A M A 2
;
_chemical_formula_sum "Si O2"
_cell_formula_units_Z 48
_cell_length_a 8.768234
_cell_length_b 30.501153
_cell_length_c 9.121307
_cell_angle_alpha 90.000000
_cell_angle_beta 90.000000
_cell_angle_gamma 90.000000
_cell_volume 2439.413716
_symmetry_space_group_name_H-M "A M A 2"
_symmetry_group_IT_number 40
_symmetry_cell_setting 'orthorhombic'
loop_
_space_group_symop_operation_xyz
x,y,z
-x,-y,z
1/2-x,y,z
1/2+x,-y,z
x,1/2+y,1/2+z
-x,1/2-y,1/2+z
1/2-x,1/2+y,1/2+z
1/2+x,1/2-y,1/2+z
loop_
_atom_site_type_symbol
_atom_site_label
_atom_site_fract_x
_atom_site_fract_y
_atom_site_fract_z
Si Si1 0.928319 0.876633 0.296180
Si Si2 0.930243 0.791084 0.121156
Si Si3 0.928962 0.708111 0.302482
Si Si4 0.925367 0.369903 0.134817
Si Si5 0.072103 0.545483 0.316496
Si Si6 0.430207 0.453544 0.624358
O O1 0.750000 0.886239 0.272302
O O2 0.984169 0.834606 0.205208
O O3 0.966555 0.867627 0.464763
O O4 0.024392 0.918346 0.245936
O O5 0.750000 0.789406 0.110566
O O6 0.992917 0.748952 0.208746
O O7 0.995808 0.791141 0.959981
O O8 0.750000 0.712017 0.324540
O O9 0.967276 0.663354 0.220263
O O10 0.750000 0.356769 0.163567
O O11 0.958363 0.418802 0.191660
O O12 0.250000 0.538327 0.347055
O O13 0.000000 0.500000 0.260978
O O14 0.995150 0.561515 0.467158
O O15 0.500000 0.500000 0.671656
O O16 0.250000 0.457812 0.614413
#
# Coordination Sequence:
#
# PCOD8183771 Si02
#       6
#     8   8   8   8   8   8
#     4  10  21  39  59  81 113 152 191 230 279 336
#     4  10  22  39  59  83 114 151 187 229 283 336
#     4  11  23  38  60  88 115 147 190 235 277 331
#     4  10  22  39  59  83 116 154 187 228 284 339
#     4  10  20  36  58  83 111 147 189 232 282 337
#     4  11  22  37  58  84 113 147 188 234 283 335
#
# _framework density 19.676857999999999
#
# number of rings (size 3 to 8) (size 9 to 14) (size 15 to 20)
#    0.000    1.667    0.000    5.500    0.000   10.000 
#    0.000    1.667    0.000    0.000    0.000    0.000 
#    0.000    0.000    0.000    0.000    0.000    0.000 
#
# Total GULP energy -297733.788752 kJ/mol
# GULP energy per Si atom -12405.574531 kJ/mol
# Density = 1.963207 g / cm^3
# Si number density = 19.676858 Si / 1000 Ang^3
#
#
#
# Elastic Constant Matrix: (Units=GPa)
#
#
# Indices 1 2 3 4 5 6 
#
# 1 68.7533 41.3719 32.0112 0.0000 0.0000 0.0000
# 2 41.3719 124.8069 73.0285 0.0000 0.0000 0.0000
# 3 32.0112 73.0285 135.3615 0.0000 0.0000 0.0000
# 4 0.0000 0.0000 0.0000 37.5377 0.0000 0.0000
# 5 0.0000 0.0000 0.0000 0.0000 30.6809 0.0000
# 6 0.0000 0.0000 0.0000 0.0000 0.0000 31.8671
#
#
#
# Elastic Compliance Matrix: (Units=1/GPa)
#
#
# Indices 1 2 3 4 5 6 
#
# 1 0.018389 -0.005189 -0.001549 0.000000 0.000000 0.000000
# 2 -0.005189 0.013173 -0.005880 0.000000 0.000000 0.000000
# 3 -0.001549 -0.005880 0.010926 0.000000 0.000000 0.000000
# 4 0.000000 0.000000 0.000000 0.026640 0.000000 0.000000
# 5 0.000000 0.000000 0.000000 0.000000 0.032594 0.000000
# 6 0.000000 0.000000 0.000000 0.000000 0.000000 0.031380
#
#
# Mechanical properties :
#
#
# Convention : Reuss Voigt Hill
#
# Bulk Modulus (GPa) = 57.96531 69.08276 63.52403
# Shear Modulus (GPa) = 30.47149 32.18447 31.32798
#
# Velocity S-wave (km/s) = 3.93949 4.04871 3.99447
# Velocity P-wave (km/s) = 7.08628 7.55254 7.32312
#
# Compressibility (1/GPa) = 0.01725170
#
# Stress axis : x y z
#
# Youngs Moduli (GPa) = 54.38173 75.91331 91.52396
#
# Poissons Ratio (x) = 0.39393 0.14178
# Poissons Ratio (y) = 0.28220 0.53813
# Poissons Ratio (z) = 0.08424 0.44635
#
# Static dielectric constant tensor:
#      x y z
#    x 3.564820 0.000000 0.000000 
#    y 0.000000 3.813540 0.000000 
#    z 0.000000 0.000000 3.600960 
# 
# 
# High freq. dielectric constant tensor:
#      x y z
#    x 1.765700 0.000000 0.000000 
#    y 0.000000 1.781620 0.000000 
#    z 0.000000 0.000000 1.773490 
# 
# From -- ./inp_files/4593.got.cif
#   From: 2010.03.12/outbox.cif.g09.slc.cpg/sg40_3_cif.got.tgz:4593.got - 2010.04.14 01:38:03.
