data_PCOD8183406
_publ_section_title
;
Structure prediction by ZEFSAII (Michael W. Deem and Ramdas Pophale) SiO2 
 PCOD8183406
Probable space group: A M A 2
;
_chemical_formula_sum "Si O2"
_cell_formula_units_Z 64
_cell_length_a 16.128951
_cell_length_b 15.574666
_cell_length_c 11.964903
_cell_angle_alpha 90.000000
_cell_angle_beta 90.000000
_cell_angle_gamma 90.000000
_cell_volume 3005.619825
_symmetry_space_group_name_H-M "A M A 2"
_symmetry_group_IT_number 40
_symmetry_cell_setting 'orthorhombic'
loop_
_space_group_symop_operation_xyz
x,y,z
-x,-y,z
1/2-x,y,z
1/2+x,-y,z
x,1/2+y,1/2+z
-x,1/2-y,1/2+z
1/2-x,1/2+y,1/2+z
1/2+x,1/2-y,1/2+z
loop_
_atom_site_type_symbol
_atom_site_label
_atom_site_fract_x
_atom_site_fract_y
_atom_site_fract_z
Si Si1 0.849530 0.182332 0.123910
Si Si2 0.847411 0.838878 0.233503
Si Si3 0.651222 0.562405 0.026017
Si Si4 0.903872 0.005249 0.753279
Si Si5 0.901606 0.817984 0.801269
Si Si6 0.907205 0.178572 0.869897
Si Si7 0.151372 0.974943 0.280465
Si Si8 0.655251 0.748422 0.025098
O O1 0.750000 0.188543 0.112486
O O2 0.885147 0.267127 0.185847
O O3 0.878241 0.098130 0.193607
O O4 0.891782 0.175707 0.002454
O O5 0.750000 0.853590 0.231409
O O6 0.865373 0.765288 0.324328
O O7 0.887916 0.931843 0.254184
O O8 0.885752 0.814533 0.112088
O O9 0.750000 0.556388 0.029413
O O10 0.613301 0.502482 0.121051
O O11 0.616716 0.540580 0.904259
O O12 0.614787 0.656728 0.050393
O O13 0.865993 0.915358 0.796838
O O14 0.867826 0.091033 0.814581
O O15 0.000000 0.000000 0.777877
O O16 0.848773 0.772011 0.896219
O O17 0.996782 0.815912 0.838456
O O18 0.250000 0.974496 0.280619
O O19 0.750000 0.740175 0.060044
#
# Coordination Sequence:
#
# PCOD8183406 Si02
#       8
#     8   8   8   8   8   8   8   8
#     4  11  24  44  67  96 131 167 212 267 321 378
#     4  10  21  39  63  92 122 160 208 256 311 376
#     4  10  19  37  64  88 119 160 204 257 309 366
#     4  10  24  43  60  88 127 166 209 259 313 380
#     4  11  25  42  64  92 128 168 213 260 319 383
#     4  11  25  42  63  91 130 169 206 267 319 378
#     4   9  20  39  61  91 124 158 205 260 311 370
#     4  10  20  38  65  88 118 162 209 254 305 375
#
# _framework density 21.293444999999998
#
# number of rings (size 3 to 8) (size 9 to 14) (size 15 to 20)
#    0.000    1.750    2.500    0.750    5.250    1.500 
#    0.000    0.625    0.000    0.000    0.000    0.000 
#    0.000    0.000    0.000    0.000    0.000    0.000 
#
# Total GULP energy -396560.848913 kJ/mol
# GULP energy per Si atom -12392.526529 kJ/mol
# Density = 2.124498 g / cm^3
# Si number density = 21.293445 Si / 1000 Ang^3
#
#
#
# Elastic Constant Matrix: (Units=GPa)
#
#
# Indices 1 2 3 4 5 6 
#
# 1 29.0845 21.5087 17.5514 0.0000 0.0000 0.0000
# 2 21.5087 145.7182 39.0583 0.0000 0.0000 0.0000
# 3 17.5514 39.0583 138.8727 0.0000 0.0000 0.0000
# 4 0.0000 0.0000 0.0000 40.2405 0.0000 0.0000
# 5 0.0000 0.0000 0.0000 0.0000 28.7787 0.0000
# 6 0.0000 0.0000 0.0000 0.0000 0.0000 16.4044
#
#
#
# Elastic Compliance Matrix: (Units=1/GPa)
#
#
# Indices 1 2 3 4 5 6 
#
# 1 0.040277 -0.004954 -0.003697 0.000000 0.000000 0.000000
# 2 -0.004954 0.008031 -0.001633 0.000000 0.000000 0.000000
# 3 -0.003697 -0.001633 0.008127 0.000000 0.000000 0.000000
# 4 0.000000 0.000000 0.000000 0.024851 0.000000 0.000000
# 5 0.000000 0.000000 0.000000 0.000000 0.034748 0.000000
# 6 0.000000 0.000000 0.000000 0.000000 0.000000 0.060959
#
#
# Mechanical properties :
#
#
# Convention : Reuss Voigt Hill
#
# Bulk Modulus (GPa) = 27.87985 52.21246 40.04616
# Shear Modulus (GPa) = 23.86432 32.78853 28.32642
#
# Velocity S-wave (km/s) = 3.35137 3.92834 3.65127
# Velocity P-wave (km/s) = 5.30068 6.71933 6.05172
#
# Compressibility (1/GPa) = 0.03586820
#
# Stress axis : x y z
#
# Youngs Moduli (GPa) = 24.82781 124.51037 123.04199
#
# Poissons Ratio (x) = 0.61685 0.45490
# Poissons Ratio (y) = 0.12300 0.20090
# Poissons Ratio (z) = 0.09179 0.20329
#
# Static dielectric constant tensor:
#      x y z
#    x 3.465370 0.000000 0.000000 
#    y 0.000000 4.393960 0.000000 
#    z 0.000000 0.000000 3.984020 
# 
# 
# High freq. dielectric constant tensor:
#      x y z
#    x 1.804070 0.000000 0.000000 
#    y 0.000000 1.853190 0.000000 
#    z 0.000000 0.000000 1.845720 
# 
# From -- ./inp_files/13144.got.cif
#   From: 2010.03.12/outbox.cif.g09.slc.cpg/sg40_7_cif.got.tgz:13144.got - 2010.04.14 01:38:03.
