data_PCOD8183421
_publ_section_title
;
Structure prediction by ZEFSAII (Michael W. Deem and Ramdas Pophale) SiO2 
 PCOD8183421
Probable space group: A M A 2
;
_chemical_formula_sum "Si O2"
_cell_formula_units_Z 64
_cell_length_a 8.791454
_cell_length_b 15.439814
_cell_length_c 23.524251
_cell_angle_alpha 90.000000
_cell_angle_beta 90.000000
_cell_angle_gamma 90.000000
_cell_volume 3193.144534
_symmetry_space_group_name_H-M "A M A 2"
_symmetry_group_IT_number 40
_symmetry_cell_setting 'orthorhombic'
loop_
_space_group_symop_operation_xyz
x,y,z
-x,-y,z
1/2-x,y,z
1/2+x,-y,z
x,1/2+y,1/2+z
-x,1/2-y,1/2+z
1/2-x,1/2+y,1/2+z
1/2+x,1/2-y,1/2+z
loop_
_atom_site_type_symbol
_atom_site_label
_atom_site_fract_x
_atom_site_fract_y
_atom_site_fract_z
Si Si1 0.573578 0.250933 0.034120
Si Si2 0.570497 0.911689 0.331545
Si Si3 0.927139 0.589651 0.099417
Si Si4 0.430299 0.155884 0.212253
Si Si5 0.926045 0.747393 0.401898
Si Si6 0.573378 0.149534 0.724665
Si Si7 0.569569 0.909868 0.092289
Si Si8 0.929192 0.910737 0.839053
O O1 0.750000 0.239505 0.049414
O O2 0.508622 0.332195 0.067765
O O3 0.483530 0.164602 0.049975
O O4 0.547794 0.266034 0.967729
O O5 0.750000 0.919179 0.335122
O O6 0.513495 0.897649 0.266863
O O7 0.512116 0.831750 0.369096
O O8 0.500000 0.000000 0.355681
O O9 0.750000 0.591816 0.083656
O O10 0.952463 0.597162 0.166809
O O11 0.000000 0.500000 0.078101
O O12 0.250000 0.159870 0.209032
O O13 0.491774 0.253722 0.216231
O O14 0.494168 0.110708 0.155531
O O15 0.750000 0.730568 0.387083
O O16 0.019825 0.665026 0.381204
O O17 0.750000 0.151587 0.742463
O O18 0.480200 0.104038 0.774308
O O19 0.750000 0.915654 0.091042
O O20 0.500000 0.000000 0.071029
O O21 0.750000 0.918816 0.840760
O O22 0.000000 0.000000 0.862015
#
# Coordination Sequence:
#
# PCOD8183421 Si02
#       8
#     8   8   8   8   8   8   8   8
#     4  11  24  42  64  90 119 159 210 260 310 362
#     4  10  20  37  61  87 119 154 191 239 292 354
#     4  11  23  40  64  92 125 164 205 252 308 368
#     4   9  17  34  61  88 119 158 194 236 297 357
#     4  10  23  44  65  85 118 162 205 254 307 356
#     4  10  19  38  64  90 123 162 200 246 305 365
#     4  11  22  39  62  92 124 161 201 246 307 366
#     4  12  25  40  63  94 124 159 201 250 306 368
#
# _framework density 20.042939000000001
#
# number of rings (size 3 to 8) (size 9 to 14) (size 15 to 20)
#    0.000    1.500    2.500    3.000    0.000    4.500 
#    0.000    1.875    0.000    0.000    0.000    0.000 
#    0.000    0.000    0.000    0.000    0.000    0.000 
#
# Total GULP energy -396945.878757 kJ/mol
# GULP energy per Si atom -12404.558711 kJ/mol
# Density = 1.999732 g / cm^3
# Si number density = 20.042939 Si / 1000 Ang^3
#
#
#
# Elastic Constant Matrix: (Units=GPa)
#
#
# Indices 1 2 3 4 5 6 
#
# 1 90.1725 42.3602 28.2336 0.0000 0.0000 0.0000
# 2 42.3602 144.2350 15.0486 0.0000 0.0000 0.0000
# 3 28.2336 15.0486 62.9511 0.0000 0.0000 0.0000
# 4 0.0000 0.0000 0.0000 13.6012 0.0000 0.0000
# 5 0.0000 0.0000 0.0000 0.0000 26.4501 0.0000
# 6 0.0000 0.0000 0.0000 0.0000 0.0000 36.8912
#
#
#
# Elastic Compliance Matrix: (Units=1/GPa)
#
#
# Indices 1 2 3 4 5 6 
#
# 1 0.014600 -0.003697 -0.005664 0.000000 0.000000 0.000000
# 2 -0.003697 0.008047 -0.000265 0.000000 0.000000 0.000000
# 3 -0.005664 -0.000265 0.018489 0.000000 0.000000 0.000000
# 4 0.000000 0.000000 0.000000 0.073523 0.000000 0.000000
# 5 0.000000 0.000000 0.000000 0.000000 0.037807 0.000000
# 6 0.000000 0.000000 0.000000 0.000000 0.000000 0.027107
#
#
# Mechanical properties :
#
#
# Convention : Reuss Voigt Hill
#
# Bulk Modulus (GPa) = 45.69883 52.07148 48.88516
# Shear Modulus (GPa) = 24.25767 29.50292 26.88029
#
# Velocity S-wave (km/s) = 3.48269 3.84081 3.66612
# Velocity P-wave (km/s) = 6.24677 6.76058 6.50875
#
# Compressibility (1/GPa) = 0.02188240
#
# Stress axis : x y z
#
# Youngs Moduli (GPa) = 68.49270 124.27668 54.08538
#
# Poissons Ratio (x) = 0.45944 0.30636
# Poissons Ratio (y) = 0.25321 0.01436
# Poissons Ratio (z) = 0.38797 0.03299
#
# Static dielectric constant tensor:
#      x y z
#    x 3.497730 0.000000 0.000000 
#    y 0.000000 3.772270 0.000000 
#    z 0.000000 0.000000 3.664080 
# 
# 
# High freq. dielectric constant tensor:
#      x y z
#    x 1.770260 0.000000 0.000000 
#    y 0.000000 1.799080 0.000000 
#    z 0.000000 0.000000 1.780450 
# 
# From -- ./inp_files/24266.got.cif
#   From: 2010.03.12/outbox.cif.g09.slc.cpg/sg40_13_cif.got.tgz:24266.got - 2010.04.14 01:38:03.
