data_PCOD8183355
_publ_section_title
;
Structure prediction by ZEFSAII (Michael W. Deem and Ramdas Pophale) SiO2 
 PCOD8183355
Probable space group: A M A 2
;
_chemical_formula_sum "Si O2"
_cell_formula_units_Z 60
_cell_length_a 9.545658
_cell_length_b 16.107440
_cell_length_c 19.225897
_cell_angle_alpha 90.000000
_cell_angle_beta 90.000000
_cell_angle_gamma 90.000000
_cell_volume 2956.099201
_symmetry_space_group_name_H-M "A M A 2"
_symmetry_group_IT_number 40
_symmetry_cell_setting 'orthorhombic'
loop_
_space_group_symop_operation_xyz
x,y,z
-x,-y,z
1/2-x,y,z
1/2+x,-y,z
x,1/2+y,1/2+z
-x,1/2-y,1/2+z
1/2-x,1/2+y,1/2+z
1/2+x,1/2-y,1/2+z
loop_
_atom_site_type_symbol
_atom_site_label
_atom_site_fract_x
_atom_site_fract_y
_atom_site_fract_z
Si Si1 0.500000 0.000000 0.339460
Si Si2 0.409891 0.926497 0.074648
Si Si3 0.913872 0.303181 0.223461
Si Si4 0.914930 0.923085 0.603339
Si Si5 0.588260 0.689943 0.451994
Si Si6 0.590560 0.621702 0.722731
Si Si7 0.581867 0.415277 0.348374
Si Si8 0.591318 0.375083 0.954709
O O1 0.588202 0.059914 0.288948
O O2 0.413941 0.061711 0.389534
O O3 0.250000 0.957507 0.077066
O O4 0.475865 0.915078 0.152228
O O5 0.500000 0.000000 0.038606
O O6 0.419781 0.839782 0.032407
O O7 0.750000 0.295863 0.235177
O O8 0.948886 0.340069 0.147315
O O9 0.982097 0.211590 0.236019
O O10 0.971180 0.365266 0.281194
O O11 0.750000 0.944106 0.605859
O O12 0.976653 0.911602 0.524997
O O13 0.000000 0.000000 0.636305
O O14 0.750000 0.680162 0.425193
O O15 0.475565 0.633237 0.414377
O O16 0.529632 0.783650 0.440016
O O17 0.750000 0.639642 0.703568
O O18 0.500000 0.500000 0.344130
O O19 0.750000 0.427951 0.353271
O O20 0.750000 0.358330 0.975194
#
# Coordination Sequence:
#
# PCOD8183355 Si02
#       8
#     4   8   8   8   8   8   8   8
#     4  12  20  34  56  84 116 146 182 242 288 346
#     4  10  20  36  58  83 111 147 190 233 277 334
#     4   9  19  35  57  81 109 149 193 232 274 335
#     4  10  19  36  59  84 114 149 192 234 278 336
#     4  10  21  38  59  82 113 153 194 235 283 339
#     4  10  20  35  55  80 110 148 190 230 280 338
#     4  11  22  37  57  85 115 147 188 235 289 341
#     4  10  21  36  56  83 114 151 191 233 287 345
#
# _framework density 20.297018999999999
#
# number of rings (size 3 to 8) (size 9 to 14) (size 15 to 20)
#    0.000    1.867    1.333    3.200    0.000    4.800 
#    0.000    2.000    0.000    4.800    0.000    0.000 
#    0.000    0.000    0.000    0.000    0.000    0.000 
#
# Total GULP energy -371719.639333 kJ/mol
# GULP energy per Si atom -12390.654644 kJ/mol
# Density = 2.025082 g / cm^3
# Si number density = 20.297019 Si / 1000 Ang^3
#
#
#
# Elastic Constant Matrix: (Units=GPa)
#
#
# Indices 1 2 3 4 5 6 
#
# 1 56.6383 40.1388 22.4179 0.0000 0.0000 0.0000
# 2 40.1388 177.3402 57.6066 0.0000 0.0000 0.0000
# 3 22.4179 57.6066 117.3254 0.0000 0.0000 0.0000
# 4 0.0000 0.0000 0.0000 36.5508 0.0000 0.0000
# 5 0.0000 0.0000 0.0000 0.0000 20.7277 0.0000
# 6 0.0000 0.0000 0.0000 0.0000 0.0000 -0.6850
#
#
#
# Elastic Compliance Matrix: (Units=1/GPa)
#
#
# Indices 1 2 3 4 5 6 
#
# 1 0.021431 -0.004189 -0.002038 0.000000 0.000000 0.000000
# 2 -0.004189 0.007528 -0.002896 0.000000 0.000000 0.000000
# 3 -0.002038 -0.002896 0.010335 0.000000 0.000000 0.000000
# 4 0.000000 0.000000 0.000000 0.027359 0.000000 0.000000
# 5 0.000000 0.000000 0.000000 0.000000 0.048245 0.000000
# 6 0.000000 0.000000 0.000000 0.000000 0.000000 -1.459814
#
#
# Mechanical properties :
#
#
# Convention : Reuss Voigt Hill
#
# Bulk Modulus (GPa) = 47.51049 65.73673 56.62361
# Shear Modulus (GPa) = -3.78887 26.72806 11.46960
#
# Velocity S-wave (km/s) = -1.36776 3.63278 2.37974
# Velocity P-wave (km/s) = 4.57866 7.07487 5.95894
#
# Compressibility (1/GPa) = 0.02104798
#
# Stress axis : x y z
#
# Youngs Moduli (GPa) = 46.66124 132.84573 96.76274
#
# Poissons Ratio (x) = 0.55643 0.19724
# Poissons Ratio (y) = 0.19544 0.28019
# Poissons Ratio (z) = 0.09511 0.38468
#
# Static dielectric constant tensor:
#      x y z
#    x 3.269630 0.000000 0.000000 
#    y 0.000000 4.018850 0.000000 
#    z 0.000000 0.000000 3.807900 
# 
# 
# High freq. dielectric constant tensor:
#      x y z
#    x 1.749570 0.000000 0.000000 
#    y 0.000000 1.812330 0.000000 
#    z 0.000000 0.000000 1.802180 
# 
# From -- ./inp_files/20130.got.cif
#   From: 2010.03.12/outbox.cif.g09.slc.cpg/sg40_11_cif.got.tgz:20130.got - 2010.04.14 01:38:03.
