data_PCOD8183244
_publ_section_title
;
Structure prediction by ZEFSAII (Michael W. Deem and Ramdas Pophale) SiO2 
 PCOD8183244
Probable space group: A M A 2
;
_chemical_formula_sum "Si O2"
_cell_formula_units_Z 48
_cell_length_a 9.087938
_cell_length_b 27.939561
_cell_length_c 10.142487
_cell_angle_alpha 90.000000
_cell_angle_beta 90.000000
_cell_angle_gamma 90.000000
_cell_volume 2575.309283
_symmetry_space_group_name_H-M "A M A 2"
_symmetry_group_IT_number 40
_symmetry_cell_setting 'orthorhombic'
loop_
_space_group_symop_operation_xyz
x,y,z
-x,-y,z
1/2-x,y,z
1/2+x,-y,z
x,1/2+y,1/2+z
-x,1/2-y,1/2+z
1/2-x,1/2+y,1/2+z
1/2+x,1/2-y,1/2+z
loop_
_atom_site_type_symbol
_atom_site_label
_atom_site_fract_x
_atom_site_fract_y
_atom_site_fract_z
Si Si1 0.419694 0.800397 0.909730
Si Si2 0.422420 0.146827 0.136563
Si Si3 0.580352 0.310018 0.913652
Si Si4 0.922972 0.951755 0.720139
Si Si5 0.424356 0.857289 0.652200
Si Si6 0.579024 0.452754 0.526683
O O1 0.250000 0.811161 0.935939
O O2 0.448124 0.745051 0.878017
O O3 0.476299 0.830799 0.785183
O O4 0.505397 0.814569 0.040819
O O5 0.250000 0.149995 0.109718
O O6 0.462627 0.158851 0.286312
O O7 0.480378 0.093304 0.105885
O O8 0.750000 0.318656 0.954559
O O9 0.472822 0.324825 0.030423
O O10 0.750000 0.954394 0.691149
O O11 0.993818 0.907981 0.640664
O O12 0.958489 0.944434 0.873856
O O13 0.000000 0.000000 0.668386
O O14 0.250000 0.864911 0.648625
O O15 0.500000 0.500000 0.581960
O O16 0.750000 0.460800 0.549876
#
# Coordination Sequence:
#
# PCOD8183244 Si02
#       6
#     8   8   8   8   8   8
#     4  10  21  36  56  82 109 144 189 234 277 327
#     4  10  20  37  58  81 110 146 185 227 280 335
#     4  10  22  38  55  78 113 151 186 227 279 336
#     4  10  19  34  57  85 113 144 184 231 280 330
#     4  11  22  37  57  84 115 148 188 232 279 333
#     4   9  18  32  54  82 108 139 177 223 274 323
#
# _framework density 18.638538
#
# number of rings (size 3 to 8) (size 9 to 14) (size 15 to 20)
#    0.000    2.000    1.667    2.000    0.000    4.667 
#    0.000    0.833    0.000    2.000    0.000    0.000 
#    0.000    0.000    0.000    0.000    0.000    0.000 
#
# Total GULP energy -297708.599438 kJ/mol
# GULP energy per Si atom -12404.524977 kJ/mol
# Density = 1.859612 g / cm^3
# Si number density = 18.638538 Si / 1000 Ang^3
#
#
#
# Elastic Constant Matrix: (Units=GPa)
#
#
# Indices 1 2 3 4 5 6 
#
# 1 64.3627 39.3735 33.9166 0.0000 0.0000 0.0000
# 2 39.3735 108.9064 29.4686 0.0000 0.0000 0.0000
# 3 33.9166 29.4686 68.6384 0.0000 0.0000 0.0000
# 4 0.0000 0.0000 0.0000 22.2551 0.0000 0.0000
# 5 0.0000 0.0000 0.0000 0.0000 75.5847 0.0000
# 6 0.0000 0.0000 0.0000 0.0000 0.0000 35.2458
#
#
#
# Elastic Compliance Matrix: (Units=1/GPa)
#
#
# Indices 1 2 3 4 5 6 
#
# 1 0.024267 -0.006256 -0.009306 0.000000 0.000000 0.000000
# 2 -0.006256 0.012002 -0.002062 0.000000 0.000000 0.000000
# 3 -0.009306 -0.002062 0.020053 0.000000 0.000000 0.000000
# 4 0.000000 0.000000 0.000000 0.044934 0.000000 0.000000
# 5 0.000000 0.000000 0.000000 0.000000 0.013230 0.000000
# 6 0.000000 0.000000 0.000000 0.000000 0.000000 0.028372
#
#
# Mechanical properties :
#
#
# Convention : Reuss Voigt Hill
#
# Bulk Modulus (GPa) = 47.44755 49.71390 48.58072
# Shear Modulus (GPa) = 27.00825 35.89368 31.45097
#
# Velocity S-wave (km/s) = 3.81077 4.39313 4.11227
# Velocity P-wave (km/s) = 6.69885 7.24316 6.97631
#
# Compressibility (1/GPa) = 0.02107590
#
# Stress axis : x y z
#
# Youngs Moduli (GPa) = 41.20741 83.32200 49.86905
#
# Poissons Ratio (x) = 0.52122 0.46407
# Poissons Ratio (y) = 0.25777 0.10281
# Poissons Ratio (z) = 0.38346 0.17178
#
# Static dielectric constant tensor:
#      x y z
#    x 2.975590 0.000000 0.000000 
#    y 0.000000 3.609340 0.000000 
#    z 0.000000 0.000000 3.235210 
# 
# 
# High freq. dielectric constant tensor:
#      x y z
#    x 1.721720 0.000000 0.000000 
#    y 0.000000 1.739190 0.000000 
#    z 0.000000 0.000000 1.704650 
# 
# From -- ./inp_files/4578.got.cif
#   From: 2010.03.12/outbox.cif.g09.slc.cpg/sg40_3_cif.got.tgz:4578.got - 2010.04.14 01:38:03.
