data_PCOD8183069
_publ_section_title
;
Structure prediction by ZEFSAII (Michael W. Deem and Ramdas Pophale) SiO2 
 PCOD8183069
Probable space group: A M A 2
;
_chemical_formula_sum "Si O2"
_cell_formula_units_Z 56
_cell_length_a 8.896785
_cell_length_b 19.144522
_cell_length_c 17.046545
_cell_angle_alpha 90.000000
_cell_angle_beta 90.000000
_cell_angle_gamma 90.000000
_cell_volume 2903.447598
_symmetry_space_group_name_H-M "A M A 2"
_symmetry_group_IT_number 40
_symmetry_cell_setting 'orthorhombic'
loop_
_space_group_symop_operation_xyz
x,y,z
-x,-y,z
1/2-x,y,z
1/2+x,-y,z
x,1/2+y,1/2+z
-x,1/2-y,1/2+z
1/2-x,1/2+y,1/2+z
1/2+x,1/2-y,1/2+z
loop_
_atom_site_type_symbol
_atom_site_label
_atom_site_fract_x
_atom_site_fract_y
_atom_site_fract_z
Si Si1 0.427430 0.310766 0.158400
Si Si2 0.077546 0.300656 0.561964
Si Si3 0.083882 0.565568 0.087571
Si Si4 0.571586 0.924124 0.970356
Si Si5 0.412419 0.563983 0.905896
Si Si6 0.076501 0.718419 0.904812
Si Si7 0.575269 0.337806 0.318849
O O1 0.250000 0.301908 0.157531
O O2 0.500111 0.234769 0.138621
O O3 0.481735 0.365766 0.093570
O O4 0.480389 0.345823 0.239855
O O5 0.250000 0.319012 0.581676
O O6 0.066373 0.242648 0.494397
O O7 0.993740 0.371706 0.536232
O O8 0.250000 0.576602 0.125939
O O9 0.106319 0.547786 0.997153
O O10 0.000000 0.500000 0.128942
O O11 0.750000 0.928042 0.981100
O O12 0.528980 0.896312 0.883178
O O13 0.500000 0.000000 0.982241
O O14 0.500000 0.500000 0.864891
O O15 0.250000 0.565476 0.865209
O O16 0.486741 0.639917 0.894963
O O17 0.250000 0.725606 0.876311
O O18 0.963602 0.762149 0.852255
O O19 0.750000 0.342205 0.298729
#
# Coordination Sequence:
#
# PCOD8183069 Si02
#       7
#     8   8   8   8   8   8   8
#     4  12  23  35  53  79 111 149 188 228 276 335
#     4  10  19  35  58  81 109 144 183 232 282 330
#     4  10  19  33  49  73 106 141 176 214 258 308
#     4  10  21  38  60  87 114 146 190 236 285 343
#     4   9  17  29  47  73 102 133 168 208 253 303
#     4   9  17  33  53  75 103 136 175 221 270 322
#     4  10  22  37  54  78 108 143 184 229 277 334
#
# _framework density 19.287414999999999
#
# number of rings (size 3 to 8) (size 9 to 14) (size 15 to 20)
#    0.000    2.000    1.429    3.000    0.000    4.000 
#    0.000    1.429    0.000    0.857    0.000    4.000 
#    0.000    0.000    0.000    0.000    0.000    0.000 
#
# Total GULP energy -347042.520695 kJ/mol
# GULP energy per Si atom -12394.375739 kJ/mol
# Density = 1.924352 g / cm^3
# Si number density = 19.287415 Si / 1000 Ang^3
#
#
#
# Elastic Constant Matrix: (Units=GPa)
#
#
# Indices 1 2 3 4 5 6 
#
# 1 116.3053 51.3353 22.7838 0.0000 0.0000 0.0000
# 2 51.3353 145.3230 13.4311 0.0000 0.0000 0.0000
# 3 22.7838 13.4311 32.1894 0.0000 0.0000 0.0000
# 4 0.0000 0.0000 0.0000 15.2195 0.0000 0.0000
# 5 0.0000 0.0000 0.0000 0.0000 25.1866 0.0000
# 6 0.0000 0.0000 0.0000 0.0000 0.0000 35.5781
#
#
#
# Elastic Compliance Matrix: (Units=1/GPa)
#
#
# Indices 1 2 3 4 5 6 
#
# 1 0.011408 -0.003415 -0.006650 0.000000 0.000000 0.000000
# 2 -0.003415 0.008180 -0.000996 0.000000 0.000000 0.000000
# 3 -0.006650 -0.000996 0.036188 0.000000 0.000000 0.000000
# 4 0.000000 0.000000 0.000000 0.065705 0.000000 0.000000
# 5 0.000000 0.000000 0.000000 0.000000 0.039704 0.000000
# 6 0.000000 0.000000 0.000000 0.000000 0.000000 0.028107
#
#
# Mechanical properties :
#
#
# Convention : Reuss Voigt Hill
#
# Bulk Modulus (GPa) = 29.71342 52.10201 40.90772
# Shear Modulus (GPa) = 22.45863 28.94802 25.70333
#
# Velocity S-wave (km/s) = 3.41606 3.87832 3.65450
# Velocity P-wave (km/s) = 5.56761 6.86493 6.25002
#
# Compressibility (1/GPa) = 0.03365483
#
# Stress axis : x y z
#
# Youngs Moduli (GPa) = 87.65628 122.25375 27.63328
#
# Poissons Ratio (x) = 0.41754 0.18375
# Poissons Ratio (y) = 0.29938 0.02751
# Poissons Ratio (z) = 0.58289 0.12171
#
# Static dielectric constant tensor:
#      x y z
#    x 3.777520 0.000000 0.000000 
#    y 0.000000 3.576840 0.000000 
#    z 0.000000 0.000000 3.220340 
# 
# 
# High freq. dielectric constant tensor:
#      x y z
#    x 1.759320 0.000000 0.000000 
#    y 0.000000 1.754980 0.000000 
#    z 0.000000 0.000000 1.706590 
# 
# From -- ./inp_files/19466.got.cif
#   From: 2010.03.12/outbox.cif.g09.slc.cpg/sg40_10_cif.got.tgz:19466.got - 2010.04.14 01:38:03.
