data_PCOD8183093
_publ_section_title
;
Structure prediction by ZEFSAII (Michael W. Deem and Ramdas Pophale) SiO2 
 PCOD8183093
Probable space group: A M A 2
;
_chemical_formula_sum "Si O2"
_cell_formula_units_Z 48
_cell_length_a 16.598302
_cell_length_b 5.163989
_cell_length_c 26.974087
_cell_angle_alpha 90.000000
_cell_angle_beta 90.000000
_cell_angle_gamma 90.000000
_cell_volume 2312.042029
_symmetry_space_group_name_H-M "A M A 2"
_symmetry_group_IT_number 40
_symmetry_cell_setting 'orthorhombic'
loop_
_space_group_symop_operation_xyz
x,y,z
-x,-y,z
1/2-x,y,z
1/2+x,-y,z
x,1/2+y,1/2+z
-x,1/2-y,1/2+z
1/2-x,1/2+y,1/2+z
1/2+x,1/2-y,1/2+z
loop_
_atom_site_type_symbol
_atom_site_label
_atom_site_fract_x
_atom_site_fract_y
_atom_site_fract_z
Si Si1 0.654079 0.061505 0.726470
Si Si2 0.656513 0.563477 0.114361
Si Si3 0.091939 0.439193 0.563907
Si Si4 0.654798 0.573825 0.894962
Si Si5 0.845499 0.078615 0.954698
Si Si6 0.653725 0.060721 0.283763
O O1 0.750000 0.068080 0.726648
O O2 0.622209 0.062374 0.670228
O O3 0.620016 0.310453 0.755291
O O4 0.620747 0.809835 0.754562
O O5 0.750000 0.489102 0.113346
O O6 0.609753 0.349272 0.082797
O O7 0.646302 0.848526 0.091569
O O8 0.108530 0.452327 0.505861
O O9 0.000000 0.500000 0.575202
O O10 0.750000 0.550205 0.891378
O O11 0.622280 0.336600 0.927829
O O12 0.618671 0.561508 0.839555
O O13 0.628904 0.841119 0.919986
O O14 0.750000 0.086627 0.964583
O O15 0.750000 0.062883 0.284741
#
# Coordination Sequence:
#
# PCOD8183093 Si02
#       6
#     8   8   8   8   8   8
#     4   9  17  28  48  77 109 140 175 221 276 326
#     4  11  22  39  61  86 115 152 193 236 283 339
#     4  12  25  40  58  84 115 152 193 240 292 340
#     4   9  17  28  48  77 109 140 175 221 276 327
#     4  10  19  33  52  77 107 144 185 227 274 331
#     4   9  15  26  44  75 113 140 167 219 279 327
#
# _framework density 20.760869
#
# number of rings (size 3 to 8) (size 9 to 14) (size 15 to 20)
#    0.000    2.000    0.000    5.000    0.000    8.000 
#    0.000    0.000    0.000    0.000    0.000   23.333 
#    0.000    0.000    0.000    0.000    0.000    0.000 
#
# Total GULP energy -297676.994174 kJ/mol
# GULP energy per Si atom -12403.208091 kJ/mol
# Density = 2.071362 g / cm^3
# Si number density = 20.760869 Si / 1000 Ang^3
#
#
#
# Elastic Constant Matrix: (Units=GPa)
#
#
# Indices 1 2 3 4 5 6 
#
# 1 17.6740 10.7613 21.0119 0.0000 0.0000 0.0000
# 2 10.7613 114.8785 22.5090 0.0000 0.0000 0.0000
# 3 21.0119 22.5090 131.9353 0.0000 0.0000 0.0000
# 4 0.0000 0.0000 0.0000 44.0108 0.0000 0.0000
# 5 0.0000 0.0000 0.0000 0.0000 -3.1355 0.0000
# 6 0.0000 0.0000 0.0000 0.0000 0.0000 12.4161
#
#
#
# Elastic Compliance Matrix: (Units=1/GPa)
#
#
# Indices 1 2 3 4 5 6 
#
# 1 0.072130 -0.004662 -0.010692 0.000000 0.000000 0.000000
# 2 -0.004662 0.009307 -0.000845 0.000000 0.000000 0.000000
# 3 -0.010692 -0.000845 0.009427 0.000000 0.000000 0.000000
# 4 0.000000 0.000000 0.000000 0.022722 0.000000 0.000000
# 5 0.000000 0.000000 0.000000 0.000000 -0.318926 0.000000
# 6 0.000000 0.000000 0.000000 0.000000 0.000000 0.080541
#
#
# Mechanical properties :
#
#
# Convention : Reuss Voigt Hill
#
# Bulk Modulus (GPa) = 17.10420 41.45024 29.27722
# Shear Modulus (GPa) = -68.57512 24.67198 -21.95157
#
# Velocity S-wave (km/s) = -5.75349 3.45104 -3.25522
# Velocity P-wave (km/s) = 5.99002 5.99070 0.06391
#
# Compressibility (1/GPa) = 0.05846517
#
# Stress axis : x y z
#
# Youngs Moduli (GPa) = 13.86385 107.44369 106.08377
#
# Poissons Ratio (x) = 0.50088 1.13425
# Poissons Ratio (y) = 0.06463 0.08969
# Poissons Ratio (z) = 0.14823 0.09084
#
# Static dielectric constant tensor:
#      x y z
#    x 3.162590 0.000000 0.000000 
#    y 0.000000 3.974280 0.000000 
#    z 0.000000 0.000000 3.980570 
# 
# 
# High freq. dielectric constant tensor:
#      x y z
#    x 1.755270 0.000000 0.000000 
#    y 0.000000 1.831180 0.000000 
#    z 0.000000 0.000000 1.832120 
# 
# From -- ./inp_files/24881.got.cif
#   From: 2010.03.12/outbox.cif.g09.slc.cpg/sg40_13_cif.got.tgz:24881.got - 2010.04.14 01:38:03.
