data_PCOD8183876
_publ_section_title
;
Structure prediction by ZEFSAII (Michael W. Deem and Ramdas Pophale) SiO2 
 PCOD8183876
Probable space group: A M A 2
;
_chemical_formula_sum "Si O2"
_cell_formula_units_Z 48
_cell_length_a 8.814286
_cell_length_b 18.243906
_cell_length_c 15.208298
_cell_angle_alpha 90.000000
_cell_angle_beta 90.000000
_cell_angle_gamma 90.000000
_cell_volume 2445.600856
_symmetry_space_group_name_H-M "A M A 2"
_symmetry_group_IT_number 40
_symmetry_cell_setting 'orthorhombic'
loop_
_space_group_symop_operation_xyz
x,y,z
-x,-y,z
1/2-x,y,z
1/2+x,-y,z
x,1/2+y,1/2+z
-x,1/2-y,1/2+z
1/2-x,1/2+y,1/2+z
1/2+x,1/2-y,1/2+z
loop_
_atom_site_type_symbol
_atom_site_label
_atom_site_fract_x
_atom_site_fract_y
_atom_site_fract_z
Si Si1 0.926612 0.648631 0.443360
Si Si2 0.573115 0.353898 0.624203
Si Si3 0.073897 0.681536 0.932211
Si Si4 0.427593 0.314753 0.113589
Si Si5 0.428887 0.423346 0.264840
Si Si6 0.070901 0.922794 0.291097
O O1 0.750000 0.636957 0.464660
O O2 0.958560 0.732736 0.418677
O O3 0.983380 0.600276 0.361584
O O4 0.023854 0.622190 0.526547
O O5 0.750000 0.369556 0.637493
O O6 0.532793 0.268697 0.638173
O O7 0.481289 0.402100 0.693292
O O8 0.250000 0.662363 0.920894
O O9 0.980522 0.639168 0.858786
O O10 0.019258 0.657639 0.028763
O O11 0.250000 0.323594 0.093512
O O12 0.483723 0.363200 0.194929
O O13 0.500000 0.500000 0.237668
O O14 0.250000 0.430037 0.262414
O O15 0.250000 0.929913 0.293056
O O16 0.000000 0.000000 0.319863
#
# Coordination Sequence:
#
# PCOD8183876 Si02
#       6
#     8   8   8   8   8   8
#     4   9  19  37  59  83 113 149 187 229 278 330
#     4  10  20  37  61  86 111 143 186 234 281 332
#     4  10  20  37  61  86 111 143 186 234 281 332
#     4   9  19  37  59  83 113 149 187 229 278 330
#     4  10  21  36  54  78 112 150 185 224 270 322
#     4  12  25  40  58  82 114 150 187 230 284 344
#
# _framework density 19.627078999999998
#
# number of rings (size 3 to 8) (size 9 to 14) (size 15 to 20)
#    0.000    2.000    0.000    3.500    0.000    6.667 
#    0.000    5.000    0.000    0.000    0.000    0.000 
#    0.000    0.000    0.000    0.000    0.000    0.000 
#
# Total GULP energy -297725.427221 kJ/mol
# GULP energy per Si atom -12405.226134 kJ/mol
# Density = 1.958241 g / cm^3
# Si number density = 19.627079 Si / 1000 Ang^3
#
#
#
# Elastic Constant Matrix: (Units=GPa)
#
#
# Indices 1 2 3 4 5 6 
#
# 1 85.1976 17.9752 31.3936 0.0000 0.0000 0.0000
# 2 17.9752 41.7366 16.1921 0.0000 0.0000 0.0000
# 3 31.3936 16.1921 81.3214 0.0000 0.0000 0.0000
# 4 0.0000 0.0000 0.0000 44.4691 0.0000 0.0000
# 5 0.0000 0.0000 0.0000 0.0000 34.7607 0.0000
# 6 0.0000 0.0000 0.0000 0.0000 0.0000 31.6168
#
#
#
# Elastic Compliance Matrix: (Units=1/GPa)
#
#
# Indices 1 2 3 4 5 6 
#
# 1 0.014387 -0.004380 -0.004682 0.000000 0.000000 0.000000
# 2 -0.004380 0.027299 -0.003745 0.000000 0.000000 0.000000
# 3 -0.004682 -0.003745 0.014850 0.000000 0.000000 0.000000
# 4 0.000000 0.000000 0.000000 0.022488 0.000000 0.000000
# 5 0.000000 0.000000 0.000000 0.000000 0.028768 0.000000
# 6 0.000000 0.000000 0.000000 0.000000 0.000000 0.031629
#
#
# Mechanical properties :
#
#
# Convention : Reuss Voigt Hill
#
# Bulk Modulus (GPa) = 32.33860 37.70860 35.02360
# Shear Modulus (GPa) = 28.51601 31.68229 30.09915
#
# Velocity S-wave (km/s) = 3.81582 4.02209 3.92031
# Velocity P-wave (km/s) = 5.99385 6.38935 6.19476
#
# Compressibility (1/GPa) = 0.03092280
#
# Stress axis : x y z
#
# Youngs Moduli (GPa) = 69.50905 36.63149 67.34048
#
# Poissons Ratio (x) = 0.16044 0.31528
# Poissons Ratio (y) = 0.30443 0.25218
# Poissons Ratio (z) = 0.32543 0.13718
#
# Static dielectric constant tensor:
#      x y z
#    x 3.562860 0.000000 0.000000 
#    y 0.000000 3.406060 0.000000 
#    z 0.000000 0.000000 3.732120 
# 
# 
# High freq. dielectric constant tensor:
#      x y z
#    x 1.764220 0.000000 0.000000 
#    y 0.000000 1.760810 0.000000 
#    z 0.000000 0.000000 1.776470 
# 
# From -- ./inp_files/15035.got.cif
#   From: 2010.03.12/outbox.cif.g09.slc.cpg/sg40_8_cif.got.tgz:15035.got - 2010.04.14 01:38:03.
