data_PCOD8183506
_publ_section_title
;
Structure prediction by ZEFSAII (Michael W. Deem and Ramdas Pophale) SiO2 
 PCOD8183506
Probable space group: A M A 2
;
_chemical_formula_sum "Si O2"
_cell_formula_units_Z 48
_cell_length_a 9.002133
_cell_length_b 31.209114
_cell_length_c 9.172485
_cell_angle_alpha 90.000000
_cell_angle_beta 90.000000
_cell_angle_gamma 90.000000
_cell_volume 2576.996774
_symmetry_space_group_name_H-M "A M A 2"
_symmetry_group_IT_number 40
_symmetry_cell_setting 'orthorhombic'
loop_
_space_group_symop_operation_xyz
x,y,z
-x,-y,z
1/2-x,y,z
1/2+x,-y,z
x,1/2+y,1/2+z
-x,1/2-y,1/2+z
1/2-x,1/2+y,1/2+z
1/2+x,1/2-y,1/2+z
loop_
_atom_site_type_symbol
_atom_site_label
_atom_site_fract_x
_atom_site_fract_y
_atom_site_fract_z
Si Si1 0.923466 0.785025 0.595510
Si Si2 0.575156 0.291831 0.430018
Si Si3 0.578402 0.134559 0.099266
Si Si4 0.922142 0.366206 0.907072
Si Si5 0.422331 0.039921 0.422515
Si Si6 0.922100 0.539355 0.611693
O O1 0.750000 0.774852 0.577860
O O2 0.972255 0.786505 0.762924
O O3 0.966189 0.830220 0.523203
O O4 0.015633 0.747890 0.520619
O O5 0.750000 0.294195 0.448756
O O6 0.508178 0.335939 0.487261
O O7 0.750000 0.148047 0.102866
O O8 0.518854 0.140352 0.262843
O O9 0.558727 0.085955 0.038212
O O10 0.750000 0.363014 0.860290
O O11 0.952146 0.412353 0.986413
O O12 0.250000 0.029255 0.416157
O O13 0.490469 0.041393 0.262447
O O14 0.500000 0.000000 0.509815
O O15 0.750000 0.528789 0.637493
O O16 0.000000 0.500000 0.520807
#
# Coordination Sequence:
#
# PCOD8183506 Si02
#       6
#     8   8   8   8   8   8
#     4  10  22  39  56  76 102 131 167 210 253 301
#     4  11  23  37  55  77 100 131 168 206 253 305
#     4  10  20  33  51  77 107 136 169 210 252 297
#     4   9  18  33  53  76 104 137 171 209 253 299
#     4   9  15  24  42  69 100 133 167 204 247 291
#     4   9  16  26  43  69 100 132 166 205 247 289
#
# _framework density 18.626332999999999
#
# number of rings (size 3 to 8) (size 9 to 14) (size 15 to 20)
#    0.000    2.333    0.000    4.000    0.000    7.333 
#    0.000    0.000    0.000    1.000    0.000    4.667 
#    0.000    0.000    0.000    0.000    0.000    0.000 
#
# Total GULP energy -297430.296457 kJ/mol
# GULP energy per Si atom -12392.929019 kJ/mol
# Density = 1.858394 g / cm^3
# Si number density = 18.626333 Si / 1000 Ang^3
#
#
#
# Elastic Constant Matrix: (Units=GPa)
#
#
# Indices 1 2 3 4 5 6 
#
# 1 97.5296 71.9035 49.0639 0.0000 0.0000 0.0000
# 2 71.9035 174.0456 64.1416 0.0000 0.0000 0.0000
# 3 49.0639 64.1416 89.3247 0.0000 0.0000 0.0000
# 4 0.0000 0.0000 0.0000 26.3198 0.0000 0.0000
# 5 0.0000 0.0000 0.0000 0.0000 17.9413 0.0000
# 6 0.0000 0.0000 0.0000 0.0000 0.0000 36.2828
#
#
#
# Elastic Compliance Matrix: (Units=1/GPa)
#
#
# Indices 1 2 3 4 5 6 
#
# 1 0.016647 -0.004770 -0.005719 0.000000 0.000000 0.000000
# 2 -0.004770 0.009180 -0.003972 0.000000 0.000000 0.000000
# 3 -0.005719 -0.003972 0.017188 0.000000 0.000000 0.000000
# 4 0.000000 0.000000 0.000000 0.037994 0.000000 0.000000
# 5 0.000000 0.000000 0.000000 0.000000 0.055737 0.000000
# 6 0.000000 0.000000 0.000000 0.000000 0.000000 0.027561
#
#
# Mechanical properties :
#
#
# Convention : Reuss Voigt Hill
#
# Bulk Modulus (GPa) = 70.95036 81.23532 76.09284
# Shear Modulus (GPa) = 25.26194 27.82819 26.54507
#
# Velocity S-wave (km/s) = 3.68672 3.86945 3.77919
# Velocity P-wave (km/s) = 7.50311 7.97944 7.74494
#
# Compressibility (1/GPa) = 0.01409436
#
# Stress axis : x y z
#
# Youngs Moduli (GPa) = 60.07242 108.93317 58.17903
#
# Poissons Ratio (x) = 0.51958 0.33270
# Poissons Ratio (y) = 0.28653 0.23109
# Poissons Ratio (z) = 0.34353 0.43268
#
# Static dielectric constant tensor:
#      x y z
#    x 3.536130 0.000000 0.000000 
#    y 0.000000 4.536420 0.000000 
#    z 0.000000 0.000000 2.997840 
# 
# 
# High freq. dielectric constant tensor:
#      x y z
#    x 1.735260 0.000000 0.000000 
#    y 0.000000 1.756560 0.000000 
#    z 0.000000 0.000000 1.666560 
# 
# From -- ./inp_files/4571.got.cif
#   From: 2010.03.12/outbox.cif.g09.slc.cpg/sg40_3_cif.got.tgz:4571.got - 2010.04.14 01:38:03.
