data_PCOD8183885
_publ_section_title
;
Structure prediction by ZEFSAII (Michael W. Deem and Ramdas Pophale) SiO2 
 PCOD8183885
Probable space group: A M A 2
;
_chemical_formula_sum "Si O2"
_cell_formula_units_Z 48
_cell_length_a 8.319377
_cell_length_b 23.442604
_cell_length_c 11.875847
_cell_angle_alpha 90.000000
_cell_angle_beta 90.000000
_cell_angle_gamma 90.000000
_cell_volume 2316.121032
_symmetry_space_group_name_H-M "A M A 2"
_symmetry_group_IT_number 40
_symmetry_cell_setting 'orthorhombic'
loop_
_space_group_symop_operation_xyz
x,y,z
-x,-y,z
1/2-x,y,z
1/2+x,-y,z
x,1/2+y,1/2+z
-x,1/2-y,1/2+z
1/2-x,1/2+y,1/2+z
1/2+x,1/2-y,1/2+z
loop_
_atom_site_type_symbol
_atom_site_label
_atom_site_fract_x
_atom_site_fract_y
_atom_site_fract_z
Si Si1 0.940311 0.934772 0.233510
Si Si2 0.567256 0.155819 0.810194
Si Si3 0.435436 0.152294 0.049765
Si Si4 0.440219 0.882848 0.459872
Si Si5 0.559152 0.724660 0.103127
Si Si6 0.436631 0.060079 0.664627
O O1 0.750000 0.936791 0.241891
O O2 0.002491 0.902064 0.120057
O O3 0.008975 0.894685 0.332239
O O4 0.000000 0.000000 0.234948
O O5 0.750000 0.164478 0.850600
O O6 0.506674 0.208008 0.730873
O O7 0.554435 0.101864 0.730162
O O8 0.456183 0.144285 0.917063
O O9 0.250000 0.156979 0.080031
O O10 0.518127 0.213065 0.081239
O O11 0.250000 0.889762 0.472818
O O12 0.499405 0.820742 0.507303
O O13 0.531086 0.931354 0.532008
O O14 0.750000 0.726110 0.096008
O O15 0.250000 0.069110 0.694509
O O16 0.500000 0.000000 0.705237
#
# Coordination Sequence:
#
# PCOD8183885 Si02
#       6
#     8   8   8   8   8   8
#     4  11  24  40  60  85 121 163 208 251 298 359
#     4  10  21  38  59  86 118 152 194 244 297 357
#     4  10  22  40  60  84 117 159 201 247 301 359
#     4  10  20  37  61  89 122 154 194 247 301 357
#     4   8  18  37  60  86 118 151 190 245 303 360
#     4  11  21  36  59  86 117 153 195 241 294 351
#
# _framework density 20.724305999999999
#
# number of rings (size 3 to 8) (size 9 to 14) (size 15 to 20)
#    0.000    2.000    0.000    4.500    2.333    2.000 
#    0.000    5.833    0.000    0.000    0.000    0.000 
#    0.000    0.000    0.000    0.000    0.000    0.000 
#
# Total GULP energy -297450.095899 kJ/mol
# GULP energy per Si atom -12393.753996 kJ/mol
# Density = 2.067714 g / cm^3
# Si number density = 20.724306 Si / 1000 Ang^3
#
#
#
# Elastic Constant Matrix: (Units=GPa)
#
#
# Indices 1 2 3 4 5 6 
#
# 1 57.3328 22.1624 13.4255 0.0000 0.0000 0.0000
# 2 22.1624 115.5120 47.6297 0.0000 0.0000 0.0000
# 3 13.4255 47.6297 128.0403 0.0000 0.0000 0.0000
# 4 0.0000 0.0000 0.0000 14.8255 0.0000 0.0000
# 5 0.0000 0.0000 0.0000 0.0000 30.9436 0.0000
# 6 0.0000 0.0000 0.0000 0.0000 0.0000 18.5090
#
#
#
# Elastic Compliance Matrix: (Units=1/GPa)
#
#
# Indices 1 2 3 4 5 6 
#
# 1 0.018900 -0.003318 -0.000747 0.000000 0.000000 0.000000
# 2 -0.003318 0.010808 -0.003673 0.000000 0.000000 0.000000
# 3 -0.000747 -0.003673 0.009255 0.000000 0.000000 0.000000
# 4 0.000000 0.000000 0.000000 0.067451 0.000000 0.000000
# 5 0.000000 0.000000 0.000000 0.000000 0.032317 0.000000
# 6 0.000000 0.000000 0.000000 0.000000 0.000000 0.054028
#
#
# Mechanical properties :
#
#
# Convention : Reuss Voigt Hill
#
# Bulk Modulus (GPa) = 42.57805 51.92450 47.25128
# Shear Modulus (GPa) = 23.14142 27.36679 25.25411
#
# Velocity S-wave (km/s) = 3.34523 3.63783 3.49460
# Velocity P-wave (km/s) = 5.95905 6.53868 6.25559
#
# Compressibility (1/GPa) = 0.02348628
#
# Stress axis : x y z
#
# Youngs Moduli (GPa) = 52.91115 92.52377 108.05457
#
# Poissons Ratio (x) = 0.30699 0.08077
# Poissons Ratio (y) = 0.17555 0.39684
# Poissons Ratio (z) = 0.03955 0.33980
#
# Static dielectric constant tensor:
#      x y z
#    x 3.492560 0.000000 0.000000 
#    y 0.000000 4.564980 0.000000 
#    z 0.000000 0.000000 3.758370 
# 
# 
# High freq. dielectric constant tensor:
#      x y z
#    x 1.794130 0.000000 0.000000 
#    y 0.000000 1.817950 0.000000 
#    z 0.000000 0.000000 1.810740 
# 
# From -- ./inp_files/10226.got.cif
#   From: 2010.03.12/outbox.cif.g09.slc.cpg/sg40_6_cif.got.tgz:10226.got - 2010.04.14 01:38:03.
