data_PCOD8183427
_publ_section_title
;
Structure prediction by ZEFSAII (Michael W. Deem and Ramdas Pophale) SiO2 
 PCOD8183427
Probable space group: A M A 2
;
_chemical_formula_sum "Si O2"
_cell_formula_units_Z 60
_cell_length_a 29.933464
_cell_length_b 9.161606
_cell_length_c 10.367541
_cell_angle_alpha 90.000000
_cell_angle_beta 90.000000
_cell_angle_gamma 90.000000
_cell_volume 2843.179964
_symmetry_space_group_name_H-M "A M A 2"
_symmetry_group_IT_number 40
_symmetry_cell_setting 'orthorhombic'
loop_
_space_group_symop_operation_xyz
x,y,z
-x,-y,z
1/2-x,y,z
1/2+x,-y,z
x,1/2+y,1/2+z
-x,1/2-y,1/2+z
1/2-x,1/2+y,1/2+z
1/2+x,1/2-y,1/2+z
loop_
_atom_site_type_symbol
_atom_site_label
_atom_site_fract_x
_atom_site_fract_y
_atom_site_fract_z
Si Si1 0.933170 0.828690 0.082320
Si Si2 0.547958 0.003321 0.579242
Si Si3 0.156013 0.739227 0.253259
Si Si4 0.800364 0.957245 0.263793
Si Si5 0.664649 0.793606 0.035462
Si Si6 0.144994 0.042074 0.508890
Si Si7 0.500000 0.500000 0.746109
Si Si8 0.554530 0.772659 0.800786
O O1 0.942656 0.664550 0.134094
O O2 0.880834 0.862491 0.091204
O O3 0.958357 0.948945 0.162363
O O4 0.948519 0.853664 0.936107
O O5 0.540012 0.887961 0.693326
O O6 0.500000 0.000000 0.501781
O O7 0.590580 0.955295 0.492084
O O8 0.173568 0.659969 0.385644
O O9 0.160581 0.632868 0.132419
O O10 0.104642 0.786346 0.276676
O O11 0.184687 0.881595 0.221080
O O12 0.750000 0.962992 0.317755
O O13 0.799219 0.853683 0.136792
O O14 0.832595 0.895706 0.378193
O O15 0.663218 0.618940 0.034516
O O16 0.520738 0.637440 0.821319
#
# Coordination Sequence:
#
# PCOD8183427 Si02
#       8
#     8   8   8   8   8   8   4   8
#     4  10  22  36  53  80 116 158 198 247 293 345
#     4  10  19  39  58  83 122 160 204 245 288 344
#     4   9  20  42  63  85 120 161 198 245 307 362
#     4  11  23  40  64  93 123 153 197 257 314 372
#     4   9  20  40  60  85 122 158 202 246 305 360
#     4   9  21  40  64  89 124 164 199 250 303 359
#     4  12  22  30  52  84 110 152 200 240 286 342
#     4  10  22  37  56  82 117 155 200 250 289 343
#
# _framework density 21.103131999999999
#
# number of rings (size 3 to 8) (size 9 to 14) (size 15 to 20)
#    0.000    2.133    1.333    1.600    1.867    3.733 
#    0.000    6.667    0.000    0.000    0.000    0.000 
#    0.000    0.000    0.000    0.000    0.000    0.000 
#
# Total GULP energy -371793.506285 kJ/mol
# GULP energy per Si atom -12393.116876 kJ/mol
# Density = 2.105510 g / cm^3
# Si number density = 21.103132 Si / 1000 Ang^3
#
#
#
# Elastic Constant Matrix: (Units=GPa)
#
#
# Indices 1 2 3 4 5 6 
#
# 1 92.9426 18.8023 39.2041 0.0000 0.0000 0.0000
# 2 18.8023 50.8945 33.9579 0.0000 0.0000 0.0000
# 3 39.2041 33.9579 113.2101 0.0000 0.0000 0.0000
# 4 0.0000 0.0000 0.0000 7.8107 0.0000 0.0000
# 5 0.0000 0.0000 0.0000 0.0000 25.2718 0.0000
# 6 0.0000 0.0000 0.0000 0.0000 0.0000 22.1018
#
#
#
# Elastic Compliance Matrix: (Units=1/GPa)
#
#
# Indices 1 2 3 4 5 6 
#
# 1 0.012796 -0.002214 -0.003767 0.000000 0.000000 0.000000
# 2 -0.002214 0.024948 -0.006717 0.000000 0.000000 0.000000
# 3 -0.003767 -0.006717 0.012152 0.000000 0.000000 0.000000
# 4 0.000000 0.000000 0.000000 0.128029 0.000000 0.000000
# 5 0.000000 0.000000 0.000000 0.000000 0.039570 0.000000
# 6 0.000000 0.000000 0.000000 0.000000 0.000000 0.045245
#
#
# Mechanical properties :
#
#
# Convention : Reuss Voigt Hill
#
# Bulk Modulus (GPa) = 40.81440 48.99733 44.90586
# Shear Modulus (GPa) = 16.87463 22.04240 19.45851
#
# Velocity S-wave (km/s) = 2.83083 3.23539 3.03985
# Velocity P-wave (km/s) = 5.48336 6.10127 5.80055
#
# Compressibility (1/GPa) = 0.02450116
#
# Stress axis : x y z
#
# Youngs Moduli (GPa) = 78.14793 40.08371 82.28843
#
# Poissons Ratio (x) = 0.08874 0.31000
# Poissons Ratio (y) = 0.17300 0.55270
# Poissons Ratio (z) = 0.29440 0.26923
#
# Static dielectric constant tensor:
#      x y z
#    x 3.869040 0.000000 0.000000 
#    y 0.000000 3.615430 0.000000 
#    z 0.000000 0.000000 3.866490 
# 
# 
# High freq. dielectric constant tensor:
#      x y z
#    x 1.824400 0.000000 0.000000 
#    y 0.000000 1.812740 0.000000 
#    z 0.000000 0.000000 1.830530 
# 
# From -- ./inp_files/14223.got.cif
#   From: 2010.03.12/outbox.cif.g09.slc.cpg/sg40_8_cif.got.tgz:14223.got - 2010.04.14 01:38:03.
