data_PCOD8183401
_publ_section_title
;
Structure prediction by ZEFSAII (Michael W. Deem and Ramdas Pophale) SiO2 
 PCOD8183401
Probable space group: A M A 2
;
_chemical_formula_sum "Si O2"
_cell_formula_units_Z 64
_cell_length_a 8.811602
_cell_length_b 31.048106
_cell_length_c 11.853744
_cell_angle_alpha 90.000000
_cell_angle_beta 90.000000
_cell_angle_gamma 90.000000
_cell_volume 3242.989399
_symmetry_space_group_name_H-M "A M A 2"
_symmetry_group_IT_number 40
_symmetry_cell_setting 'orthorhombic'
loop_
_space_group_symop_operation_xyz
x,y,z
-x,-y,z
1/2-x,y,z
1/2+x,-y,z
x,1/2+y,1/2+z
-x,1/2-y,1/2+z
1/2-x,1/2+y,1/2+z
1/2+x,1/2-y,1/2+z
loop_
_atom_site_type_symbol
_atom_site_label
_atom_site_fract_x
_atom_site_fract_y
_atom_site_fract_z
Si Si1 0.930157 0.455895 0.088550
Si Si2 0.070398 0.071566 0.830938
Si Si3 0.072738 0.876343 0.460425
Si Si4 0.928634 0.204531 0.053398
Si Si5 0.575565 0.299903 0.091519
Si Si6 0.576427 0.332416 0.341996
Si Si7 0.071805 0.875687 0.197818
Si Si8 0.929449 0.456278 0.573930
O O1 0.750000 0.458509 0.083755
O O2 0.992231 0.450576 0.217084
O O3 0.000000 0.500000 0.039217
O O4 0.981359 0.415909 0.013305
O O5 0.250000 0.074023 0.822007
O O6 0.006211 0.119853 0.838035
O O7 0.016877 0.046847 0.943157
O O8 0.250000 0.884148 0.480688
O O9 0.032375 0.873248 0.329066
O O10 0.024730 0.831508 0.516094
O O11 0.750000 0.205539 0.064780
O O12 0.992381 0.251785 0.082693
O O13 0.991368 0.167849 0.138583
O O14 0.976190 0.195301 0.926155
O O15 0.750000 0.302952 0.050395
O O16 0.561711 0.311877 0.220783
O O17 0.750000 0.332896 0.384706
O O18 0.250000 0.881489 0.176136
O O19 0.986778 0.916154 0.145010
O O20 0.750000 0.458235 0.583799
O O21 0.000000 0.500000 0.624573
#
# Coordination Sequence:
#
# PCOD8183401 Si02
#       8
#     8   8   8   8   8   8   8   8
#     4  11  22  40  63  89 122 156 194 242 296 354
#     4   9  18  35  59  88 119 152 190 234 291 349
#     4  11  24  41  62  87 117 156 203 247 293 349
#     4  10  22  39  60  89 120 155 197 244 295 347
#     4  10  22  40  62  87 122 160 195 241 300 351
#     4  10  19  37  63  88 118 157 195 239 294 350
#     4  10  23  42  60  83 118 157 197 244 294 346
#     4  11  22  38  61  89 118 152 194 240 291 352
#
# _framework density 19.734877999999998
#
# number of rings (size 3 to 8) (size 9 to 14) (size 15 to 20)
#    0.000    1.750    2.500    1.500    1.750    2.500 
#    0.000    1.875    0.000    0.000    0.000    0.000 
#    0.000    0.000    0.000    0.000    0.000    0.000 
#
# Total GULP energy -396860.224988 kJ/mol
# GULP energy per Si atom -12401.882031 kJ/mol
# Density = 1.968996 g / cm^3
# Si number density = 19.734878 Si / 1000 Ang^3
#
#
#
# Elastic Constant Matrix: (Units=GPa)
#
#
# Indices 1 2 3 4 5 6 
#
# 1 44.9247 47.0004 35.5550 0.0000 0.0000 0.0000
# 2 47.0004 181.4145 55.7251 0.0000 0.0000 0.0000
# 3 35.5550 55.7251 101.2087 0.0000 0.0000 0.0000
# 4 0.0000 0.0000 0.0000 46.6536 0.0000 0.0000
# 5 0.0000 0.0000 0.0000 0.0000 123.6908 0.0000
# 6 0.0000 0.0000 0.0000 0.0000 0.0000 32.0970
#
#
#
# Elastic Compliance Matrix: (Units=1/GPa)
#
#
# Indices 1 2 3 4 5 6 
#
# 1 0.036437 -0.006629 -0.009150 0.000000 0.000000 0.000000
# 2 -0.006629 0.007840 -0.001988 0.000000 0.000000 0.000000
# 3 -0.009150 -0.001988 0.014190 0.000000 0.000000 0.000000
# 4 0.000000 0.000000 0.000000 0.021435 0.000000 0.000000
# 5 0.000000 0.000000 0.000000 0.000000 0.008085 0.000000
# 6 0.000000 0.000000 0.000000 0.000000 0.000000 0.031156
#
#
# Mechanical properties :
#
#
# Convention : Reuss Voigt Hill
#
# Bulk Modulus (GPa) = 43.60764 67.12319 55.36541
# Shear Modulus (GPa) = 30.80315 53.10610 41.95462
#
# Velocity S-wave (km/s) = 3.95504 5.19309 4.61576
# Velocity P-wave (km/s) = 6.55753 8.36922 7.51815
#
# Compressibility (1/GPa) = 0.02293176
#
# Stress axis : x y z
#
# Youngs Moduli (GPa) = 27.44467 127.54477 70.47360
#
# Poissons Ratio (x) = 0.84553 0.64486
# Poissons Ratio (y) = 0.18194 0.14010
# Poissons Ratio (z) = 0.25113 0.25356
#
# Static dielectric constant tensor:
#      x y z
#    x 3.228980 0.000000 0.000000 
#    y 0.000000 3.795590 0.000000 
#    z 0.000000 0.000000 3.644760 
# 
# 
# High freq. dielectric constant tensor:
#      x y z
#    x 1.753200 0.000000 0.000000 
#    y 0.000000 1.787590 0.000000 
#    z 0.000000 0.000000 1.771880 
# 
# From -- ./inp_files/10617.got.cif
#   From: 2010.03.12/outbox.cif.g09.slc.cpg/sg40_6_cif.got.tgz:10617.got - 2010.04.14 01:38:03.
