data_PCOD8183677
_publ_section_title
;
Structure prediction by ZEFSAII (Michael W. Deem and Ramdas Pophale) SiO2 
 PCOD8183677
Probable space group: A M A 2
;
_chemical_formula_sum "Si O2"
_cell_formula_units_Z 64
_cell_length_a 8.787212
_cell_length_b 24.452399
_cell_length_c 15.115918
_cell_angle_alpha 90.000000
_cell_angle_beta 90.000000
_cell_angle_gamma 90.000000
_cell_volume 3247.933326
_symmetry_space_group_name_H-M "A M A 2"
_symmetry_group_IT_number 40
_symmetry_cell_setting 'orthorhombic'
loop_
_space_group_symop_operation_xyz
x,y,z
-x,-y,z
1/2-x,y,z
1/2+x,-y,z
x,1/2+y,1/2+z
-x,1/2-y,1/2+z
1/2-x,1/2+y,1/2+z
1/2+x,1/2-y,1/2+z
loop_
_atom_site_type_symbol
_atom_site_label
_atom_site_fract_x
_atom_site_fract_y
_atom_site_fract_z
Si Si1 0.070414 0.838944 0.102940
Si Si2 0.426116 0.768073 0.392919
Si Si3 0.074307 0.392815 0.103374
Si Si4 0.926990 0.557450 0.290679
Si Si5 0.427949 0.715233 0.074099
Si Si6 0.070848 0.645387 0.780785
Si Si7 0.573646 0.856559 0.919762
Si Si8 0.571076 0.941487 0.428868
O O1 0.250000 0.846398 0.110988
O O2 0.021759 0.775056 0.106934
O O3 0.986456 0.870458 0.182704
O O4 0.015408 0.865307 0.011407
O O5 0.250000 0.781059 0.412094
O O6 0.528354 0.792116 0.471630
O O7 0.482863 0.798550 0.305056
O O8 0.453397 0.703822 0.380796
O O9 0.250000 0.389966 0.077305
O O10 0.046051 0.431211 0.187380
O O11 0.015356 0.331903 0.128123
O O12 0.983142 0.417562 0.021761
O O13 0.750000 0.557259 0.314969
O O14 0.000000 0.500000 0.315968
O O15 0.010287 0.603001 0.347236
O O16 0.250000 0.705861 0.085898
O O17 0.250000 0.655653 0.781016
O O18 0.022474 0.597788 0.848321
O O19 0.750000 0.868074 0.937754
O O20 0.750000 0.948342 0.434325
O O21 0.500000 0.000000 0.409144
#
# Coordination Sequence:
#
# PCOD8183677 Si02
#       8
#     8   8   8   8   8   8   8   8
#     4  10  22  39  61  89 124 163 203 253 308 364
#     4  10  20  35  58  88 121 159 200 243 300 362
#     4  11  23  38  60  90 123 162 203 248 301 364
#     4  11  25  43  63  90 120 159 207 257 309 364
#     4  10  20  35  56  86 123 161 200 244 298 359
#     4  11  23  38  59  89 124 162 205 253 305 361
#     4  10  22  41  64  90 121 159 203 255 308 365
#     4  11  24  41  62  88 121 163 205 253 305 360
#
# _framework density 19.704837999999999
#
# number of rings (size 3 to 8) (size 9 to 14) (size 15 to 20)
#    0.000    1.500    1.250    3.375    1.750    7.500 
#    0.000    0.625    0.000    1.500    0.000    0.000 
#    0.000    0.000    0.000    0.000    0.000    0.000 
#
# Total GULP energy -396961.812957 kJ/mol
# GULP energy per Si atom -12405.056655 kJ/mol
# Density = 1.965999 g / cm^3
# Si number density = 19.704838 Si / 1000 Ang^3
#
#
#
# Elastic Constant Matrix: (Units=GPa)
#
#
# Indices 1 2 3 4 5 6 
#
# 1 78.1069 47.0153 35.9929 0.0000 0.0000 0.0000
# 2 47.0153 93.0795 39.0805 0.0000 0.0000 0.0000
# 3 35.9929 39.0805 91.3785 0.0000 0.0000 0.0000
# 4 0.0000 0.0000 0.0000 27.5108 0.0000 0.0000
# 5 0.0000 0.0000 0.0000 0.0000 35.4998 0.0000
# 6 0.0000 0.0000 0.0000 0.0000 0.0000 34.7059
#
#
#
# Elastic Compliance Matrix: (Units=1/GPa)
#
#
# Indices 1 2 3 4 5 6 
#
# 1 0.019671 -0.008146 -0.004265 0.000000 0.000000 0.000000
# 2 -0.008146 0.016468 -0.003834 0.000000 0.000000 0.000000
# 3 -0.004265 -0.003834 0.014263 0.000000 0.000000 0.000000
# 4 0.000000 0.000000 0.000000 0.036349 0.000000 0.000000
# 5 0.000000 0.000000 0.000000 0.000000 0.028169 0.000000
# 6 0.000000 0.000000 0.000000 0.000000 0.000000 0.028814
#
#
# Mechanical properties :
#
#
# Convention : Reuss Voigt Hill
#
# Bulk Modulus (GPa) = 55.82541 56.30470 56.06505
# Shear Modulus (GPa) = 27.44317 28.90839 28.17578
#
# Velocity S-wave (km/s) = 3.73595 3.83439 3.78549
# Velocity P-wave (km/s) = 6.85581 6.94547 6.90078
#
# Compressibility (1/GPa) = 0.01791299
#
# Stress axis : x y z
#
# Youngs Moduli (GPa) = 50.83553 60.72426 70.11061
#
# Poissons Ratio (x) = 0.49464 0.29899
# Poissons Ratio (y) = 0.41409 0.26884
# Poissons Ratio (z) = 0.21679 0.23285
#
# Static dielectric constant tensor:
#      x y z
#    x 3.669400 0.000000 0.000000 
#    y 0.000000 3.644220 0.000000 
#    z 0.000000 0.000000 3.528830 
# 
# 
# High freq. dielectric constant tensor:
#      x y z
#    x 1.783540 0.000000 0.000000 
#    y 0.000000 1.761300 0.000000 
#    z 0.000000 0.000000 1.767400 
# 
# From -- ./inp_files/15677.got.cif
#   From: 2010.03.12/outbox.cif.g09.slc.cpg/sg40_8_cif.got.tgz:15677.got - 2010.04.14 01:38:03.
