data_PCOD8183827
_publ_section_title
;
Structure prediction by ZEFSAII (Michael W. Deem and Ramdas Pophale) SiO2 
 PCOD8183827
Probable space group: A M A 2
;
_chemical_formula_sum "Si O2"
_cell_formula_units_Z 64
_cell_length_a 8.814275
_cell_length_b 15.336622
_cell_length_c 23.425153
_cell_angle_alpha 90.000000
_cell_angle_beta 90.000000
_cell_angle_gamma 90.000000
_cell_volume 3166.640384
_symmetry_space_group_name_H-M "A M A 2"
_symmetry_group_IT_number 40
_symmetry_cell_setting 'orthorhombic'
loop_
_space_group_symop_operation_xyz
x,y,z
-x,-y,z
1/2-x,y,z
1/2+x,-y,z
x,1/2+y,1/2+z
-x,1/2-y,1/2+z
1/2-x,1/2+y,1/2+z
1/2+x,1/2-y,1/2+z
loop_
_atom_site_type_symbol
_atom_site_label
_atom_site_fract_x
_atom_site_fract_y
_atom_site_fract_z
Si Si1 0.073235 0.591204 0.504910
Si Si2 0.574580 0.749379 0.320966
Si Si3 0.573906 0.410603 0.747984
Si Si4 0.425341 0.742297 0.953157
Si Si5 0.576103 0.335584 0.627626
Si Si6 0.072128 0.652703 0.135246
Si Si7 0.928831 0.407810 0.260140
Si Si8 0.070950 0.411765 0.023723
O O1 0.250000 0.591036 0.489396
O O2 0.045954 0.607372 0.571827
O O3 0.000000 0.500000 0.487461
O O4 0.989796 0.663303 0.467531
O O5 0.750000 0.732310 0.305838
O O6 0.507796 0.829417 0.283871
O O7 0.552140 0.774813 0.386487
O O8 0.482537 0.662501 0.306374
O O9 0.500000 0.500000 0.769147
O O10 0.750000 0.419052 0.760703
O O11 0.537747 0.396203 0.681415
O O12 0.250000 0.736869 0.971324
O O13 0.517880 0.670557 0.987593
O O14 0.750000 0.301686 0.630051
O O15 0.464253 0.254078 0.627162
O O16 0.250000 0.637801 0.126077
O O17 0.016825 0.621387 0.197276
O O18 0.981358 0.596417 0.089152
O O19 0.750000 0.415962 0.263220
O O20 0.000000 0.500000 0.276689
O O21 0.250000 0.417760 0.020832
O O22 0.000000 0.500000 0.997485
#
# Coordination Sequence:
#
# PCOD8183827 Si02
#       8
#     8   8   8   8   8   8   8   8
#     4  11  23  39  62  93 124 164 205 249 310 367
#     4  10  23  43  65  88 121 163 206 255 308 360
#     4  10  21  38  61  90 123 160 198 245 299 360
#     4  11  24  43  65  91 122 161 210 261 312 365
#     4  10  20  36  61  90 124 161 198 245 307 367
#     4  11  22  37  62  95 127 162 202 249 309 371
#     4  11  24  40  63  94 125 162 204 251 307 367
#     4  12  25  42  65  93 126 165 206 253 310 371
#
# _framework density 20.210695000000001
#
# number of rings (size 3 to 8) (size 9 to 14) (size 15 to 20)
#    0.000    1.250    2.500    3.375    0.000    6.000 
#    0.000    1.250    0.000    0.000    0.000    0.000 
#    0.000    0.000    0.000    0.000    0.000    0.000 
#
# Total GULP energy -397020.337099 kJ/mol
# GULP energy per Si atom -12406.885534 kJ/mol
# Density = 2.016469 g / cm^3
# Si number density = 20.210695 Si / 1000 Ang^3
#
#
#
# Elastic Constant Matrix: (Units=GPa)
#
#
# Indices 1 2 3 4 5 6 
#
# 1 103.3107 42.3301 28.7123 0.0000 0.0000 0.0000
# 2 42.3301 131.6941 14.2591 0.0000 0.0000 0.0000
# 3 28.7123 14.2591 63.2528 0.0000 0.0000 0.0000
# 4 0.0000 0.0000 0.0000 10.4918 0.0000 0.0000
# 5 0.0000 0.0000 0.0000 0.0000 20.3746 0.0000
# 6 0.0000 0.0000 0.0000 0.0000 0.0000 41.0276
#
#
#
# Elastic Compliance Matrix: (Units=1/GPa)
#
#
# Indices 1 2 3 4 5 6 
#
# 1 0.012458 -0.003477 -0.004871 0.000000 0.000000 0.000000
# 2 -0.003477 0.008754 -0.000395 0.000000 0.000000 0.000000
# 3 -0.004871 -0.000395 0.018110 0.000000 0.000000 0.000000
# 4 0.000000 0.000000 0.000000 0.095313 0.000000 0.000000
# 5 0.000000 0.000000 0.000000 0.000000 0.049081 0.000000
# 6 0.000000 0.000000 0.000000 0.000000 0.000000 0.024374
#
#
# Mechanical properties :
#
#
# Convention : Reuss Voigt Hill
#
# Bulk Modulus (GPa) = 45.79789 52.09563 48.94676
# Shear Modulus (GPa) = 21.47274 28.57588 25.02431
#
# Velocity S-wave (km/s) = 3.26305 3.76426 3.52258
# Velocity P-wave (km/s) = 6.07504 6.68769 6.38871
#
# Compressibility (1/GPa) = 0.02183507
#
# Stress axis : x y z
#
# Youngs Moduli (GPa) = 80.26981 114.23731 55.21860
#
# Poissons Ratio (x) = 0.39719 0.26898
# Poissons Ratio (y) = 0.27909 0.02182
# Poissons Ratio (z) = 0.39101 0.04513
#
# Static dielectric constant tensor:
#      x y z
#    x 3.693380 0.000000 0.000000 
#    y 0.000000 3.701410 0.000000 
#    z 0.000000 0.000000 3.705840 
# 
# 
# High freq. dielectric constant tensor:
#      x y z
#    x 1.792310 0.000000 0.000000 
#    y 0.000000 1.800470 0.000000 
#    z 0.000000 0.000000 1.788030 
# 
# From -- ./inp_files/24247.got.cif
#   From: 2010.03.12/outbox.cif.g09.slc.cpg/sg40_13_cif.got.tgz:24247.got - 2010.04.14 01:38:03.
