data_PCOD8183106
_publ_section_title
;
Structure prediction by ZEFSAII (Michael W. Deem and Ramdas Pophale) SiO2 
 PCOD8183106
Probable space group: A M A 2
;
_chemical_formula_sum "Si O2"
_cell_formula_units_Z 64
_cell_length_a 9.201505
_cell_length_b 28.625349
_cell_length_c 12.447223
_cell_angle_alpha 90.000000
_cell_angle_beta 90.000000
_cell_angle_gamma 90.000000
_cell_volume 3278.552383
_symmetry_space_group_name_H-M "A M A 2"
_symmetry_group_IT_number 40
_symmetry_cell_setting 'orthorhombic'
loop_
_space_group_symop_operation_xyz
x,y,z
-x,-y,z
1/2-x,y,z
1/2+x,-y,z
x,1/2+y,1/2+z
-x,1/2-y,1/2+z
1/2-x,1/2+y,1/2+z
1/2+x,1/2-y,1/2+z
loop_
_atom_site_type_symbol
_atom_site_label
_atom_site_fract_x
_atom_site_fract_y
_atom_site_fract_z
Si Si1 0.577499 0.950158 0.482860
Si Si2 0.416499 0.920977 0.916955
Si Si3 0.418738 0.886177 0.312975
Si Si4 0.414221 0.166830 0.000254
Si Si5 0.077130 0.794093 0.199674
Si Si6 0.911021 0.541899 0.640130
Si Si7 0.911961 0.305158 0.266212
Si Si8 0.578675 0.407128 0.213372
O O1 0.750000 0.956089 0.466958
O O2 0.518059 0.910540 0.402708
O O3 0.540024 0.931439 0.601714
O O4 0.500000 0.000000 0.464007
O O5 0.250000 0.909339 0.888103
O O6 0.493081 0.877853 0.972303
O O7 0.499842 0.936580 0.808373
O O8 0.426371 0.959434 0.010829
O O9 0.250000 0.891980 0.346240
O O10 0.459201 0.831618 0.294665
O O11 0.454322 0.909420 0.196726
O O12 0.250000 0.152923 0.034706
O O13 0.410747 0.198545 0.894428
O O14 0.493398 0.195274 0.091600
O O15 0.250000 0.794965 0.179477
O O16 0.013237 0.742967 0.229033
O O17 0.750000 0.529820 0.675324
O O18 0.000000 0.500000 0.692606
O O19 0.750000 0.305067 0.219135
O O20 0.983332 0.353505 0.220639
O O21 0.750000 0.407423 0.237866
#
# Coordination Sequence:
#
# PCOD8183106 Si02
#       8
#     8   8   8   8   8   8   8   8
#     4  11  24  41  61  84 116 157 202 249 299 354
#     4  10  19  35  57  81 108 143 186 229 281 342
#     4  10  21  38  57  81 114 149 192 240 289 346
#     4  10  19  33  53  79 112 147 185 231 284 341
#     4  10  19  35  58  82 113 153 193 238 290 344
#     4  10  21  35  52  79 110 139 178 226 278 336
#     4   8  17  34  56  81 111 151 189 230 288 345
#     4   9  20  39  59  83 116 151 191 239 293 346
#
# _framework density 19.520811999999999
#
# number of rings (size 3 to 8) (size 9 to 14) (size 15 to 20)
#    0.000    2.250    1.250    2.250    0.000    5.500 
#    0.000    5.625    0.000    0.000    0.000    0.000 
#    0.000    0.000    0.000    0.000    0.000    0.000 
#
# Total GULP energy -396527.943034 kJ/mol
# GULP energy per Si atom -12391.498220 kJ/mol
# Density = 1.947638 g / cm^3
# Si number density = 19.520812 Si / 1000 Ang^3
#
#
#
# Elastic Constant Matrix: (Units=GPa)
#
#
# Indices 1 2 3 4 5 6 
#
# 1 66.5176 22.2142 32.4031 0.0000 0.0000 0.0000
# 2 22.2142 64.7183 7.8549 0.0000 0.0000 0.0000
# 3 32.4031 7.8549 78.3258 0.0000 0.0000 0.0000
# 4 0.0000 0.0000 0.0000 19.4421 0.0000 0.0000
# 5 0.0000 0.0000 0.0000 0.0000 32.8773 0.0000
# 6 0.0000 0.0000 0.0000 0.0000 0.0000 21.0663
#
#
#
# Elastic Compliance Matrix: (Units=1/GPa)
#
#
# Indices 1 2 3 4 5 6 
#
# 1 0.021058 -0.006247 -0.008085 0.000000 0.000000 0.000000
# 2 -0.006247 0.017495 0.000830 0.000000 0.000000 0.000000
# 3 -0.008085 0.000830 0.016029 0.000000 0.000000 0.000000
# 4 0.000000 0.000000 0.000000 0.051435 0.000000 0.000000
# 5 0.000000 0.000000 0.000000 0.000000 0.030416 0.000000
# 6 0.000000 0.000000 0.000000 0.000000 0.000000 0.047469
#
#
# Mechanical properties :
#
#
# Convention : Reuss Voigt Hill
#
# Bulk Modulus (GPa) = 36.26136 37.16736 36.71436
# Shear Modulus (GPa) = 22.71694 24.48308 23.60001
#
# Velocity S-wave (km/s) = 3.41505 3.54532 3.48079
# Velocity P-wave (km/s) = 5.84518 5.98667 5.91635
#
# Compressibility (1/GPa) = 0.02757757
#
# Stress axis : x y z
#
# Youngs Moduli (GPa) = 47.48677 57.15896 62.38749
#
# Poissons Ratio (x) = 0.35707 0.50443
# Poissons Ratio (y) = 0.29665 -0.05177
# Poissons Ratio (z) = 0.38395 -0.04743
#
# Static dielectric constant tensor:
#      x y z
#    x 3.517790 0.000000 0.000000 
#    y 0.000000 3.623080 0.000000 
#    z 0.000000 0.000000 3.762460 
# 
# 
# High freq. dielectric constant tensor:
#      x y z
#    x 1.749710 0.000000 0.000000 
#    y 0.000000 1.758380 0.000000 
#    z 0.000000 0.000000 1.760010 
# 
# From -- ./inp_files/10649.got.cif
#   From: 2010.03.12/outbox.cif.g09.slc.cpg/sg40_6_cif.got.tgz:10649.got - 2010.04.14 01:38:03.
