data_PCOD8183587
_publ_section_title
;
Structure prediction by ZEFSAII (Michael W. Deem and Ramdas Pophale) SiO2 
 PCOD8183587
Probable space group: A M A 2
;
_chemical_formula_sum "Si O2"
_cell_formula_units_Z 56
_cell_length_a 19.850246
_cell_length_b 16.248611
_cell_length_c 9.194020
_cell_angle_alpha 90.000000
_cell_angle_beta 90.000000
_cell_angle_gamma 90.000000
_cell_volume 2965.429332
_symmetry_space_group_name_H-M "A M A 2"
_symmetry_group_IT_number 40
_symmetry_cell_setting 'orthorhombic'
loop_
_space_group_symop_operation_xyz
x,y,z
-x,-y,z
1/2-x,y,z
1/2+x,-y,z
x,1/2+y,1/2+z
-x,1/2-y,1/2+z
1/2-x,1/2+y,1/2+z
1/2+x,1/2-y,1/2+z
loop_
_atom_site_type_symbol
_atom_site_label
_atom_site_fract_x
_atom_site_fract_y
_atom_site_fract_z
Si Si1 0.175303 0.333916 0.496910
Si Si2 0.070955 0.197279 0.440398
Si Si3 0.983816 0.799454 0.133714
Si Si4 0.436254 0.547552 0.484346
Si Si5 0.920904 0.490381 0.010443
Si Si6 0.670560 0.520108 0.285793
Si Si7 0.403338 0.923082 0.219921
O O1 0.250000 0.300091 0.500067
O O2 0.130741 0.253198 0.499120
O O3 0.161795 0.388944 0.353308
O O4 0.164204 0.390510 0.640882
O O5 0.006988 0.218259 0.544850
O O6 0.062653 0.223273 0.271031
O O7 0.091105 0.102666 0.457683
O O8 0.044192 0.849526 0.206085
O O9 0.948686 0.856113 0.010823
O O10 0.500000 0.500000 0.406113
O O11 0.367693 0.543744 0.391800
O O12 0.428899 0.505251 0.641155
O O13 0.869504 0.514673 0.136195
O O14 0.000000 0.500000 0.050780
O O15 0.896412 0.554087 0.887534
O O16 0.750000 0.496965 0.269727
#
# Coordination Sequence:
#
# PCOD8183587 Si02
#       7
#     8   8   8   8   8   8   8
#     4   9  21  41  59  78 110 158 200 231 287 362
#     4  11  23  34  59  88 120 149 189 245 296 347
#     4  10  20  34  54  88 118 147 187 238 302 345
#     4   9  16  35  60  81 110 150 195 237 286 347
#     4  12  22  36  59  93 121 145 192 251 296 343
#     4  10  23  38  57  83 116 156 197 236 290 353
#     4   9  17  36  59  81 110 147 190 238 284 350
#
# _framework density 18.884281000000001
#
# number of rings (size 3 to 8) (size 9 to 14) (size 15 to 20)
#    0.000    2.000    2.857    1.714    4.000    1.143 
#    0.000    0.714    0.000    0.000    0.000    0.000 
#    0.000    0.000    0.000    0.000    0.000    0.000 
#
# Total GULP energy -346987.004632 kJ/mol
# GULP energy per Si atom -12392.393023 kJ/mol
# Density = 1.884130 g / cm^3
# Si number density = 18.884281 Si / 1000 Ang^3
#
#
#
# Elastic Constant Matrix: (Units=GPa)
#
#
# Indices 1 2 3 4 5 6 
#
# 1 112.6936 26.8371 53.2579 0.0000 0.0000 0.0000
# 2 26.8371 64.9698 21.9493 0.0000 0.0000 0.0000
# 3 53.2579 21.9493 108.0081 0.0000 0.0000 0.0000
# 4 0.0000 0.0000 0.0000 18.5715 0.0000 0.0000
# 5 0.0000 0.0000 0.0000 0.0000 20.9619 0.0000
# 6 0.0000 0.0000 0.0000 0.0000 0.0000 17.1605
#
#
#
# Elastic Compliance Matrix: (Units=1/GPa)
#
#
# Indices 1 2 3 4 5 6 
#
# 1 0.012166 -0.003220 -0.005345 0.000000 0.000000 0.000000
# 2 -0.003220 0.017379 -0.001944 0.000000 0.000000 0.000000
# 3 -0.005345 -0.001944 0.012289 0.000000 0.000000 0.000000
# 4 0.000000 0.000000 0.000000 0.053846 0.000000 0.000000
# 5 0.000000 0.000000 0.000000 0.000000 0.047706 0.000000
# 6 0.000000 0.000000 0.000000 0.000000 0.000000 0.058273
#
#
# Mechanical properties :
#
#
# Convention : Reuss Voigt Hill
#
# Bulk Modulus (GPa) = 48.03832 54.41782 51.22807
# Shear Modulus (GPa) = 21.77559 23.58059 22.67809
#
# Velocity S-wave (km/s) = 3.39943 3.53751 3.46916
# Velocity P-wave (km/s) = 6.39544 6.75014 6.57518
#
# Compressibility (1/GPa) = 0.02081672
#
# Stress axis : x y z
#
# Youngs Moduli (GPa) = 82.19433 57.54225 81.37310
#
# Poissons Ratio (x) = 0.18528 0.43492
# Poissons Ratio (y) = 0.26466 0.15819
# Poissons Ratio (z) = 0.43931 0.11186
#
# Static dielectric constant tensor:
#      x y z
#    x 3.470720 0.000000 0.000000 
#    y 0.000000 3.324180 0.000000 
#    z 0.000000 0.000000 3.544080 
# 
# 
# High freq. dielectric constant tensor:
#      x y z
#    x 1.716510 0.000000 0.000000 
#    y 0.000000 1.727140 0.000000 
#    z 0.000000 0.000000 1.735150 
# 
# From -- ./inp_files/8292.got.cif
#   From: 2010.03.12/outbox.cif.g09.slc.cpg/sg40_5_cif.got.tgz:8292.got - 2010.04.14 01:38:03.
