data_PCOD8183544
_publ_section_title
;
Structure prediction by ZEFSAII (Michael W. Deem and Ramdas Pophale) SiO2 
 PCOD8183544
Probable space group: A M A 2
;
_chemical_formula_sum "Si O2"
_cell_formula_units_Z 60
_cell_length_a 15.125520
_cell_length_b 20.020040
_cell_length_c 11.086757
_cell_angle_alpha 90.000000
_cell_angle_beta 90.000000
_cell_angle_gamma 90.000000
_cell_volume 3357.219862
_symmetry_space_group_name_H-M "A M A 2"
_symmetry_group_IT_number 40
_symmetry_cell_setting 'orthorhombic'
loop_
_space_group_symop_operation_xyz
x,y,z
-x,-y,z
1/2-x,y,z
1/2+x,-y,z
x,1/2+y,1/2+z
-x,1/2-y,1/2+z
1/2-x,1/2+y,1/2+z
1/2+x,1/2-y,1/2+z
loop_
_atom_site_type_symbol
_atom_site_label
_atom_site_fract_x
_atom_site_fract_y
_atom_site_fract_z
Si Si1 0.501313 0.922611 0.561570
Si Si2 0.850151 0.575863 0.649503
Si Si3 0.351629 0.864163 0.403453
Si Si4 0.000000 0.500000 0.523702
Si Si5 0.649897 0.820531 0.536410
Si Si6 0.849684 0.179358 0.945849
Si Si7 0.350602 0.718254 0.308806
Si Si8 0.008836 0.112742 0.836708
O O1 0.412336 0.886990 0.514993
O O2 0.585304 0.882484 0.506473
O O3 0.511769 0.919702 0.705209
O O4 0.500000 0.000000 0.520643
O O5 0.750000 0.550370 0.629233
O O6 0.868311 0.587600 0.790202
O O7 0.864993 0.645120 0.576732
O O8 0.916553 0.518451 0.606403
O O9 0.250000 0.867840 0.446533
O O10 0.376740 0.790130 0.360550
O O11 0.029505 0.559380 0.438241
O O12 0.750000 0.847572 0.522817
O O13 0.631326 0.758708 0.447051
O O14 0.634885 0.786935 0.666090
O O15 0.750000 0.166117 0.902188
O O16 0.912658 0.145997 0.847401
O O17 0.250000 0.700540 0.343070
O O18 0.415639 0.665596 0.368638
#
# Coordination Sequence:
#
# PCOD8183544 Si02
#       8
#     8   8   8   4   8   8   8   8
#     4  11  23  35  49  74 114 150 179 202 247 325
#     4   9  18  33  55  80  99 127 173 220 267 310
#     4  10  20  36  56  76 101 135 180 225 262 308
#     4  10  20  34  54  78 108 138 170 216 262 314
#     4   9  17  33  56  78 100 131 175 224 266 307
#     4   9  16  31  56  79  98 123 169 227 271 303
#     4   9  17  32  55  78  99 130 175 223 266 303
#     4  10  20  34  50  79 110 139 173 212 259 316
#
# _framework density 17.871931
#
# number of rings (size 3 to 8) (size 9 to 14) (size 15 to 20)
#    0.000    2.400    2.000    0.800    0.933    1.600 
#    0.000    0.000    0.000    0.000    0.000    0.000 
#    0.000    0.000    0.000    0.000    0.000    0.000 
#
# Total GULP energy -371906.412252 kJ/mol
# GULP energy per Si atom -12396.880408 kJ/mol
# Density = 1.783125 g / cm^3
# Si number density = 17.871931 Si / 1000 Ang^3
#
#
#
# Elastic Constant Matrix: (Units=GPa)
#
#
# Indices 1 2 3 4 5 6 
#
# 1 113.2283 72.0461 27.9691 0.0000 0.0000 0.0000
# 2 72.0461 118.3196 22.6908 0.0000 0.0000 0.0000
# 3 27.9691 22.6908 35.9118 0.0000 0.0000 0.0000
# 4 0.0000 0.0000 0.0000 17.3724 0.0000 0.0000
# 5 0.0000 0.0000 0.0000 0.0000 27.1560 0.0000
# 6 0.0000 0.0000 0.0000 0.0000 0.0000 34.6113
#
#
#
# Elastic Compliance Matrix: (Units=1/GPa)
#
#
# Indices 1 2 3 4 5 6 
#
# 1 0.015870 -0.008299 -0.007116 0.000000 0.000000 0.000000
# 2 -0.008299 0.013956 -0.002355 0.000000 0.000000 0.000000
# 3 -0.007116 -0.002355 0.034877 0.000000 0.000000 0.000000
# 4 0.000000 0.000000 0.000000 0.057563 0.000000 0.000000
# 5 0.000000 0.000000 0.000000 0.000000 0.036824 0.000000
# 6 0.000000 0.000000 0.000000 0.000000 0.000000 0.028892
#
#
# Mechanical properties :
#
#
# Convention : Reuss Voigt Hill
#
# Bulk Modulus (GPa) = 34.29064 56.98577 45.63820
# Shear Modulus (GPa) = 21.43682 25.47817 23.45749
#
# Velocity S-wave (km/s) = 3.46709 3.77980 3.62682
# Velocity P-wave (km/s) = 5.93769 7.14171 6.56735
#
# Compressibility (1/GPa) = 0.02916248
#
# Stress axis : x y z
#
# Youngs Moduli (GPa) = 63.01232 71.65135 28.67249
#
# Poissons Ratio (x) = 0.59461 0.20405
# Poissons Ratio (y) = 0.52291 0.06753
# Poissons Ratio (z) = 0.44843 0.16875
#
# Static dielectric constant tensor:
#      x y z
#    x 3.395110 0.000000 0.000000 
#    y 0.000000 3.364670 0.000000 
#    z 0.000000 0.000000 3.036910 
# 
# 
# High freq. dielectric constant tensor:
#      x y z
#    x 1.698550 0.000000 0.000000 
#    y 0.000000 1.691020 0.000000 
#    z 0.000000 0.000000 1.668250 
# 
# From -- ./inp_files/12546.got.cif
#   From: 2010.03.12/outbox.cif.g09.slc.cpg/sg40_7_cif.got.tgz:12546.got - 2010.04.14 01:38:03.
