data_PCOD8183978
_publ_section_title
;
Structure prediction by ZEFSAII (Michael W. Deem and Ramdas Pophale) SiO2 
 PCOD8183978
Probable space group: A M A 2
;
_chemical_formula_sum "Si O2"
_cell_formula_units_Z 64
_cell_length_a 14.624193
_cell_length_b 16.813248
_cell_length_c 11.481098
_cell_angle_alpha 90.000000
_cell_angle_beta 90.000000
_cell_angle_gamma 90.000000
_cell_volume 2822.974485
_symmetry_space_group_name_H-M "A M A 2"
_symmetry_group_IT_number 40
_symmetry_cell_setting 'orthorhombic'
loop_
_space_group_symop_operation_xyz
x,y,z
-x,-y,z
1/2-x,y,z
1/2+x,-y,z
x,1/2+y,1/2+z
-x,1/2-y,1/2+z
1/2-x,1/2+y,1/2+z
1/2+x,1/2-y,1/2+z
loop_
_atom_site_type_symbol
_atom_site_label
_atom_site_fract_x
_atom_site_fract_y
_atom_site_fract_z
Si Si1 0.598891 0.336853 0.378780
Si Si2 0.856744 0.808425 0.617769
Si Si3 0.145607 0.083049 0.248668
Si Si4 0.892397 0.991433 0.007888
Si Si5 0.023859 0.581412 0.957378
Si Si6 0.606865 0.166578 0.958730
Si Si7 0.147839 0.321285 0.986934
Si Si8 0.148458 0.757300 0.720411
O O1 0.593145 0.324881 0.240155
O O2 0.639134 0.423660 0.414588
O O3 0.500549 0.330272 0.437768
O O4 0.659392 0.265682 0.429789
O O5 0.750000 0.829909 0.629971
O O6 0.868199 0.717495 0.574045
O O7 0.904080 0.864341 0.523665
O O8 0.250000 0.088850 0.296119
O O9 0.145778 0.029687 0.134110
O O10 0.101866 0.170714 0.224292
O O11 0.076889 0.047612 0.343886
O O12 0.000000 0.000000 0.012316
O O13 0.852873 0.077647 0.972798
O O14 0.929464 0.626644 0.922533
O O15 0.000000 0.500000 0.028215
O O16 0.654378 0.202805 0.845680
O O17 0.250000 0.360968 0.981442
O O18 0.106301 0.313462 0.119298
O O19 0.250000 0.741736 0.672758
#
# Coordination Sequence:
#
# PCOD8183978 Si02
#       8
#     8   8   8   8   8   8   8   8
#     4  11  23  42  69 103 144 187 233 291 355 429
#     4  12  26  45  71 105 145 191 242 297 362 434
#     4  11  22  42  72 100 136 183 235 291 361 432
#     4  10  24  42  68 106 142 186 237 298 355 419
#     4  12  27  45  67  97 138 188 239 299 361 429
#     4  11  23  42  72 104 146 189 238 290 358 423
#     4  11  23  42  70 103 134 182 240 295 356 431
#     4  10  20  38  68  97 130 180 235 280 345 423
#
# _framework density 22.671123000000001
#
# number of rings (size 3 to 8) (size 9 to 14) (size 15 to 20)
#    0.000    1.000    3.750    2.250    0.000    8.000 
#    0.000    1.250    0.000    0.000    0.000    0.000 
#    0.000    0.000    0.000    0.000    0.000    0.000 
#
# Total GULP energy -396688.959293 kJ/mol
# GULP energy per Si atom -12396.529978 kJ/mol
# Density = 2.261952 g / cm^3
# Si number density = 22.671123 Si / 1000 Ang^3
#
#
#
# Elastic Constant Matrix: (Units=GPa)
#
#
# Indices 1 2 3 4 5 6 
#
# 1 94.5820 30.0162 20.4022 0.0000 0.0000 0.0000
# 2 30.0162 151.0676 41.1955 0.0000 0.0000 0.0000
# 3 20.4022 41.1955 121.7614 0.0000 0.0000 0.0000
# 4 0.0000 0.0000 0.0000 31.0365 0.0000 0.0000
# 5 0.0000 0.0000 0.0000 0.0000 24.8830 0.0000
# 6 0.0000 0.0000 0.0000 0.0000 0.0000 7.2454
#
#
#
# Elastic Compliance Matrix: (Units=1/GPa)
#
#
# Indices 1 2 3 4 5 6 
#
# 1 0.011459 -0.001931 -0.001267 0.000000 0.000000 0.000000
# 2 -0.001931 0.007618 -0.002254 0.000000 0.000000 0.000000
# 3 -0.001267 -0.002254 0.009188 0.000000 0.000000 0.000000
# 4 0.000000 0.000000 0.000000 0.032220 0.000000 0.000000
# 5 0.000000 0.000000 0.000000 0.000000 0.040188 0.000000
# 6 0.000000 0.000000 0.000000 0.000000 0.000000 0.138018
#
#
# Mechanical properties :
#
#
# Convention : Reuss Voigt Hill
#
# Bulk Modulus (GPa) = 57.60073 61.18209 59.39141
# Shear Modulus (GPa) = 19.57857 31.01945 25.29901
#
# Velocity S-wave (km/s) = 2.94188 3.70298 3.34415
# Velocity P-wave (km/s) = 6.08291 6.73262 6.41599
#
# Compressibility (1/GPa) = 0.01736089
#
# Stress axis : x y z
#
# Youngs Moduli (GPa) = 87.26756 131.26967 108.84331
#
# Poissons Ratio (x) = 0.25354 0.13786
# Poissons Ratio (y) = 0.16855 0.24530
# Poissons Ratio (z) = 0.11053 0.29585
#
# Static dielectric constant tensor:
#      x y z
#    x 4.060590 0.000000 0.000000 
#    y 0.000000 4.426080 0.000000 
#    z 0.000000 0.000000 4.076950 
# 
# 
# High freq. dielectric constant tensor:
#      x y z
#    x 1.903310 0.000000 0.000000 
#    y 0.000000 1.892390 0.000000 
#    z 0.000000 0.000000 1.886600 
# 
# From -- ./inp_files/12416.got.cif
#   From: 2010.03.12/outbox.cif.g09.slc.cpg/sg40_7_cif.got.tgz:12416.got - 2010.04.14 01:38:03.
