data_PCOD8183953
_publ_section_title
;
Structure prediction by ZEFSAII (Michael W. Deem and Ramdas Pophale) SiO2 
 PCOD8183953
Probable space group: A M A 2
;
_chemical_formula_sum "Si O2"
_cell_formula_units_Z 56
_cell_length_a 16.713631
_cell_length_b 4.961457
_cell_length_c 31.269328
_cell_angle_alpha 90.000000
_cell_angle_beta 90.000000
_cell_angle_gamma 90.000000
_cell_volume 2592.976552
_symmetry_space_group_name_H-M "A M A 2"
_symmetry_group_IT_number 40
_symmetry_cell_setting 'orthorhombic'
loop_
_space_group_symop_operation_xyz
x,y,z
-x,-y,z
1/2-x,y,z
1/2+x,-y,z
x,1/2+y,1/2+z
-x,1/2-y,1/2+z
1/2-x,1/2+y,1/2+z
1/2+x,1/2-y,1/2+z
loop_
_atom_site_type_symbol
_atom_site_label
_atom_site_fract_x
_atom_site_fract_y
_atom_site_fract_z
Si Si1 0.090655 0.597744 0.051160
Si Si2 0.657336 0.398326 0.595235
Si Si3 0.557740 0.254603 0.961381
Si Si4 0.589956 0.395086 0.870672
Si Si5 0.158495 0.581051 0.230263
Si Si6 0.908590 0.913167 0.185724
Si Si7 0.340861 0.601963 0.327438
O O1 0.146324 0.340476 0.060652
O O2 0.000000 0.500000 0.056026
O O3 0.106988 0.835085 0.084483
O O4 0.111141 0.729191 0.004467
O O5 0.750000 0.475868 0.597368
O O6 0.624274 0.299058 0.640841
O O7 0.500000 0.500000 0.965364
O O8 0.611174 0.288987 0.918655
O O9 0.500000 0.000000 0.958823
O O10 0.500000 0.500000 0.867470
O O11 0.647689 0.637713 0.857358
O O12 0.600464 0.141164 0.839750
O O13 0.250000 0.484966 0.225044
O O14 0.101110 0.329959 0.219391
O O15 0.140577 0.678883 0.278516
O O16 0.143815 0.831404 0.199280
O O17 0.000000 0.000000 0.183049
O O18 0.250000 0.501724 0.333268
#
# Coordination Sequence:
#
# PCOD8183953 Si02
#       7
#     8   8   8   8   8   8   8
#     4  11  22  41  66  91 121 163 212 259 306 370
#     4  12  25  42  62  91 129 164 202 254 321 381
#     4  10  20  38  63  93 124 159 204 255 308 359
#     4  11  22  39  64  92 123 163 212 260 307 369
#     4  11  24  43  64  88 124 167 207 254 319 382
#     4  12  25  42  65  93 122 159 211 264 312 372
#     4  11  24  41  61  90 128 167 205 254 320 381
#
# _framework density 21.596800999999999
#
# number of rings (size 3 to 8) (size 9 to 14) (size 15 to 20)
#    0.000    0.857    0.000    9.429    0.000    5.714 
#    0.000    4.286    0.000    0.000    0.000    0.000 
#    0.000    0.000    0.000    0.000    0.000    0.000 
#
# Total GULP energy -347275.170000 kJ/mol
# GULP energy per Si atom -12402.684643 kJ/mol
# Density = 2.154765 g / cm^3
# Si number density = 21.596801 Si / 1000 Ang^3
#
#
#
# Elastic Constant Matrix: (Units=GPa)
#
#
# Indices 1 2 3 4 5 6 
#
# 1 76.2184 25.4880 62.7241 0.0000 0.0000 0.0000
# 2 25.4880 135.8166 46.0573 0.0000 0.0000 0.0000
# 3 62.7241 46.0573 127.3811 0.0000 0.0000 0.0000
# 4 0.0000 0.0000 0.0000 40.6897 0.0000 0.0000
# 5 0.0000 0.0000 0.0000 0.0000 16.0260 0.0000
# 6 0.0000 0.0000 0.0000 0.0000 0.0000 37.2025
#
#
#
# Elastic Compliance Matrix: (Units=1/GPa)
#
#
# Indices 1 2 3 4 5 6 
#
# 1 0.022092 -0.000521 -0.010690 0.000000 0.000000 0.000000
# 2 -0.000521 0.008404 -0.002782 0.000000 0.000000 0.000000
# 3 -0.010690 -0.002782 0.014120 0.000000 0.000000 0.000000
# 4 0.000000 0.000000 0.000000 0.024576 0.000000 0.000000
# 5 0.000000 0.000000 0.000000 0.000000 0.062399 0.000000
# 6 0.000000 0.000000 0.000000 0.000000 0.000000 0.026880
#
#
# Mechanical properties :
#
#
# Convention : Reuss Voigt Hill
#
# Bulk Modulus (GPa) = 60.13156 67.55055 63.84105
# Shear Modulus (GPa) = 26.04167 32.46009 29.25088
#
# Velocity S-wave (km/s) = 3.47625 3.88107 3.68422
# Velocity P-wave (km/s) = 6.63443 7.17144 6.90815
#
# Compressibility (1/GPa) = 0.01663020
#
# Stress axis : x y z
#
# Youngs Moduli (GPa) = 45.26597 118.98962 70.82000
#
# Poissons Ratio (x) = 0.06196 0.75706
# Poissons Ratio (y) = 0.02357 0.19704
# Poissons Ratio (z) = 0.48389 0.33106
#
# Static dielectric constant tensor:
#      x y z
#    x 3.905160 0.000000 0.000000 
#    y 0.000000 3.941260 0.000000 
#    z 0.000000 0.000000 6.170580 
# 
# 
# High freq. dielectric constant tensor:
#      x y z
#    x 1.831320 0.000000 0.000000 
#    y 0.000000 1.864120 0.000000 
#    z 0.000000 0.000000 1.861380 
# 
# From -- ./inp_files/26590.got.cif
#   From: 2010.03.12/outbox.cif.g09.slc.cpg/sg40_14_cif.got.tgz:26590.got - 2010.04.14 01:38:03.
