data_PCOD8183735
_publ_section_title
;
Structure prediction by ZEFSAII (Michael W. Deem and Ramdas Pophale) SiO2 
 PCOD8183735
Probable space group: A M A 2
;
_chemical_formula_sum "Si O2"
_cell_formula_units_Z 64
_cell_length_a 8.546274
_cell_length_b 19.736692
_cell_length_c 20.233553
_cell_angle_alpha 90.000000
_cell_angle_beta 90.000000
_cell_angle_gamma 90.000000
_cell_volume 3412.898147
_symmetry_space_group_name_H-M "A M A 2"
_symmetry_group_IT_number 40
_symmetry_cell_setting 'orthorhombic'
loop_
_space_group_symop_operation_xyz
x,y,z
-x,-y,z
1/2-x,y,z
1/2+x,-y,z
x,1/2+y,1/2+z
-x,1/2-y,1/2+z
1/2-x,1/2+y,1/2+z
1/2+x,1/2-y,1/2+z
loop_
_atom_site_type_symbol
_atom_site_label
_atom_site_fract_x
_atom_site_fract_y
_atom_site_fract_z
Si Si1 0.935897 0.072090 0.951550
Si Si2 0.066914 0.427752 0.948702
Si Si3 0.066955 0.170141 0.341833
Si Si4 0.435389 0.073392 0.094430
Si Si5 0.565938 0.825868 0.700009
Si Si6 0.064480 0.073370 0.589471
Si Si7 0.064950 0.327404 0.702701
Si Si8 0.566996 0.174520 0.838019
O O1 0.750000 0.068409 0.961459
O O2 0.987768 0.128398 0.898880
O O3 0.000000 0.000000 0.926434
O O4 0.016233 0.092368 0.020198
O O5 0.250000 0.435590 0.959640
O O6 0.000000 0.500000 0.925649
O O7 0.031643 0.372536 0.893627
O O8 0.990656 0.403467 0.017198
O O9 0.250000 0.158023 0.353567
O O10 0.017787 0.248231 0.352580
O O11 0.020260 0.145697 0.268569
O O12 0.250000 0.074443 0.102115
O O13 0.513749 0.128060 0.141354
O O14 0.500000 0.000000 0.114388
O O15 0.750000 0.829113 0.696549
O O16 0.495582 0.873451 0.642649
O O17 0.507467 0.749152 0.688433
O O18 0.513150 0.852877 0.771521
O O19 0.250000 0.071273 0.590591
O O20 0.000000 0.000000 0.608373
O O21 0.250000 0.331345 0.713358
O O22 0.750000 0.168890 0.826658
#
# Coordination Sequence:
#
# PCOD8183735 Si02
#       8
#     8   8   8   8   8   8   8   8
#     4  10  20  36  55  79 108 142 179 220 265 313
#     4  11  22  37  56  80 107 140 177 219 265 315
#     4  10  20  37  57  80 108 140 176 219 264 314
#     4  11  22  37  56  80 107 140 177 219 265 315
#     4   9  20  36  56  79 108 142 178 218 265 314
#     4  10  20  36  55  79 108 142 179 220 265 313
#     4  10  20  37  57  80 108 140 176 219 264 314
#     4   9  20  36  56  79 108 142 178 218 265 314
#
# _framework density 18.752390999999999
#
# number of rings (size 3 to 8) (size 9 to 14) (size 15 to 20)
#    0.000    2.000    0.000    5.250    0.000    5.000 
#    0.000   10.000    0.000    0.000    0.000    0.000 
#    0.000    0.000    0.000    0.000    0.000    0.000 
#
# Total GULP energy -396904.273247 kJ/mol
# GULP energy per Si atom -12403.258539 kJ/mol
# Density = 1.870971 g / cm^3
# Si number density = 18.752391 Si / 1000 Ang^3
#
#
#
# Elastic Constant Matrix: (Units=GPa)
#
#
# Indices 1 2 3 4 5 6 
#
# 1 50.2924 16.7669 8.9275 0.0000 0.0000 0.0000
# 2 16.7669 95.1864 76.8656 0.0000 0.0000 0.0000
# 3 8.9275 76.8656 109.2332 0.0000 0.0000 0.0000
# 4 0.0000 0.0000 0.0000 36.1563 0.0000 0.0000
# 5 0.0000 0.0000 0.0000 0.0000 33.2859 0.0000
# 6 0.0000 0.0000 0.0000 0.0000 0.0000 14.5006
#
#
#
# Elastic Compliance Matrix: (Units=1/GPa)
#
#
# Indices 1 2 3 4 5 6 
#
# 1 0.021327 -0.005441 0.002086 0.000000 0.000000 0.000000
# 2 -0.005441 0.025721 -0.017654 0.000000 0.000000 0.000000
# 3 0.002086 -0.017654 0.021407 0.000000 0.000000 0.000000
# 4 0.000000 0.000000 0.000000 0.027658 0.000000 0.000000
# 5 0.000000 0.000000 0.000000 0.000000 0.030043 0.000000
# 6 0.000000 0.000000 0.000000 0.000000 0.000000 0.068963
#
#
# Mechanical properties :
#
#
# Convention : Reuss Voigt Hill
#
# Bulk Modulus (GPa) = 37.82737 51.09243 44.45990
# Shear Modulus (GPa) = 20.32933 26.93205 23.63069
#
# Velocity S-wave (km/s) = 3.29613 3.79382 3.55370
# Velocity P-wave (km/s) = 5.89082 6.81878 6.37172
#
# Compressibility (1/GPa) = 0.02643588
#
# Stress axis : x y z
#
# Youngs Moduli (GPa) = 46.88786 38.87936 46.71278
#
# Poissons Ratio (x) = 0.21155 -0.09743
# Poissons Ratio (y) = 0.25512 0.82469
# Poissons Ratio (z) = -0.09780 0.68639
#
# Static dielectric constant tensor:
#      x y z
#    x 3.488650 0.000000 0.000000 
#    y 0.000000 3.574870 0.000000 
#    z 0.000000 0.000000 3.562070 
# 
# 
# High freq. dielectric constant tensor:
#      x y z
#    x 1.738270 0.000000 0.000000 
#    y 0.000000 1.727830 0.000000 
#    z 0.000000 0.000000 1.734830 
# 
# From -- ./inp_files/19617.got.cif
#   From: 2010.03.12/outbox.cif.g09.slc.cpg/sg40_10_cif.got.tgz:19617.got - 2010.04.14 01:38:03.
