data_PCOD8183779
_publ_section_title
;
Structure prediction by ZEFSAII (Michael W. Deem and Ramdas Pophale) SiO2 
 PCOD8183779
Probable space group: A M A 2
;
_chemical_formula_sum "Si O2"
_cell_formula_units_Z 48
_cell_length_a 8.573044
_cell_length_b 9.143594
_cell_length_c 30.607353
_cell_angle_alpha 90.000000
_cell_angle_beta 90.000000
_cell_angle_gamma 90.000000
_cell_volume 2399.262461
_symmetry_space_group_name_H-M "A M A 2"
_symmetry_group_IT_number 40
_symmetry_cell_setting 'orthorhombic'
loop_
_space_group_symop_operation_xyz
x,y,z
-x,-y,z
1/2-x,y,z
1/2+x,-y,z
x,1/2+y,1/2+z
-x,1/2-y,1/2+z
1/2-x,1/2+y,1/2+z
1/2+x,1/2-y,1/2+z
loop_
_atom_site_type_symbol
_atom_site_label
_atom_site_fract_x
_atom_site_fract_y
_atom_site_fract_z
Si Si1 0.434642 0.158946 0.650190
Si Si2 0.566169 0.339929 0.473757
Si Si3 0.565094 0.839455 0.806798
Si Si4 0.065563 0.159650 0.227345
Si Si5 0.565195 0.655432 0.056471
Si Si6 0.933998 0.160617 0.391618
O O1 0.250000 0.153763 0.653744
O O2 0.501068 0.284053 0.681299
O O3 0.485753 0.203423 0.601564
O O4 0.500000 0.000000 0.663485
O O5 0.500000 0.500000 0.469411
O O6 0.750000 0.347687 0.469771
O O7 0.515673 0.272342 0.520062
O O8 0.497861 0.241868 0.434361
O O9 0.750000 0.842579 0.800592
O O10 0.487445 0.771237 0.764304
O O11 0.512313 0.746902 0.848688
O O12 0.500000 0.000000 0.813854
O O13 0.250000 0.151736 0.225436
O O14 0.000000 0.000000 0.237920
O O15 0.500000 0.500000 0.040716
O O16 0.750000 0.644580 0.063110
O O17 0.750000 0.151047 0.394447
O O18 0.000000 0.000000 0.389071
#
# Coordination Sequence:
#
# PCOD8183779 Si02
#       6
#     8   8   8   8   8   8
#     4  11  22  39  62  88 118 154 196 241 293 348
#     4  10  22  38  57  84 117 153 194 239 287 343
#     4  11  23  40  62  89 120 155 196 240 290 345
#     4  12  25  42  62  87 119 154 195 241 292 348
#     4  10  20  36  58  85 116 151 195 242 290 345
#     4  10  22  39  60  87 118 153 194 239 288 343
#
# _framework density 20.006148
#
# number of rings (size 3 to 8) (size 9 to 14) (size 15 to 20)
#    0.000    1.333    0.000    7.000    0.000    5.333 
#    0.000    1.667    0.000    0.000    0.000    0.000 
#    0.000    0.000    0.000    0.000    0.000    0.000 
#
# Total GULP energy -297729.879489 kJ/mol
# GULP energy per Si atom -12405.411645 kJ/mol
# Density = 1.996061 g / cm^3
# Si number density = 20.006148 Si / 1000 Ang^3
#
#
#
# Elastic Constant Matrix: (Units=GPa)
#
#
# Indices 1 2 3 4 5 6 
#
# 1 105.0225 45.3814 49.5452 0.0000 0.0000 0.0000
# 2 45.3814 161.4790 82.0932 0.0000 0.0000 0.0000
# 3 49.5452 82.0932 127.0527 0.0000 0.0000 0.0000
# 4 0.0000 0.0000 0.0000 50.0289 0.0000 0.0000
# 5 0.0000 0.0000 0.0000 0.0000 32.3041 0.0000
# 6 0.0000 0.0000 0.0000 0.0000 0.0000 39.6661
#
#
#
# Elastic Compliance Matrix: (Units=1/GPa)
#
#
# Indices 1 2 3 4 5 6 
#
# 1 0.011897 -0.001467 -0.003692 0.000000 0.000000 0.000000
# 2 -0.001467 0.009403 -0.005504 0.000000 0.000000 0.000000
# 3 -0.003692 -0.005504 0.012866 0.000000 0.000000 0.000000
# 4 0.000000 0.000000 0.000000 0.019988 0.000000 0.000000
# 5 0.000000 0.000000 0.000000 0.000000 0.030956 0.000000
# 6 0.000000 0.000000 0.000000 0.000000 0.000000 0.025210
#
#
# Mechanical properties :
#
#
# Convention : Reuss Voigt Hill
#
# Bulk Modulus (GPa) = 77.86669 83.06597 80.46633
# Shear Modulus (GPa) = 36.78476 38.83545 37.81010
#
# Velocity S-wave (km/s) = 4.29263 4.41066 4.35204
# Velocity P-wave (km/s) = 7.97338 8.21881 8.09702
#
# Compressibility (1/GPa) = 0.01284246
#
# Stress axis : x y z
#
# Youngs Moduli (GPa) = 84.05385 106.35047 77.72194
#
# Poissons Ratio (x) = 0.15599 0.28692
# Poissons Ratio (y) = 0.12328 0.42775
# Poissons Ratio (z) = 0.31030 0.58531
#
# Static dielectric constant tensor:
#      x y z
#    x 3.698560 0.000000 0.000000 
#    y 0.000000 3.568540 0.000000 
#    z 0.000000 0.000000 3.931870 
# 
# 
# High freq. dielectric constant tensor:
#      x y z
#    x 1.788300 0.000000 0.000000 
#    y 0.000000 1.789060 0.000000 
#    z 0.000000 0.000000 1.799510 
# 
# From -- ./inp_files/26129.got.cif
#   From: 2010.03.12/outbox.cif.g09.slc.cpg/sg40_14_cif.got.tgz:26129.got - 2010.04.14 01:38:03.
