data_PCOD8183302
_publ_section_title
;
Structure prediction by ZEFSAII (Michael W. Deem and Ramdas Pophale) SiO2 
 PCOD8183302
Probable space group: A M A 2
;
_chemical_formula_sum "Si O2"
_cell_formula_units_Z 64
_cell_length_a 17.157232
_cell_length_b 10.352572
_cell_length_c 17.931184
_cell_angle_alpha 90.000000
_cell_angle_beta 90.000000
_cell_angle_gamma 90.000000
_cell_volume 3184.963433
_symmetry_space_group_name_H-M "A M A 2"
_symmetry_group_IT_number 40
_symmetry_cell_setting 'orthorhombic'
loop_
_space_group_symop_operation_xyz
x,y,z
-x,-y,z
1/2-x,y,z
1/2+x,-y,z
x,1/2+y,1/2+z
-x,1/2-y,1/2+z
1/2-x,1/2+y,1/2+z
1/2+x,1/2-y,1/2+z
loop_
_atom_site_type_symbol
_atom_site_label
_atom_site_fract_x
_atom_site_fract_y
_atom_site_fract_z
Si Si1 0.657317 0.259728 0.363970
Si Si2 0.091902 0.500000 0.122749
Si Si3 0.842763 0.247605 0.050575
Si Si4 0.656989 0.499999 0.789416
Si Si5 0.842683 0.258303 0.882004
Si Si6 0.157238 0.265541 0.032639
Si Si7 0.157237 0.982065 0.785034
Si Si8 0.842683 0.981966 0.122274
O O1 0.750000 0.261297 0.363544
O O2 0.627218 0.257146 0.448696
O O3 0.625620 0.385518 0.321174
O O4 0.624601 0.134622 0.321229
O O5 0.122378 0.641528 0.102324
O O6 0.122378 0.398597 0.062199
O O7 0.122375 0.459874 0.203727
O O8 0.000000 0.500000 0.122747
O O9 0.750000 0.258013 0.054257
O O10 0.872782 0.110346 0.081203
O O11 0.874381 0.259603 0.966297
O O12 0.750000 0.499999 0.789416
O O13 0.624601 0.384967 0.840821
O O14 0.624601 0.480406 0.706198
O O15 0.750000 0.258160 0.883002
O O16 0.872781 0.132505 0.838351
O O17 0.250000 0.276267 0.036002
O O18 0.125619 0.145123 0.080777
O O19 0.250000 0.981747 0.777986
O O20 0.750000 0.980542 0.121703
#
# Coordination Sequence:
#
# PCOD8183302 Si02
#       8
#     8   8   8   8   8   8   8   8
#     4   9  17  29  52  82 106 129 168 220 278 333
#     4  12  25  38  52  78 115 158 199 228 262 326
#     4  10  19  35  58  83 109 140 179 232 288 334
#     4   9  15  24  39  69 106 131 154 198 256 317
#     4   9  17  29  52  82 106 129 168 220 278 333
#     4  10  19  35  58  83 109 140 179 232 288 334
#     4  10  19  35  58  83 109 140 179 232 288 334
#     4   9  17  29  52  82 106 129 168 220 278 333
#
# _framework density 20.094422999999999
#
# number of rings (size 3 to 8) (size 9 to 14) (size 15 to 20)
#    0.000    2.250    0.000    4.125    0.000    9.000 
#    0.000    1.875    0.000    0.000    0.000    0.000 
#    0.000    0.000    0.000    0.000    0.000    0.000 
#
# Total GULP energy -396857.346943 kJ/mol
# GULP energy per Si atom -12401.792092 kJ/mol
# Density = 2.004869 g / cm^3
# Si number density = 20.094423 Si / 1000 Ang^3
#
#
#
# Elastic Constant Matrix: (Units=GPa)
#
#
# Indices 1 2 3 4 5 6 
#
# 1 27.3750 8.1879 8.1892 0.0000 0.0000 0.0000
# 2 8.1879 124.5527 26.5714 0.0000 0.0000 0.0000
# 3 8.1892 26.5714 124.5547 0.0000 0.0000 0.0000
# 4 0.0000 0.0000 0.0000 48.9910 0.0000 0.0000
# 5 0.0000 0.0000 0.0000 0.0000 0.3210 0.0000
# 6 0.0000 0.0000 0.0000 0.0000 0.0000 0.3207
#
#
#
# Elastic Compliance Matrix: (Units=1/GPa)
#
#
# Indices 1 2 3 4 5 6 
#
# 1 0.037753 -0.002045 -0.002046 0.000000 0.000000 0.000000
# 2 -0.002045 0.008522 -0.001684 0.000000 0.000000 0.000000
# 3 -0.002046 -0.001684 0.008522 0.000000 0.000000 0.000000
# 4 0.000000 0.000000 0.000000 0.020412 0.000000 0.000000
# 5 0.000000 0.000000 0.000000 0.000000 3.115581 0.000000
# 6 0.000000 0.000000 0.000000 0.000000 0.000000 3.118418
#
#
# Mechanical properties :
#
#
# Convention : Reuss Voigt Hill
#
# Bulk Modulus (GPa) = 23.12226 40.26439 31.69333
# Shear Modulus (GPa) = 0.78924 25.49546 13.14235
#
# Velocity S-wave (km/s) = 0.62739 3.56586 2.56018
# Velocity P-wave (km/s) = 3.47226 6.08563 4.95437
#
# Compressibility (1/GPa) = 0.04324837
#
# Stress axis : x y z
#
# Youngs Moduli (GPa) = 26.48762 117.33832 117.33953
#
# Poissons Ratio (x) = 0.24000 0.24006
# Poissons Ratio (y) = 0.05418 0.19755
# Poissons Ratio (z) = 0.05419 0.19755
#
# Static dielectric constant tensor:
#      x y z
#    x 2.945500 0.000000 0.000000 
#    y 0.000000 3.916540 0.000000 
#    z 0.000000 0.000000 3.916540 
# 
# 
# High freq. dielectric constant tensor:
#      x y z
#    x 1.713600 0.000000 0.000000 
#    y 0.000000 1.804890 0.000000 
#    z 0.000000 0.000000 1.804890 
# 
# From -- ./inp_files/21394.got.cif
#   From: 2010.03.12/outbox.cif.g09.slc.cpg/sg40_11_cif.got.tgz:21394.got - 2010.04.14 01:38:03.
