data_PCOD8183364
_publ_section_title
;
Structure prediction by ZEFSAII (Michael W. Deem and Ramdas Pophale) SiO2 
 PCOD8183364
Probable space group: A M A 2
;
_chemical_formula_sum "Si O2"
_cell_formula_units_Z 60
_cell_length_a 23.670113
_cell_length_b 8.287698
_cell_length_c 15.733219
_cell_angle_alpha 90.000000
_cell_angle_beta 90.000000
_cell_angle_gamma 90.000000
_cell_volume 3086.397342
_symmetry_space_group_name_H-M "A M A 2"
_symmetry_group_IT_number 40
_symmetry_cell_setting 'orthorhombic'
loop_
_space_group_symop_operation_xyz
x,y,z
-x,-y,z
1/2-x,y,z
1/2+x,-y,z
x,1/2+y,1/2+z
-x,1/2-y,1/2+z
1/2-x,1/2+y,1/2+z
1/2+x,1/2-y,1/2+z
loop_
_atom_site_type_symbol
_atom_site_label
_atom_site_fract_x
_atom_site_fract_y
_atom_site_fract_z
Si Si1 0.500000 0.000000 0.458431
Si Si2 0.011182 0.812502 0.839358
Si Si3 0.390230 0.505151 0.067003
Si Si4 0.815085 0.334519 0.929079
Si Si5 0.096742 0.197997 0.740072
Si Si6 0.813444 0.529887 0.756570
Si Si7 0.812600 0.221744 0.655370
Si Si8 0.866410 0.598623 0.318022
O O1 0.507875 0.831402 0.408369
O O2 0.553513 0.033958 0.516940
O O3 0.074311 0.806922 0.801039
O O4 0.967863 0.760975 0.764483
O O5 0.000000 0.000000 0.872646
O O6 0.404472 0.600676 0.152597
O O7 0.359221 0.335258 0.087316
O O8 0.347624 0.609480 0.011552
O O9 0.750000 0.325213 0.953049
O O10 0.826904 0.446401 0.846829
O O11 0.838582 0.155715 0.906497
O O12 0.137063 0.349192 0.733933
O O13 0.121367 0.092065 0.818663
O O14 0.750000 0.606217 0.760171
O O15 0.816777 0.410215 0.676387
O O16 0.750000 0.178631 0.620974
O O17 0.821516 0.129004 0.743796
#
# Coordination Sequence:
#
# PCOD8183364 Si02
#       8
#     4   8   8   8   8   8   8   8
#     4  12  24  42  66  86 124 168 204 256 320 370
#     4  10  22  41  63  87 122 162 211 257 298 374
#     4  11  23  37  59  90 122 156 204 252 321 369
#     4  10  19  36  60  87 118 155 204 250 303 370
#     4  10  22  36  60  85 123 157 205 260 304 364
#     4   9  19  37  59  86 118 161 213 250 299 377
#     4   9  19  36  58  84 119 158 198 247 301 367
#     4   9  18  35  58  84 113 157 203 244 297 361
#
# _framework density 19.440142000000002
#
# number of rings (size 3 to 8) (size 9 to 14) (size 15 to 20)
#    0.000    2.133    1.333    2.400    6.533    3.200 
#    2.400    1.333    0.000    0.000    0.000    0.000 
#    0.000    0.000    0.000    0.000    0.000    0.000 
#
# Total GULP energy -371712.714688 kJ/mol
# GULP energy per Si atom -12390.423823 kJ/mol
# Density = 1.939590 g / cm^3
# Si number density = 19.440142 Si / 1000 Ang^3
#
#
#
# Elastic Constant Matrix: (Units=GPa)
#
#
# Indices 1 2 3 4 5 6 
#
# 1 138.2331 41.7805 41.9240 0.0000 0.0000 0.0000
# 2 41.7805 74.6285 33.7257 0.0000 0.0000 0.0000
# 3 41.9240 33.7257 75.4218 0.0000 0.0000 0.0000
# 4 0.0000 0.0000 0.0000 19.8813 0.0000 0.0000
# 5 0.0000 0.0000 0.0000 0.0000 38.3749 0.0000
# 6 0.0000 0.0000 0.0000 0.0000 0.0000 28.8880
#
#
#
# Elastic Compliance Matrix: (Units=1/GPa)
#
#
# Indices 1 2 3 4 5 6 
#
# 1 0.009432 -0.003648 -0.003612 0.000000 0.000000 0.000000
# 2 -0.003648 0.018205 -0.006112 0.000000 0.000000 0.000000
# 3 -0.003612 -0.006112 0.017999 0.000000 0.000000 0.000000
# 4 0.000000 0.000000 0.000000 0.050298 0.000000 0.000000
# 5 0.000000 0.000000 0.000000 0.000000 0.026059 0.000000
# 6 0.000000 0.000000 0.000000 0.000000 0.000000 0.034616
#
#
# Mechanical properties :
#
#
# Convention : Reuss Voigt Hill
#
# Bulk Modulus (GPa) = 52.93373 58.12709 55.53041
# Shear Modulus (GPa) = 26.36410 28.81905 27.59158
#
# Velocity S-wave (km/s) = 3.68661 3.85444 3.77146
# Velocity P-wave (km/s) = 6.73867 7.05510 6.89870
#
# Compressibility (1/GPa) = 0.01889155
#
# Stress axis : x y z
#
# Youngs Moduli (GPa) = 106.01957 54.93128 55.55722
#
# Poissons Ratio (x) = 0.20042 0.20065
# Poissons Ratio (y) = 0.38681 0.33958
# Poissons Ratio (z) = 0.38289 0.33576
#
# Static dielectric constant tensor:
#      x y z
#    x 3.895440 0.000000 0.000000 
#    y 0.000000 3.612810 0.000000 
#    z 0.000000 0.000000 3.427280 
# 
# 
# High freq. dielectric constant tensor:
#      x y z
#    x 1.783090 0.000000 0.000000 
#    y 0.000000 1.745920 0.000000 
#    z 0.000000 0.000000 1.733370 
# 
# From -- ./inp_files/18477.got.cif
#   From: 2010.03.12/outbox.cif.g09.slc.cpg/sg40_10_cif.got.tgz:18477.got - 2010.04.14 01:38:03.
