data_PCOD8183614
_publ_section_title
;
Structure prediction by ZEFSAII (Michael W. Deem and Ramdas Pophale) SiO2 
 PCOD8183614
Probable space group: A M A 2
;
_chemical_formula_sum "Si O2"
_cell_formula_units_Z 64
_cell_length_a 8.823906
_cell_length_b 17.998434
_cell_length_c 20.395961
_cell_angle_alpha 90.000000
_cell_angle_beta 90.000000
_cell_angle_gamma 90.000000
_cell_volume 3239.214931
_symmetry_space_group_name_H-M "A M A 2"
_symmetry_group_IT_number 40
_symmetry_cell_setting 'orthorhombic'
loop_
_space_group_symop_operation_xyz
x,y,z
-x,-y,z
1/2-x,y,z
1/2+x,-y,z
x,1/2+y,1/2+z
-x,1/2-y,1/2+z
1/2-x,1/2+y,1/2+z
1/2+x,1/2-y,1/2+z
loop_
_atom_site_type_symbol
_atom_site_label
_atom_site_fract_x
_atom_site_fract_y
_atom_site_fract_z
Si Si1 0.929223 0.194828 0.953980
Si Si2 0.917525 0.640856 0.091786
Si Si3 0.570174 0.923335 0.323292
Si Si4 0.423446 0.643109 0.220764
Si Si5 0.926438 0.682175 0.719262
Si Si6 0.427132 0.923161 0.845174
Si Si7 0.920166 0.317204 0.586686
Si Si8 0.429779 0.354869 0.946979
O O1 0.750000 0.206783 0.959478
O O2 0.977071 0.139904 0.895990
O O3 0.007225 0.272371 0.936854
O O4 0.990333 0.158732 0.021398
O O5 0.750000 0.610437 0.108649
O O6 0.913173 0.729172 0.088872
O O7 0.032621 0.614110 0.147974
O O8 0.969448 0.613651 0.019658
O O9 0.750000 0.928284 0.323562
O O10 0.517505 0.856275 0.277439
O O11 0.509484 0.910088 0.396522
O O12 0.500000 0.000000 0.296457
O O13 0.250000 0.623446 0.233473
O O14 0.455525 0.730421 0.226974
O O15 0.522701 0.599020 0.272552
O O16 0.750000 0.662129 0.723900
O O17 0.990488 0.652362 0.650045
O O18 0.250000 0.934524 0.844985
O O19 0.500000 0.000000 0.867874
O O20 0.750000 0.350609 0.585871
O O21 0.250000 0.352804 0.935254
#
# Coordination Sequence:
#
# PCOD8183614 Si02
#       8
#     8   8   8   8   8   8   8   8
#     4  10  20  35  57  85 112 143 183 229 278 329
#     4   8  16  31  53  81 112 141 175 220 268 318
#     4  12  25  40  57  79 111 149 187 230 277 329
#     4  10  20  34  57  85 112 142 179 223 271 323
#     4  10  20  36  59  86 114 145 183 227 272 326
#     4  11  24  39  55  76 108 146 185 228 273 323
#     4   9  17  31  54  84 114 144 179 225 275 324
#     4  10  20  36  59  86 113 144 182 226 274 328
#
# _framework density 19.757874000000001
#
# number of rings (size 3 to 8) (size 9 to 14) (size 15 to 20)
#    0.000    2.000    0.000    4.875    0.000    9.000 
#    0.000    1.250    0.000    4.500    0.000    0.000 
#    0.000    0.000    0.000    0.000    0.000    0.000 
#
# Total GULP energy -396863.337605 kJ/mol
# GULP energy per Si atom -12401.979300 kJ/mol
# Density = 1.971290 g / cm^3
# Si number density = 19.757874 Si / 1000 Ang^3
#
#
#
# Elastic Constant Matrix: (Units=GPa)
#
#
# Indices 1 2 3 4 5 6 
#
# 1 104.9880 22.4163 30.2055 0.0000 0.0000 0.0000
# 2 22.4163 34.8729 7.4884 0.0000 0.0000 0.0000
# 3 30.2055 7.4884 94.5953 0.0000 0.0000 0.0000
# 4 0.0000 0.0000 0.0000 4.3103 0.0000 0.0000
# 5 0.0000 0.0000 0.0000 0.0000 38.5546 0.0000
# 6 0.0000 0.0000 0.0000 0.0000 0.0000 28.2892
#
#
#
# Elastic Compliance Matrix: (Units=1/GPa)
#
#
# Indices 1 2 3 4 5 6 
#
# 1 0.011955 -0.006984 -0.003265 0.000000 0.000000 0.000000
# 2 -0.006984 0.033251 -0.000402 0.000000 0.000000 0.000000
# 3 -0.003265 -0.000402 0.011646 0.000000 0.000000 0.000000
# 4 0.000000 0.000000 0.000000 0.232000 0.000000 0.000000
# 5 0.000000 0.000000 0.000000 0.000000 0.025937 0.000000
# 6 0.000000 0.000000 0.000000 0.000000 0.000000 0.035349
#
#
# Mechanical properties :
#
#
# Convention : Reuss Voigt Hill
#
# Bulk Modulus (GPa) = 28.12886 39.40853 33.76870
# Shear Modulus (GPa) = 13.04495 25.85389 19.44942
#
# Velocity S-wave (km/s) = 2.57230 3.62129 3.14090
# Velocity P-wave (km/s) = 4.80521 6.12161 5.50291
#
# Compressibility (1/GPa) = 0.03555068
#
# Stress axis : x y z
#
# Youngs Moduli (GPa) = 83.64500 30.07419 85.86917
#
# Poissons Ratio (x) = 0.21003 0.28033
# Poissons Ratio (y) = 0.58416 0.03454
# Poissons Ratio (z) = 0.27307 0.01210
#
# Static dielectric constant tensor:
#      x y z
#    x 3.716370 0.000000 0.000000 
#    y 0.000000 3.290270 0.000000 
#    z 0.000000 0.000000 3.939680 
# 
# 
# High freq. dielectric constant tensor:
#      x y z
#    x 1.784060 0.000000 0.000000 
#    y 0.000000 1.735630 0.000000 
#    z 0.000000 0.000000 1.785760 
# 
# From -- ./inp_files/22421.got.cif
#   From: 2010.03.12/outbox.cif.g09.slc.cpg/sg40_12_cif.got.tgz:22421.got - 2010.04.14 01:38:03.
