data_PCOD8183328
_publ_section_title
;
Structure prediction by ZEFSAII (Michael W. Deem and Ramdas Pophale) SiO2 
 PCOD8183328
Probable space group: A M A 2
;
_chemical_formula_sum "Si O2"
_cell_formula_units_Z 64
_cell_length_a 8.629681
_cell_length_b 23.829970
_cell_length_c 15.426228
_cell_angle_alpha 90.000000
_cell_angle_beta 90.000000
_cell_angle_gamma 90.000000
_cell_volume 3172.327264
_symmetry_space_group_name_H-M "A M A 2"
_symmetry_group_IT_number 40
_symmetry_cell_setting 'orthorhombic'
loop_
_space_group_symop_operation_xyz
x,y,z
-x,-y,z
1/2-x,y,z
1/2+x,-y,z
x,1/2+y,1/2+z
-x,1/2-y,1/2+z
1/2-x,1/2+y,1/2+z
1/2+x,1/2-y,1/2+z
loop_
_atom_site_type_symbol
_atom_site_label
_atom_site_fract_x
_atom_site_fract_y
_atom_site_fract_z
Si Si1 0.931233 0.748092 0.228200
Si Si2 0.067934 0.060576 0.334272
Si Si3 0.932071 0.364101 0.162810
Si Si4 0.429166 0.749479 0.930633
Si Si5 0.930295 0.135616 0.482356
Si Si6 0.431335 0.135686 0.982704
Si Si7 0.569135 0.369357 0.676043
Si Si8 0.932827 0.438505 0.323634
O O1 0.750000 0.738873 0.207663
O O2 0.966323 0.745808 0.329643
O O3 0.996852 0.806890 0.191638
O O4 0.029272 0.700443 0.181015
O O5 0.250000 0.054330 0.327695
O O6 0.997697 0.086359 0.244641
O O7 0.027868 0.101652 0.412386
O O8 0.000000 0.000000 0.352390
O O9 0.750000 0.370786 0.148256
O O10 0.992149 0.402064 0.242478
O O11 0.020709 0.385452 0.077541
O O12 0.250000 0.735144 0.947389
O O13 0.532932 0.701378 0.973590
O O14 0.472420 0.807539 0.975675
O O15 0.750000 0.124154 0.467768
O O16 0.250000 0.149393 0.969555
O O17 0.464488 0.110153 0.078168
O O18 0.490983 0.090935 0.912166
O O19 0.750000 0.365143 0.696013
O O20 0.750000 0.442651 0.323559
O O21 0.000000 0.500000 0.317315
#
# Coordination Sequence:
#
# PCOD8183328 Si02
#       8
#     8   8   8   8   8   8   8   8
#     4  10  19  35  60  91 123 161 198 239 302 367
#     4  11  23  43  64  89 120 159 204 255 307 361
#     4  11  23  40  61  90 123 158 201 256 307 363
#     4  11  21  36  61  93 126 161 199 249 304 361
#     4  12  25  41  63  91 121 162 204 251 308 367
#     4  10  20  38  62  91 122 160 204 248 301 362
#     4   9  19  37  62  87 120 158 195 240 296 359
#     4  10  23  40  60  86 118 158 204 251 301 355
#
# _framework density 20.174462999999999
#
# number of rings (size 3 to 8) (size 9 to 14) (size 15 to 20)
#    0.000    1.500    2.500    3.000    0.000    4.000 
#    0.000    2.500    0.000    0.000    0.000    0.000 
#    0.000    0.000    0.000    0.000    0.000    0.000 
#
# Total GULP energy -396931.020340 kJ/mol
# GULP energy per Si atom -12404.094386 kJ/mol
# Density = 2.012855 g / cm^3
# Si number density = 20.174463 Si / 1000 Ang^3
#
#
#
# Elastic Constant Matrix: (Units=GPa)
#
#
# Indices 1 2 3 4 5 6 
#
# 1 45.4237 16.7323 23.5710 0.0000 0.0000 0.0000
# 2 16.7323 102.9776 40.1044 0.0000 0.0000 0.0000
# 3 23.5710 40.1044 137.0796 0.0000 0.0000 0.0000
# 4 0.0000 0.0000 0.0000 0.3107 0.0000 0.0000
# 5 0.0000 0.0000 0.0000 0.0000 23.5070 0.0000
# 6 0.0000 0.0000 0.0000 0.0000 0.0000 29.7452
#
#
#
# Elastic Compliance Matrix: (Units=1/GPa)
#
#
# Indices 1 2 3 4 5 6 
#
# 1 0.024808 -0.002674 -0.003483 0.000000 0.000000 0.000000
# 2 -0.002674 0.011248 -0.002831 0.000000 0.000000 0.000000
# 3 -0.003483 -0.002831 0.008722 0.000000 0.000000 0.000000
# 4 0.000000 0.000000 0.000000 3.218367 0.000000 0.000000
# 5 0.000000 0.000000 0.000000 0.000000 0.042540 0.000000
# 6 0.000000 0.000000 0.000000 0.000000 0.000000 0.033619
#
#
# Mechanical properties :
#
#
# Convention : Reuss Voigt Hill
#
# Bulk Modulus (GPa) = 37.31241 49.58848 43.45044
# Shear Modulus (GPa) = 1.48535 24.38415 12.93475
#
# Velocity S-wave (km/s) = 0.85898 3.48036 2.53483
# Velocity P-wave (km/s) = 4.41801 6.38621 5.49102
#
# Compressibility (1/GPa) = 0.02680074
#
# Stress axis : x y z
#
# Youngs Moduli (GPa) = 40.31027 88.90581 114.65013
#
# Poissons Ratio (x) = 0.23776 0.39936
# Poissons Ratio (y) = 0.10780 0.32456
# Poissons Ratio (z) = 0.14041 0.25168
#
# Static dielectric constant tensor:
#      x y z
#    x 3.466160 0.000000 0.000000 
#    y 0.000000 3.883010 0.000000 
#    z 0.000000 0.000000 3.971100 
# 
# 
# High freq. dielectric constant tensor:
#      x y z
#    x 1.771930 0.000000 0.000000 
#    y 0.000000 1.782630 0.000000 
#    z 0.000000 0.000000 1.807410 
# 
# From -- ./inp_files/15603.got.cif
#   From: 2010.03.12/outbox.cif.g09.slc.cpg/sg40_8_cif.got.tgz:15603.got - 2010.04.14 01:38:03.
