data_PCOD8183493
_publ_section_title
;
Structure prediction by ZEFSAII (Michael W. Deem and Ramdas Pophale) SiO2 
 PCOD8183493
Probable space group: A M A 2
;
_chemical_formula_sum "Si O2"
_cell_formula_units_Z 64
_cell_length_a 8.767917
_cell_length_b 14.744391
_cell_length_c 26.996192
_cell_angle_alpha 90.000000
_cell_angle_beta 90.000000
_cell_angle_gamma 90.000000
_cell_volume 3490.002817
_symmetry_space_group_name_H-M "A M A 2"
_symmetry_group_IT_number 40
_symmetry_cell_setting 'orthorhombic'
loop_
_space_group_symop_operation_xyz
x,y,z
-x,-y,z
1/2-x,y,z
1/2+x,-y,z
x,1/2+y,1/2+z
-x,1/2-y,1/2+z
1/2-x,1/2+y,1/2+z
1/2+x,1/2-y,1/2+z
loop_
_atom_site_type_symbol
_atom_site_label
_atom_site_fract_x
_atom_site_fract_y
_atom_site_fract_z
Si Si1 0.928647 0.405389 0.457960
Si Si2 0.069015 0.722985 0.986954
Si Si3 0.928545 0.093481 0.680192
Si Si4 0.071315 0.905593 0.408395
Si Si5 0.072064 0.906121 0.293153
Si Si6 0.069216 0.404316 0.067523
Si Si7 0.930252 0.725375 0.265709
Si Si8 0.572314 0.406090 0.342380
O O1 0.750000 0.404313 0.469835
O O2 0.961200 0.391027 0.399997
O O3 0.000000 0.500000 0.476085
O O4 0.012133 0.326337 0.488188
O O5 0.250000 0.719181 0.987445
O O6 0.006569 0.676160 0.937375
O O7 0.002961 0.675154 0.035433
O O8 0.750000 0.080392 0.683521
O O9 0.978821 0.115836 0.624161
O O10 0.984109 0.173768 0.716061
O O11 0.000000 0.000000 0.699203
O O12 0.250000 0.906559 0.420172
O O13 0.036500 0.890109 0.350871
O O14 0.000000 0.000000 0.426951
O O15 0.250000 0.908314 0.282263
O O16 0.995535 0.826421 0.261677
O O17 0.000000 0.000000 0.274777
O O18 0.250000 0.406865 0.059916
O O19 0.000000 0.500000 0.049937
O O20 0.750000 0.728889 0.270646
O O21 0.997021 0.677322 0.314118
O O22 0.500000 0.500000 0.323520
O O23 0.750000 0.408541 0.330407
#
# Coordination Sequence:
#
# PCOD8183493 Si02
#       8
#     8   8   8   8   8   8   8   8
#     4  10  21  37  54  74 103 139 177 216 256 299
#     4  12  23  34  52  78 105 136 174 212 256 308
#     4   9  20  36  55  79 106 136 168 207 255 307
#     4  10  20  34  51  74 105 139 175 213 255 304
#     4  10  21  36  53  74 102 138 177 216 257 301
#     4  10  20  37  57  78 106 136 168 209 258 309
#     4  11  21  33  52  78 106 137 174 213 256 306
#     4  10  20  33  50  75 107 141 176 212 253 302
#
# _framework density 18.338093000000001
#
# number of rings (size 3 to 8) (size 9 to 14) (size 15 to 20)
#    0.000    1.750    0.000    4.875    0.000    8.500 
#    0.000    0.000    0.000    0.750    0.000    3.500 
#    0.000    0.000    0.000    0.000    0.000    0.000 
#
# Total GULP energy -396972.645623 kJ/mol
# GULP energy per Si atom -12405.395176 kJ/mol
# Density = 1.829635 g / cm^3
# Si number density = 18.338093 Si / 1000 Ang^3
#
#
#
# Elastic Constant Matrix: (Units=GPa)
#
#
# Indices 1 2 3 4 5 6 
#
# 1 105.4816 66.8650 42.9832 0.0000 0.0000 0.0000
# 2 66.8650 170.2128 63.5327 0.0000 0.0000 0.0000
# 3 42.9832 63.5327 69.7461 0.0000 0.0000 0.0000
# 4 0.0000 0.0000 0.0000 18.4744 0.0000 0.0000
# 5 0.0000 0.0000 0.0000 0.0000 -10.8393 0.0000
# 6 0.0000 0.0000 0.0000 0.0000 0.0000 39.0080
#
#
#
# Elastic Compliance Matrix: (Units=1/GPa)
#
#
# Indices 1 2 3 4 5 6 
#
# 1 0.013859 -0.003419 -0.005427 0.000000 0.000000 0.000000
# 2 -0.003419 0.009745 -0.006770 0.000000 0.000000 0.000000
# 3 -0.005427 -0.006770 0.023849 0.000000 0.000000 0.000000
# 4 0.000000 0.000000 0.000000 0.054129 0.000000 0.000000
# 5 0.000000 0.000000 0.000000 0.000000 -0.092257 0.000000
# 6 0.000000 0.000000 0.000000 0.000000 0.000000 0.025636
#
#
# Mechanical properties :
#
#
# Convention : Reuss Voigt Hill
#
# Bulk Modulus (GPa) = 61.64504 76.91138 69.27821
# Shear Modulus (GPa) = 69.83387 20.79927 45.31657
#
# Velocity S-wave (km/s) = 6.17770 3.37146 4.97648
# Velocity P-wave (km/s) = 9.19642 7.56224 8.41907
#
# Compressibility (1/GPa) = 0.01622190
#
# Stress axis : x y z
#
# Youngs Moduli (GPa) = 72.15642 102.61873 41.93044
#
# Poissons Ratio (x) = 0.35081 0.22755
# Poissons Ratio (y) = 0.24667 0.28386
# Poissons Ratio (z) = 0.39159 0.69472
#
# Static dielectric constant tensor:
#      x y z
#    x 3.487430 0.000000 0.000000 
#    y 0.000000 3.533950 0.000000 
#    z 0.000000 0.000000 3.299600 
# 
# 
# High freq. dielectric constant tensor:
#      x y z
#    x 1.726920 0.000000 0.000000 
#    y 0.000000 1.716640 0.000000 
#    z 0.000000 0.000000 1.687510 
# 
# From -- ./inp_files/24236.got.cif
#   From: 2010.03.12/outbox.cif.g09.slc.cpg/sg40_13_cif.got.tgz:24236.got - 2010.04.14 01:38:03.
