data_PCOD8183695
_publ_section_title
;
Structure prediction by ZEFSAII (Michael W. Deem and Ramdas Pophale) SiO2 
 PCOD8183695
Probable space group: A M A 2
;
_chemical_formula_sum "Si O2"
_cell_formula_units_Z 64
_cell_length_a 8.729146
_cell_length_b 24.935601
_cell_length_c 15.068298
_cell_angle_alpha 90.000000
_cell_angle_beta 90.000000
_cell_angle_gamma 90.000000
_cell_volume 3279.863713
_symmetry_space_group_name_H-M "A M A 2"
_symmetry_group_IT_number 40
_symmetry_cell_setting 'orthorhombic'
loop_
_space_group_symop_operation_xyz
x,y,z
-x,-y,z
1/2-x,y,z
1/2+x,-y,z
x,1/2+y,1/2+z
-x,1/2-y,1/2+z
1/2-x,1/2+y,1/2+z
1/2+x,1/2-y,1/2+z
loop_
_atom_site_type_symbol
_atom_site_label
_atom_site_fract_x
_atom_site_fract_y
_atom_site_fract_z
Si Si1 0.572858 0.216001 0.275060
Si Si2 0.425745 0.165255 0.729152
Si Si3 0.430555 0.152503 0.930452
Si Si4 0.570292 0.443872 0.552569
Si Si5 0.930709 0.890241 0.232805
Si Si6 0.429487 0.736328 0.959654
Si Si7 0.571256 0.139995 0.554775
Si Si8 0.569151 0.941770 0.417838
O O1 0.750000 0.210651 0.304017
O O2 0.547984 0.270655 0.220534
O O3 0.519146 0.165702 0.216468
O O4 0.467333 0.215197 0.361823
O O5 0.250000 0.150715 0.709711
O O6 0.474226 0.145806 0.827228
O O7 0.530201 0.133440 0.658822
O O8 0.250000 0.163120 0.940873
O O9 0.517639 0.202783 0.973130
O O10 0.487950 0.100393 0.982760
O O11 0.500000 0.500000 0.524095
O O12 0.750000 0.449169 0.546063
O O13 0.519594 0.428667 0.652212
O O14 0.750000 0.879054 0.232099
O O15 0.986907 0.917533 0.323974
O O16 0.250000 0.730890 0.977764
O O17 0.518512 0.699578 0.029403
O O18 0.750000 0.131917 0.539384
O O19 0.482986 0.095945 0.497651
O O20 0.750000 0.946556 0.418993
O O21 0.500000 0.000000 0.432129
#
# Coordination Sequence:
#
# PCOD8183695 Si02
#       8
#     8   8   8   8   8   8   8   8
#     4  10  20  35  57  86 121 158 197 237 290 354
#     4   9  20  38  58  84 120 157 195 247 303 353
#     4   9  20  40  62  86 118 156 199 249 301 354
#     4  10  22  40  61  88 119 155 201 248 297 352
#     4  10  21  36  57  87 122 160 198 240 292 351
#     4  11  21  35  57  86 120 155 194 241 296 356
#     4  12  24  38  59  87 119 159 203 248 297 355
#     4  11  23  40  61  86 120 160 201 248 296 354
#
# _framework density 19.513003999999999
#
# number of rings (size 3 to 8) (size 9 to 14) (size 15 to 20)
#    0.000    1.750    1.250    4.125    1.750    4.000 
#    0.000    0.625    0.000    1.500    0.000    0.000 
#    0.000    0.000    0.000    0.000    0.000    0.000 
#
# Total GULP energy -396918.452035 kJ/mol
# GULP energy per Si atom -12403.701626 kJ/mol
# Density = 1.946859 g / cm^3
# Si number density = 19.513004 Si / 1000 Ang^3
#
#
#
# Elastic Constant Matrix: (Units=GPa)
#
#
# Indices 1 2 3 4 5 6 
#
# 1 52.1633 28.6403 23.6537 0.0000 0.0000 0.0000
# 2 28.6403 132.2524 61.0814 0.0000 0.0000 0.0000
# 3 23.6537 61.0814 100.8365 0.0000 0.0000 0.0000
# 4 0.0000 0.0000 0.0000 25.6085 0.0000 0.0000
# 5 0.0000 0.0000 0.0000 0.0000 22.9352 0.0000
# 6 0.0000 0.0000 0.0000 0.0000 0.0000 35.9205
#
#
#
# Elastic Compliance Matrix: (Units=1/GPa)
#
#
# Indices 1 2 3 4 5 6 
#
# 1 0.022490 -0.003379 -0.003229 0.000000 0.000000 0.000000
# 2 -0.003379 0.011006 -0.005874 0.000000 0.000000 0.000000
# 3 -0.003229 -0.005874 0.014233 0.000000 0.000000 0.000000
# 4 0.000000 0.000000 0.000000 0.039050 0.000000 0.000000
# 5 0.000000 0.000000 0.000000 0.000000 0.043601 0.000000
# 6 0.000000 0.000000 0.000000 0.000000 0.000000 0.027839
#
#
# Mechanical properties :
#
#
# Convention : Reuss Voigt Hill
#
# Bulk Modulus (GPa) = 43.92786 56.88925 50.40855
# Shear Modulus (GPa) = 26.20942 28.35130 27.28036
#
# Velocity S-wave (km/s) = 3.66891 3.81589 3.74312
# Velocity P-wave (km/s) = 6.36466 6.97370 6.67613
#
# Compressibility (1/GPa) = 0.02276460
#
# Stress axis : x y z
#
# Youngs Moduli (GPa) = 44.46428 90.85821 70.26060
#
# Poissons Ratio (x) = 0.30703 0.22685
# Poissons Ratio (y) = 0.15025 0.41273
# Poissons Ratio (z) = 0.14356 0.53373
#
# Static dielectric constant tensor:
#      x y z
#    x 3.465830 0.000000 0.000000 
#    y 0.000000 3.631870 0.000000 
#    z 0.000000 0.000000 3.621910 
# 
# 
# High freq. dielectric constant tensor:
#      x y z
#    x 1.757370 0.000000 0.000000 
#    y 0.000000 1.754330 0.000000 
#    z 0.000000 0.000000 1.760940 
# 
# From -- ./inp_files/15661.got.cif
#   From: 2010.03.12/outbox.cif.g09.slc.cpg/sg40_8_cif.got.tgz:15661.got - 2010.04.14 01:38:03.
