data_PCOD8183084
_publ_section_title
;
Structure prediction by ZEFSAII (Michael W. Deem and Ramdas Pophale) SiO2 
 PCOD8183084
Probable space group: A M A 2
;
_chemical_formula_sum "Si O2"
_cell_formula_units_Z 48
_cell_length_a 26.437086
_cell_length_b 10.102349
_cell_length_c 9.279502
_cell_angle_alpha 90.000000
_cell_angle_beta 90.000000
_cell_angle_gamma 90.000000
_cell_volume 2478.338487
_symmetry_space_group_name_H-M "A M A 2"
_symmetry_group_IT_number 40
_symmetry_cell_setting 'orthorhombic'
loop_
_space_group_symop_operation_xyz
x,y,z
-x,-y,z
1/2-x,y,z
1/2+x,-y,z
x,1/2+y,1/2+z
-x,1/2-y,1/2+z
1/2-x,1/2+y,1/2+z
1/2+x,1/2-y,1/2+z
loop_
_atom_site_type_symbol
_atom_site_label
_atom_site_fract_x
_atom_site_fract_y
_atom_site_fract_z
Si Si1 0.808381 0.929155 0.493530
Si Si2 0.371290 0.824667 0.992961
Si Si3 0.869540 0.440385 0.267582
Si Si4 0.027927 0.377445 0.859278
Si Si5 0.358411 0.355929 0.814058
Si Si6 0.461122 0.680707 0.121148
O O1 0.750000 0.890315 0.490692
O O2 0.839861 0.802234 0.435143
O O3 0.824554 0.966954 0.655374
O O4 0.816295 0.059649 0.395889
O O5 0.347858 0.875394 0.143909
O O6 0.429149 0.784479 0.025008
O O7 0.370593 0.940977 0.878785
O O8 0.857999 0.301545 0.349845
O O9 0.922766 0.432928 0.179322
O O10 0.087213 0.410902 0.865366
O O11 0.015652 0.249236 0.763363
O O12 0.000000 0.500000 0.782516
O O13 0.006941 0.369035 0.023038
#
# Coordination Sequence:
#
# PCOD8183084 Si02
#       6
#     8   8   8   8   8   8
#     4  10  21  38  59  83 109 138 179 231 283 333
#     4   9  20  39  57  78 110 146 184 227 272 323
#     4   9  20  39  57  80 113 146 182 226 274 324
#     4  10  19  33  51  78 112 145 184 221 263 316
#     4   9  21  37  55  82 113 146 182 227 273 321
#     4   9  21  34  52  81 110 147 186 224 264 313
#
# _framework density 19.367813999999999
#
# number of rings (size 3 to 8) (size 9 to 14) (size 15 to 20)
#    0.000    3.333    0.000    2.000    0.000   12.667 
#    0.000    0.000    0.000    0.000    0.000    0.000 
#    0.000    0.000    0.000    0.000    0.000    0.000 
#
# Total GULP energy -297429.881871 kJ/mol
# GULP energy per Si atom -12392.911745 kJ/mol
# Density = 1.932373 g / cm^3
# Si number density = 19.367814 Si / 1000 Ang^3
#
#
#
# Elastic Constant Matrix: (Units=GPa)
#
#
# Indices 1 2 3 4 5 6 
#
# 1 52.8024 20.5932 30.1559 0.0000 0.0000 0.0000
# 2 20.5932 105.9020 63.3287 0.0000 0.0000 0.0000
# 3 30.1559 63.3287 83.8353 0.0000 0.0000 0.0000
# 4 0.0000 0.0000 0.0000 47.9391 0.0000 0.0000
# 5 0.0000 0.0000 0.0000 0.0000 17.9579 0.0000
# 6 0.0000 0.0000 0.0000 0.0000 0.0000 15.6065
#
#
#
# Elastic Compliance Matrix: (Units=1/GPa)
#
#
# Indices 1 2 3 4 5 6 
#
# 1 0.023882 0.000899 -0.009270 0.000000 0.000000 0.000000
# 2 0.000899 0.017256 -0.013359 0.000000 0.000000 0.000000
# 3 -0.009270 -0.013359 0.025354 0.000000 0.000000 0.000000
# 4 0.000000 0.000000 0.000000 0.020860 0.000000 0.000000
# 5 0.000000 0.000000 0.000000 0.000000 0.055686 0.000000
# 6 0.000000 0.000000 0.000000 0.000000 0.000000 0.064076
#
#
# Mechanical properties :
#
#
# Convention : Reuss Voigt Hill
#
# Bulk Modulus (GPa) = 43.41527 52.29946 47.85736
# Shear Modulus (GPa) = 19.36110 24.86480 22.11295
#
# Velocity S-wave (km/s) = 3.16516 3.58693 3.38263
# Velocity P-wave (km/s) = 5.98519 6.64956 6.32610
#
# Compressibility (1/GPa) = 0.02303337
#
# Stress axis : x y z
#
# Youngs Moduli (GPa) = 41.87285 57.94980 39.44201
#
# Poissons Ratio (x) = -0.05211 0.36562
# Poissons Ratio (y) = -0.03766 0.52690
# Poissons Ratio (z) = 0.38815 0.77414
#
# Static dielectric constant tensor:
#      x y z
#    x 3.350810 0.000000 0.000000 
#    y 0.000000 3.523440 0.000000 
#    z 0.000000 0.000000 3.421020 
# 
# 
# High freq. dielectric constant tensor:
#      x y z
#    x 1.738490 0.000000 0.000000 
#    y 0.000000 1.754610 0.000000 
#    z 0.000000 0.000000 1.745000 
# 
# From -- ./inp_files/9071.got.cif
#   From: 2010.03.12/outbox.cif.g09.slc.cpg/sg40_5_cif.got.tgz:9071.got - 2010.04.14 01:38:03.
