data_PCOD8183462
_publ_section_title
;
Structure prediction by ZEFSAII (Michael W. Deem and Ramdas Pophale) SiO2 
 PCOD8183462
Probable space group: A M A 2
;
_chemical_formula_sum "Si O2"
_cell_formula_units_Z 64
_cell_length_a 8.828626
_cell_length_b 14.487855
_cell_length_c 27.354776
_cell_angle_alpha 90.000000
_cell_angle_beta 90.000000
_cell_angle_gamma 90.000000
_cell_volume 3498.890677
_symmetry_space_group_name_H-M "A M A 2"
_symmetry_group_IT_number 40
_symmetry_cell_setting 'orthorhombic'
loop_
_space_group_symop_operation_xyz
x,y,z
-x,-y,z
1/2-x,y,z
1/2+x,-y,z
x,1/2+y,1/2+z
-x,1/2-y,1/2+z
1/2-x,1/2+y,1/2+z
1/2+x,1/2-y,1/2+z
loop_
_atom_site_type_symbol
_atom_site_label
_atom_site_fract_x
_atom_site_fract_y
_atom_site_fract_z
Si Si1 0.425920 0.403619 0.851250
Si Si2 0.929801 0.789615 0.270454
Si Si3 0.426066 0.403513 0.965094
Si Si4 0.929607 0.277790 0.042624
Si Si5 0.925899 0.590936 0.234893
Si Si6 0.583942 0.353687 0.142698
Si Si7 0.429738 0.592749 0.580837
Si Si8 0.418570 0.854084 0.177174
O O1 0.500000 0.500000 0.835362
O O2 0.250000 0.406637 0.837513
O O3 0.507669 0.320452 0.822866
O O4 0.452299 0.384252 0.908134
O O5 0.750000 0.796792 0.268240
O O6 0.983867 0.683838 0.261560
O O7 0.999124 0.858020 0.229635
O O8 0.500000 0.500000 0.980897
O O9 0.250000 0.406597 0.978881
O O10 0.508124 0.320115 0.992688
O O11 0.750000 0.262625 0.040236
O O12 0.971861 0.349648 0.086408
O O13 0.007613 0.179334 0.050667
O O14 0.750000 0.580531 0.241169
O O15 0.000000 0.500000 0.259298
O O16 0.966483 0.592466 0.177015
O O17 0.750000 0.400996 0.146861
O O18 0.597510 0.249900 0.160386
O O19 0.500000 0.500000 0.556935
O O20 0.250000 0.591618 0.577315
O O21 0.480233 0.593039 0.637572
O O22 0.250000 0.898510 0.180789
#
# Coordination Sequence:
#
# PCOD8183462 Si02
#       8
#     8   8   8   8   8   8   8   8
#     4  10  21  37  57  80 105 133 167 211 263 317
#     4  10  20  34  53  78 105 136 175 217 263 313
#     4  10  21  37  57  81 106 134 169 212 264 319
#     4  10  20  35  55  79 106 139 177 217 263 312
#     4  10  20  32  49  73 103 139 176 212 251 298
#     4   8  16  30  47  68  97 131 167 206 247 292
#     4  11  21  34  52  76 108 144 181 219 259 307
#     4   9  17  31  49  71 100 134 172 212 254 300
#
# _framework density 18.291512000000001
#
# number of rings (size 3 to 8) (size 9 to 14) (size 15 to 20)
#    0.000    2.250    0.000    4.125    0.000    7.500 
#    0.000    2.500    0.000    0.750    0.000    1.750 
#    0.000    0.000    0.000    0.000    0.000    0.000 
#
# Total GULP energy -396763.110823 kJ/mol
# GULP energy per Si atom -12398.847213 kJ/mol
# Density = 1.824988 g / cm^3
# Si number density = 18.291512 Si / 1000 Ang^3
#
#
#
# Elastic Constant Matrix: (Units=GPa)
#
#
# Indices 1 2 3 4 5 6 
#
# 1 122.6391 57.4072 43.5536 0.0000 0.0000 0.0000
# 2 57.4072 108.5788 49.8940 0.0000 0.0000 0.0000
# 3 43.5536 49.8940 75.4793 0.0000 0.0000 0.0000
# 4 0.0000 0.0000 0.0000 22.4417 0.0000 0.0000
# 5 0.0000 0.0000 0.0000 0.0000 30.0583 0.0000
# 6 0.0000 0.0000 0.0000 0.0000 0.0000 32.2838
#
#
#
# Elastic Compliance Matrix: (Units=1/GPa)
#
#
# Indices 1 2 3 4 5 6 
#
# 1 0.011537 -0.004367 -0.003770 0.000000 0.000000 0.000000
# 2 -0.004367 0.014881 -0.007317 0.000000 0.000000 0.000000
# 3 -0.003770 -0.007317 0.020261 0.000000 0.000000 0.000000
# 4 0.000000 0.000000 0.000000 0.044560 0.000000 0.000000
# 5 0.000000 0.000000 0.000000 0.000000 0.033269 0.000000
# 6 0.000000 0.000000 0.000000 0.000000 0.000000 0.030975
#
#
# Mechanical properties :
#
#
# Convention : Reuss Voigt Hill
#
# Bulk Modulus (GPa) = 63.41042 67.60078 65.50560
# Shear Modulus (GPa) = 26.08932 27.34626 26.71779
#
# Velocity S-wave (km/s) = 3.78075 3.87075 3.82601
# Velocity P-wave (km/s) = 7.33489 7.55080 7.44363
#
# Compressibility (1/GPa) = 0.01577028
#
# Stress axis : x y z
#
# Youngs Moduli (GPa) = 86.67469 67.19876 49.35614
#
# Poissons Ratio (x) = 0.29348 0.18609
# Poissons Ratio (y) = 0.37854 0.36113
# Poissons Ratio (z) = 0.32680 0.49168
#
# Static dielectric constant tensor:
#      x y z
#    x 3.500430 0.000000 0.000000 
#    y 0.000000 3.414780 0.000000 
#    z 0.000000 0.000000 3.286760 
# 
# 
# High freq. dielectric constant tensor:
#      x y z
#    x 1.725060 0.000000 0.000000 
#    y 0.000000 1.704010 0.000000 
#    z 0.000000 0.000000 1.683890 
# 
# From -- ./inp_files/24292.got.cif
#   From: 2010.03.12/outbox.cif.g09.slc.cpg/sg40_13_cif.got.tgz:24292.got - 2010.04.14 01:38:03.
