data_PCOD8183122
_publ_section_title
;
Structure prediction by ZEFSAII (Michael W. Deem and Ramdas Pophale) SiO2 
 PCOD8183122
Probable space group: A M A 2
;
_chemical_formula_sum "Si O2"
_cell_formula_units_Z 48
_cell_length_a 9.051669
_cell_length_b 30.951935
_cell_length_c 8.993775
_cell_angle_alpha 90.000000
_cell_angle_beta 90.000000
_cell_angle_gamma 90.000000
_cell_volume 2519.755997
_symmetry_space_group_name_H-M "A M A 2"
_symmetry_group_IT_number 40
_symmetry_cell_setting 'orthorhombic'
loop_
_space_group_symop_operation_xyz
x,y,z
-x,-y,z
1/2-x,y,z
1/2+x,-y,z
x,1/2+y,1/2+z
-x,1/2-y,1/2+z
1/2-x,1/2+y,1/2+z
1/2+x,1/2-y,1/2+z
loop_
_atom_site_type_symbol
_atom_site_label
_atom_site_fract_x
_atom_site_fract_y
_atom_site_fract_z
Si Si1 0.424064 0.628322 0.348620
Si Si2 0.920454 0.789615 0.318917
Si Si3 0.578837 0.705540 0.513288
Si Si4 0.917084 0.542026 0.352438
Si Si5 0.921984 0.373008 0.007560
Si Si6 0.915990 0.041795 0.498256
O O1 0.250000 0.623990 0.370062
O O2 0.482147 0.667536 0.445634
O O3 0.498390 0.584524 0.408990
O O4 0.468031 0.636717 0.177417
O O5 0.750000 0.792079 0.267679
O O6 0.949562 0.748784 0.422086
O O7 0.966426 0.831957 0.410476
O O8 0.027641 0.785355 0.179929
O O9 0.750000 0.692189 0.511726
O O10 0.750000 0.542653 0.413155
O O11 0.919333 0.540473 0.175324
O O12 0.000000 0.500000 0.417316
O O13 0.750000 0.383822 0.998867
O O14 0.006860 0.414416 0.941939
O O15 0.750000 0.041008 0.436529
O O16 0.000000 0.000000 0.433138
#
# Coordination Sequence:
#
# PCOD8183122 Si02
#       6
#     8   8   8   8   8   8
#     4  10  19  33  54  79 109 144 179 219 267 314
#     4  10  22  39  57  78 106 139 174 215 265 318
#     4  11  23  38  57  81 107 137 176 219 263 317
#     4   9  16  27  45  73 107 141 179 221 263 309
#     4   9  18  33  53  77 106 140 178 218 261 311
#     4   9  16  26  44  72 105 139 175 216 260 305
#
# _framework density 19.049464
#
# number of rings (size 3 to 8) (size 9 to 14) (size 15 to 20)
#    0.000    2.333    0.000    3.000    0.000    8.000 
#    0.000    0.000    0.000    1.000    0.000    2.333 
#    0.000    0.000    0.000    0.000    0.000    0.000 
#
# Total GULP energy -297662.727767 kJ/mol
# GULP energy per Si atom -12402.613657 kJ/mol
# Density = 1.900611 g / cm^3
# Si number density = 19.049464 Si / 1000 Ang^3
#
#
#
# Elastic Constant Matrix: (Units=GPa)
#
#
# Indices 1 2 3 4 5 6 
#
# 1 113.6930 71.9466 35.9060 0.0000 0.0000 0.0000
# 2 71.9466 158.4840 38.0646 0.0000 0.0000 0.0000
# 3 35.9060 38.0646 59.1108 0.0000 0.0000 0.0000
# 4 0.0000 0.0000 0.0000 25.3901 0.0000 0.0000
# 5 0.0000 0.0000 0.0000 0.0000 22.6928 0.0000
# 6 0.0000 0.0000 0.0000 0.0000 0.0000 38.4534
#
#
#
# Elastic Compliance Matrix: (Units=1/GPa)
#
#
# Indices 1 2 3 4 5 6 
#
# 1 0.013497 -0.004919 -0.005031 0.000000 0.000000 0.000000
# 2 -0.004919 0.009257 -0.002973 0.000000 0.000000 0.000000
# 3 -0.005031 -0.002973 0.021888 0.000000 0.000000 0.000000
# 4 0.000000 0.000000 0.000000 0.039385 0.000000 0.000000
# 5 0.000000 0.000000 0.000000 0.000000 0.044067 0.000000
# 6 0.000000 0.000000 0.000000 0.000000 0.000000 0.026005
#
#
# Mechanical properties :
#
#
# Convention : Reuss Voigt Hill
#
# Bulk Modulus (GPa) = 53.20325 69.23580 61.21953
# Shear Modulus (GPa) = 26.85117 29.66531 28.25824
#
# Velocity S-wave (km/s) = 3.75847 3.95052 3.85569
# Velocity P-wave (km/s) = 6.84284 7.56525 7.21309
#
# Compressibility (1/GPa) = 0.01879585
#
# Stress axis : x y z
#
# Youngs Moduli (GPa) = 74.08871 108.02751 45.68710
#
# Poissons Ratio (x) = 0.53138 0.22986
# Poissons Ratio (y) = 0.36444 0.13583
# Poissons Ratio (z) = 0.37275 0.32117
#
# Static dielectric constant tensor:
#      x y z
#    x 3.607020 0.000000 0.000000 
#    y 0.000000 3.688710 0.000000 
#    z 0.000000 0.000000 3.088880 
# 
# 
# High freq. dielectric constant tensor:
#      x y z
#    x 1.750580 0.000000 0.000000 
#    y 0.000000 1.759560 0.000000 
#    z 0.000000 0.000000 1.698320 
# 
# From -- ./inp_files/4564.got.cif
#   From: 2010.03.12/outbox.cif.g09.slc.cpg/sg40_3_cif.got.tgz:4564.got - 2010.04.14 01:38:03.
