data_PCOD8183563
_publ_section_title
;
Structure prediction by ZEFSAII (Michael W. Deem and Ramdas Pophale) SiO2 
 PCOD8183563
Probable space group: A M A 2
;
_chemical_formula_sum "Si O2"
_cell_formula_units_Z 60
_cell_length_a 30.454938
_cell_length_b 8.497193
_cell_length_c 11.803763
_cell_angle_alpha 90.000000
_cell_angle_beta 90.000000
_cell_angle_gamma 90.000000
_cell_volume 3054.595329
_symmetry_space_group_name_H-M "A M A 2"
_symmetry_group_IT_number 40
_symmetry_cell_setting 'orthorhombic'
loop_
_space_group_symop_operation_xyz
x,y,z
-x,-y,z
1/2-x,y,z
1/2+x,-y,z
x,1/2+y,1/2+z
-x,1/2-y,1/2+z
1/2-x,1/2+y,1/2+z
1/2+x,1/2-y,1/2+z
loop_
_atom_site_type_symbol
_atom_site_label
_atom_site_fract_x
_atom_site_fract_y
_atom_site_fract_z
Si Si1 0.425867 0.595478 0.602570
Si Si2 0.115412 0.771188 0.155510
Si Si3 0.069637 0.293397 0.879804
Si Si4 0.337875 0.756792 0.653313
Si Si5 0.000000 0.000000 0.265494
Si Si6 0.359717 0.511204 0.986315
Si Si7 0.199439 0.264412 0.382630
Si Si8 0.700824 0.573042 0.614641
O O1 0.409161 0.416115 0.592882
O O2 0.437709 0.664093 0.477999
O O3 0.388538 0.703459 0.659130
O O4 0.467662 0.600561 0.684899
O O5 0.090625 0.712799 0.268374
O O6 0.114585 0.625643 0.071221
O O7 0.165535 0.824589 0.185528
O O8 0.023734 0.374177 0.846778
O O9 0.103034 0.432192 0.910993
O O10 0.323266 0.837357 0.771055
O O11 0.305542 0.611873 0.629289
O O12 0.331358 0.883629 0.554968
O O13 0.325098 0.600202 0.907363
O O14 0.250000 0.224362 0.360372
O O15 0.193108 0.389836 0.482101
O O16 0.750000 0.621508 0.652642
#
# Coordination Sequence:
#
# PCOD8183563 Si02
#       8
#     8   8   8   8   4   8   8   8
#     4   9  20  38  57  80 109 140 177 218 265 323
#     4   9  19  36  57  79 109 145 180 218 264 315
#     4  10  21  38  58  81 109 140 174 218 270 318
#     4  10  20  35  55  77 106 141 179 219 264 316
#     4  10  20  36  58  82 110 136 170 220 268 320
#     4  10  21  35  56  81 105 140 184 221 260 318
#     4  10  20  34  53  78 109 144 178 219 268 309
#     4   9  18  33  53  78 109 142 179 221 262 309
#
# _framework density 19.642536
#
# number of rings (size 3 to 8) (size 9 to 14) (size 15 to 20)
#    0.000    2.400    0.000    2.800    0.000    7.467 
#    0.000    4.000    0.000    7.200    0.000    0.000 
#    0.000    0.000    0.000    0.000    0.000    0.000 
#
# Total GULP energy -371993.771577 kJ/mol
# GULP energy per Si atom -12399.792386 kJ/mol
# Density = 1.959783 g / cm^3
# Si number density = 19.642536 Si / 1000 Ang^3
#
#
#
# Elastic Constant Matrix: (Units=GPa)
#
#
# Indices 1 2 3 4 5 6 
#
# 1 94.4247 3.9979 34.8270 0.0000 0.0000 0.0000
# 2 3.9979 36.7605 11.9819 0.0000 0.0000 0.0000
# 3 34.8270 11.9819 80.2071 0.0000 0.0000 0.0000
# 4 0.0000 0.0000 0.0000 27.5822 0.0000 0.0000
# 5 0.0000 0.0000 0.0000 0.0000 38.1929 0.0000
# 6 0.0000 0.0000 0.0000 0.0000 0.0000 18.0187
#
#
#
# Elastic Compliance Matrix: (Units=1/GPa)
#
#
# Indices 1 2 3 4 5 6 
#
# 1 0.012617 0.000435 -0.005543 0.000000 0.000000 0.000000
# 2 0.000435 0.028610 -0.004463 0.000000 0.000000 0.000000
# 3 -0.005543 -0.004463 0.015541 0.000000 0.000000 0.000000
# 4 0.000000 0.000000 0.000000 0.036255 0.000000 0.000000
# 5 0.000000 0.000000 0.000000 0.000000 0.026183 0.000000
# 6 0.000000 0.000000 0.000000 0.000000 0.000000 0.055498
#
#
# Mechanical properties :
#
#
# Convention : Reuss Voigt Hill
#
# Bulk Modulus (GPa) = 26.57756 34.77843 30.67799
# Shear Modulus (GPa) = 24.22613 27.46449 25.84531
#
# Velocity S-wave (km/s) = 3.51572 3.74333 3.63131
# Velocity P-wave (km/s) = 5.48091 6.03552 5.76489
#
# Compressibility (1/GPa) = 0.03762573
#
# Stress axis : x y z
#
# Youngs Moduli (GPa) = 79.26078 34.95228 64.34446
#
# Poissons Ratio (x) = -0.01519 0.35668
# Poissons Ratio (y) = -0.03445 0.28715
# Poissons Ratio (z) = 0.43936 0.15598
#
# Static dielectric constant tensor:
#      x y z
#    x 3.700390 0.000000 0.000000 
#    y 0.000000 3.456890 0.000000 
#    z 0.000000 0.000000 3.674680 
# 
# 
# High freq. dielectric constant tensor:
#      x y z
#    x 1.768550 0.000000 0.000000 
#    y 0.000000 1.751060 0.000000 
#    z 0.000000 0.000000 1.769720 
# 
# From -- ./inp_files/14387.got.cif
#   From: 2010.03.12/outbox.cif.g09.slc.cpg/sg40_8_cif.got.tgz:14387.got - 2010.04.14 01:38:03.
