data_PCOD8183617
_publ_section_title
;
Structure prediction by ZEFSAII (Michael W. Deem and Ramdas Pophale) SiO2 
 PCOD8183617
Probable space group: A M A 2
;
_chemical_formula_sum "Si O2"
_cell_formula_units_Z 64
_cell_length_a 8.722923
_cell_length_b 32.192765
_cell_length_c 11.536684
_cell_angle_alpha 90.000000
_cell_angle_beta 90.000000
_cell_angle_gamma 90.000000
_cell_volume 3239.674036
_symmetry_space_group_name_H-M "A M A 2"
_symmetry_group_IT_number 40
_symmetry_cell_setting 'orthorhombic'
loop_
_space_group_symop_operation_xyz
x,y,z
-x,-y,z
1/2-x,y,z
1/2+x,-y,z
x,1/2+y,1/2+z
-x,1/2-y,1/2+z
1/2-x,1/2+y,1/2+z
1/2+x,1/2-y,1/2+z
loop_
_atom_site_type_symbol
_atom_site_label
_atom_site_fract_x
_atom_site_fract_y
_atom_site_fract_z
Si Si1 0.927002 0.357421 0.965960
Si Si2 0.430500 0.875116 0.222842
Si Si3 0.569901 0.812888 0.039438
Si Si4 0.419511 0.813106 0.803737
Si Si5 0.068669 0.544033 0.616097
Si Si6 0.073060 0.227988 0.601667
Si Si7 0.430163 0.043198 0.852305
Si Si8 0.419023 0.396881 0.171391
O O1 0.750000 0.366038 0.937866
O O2 0.025230 0.359727 0.849944
O O3 0.950167 0.312118 0.021273
O O4 0.986189 0.393721 0.052020
O O5 0.250000 0.880181 0.212505
O O6 0.485335 0.840104 0.134597
O O7 0.506269 0.919583 0.197335
O O8 0.750000 0.819436 0.054110
O O9 0.525430 0.764744 0.046584
O O10 0.517142 0.828279 0.913435
O O11 0.250000 0.796200 0.840444
O O12 0.512260 0.778241 0.732676
O O13 0.397231 0.851105 0.718679
O O14 0.250000 0.541792 0.628040
O O15 0.017671 0.553632 0.483638
O O16 0.000000 0.500000 0.657207
O O17 0.250000 0.240914 0.609116
O O18 0.250000 0.040123 0.844416
O O19 0.487915 0.077801 0.765642
O O20 0.500000 0.000000 0.810650
O O21 0.250000 0.416468 0.148911
#
# Coordination Sequence:
#
# PCOD8183617 Si02
#       8
#     8   8   8   8   8   8   8   8
#     4  10  22  41  63  85 116 157 201 247 301 362
#     4  12  25  41  62  89 122 160 207 254 305 364
#     4  12  25  39  59  86 119 156 199 249 300 355
#     4  10  21  38  59  84 114 148 190 237 291 350
#     4  10  21  39  63  92 126 162 203 249 307 364
#     4  10  22  40  61  85 115 153 197 246 302 359
#     4  10  20  34  57  88 121 155 192 241 295 354
#     4  10  20  36  59  85 115 151 191 237 290 350
#
# _framework density 19.755074
#
# number of rings (size 3 to 8) (size 9 to 14) (size 15 to 20)
#    0.000    1.500    0.000    5.250    1.750    6.500 
#    0.000    0.625    0.000    0.000    0.000    0.000 
#    0.000    0.000    0.000    0.000    0.000    0.000 
#
# Total GULP energy -396894.207405 kJ/mol
# GULP energy per Si atom -12402.943981 kJ/mol
# Density = 1.971011 g / cm^3
# Si number density = 19.755074 Si / 1000 Ang^3
#
#
#
# Elastic Constant Matrix: (Units=GPa)
#
#
# Indices 1 2 3 4 5 6 
#
# 1 110.5786 32.8110 37.2216 0.0000 0.0000 0.0000
# 2 32.8110 62.9113 26.5954 0.0000 0.0000 0.0000
# 3 37.2216 26.5954 96.1576 0.0000 0.0000 0.0000
# 4 0.0000 0.0000 0.0000 25.3131 0.0000 0.0000
# 5 0.0000 0.0000 0.0000 0.0000 34.0064 0.0000
# 6 0.0000 0.0000 0.0000 0.0000 0.0000 35.3703
#
#
#
# Elastic Compliance Matrix: (Units=1/GPa)
#
#
# Indices 1 2 3 4 5 6 
#
# 1 0.011488 -0.004656 -0.003159 0.000000 0.000000 0.000000
# 2 -0.004656 0.019887 -0.003698 0.000000 0.000000 0.000000
# 3 -0.003159 -0.003698 0.012645 0.000000 0.000000 0.000000
# 4 0.000000 0.000000 0.000000 0.039505 0.000000 0.000000
# 5 0.000000 0.000000 0.000000 0.000000 0.029406 0.000000
# 6 0.000000 0.000000 0.000000 0.000000 0.000000 0.028272
#
#
# Mechanical properties :
#
#
# Convention : Reuss Voigt Hill
#
# Bulk Modulus (GPa) = 47.63281 51.43373 49.53327
# Shear Modulus (GPa) = 29.20061 30.47259 29.83660
#
# Velocity S-wave (km/s) = 3.84882 3.93175 3.89051
# Velocity P-wave (km/s) = 6.62686 6.83402 6.73123
#
# Compressibility (1/GPa) = 0.02099393
#
# Stress axis : x y z
#
# Youngs Moduli (GPa) = 87.04483 50.28377 79.08067
#
# Poissons Ratio (x) = 0.23413 0.24983
# Poissons Ratio (y) = 0.40529 0.29245
# Poissons Ratio (z) = 0.27499 0.18595
#
# Static dielectric constant tensor:
#      x y z
#    x 3.947460 0.000000 0.000000 
#    y 0.000000 3.522250 0.000000 
#    z 0.000000 0.000000 3.633970 
# 
# 
# High freq. dielectric constant tensor:
#      x y z
#    x 1.790850 0.000000 0.000000 
#    y 0.000000 1.762010 0.000000 
#    z 0.000000 0.000000 1.769890 
# 
# From -- ./inp_files/10581.got.cif
#   From: 2010.03.12/outbox.cif.g09.slc.cpg/sg40_6_cif.got.tgz:10581.got - 2010.04.14 01:38:03.
