data_PCOD8183382
_publ_section_title
;
Structure prediction by ZEFSAII (Michael W. Deem and Ramdas Pophale) SiO2 
 PCOD8183382
Probable space group: A M A 2
;
_chemical_formula_sum "Si O2"
_cell_formula_units_Z 64
_cell_length_a 28.394119
_cell_length_b 12.554572
_cell_length_c 8.642609
_cell_angle_alpha 90.000000
_cell_angle_beta 90.000000
_cell_angle_gamma 90.000000
_cell_volume 3080.882784
_symmetry_space_group_name_H-M "A M A 2"
_symmetry_group_IT_number 40
_symmetry_cell_setting 'orthorhombic'
loop_
_space_group_symop_operation_xyz
x,y,z
-x,-y,z
1/2-x,y,z
1/2+x,-y,z
x,1/2+y,1/2+z
-x,1/2-y,1/2+z
1/2-x,1/2+y,1/2+z
1/2+x,1/2-y,1/2+z
loop_
_atom_site_type_symbol
_atom_site_label
_atom_site_fract_x
_atom_site_fract_y
_atom_site_fract_z
Si Si1 0.303943 0.940704 0.625000
Si Si2 0.521078 0.617008 0.129459
Si Si3 0.113754 0.812217 0.490576
Si Si4 0.303141 0.876135 0.964886
Si Si5 0.892512 0.611501 0.653043
Si Si6 0.391385 0.620508 0.704022
Si Si7 0.955783 0.740930 0.419734
Si Si8 0.197127 0.128795 0.402298
O O1 0.250000 0.904384 0.602586
O O2 0.334807 0.854665 0.533964
O O3 0.316534 0.938365 0.806883
O O4 0.313249 0.058240 0.555791
O O5 0.500000 0.500000 0.123923
O O6 0.516758 0.663506 0.302093
O O7 0.575567 0.613178 0.077224
O O8 0.494735 0.696036 0.013939
O O9 0.106827 0.817284 0.307105
O O10 0.109127 0.689888 0.546789
O O11 0.250000 0.904536 0.016888
O O12 0.309414 0.750704 0.945182
O O13 0.339153 0.910720 0.097262
O O14 0.915061 0.494494 0.676349
O O15 0.923182 0.670557 0.527561
O O16 0.422308 0.676879 0.833405
O O17 0.338657 0.599849 0.765965
O O18 0.250000 0.106373 0.341458
#
# Coordination Sequence:
#
# PCOD8183382 Si02
#       8
#     8   8   8   8   8   8   8   8
#     4  10  20  37  65  93 125 170 211 257 320 381
#     4  11  25  44  70  95 125 171 211 265 327 386
#     4  11  23  40  64  97 128 164 217 262 319 383
#     4  10  21  38  59  91 132 170 215 266 316 379
#     4  12  24  40  64  94 131 170 210 271 318 384
#     4  11  23  42  65  96 127 170 215 265 322 386
#     4  11  25  45  64  95 129 160 216 265 322 382
#     4  10  19  36  64  92 125 170 210 258 321 380
#
# _framework density 20.773267000000001
#
# number of rings (size 3 to 8) (size 9 to 14) (size 15 to 20)
#    0.000    1.250    3.750    2.250    0.000    5.000 
#    0.000    0.625    0.000    0.000    0.000    0.000 
#    0.000    0.000    0.000    0.000    0.000    0.000 
#
# Total GULP energy -396896.922517 kJ/mol
# GULP energy per Si atom -12403.028829 kJ/mol
# Density = 2.072599 g / cm^3
# Si number density = 20.773267 Si / 1000 Ang^3
#
#
#
# Elastic Constant Matrix: (Units=GPa)
#
#
# Indices 1 2 3 4 5 6 
#
# 1 80.0574 31.3592 43.5080 0.0000 0.0000 0.0000
# 2 31.3592 101.5102 62.5178 0.0000 0.0000 0.0000
# 3 43.5080 62.5178 145.2368 0.0000 0.0000 0.0000
# 4 0.0000 0.0000 0.0000 35.0097 0.0000 0.0000
# 5 0.0000 0.0000 0.0000 0.0000 64.7408 0.0000
# 6 0.0000 0.0000 0.0000 0.0000 0.0000 44.3231
#
#
#
# Elastic Compliance Matrix: (Units=1/GPa)
#
#
# Indices 1 2 3 4 5 6 
#
# 1 0.015412 -0.002610 -0.003494 0.000000 0.000000 0.000000
# 2 -0.002610 0.013847 -0.005179 0.000000 0.000000 0.000000
# 3 -0.003494 -0.005179 0.010161 0.000000 0.000000 0.000000
# 4 0.000000 0.000000 0.000000 0.028564 0.000000 0.000000
# 5 0.000000 0.000000 0.000000 0.000000 0.015446 0.000000
# 6 0.000000 0.000000 0.000000 0.000000 0.000000 0.022562
#
#
# Mechanical properties :
#
#
# Convention : Reuss Voigt Hill
#
# Bulk Modulus (GPa) = 59.32562 66.84158 63.08360
# Shear Modulus (GPa) = 37.26524 41.44269 39.35396
#
# Velocity S-wave (km/s) = 4.24004 4.47139 4.35725
# Velocity P-wave (km/s) = 7.25198 7.67492 7.46645
#
# Compressibility (1/GPa) = 0.01685612
#
# Stress axis : x y z
#
# Youngs Moduli (GPa) = 64.88525 72.21875 98.41493
#
# Poissons Ratio (x) = 0.18846 0.34382
# Poissons Ratio (y) = 0.16932 0.50966
# Poissons Ratio (z) = 0.22668 0.37400
#
# Static dielectric constant tensor:
#      x y z
#    x 3.969270 0.000000 0.000000 
#    y 0.000000 3.917840 0.000000 
#    z 0.000000 0.000000 3.853360 
# 
# 
# High freq. dielectric constant tensor:
#      x y z
#    x 1.823370 0.000000 0.000000 
#    y 0.000000 1.814670 0.000000 
#    z 0.000000 0.000000 1.812780 
# 
# From -- ./inp_files/9430.got.cif
#   From: 2010.03.12/outbox.cif.g09.slc.cpg/sg40_5_cif.got.tgz:9430.got - 2010.04.14 01:38:03.
