data_PCOD8183658
_publ_section_title
;
Structure prediction by ZEFSAII (Michael W. Deem and Ramdas Pophale) SiO2 
 PCOD8183658
Probable space group: A M A 2
;
_chemical_formula_sum "Si O2"
_cell_formula_units_Z 64
_cell_length_a 8.710835
_cell_length_b 33.605096
_cell_length_c 11.934776
_cell_angle_alpha 90.000000
_cell_angle_beta 90.000000
_cell_angle_gamma 90.000000
_cell_volume 3493.648437
_symmetry_space_group_name_H-M "A M A 2"
_symmetry_group_IT_number 40
_symmetry_cell_setting 'orthorhombic'
loop_
_space_group_symop_operation_xyz
x,y,z
-x,-y,z
1/2-x,y,z
1/2+x,-y,z
x,1/2+y,1/2+z
-x,1/2-y,1/2+z
1/2-x,1/2+y,1/2+z
1/2+x,1/2-y,1/2+z
loop_
_atom_site_type_symbol
_atom_site_label
_atom_site_fract_x
_atom_site_fract_y
_atom_site_fract_z
Si Si1 0.432227 0.042558 0.979520
Si Si2 0.073693 0.339035 0.323864
Si Si3 0.930547 0.684763 0.736612
Si Si4 0.931122 0.174155 0.486817
Si Si5 0.929872 0.540605 0.238538
Si Si6 0.930046 0.122180 0.058163
Si Si7 0.427587 0.111723 0.635190
Si Si8 0.925092 0.234206 0.681228
O O1 0.250000 0.039093 0.979518
O O2 0.492418 0.052801 0.855794
O O3 0.500000 0.000000 0.021474
O O4 0.483971 0.079624 0.056921
O O5 0.250000 0.351204 0.294130
O O6 0.034504 0.349397 0.451604
O O7 0.050159 0.292303 0.294179
O O8 0.956799 0.362917 0.246666
O O9 0.750000 0.681759 0.736872
O O10 0.994284 0.683537 0.863085
O O11 0.992931 0.647355 0.664322
O O12 0.973181 0.726627 0.682067
O O13 0.750000 0.166178 0.489577
O O14 0.974830 0.209763 0.570824
O O15 0.018392 0.134468 0.524487
O O16 0.750000 0.536806 0.259073
O O17 0.000000 0.500000 0.193313
O O18 0.970323 0.572148 0.143101
O O19 0.750000 0.113058 0.066037
O O20 0.250000 0.100578 0.626409
O O21 0.750000 0.247903 0.671818
#
# Coordination Sequence:
#
# PCOD8183658 Si02
#       8
#     8   8   8   8   8   8   8   8
#     4  11  21  34  54  82 114 148 184 225 278 335
#     4   9  18  33  52  74 107 146 178 218 275 327
#     4  10  22  37  56  80 106 144 190 232 276 329
#     4   9  20  39  55  73 105 145 183 223 275 327
#     4  11  20  32  51  79 114 146 175 216 268 323
#     4  10  20  35  55  80 111 148 187 229 279 332
#     4  11  20  32  53  80 105 138 180 221 267 322
#     4   9  19  34  53  76 106 145 181 226 281 325
#
# _framework density 18.318959
#
# number of rings (size 3 to 8) (size 9 to 14) (size 15 to 20)
#    0.000    2.000    1.250    4.875    1.750    3.000 
#    0.000    0.000    0.000    0.750    0.000    3.500 
#    0.000    0.000    0.000    0.000    0.000    0.000 
#
# Total GULP energy -396754.713788 kJ/mol
# GULP energy per Si atom -12398.584806 kJ/mol
# Density = 1.827726 g / cm^3
# Si number density = 18.318959 Si / 1000 Ang^3
#
#
#
# Elastic Constant Matrix: (Units=GPa)
#
#
# Indices 1 2 3 4 5 6 
#
# 1 76.8942 41.5418 29.2838 0.0000 0.0000 0.0000
# 2 41.5418 140.8383 59.8732 0.0000 0.0000 0.0000
# 3 29.2838 59.8732 102.0226 0.0000 0.0000 0.0000
# 4 0.0000 0.0000 0.0000 26.3271 0.0000 0.0000
# 5 0.0000 0.0000 0.0000 0.0000 14.3062 0.0000
# 6 0.0000 0.0000 0.0000 0.0000 0.0000 34.5191
#
#
#
# Elastic Compliance Matrix: (Units=1/GPa)
#
#
# Indices 1 2 3 4 5 6 
#
# 1 0.015904 -0.003665 -0.002414 0.000000 0.000000 0.000000
# 2 -0.003665 0.010305 -0.004996 0.000000 0.000000 0.000000
# 3 -0.002414 -0.004996 0.013427 0.000000 0.000000 0.000000
# 4 0.000000 0.000000 0.000000 0.037984 0.000000 0.000000
# 5 0.000000 0.000000 0.000000 0.000000 0.069900 0.000000
# 6 0.000000 0.000000 0.000000 0.000000 0.000000 0.028969
#
#
# Mechanical properties :
#
#
# Convention : Reuss Voigt Hill
#
# Bulk Modulus (GPa) = 57.18799 64.57251 60.88025
# Shear Modulus (GPa) = 24.45379 27.63423 26.04401
#
# Velocity S-wave (km/s) = 3.65758 3.88816 3.77463
# Velocity P-wave (km/s) = 7.00877 7.44866 7.23206
#
# Compressibility (1/GPa) = 0.01748619
#
# Stress axis : x y z
#
# Youngs Moduli (GPa) = 62.87654 97.03939 74.47919
#
# Poissons Ratio (x) = 0.35562 0.17982
# Poissons Ratio (y) = 0.23043 0.37208
# Poissons Ratio (z) = 0.15180 0.48479
#
# Static dielectric constant tensor:
#      x y z
#    x 3.286550 0.000000 0.000000 
#    y 0.000000 3.484060 0.000000 
#    z 0.000000 0.000000 3.390060 
# 
# 
# High freq. dielectric constant tensor:
#      x y z
#    x 1.707410 0.000000 0.000000 
#    y 0.000000 1.716410 0.000000 
#    z 0.000000 0.000000 1.681540 
# 
# From -- ./inp_files/10587.got.cif
#   From: 2010.03.12/outbox.cif.g09.slc.cpg/sg40_6_cif.got.tgz:10587.got - 2010.04.14 01:38:03.
