data_PCOD8183558
_publ_section_title
;
Structure prediction by ZEFSAII (Michael W. Deem and Ramdas Pophale) SiO2 
 PCOD8183558
Probable space group: A M A 2
;
_chemical_formula_sum "Si O2"
_cell_formula_units_Z 56
_cell_length_a 9.087194
_cell_length_b 20.752032
_cell_length_c 14.591756
_cell_angle_alpha 90.000000
_cell_angle_beta 90.000000
_cell_angle_gamma 90.000000
_cell_volume 2751.680379
_symmetry_space_group_name_H-M "A M A 2"
_symmetry_group_IT_number 40
_symmetry_cell_setting 'orthorhombic'
loop_
_space_group_symop_operation_xyz
x,y,z
-x,-y,z
1/2-x,y,z
1/2+x,-y,z
x,1/2+y,1/2+z
-x,1/2-y,1/2+z
1/2-x,1/2+y,1/2+z
1/2+x,1/2-y,1/2+z
loop_
_atom_site_type_symbol
_atom_site_label
_atom_site_fract_x
_atom_site_fract_y
_atom_site_fract_z
Si Si1 0.923994 0.141012 0.523850
Si Si2 0.583937 0.735020 0.481839
Si Si3 0.421079 0.694879 0.299066
Si Si4 0.590761 0.941757 0.198930
Si Si5 0.589066 0.942474 0.408521
Si Si6 0.424351 0.067690 0.687529
Si Si7 0.413219 0.815103 0.174094
O O1 0.750000 0.135741 0.533713
O O2 0.977236 0.213673 0.530820
O O3 0.985522 0.120192 0.423374
O O4 0.004405 0.093180 0.593999
O O5 0.750000 0.761161 0.461499
O O6 0.517177 0.705380 0.389874
O O7 0.590807 0.683554 0.563535
O O8 0.250000 0.701488 0.325057
O O9 0.456309 0.622908 0.263389
O O10 0.464671 0.747523 0.221088
O O11 0.750000 0.938022 0.149830
O O12 0.612900 0.960505 0.303821
O O13 0.519756 0.872056 0.201087
O O14 0.500000 0.000000 0.150580
O O15 0.750000 0.933782 0.454907
O O16 0.500000 0.000000 0.458320
O O17 0.250000 0.057382 0.675295
O O18 0.500000 0.000000 0.717193
O O19 0.250000 0.830754 0.211192
#
# Coordination Sequence:
#
# PCOD8183558 Si02
#       7
#     8   8   8   8   8   8   8
#     4  12  23  36  57  87 120 159 205 253 311 375
#     4  11  23  40  62  90 122 158 204 258 315 373
#     4  10  22  42  65  91 126 167 211 260 317 381
#     4  10  21  36  57  85 116 155 199 246 301 365
#     4  10  20  34  52  79 115 153 192 239 296 359
#     4  11  23  42  64  90 127 169 215 267 326 384
#     4  10  21  40  62  86 121 160 198 250 311 367
#
# _framework density 20.351199999999999
#
# number of rings (size 3 to 8) (size 9 to 14) (size 15 to 20)
#    0.000    1.429    1.429    4.286    0.000    6.857 
#    0.000    0.714    0.000    1.714    0.000    0.000 
#    0.000    0.000    0.000    0.000    0.000    0.000 
#
# Total GULP energy -346965.780249 kJ/mol
# GULP energy per Si atom -12391.635009 kJ/mol
# Density = 2.030488 g / cm^3
# Si number density = 20.351200 Si / 1000 Ang^3
#
#
#
# Elastic Constant Matrix: (Units=GPa)
#
#
# Indices 1 2 3 4 5 6 
#
# 1 173.3233 78.6807 43.1621 0.0000 0.0000 0.0000
# 2 78.6807 133.4774 28.2197 0.0000 0.0000 0.0000
# 3 43.1621 28.2197 76.5559 0.0000 0.0000 0.0000
# 4 0.0000 0.0000 0.0000 26.1257 0.0000 0.0000
# 5 0.0000 0.0000 0.0000 0.0000 15.5703 0.0000
# 6 0.0000 0.0000 0.0000 0.0000 0.0000 35.1396
#
#
#
# Elastic Compliance Matrix: (Units=1/GPa)
#
#
# Indices 1 2 3 4 5 6 
#
# 1 0.008549 -0.004360 -0.003213 0.000000 0.000000 0.000000
# 2 -0.004360 0.010349 -0.001357 0.000000 0.000000 0.000000
# 3 -0.003213 -0.001357 0.015374 0.000000 0.000000 0.000000
# 4 0.000000 0.000000 0.000000 0.038276 0.000000 0.000000
# 5 0.000000 0.000000 0.000000 0.000000 0.064225 0.000000
# 6 0.000000 0.000000 0.000000 0.000000 0.000000 0.028458
#
#
# Mechanical properties :
#
#
# Convention : Reuss Voigt Hill
#
# Bulk Modulus (GPa) = 60.92783 75.94242 68.43512
# Shear Modulus (GPa) = 26.51673 30.92006 28.71840
#
# Velocity S-wave (km/s) = 3.61357 3.90208 3.76059
# Velocity P-wave (km/s) = 6.88576 7.59596 7.24956
#
# Compressibility (1/GPa) = 0.01641286
#
# Stress axis : x y z
#
# Youngs Moduli (GPa) = 116.97453 96.62935 65.04618
#
# Poissons Ratio (x) = 0.42131 0.20897
# Poissons Ratio (y) = 0.51002 0.08824
# Poissons Ratio (z) = 0.37580 0.13108
#
# Static dielectric constant tensor:
#      x y z
#    x 4.042840 0.000000 0.000000 
#    y 0.000000 3.672830 0.000000 
#    z 0.000000 0.000000 3.468170 
# 
# 
# High freq. dielectric constant tensor:
#      x y z
#    x 1.811060 0.000000 0.000000 
#    y 0.000000 1.794750 0.000000 
#    z 0.000000 0.000000 1.770520 
# 
# From -- ./inp_files/15265.got.cif
#   From: 2010.03.12/outbox.cif.g09.slc.cpg/sg40_8_cif.got.tgz:15265.got - 2010.04.14 01:38:03.
