data_PCOD8183357
_publ_section_title
;
Structure prediction by ZEFSAII (Michael W. Deem and Ramdas Pophale) SiO2 
 PCOD8183357
Probable space group: A M A 2
;
_chemical_formula_sum "Si O2"
_cell_formula_units_Z 60
_cell_length_a 33.191106
_cell_length_b 10.596681
_cell_length_c 8.599525
_cell_angle_alpha 90.000000
_cell_angle_beta 90.000000
_cell_angle_gamma 90.000000
_cell_volume 3024.586771
_symmetry_space_group_name_H-M "A M A 2"
_symmetry_group_IT_number 40
_symmetry_cell_setting 'orthorhombic'
loop_
_space_group_symop_operation_xyz
x,y,z
-x,-y,z
1/2-x,y,z
1/2+x,-y,z
x,1/2+y,1/2+z
-x,1/2-y,1/2+z
1/2-x,1/2+y,1/2+z
1/2+x,1/2-y,1/2+z
loop_
_atom_site_type_symbol
_atom_site_label
_atom_site_fract_x
_atom_site_fract_y
_atom_site_fract_z
Si Si1 0.660654 0.553805 0.186320
Si Si2 0.028081 0.706959 0.539855
Si Si3 0.500000 0.000000 0.815502
Si Si4 0.204816 0.200587 0.174561
Si Si5 0.469719 0.614747 0.889713
Si Si6 0.294861 0.675443 0.041290
Si Si7 0.702782 0.551607 0.511260
Si Si8 0.428615 0.936233 0.590371
O O1 0.678300 0.682570 0.110385
O O2 0.673812 0.429645 0.092814
O O3 0.675263 0.540899 0.360822
O O4 0.612596 0.561457 0.184734
O O5 0.036061 0.665094 0.716731
O O6 0.065038 0.802957 0.498060
O O7 0.027559 0.589832 0.423024
O O8 0.985337 0.777635 0.508753
O O9 0.466964 0.931818 0.708131
O O10 0.250000 0.224717 0.113964
O O11 0.203306 0.194318 0.358232
O O12 0.188947 0.065932 0.115334
O O13 0.500000 0.500000 0.880333
O O14 0.429552 0.555266 0.970305
O O15 0.250000 0.634079 0.095255
O O16 0.305309 0.816854 0.105480
O O17 0.750000 0.545624 0.463944
#
# Coordination Sequence:
#
# PCOD8183357 Si02
#       8
#     8   8   4   8   8   8   8   8
#     4  11  22  36  58  86 123 158 187 241 300 350
#     4  11  20  38  66  83 108 145 195 244 300 347
#     4  12  22  40  64  86 106 156 200 250 298 354
#     4   9  19  37  60  86 117 154 200 244 286 343
#     4  10  19  36  59  88 109 142 191 243 289 352
#     4   9  18  35  58  87 117 154 201 239 286 347
#     4   9  19  37  61  86 116 156 200 241 284 344
#     4  11  24  39  56  85 123 148 195 245 295 357
#
# _framework density 19.837420999999999
#
# number of rings (size 3 to 8) (size 9 to 14) (size 15 to 20)
#    0.000    1.867    4.000    2.000    0.000    4.267 
#    0.000    2.667    0.000    0.000    0.000    0.000 
#    0.000    0.000    0.000    0.000    0.000    0.000 
#
# Total GULP energy -371719.967269 kJ/mol
# GULP energy per Si atom -12390.665576 kJ/mol
# Density = 1.979227 g / cm^3
# Si number density = 19.837421 Si / 1000 Ang^3
#
#
#
# Elastic Constant Matrix: (Units=GPa)
#
#
# Indices 1 2 3 4 5 6 
#
# 1 81.9689 32.1320 16.3481 0.0000 0.0000 0.0000
# 2 32.1320 136.8039 33.9642 0.0000 0.0000 0.0000
# 3 16.3481 33.9642 60.1492 0.0000 0.0000 0.0000
# 4 0.0000 0.0000 0.0000 35.2882 0.0000 0.0000
# 5 0.0000 0.0000 0.0000 0.0000 15.7165 0.0000
# 6 0.0000 0.0000 0.0000 0.0000 0.0000 16.4216
#
#
#
# Elastic Compliance Matrix: (Units=1/GPa)
#
#
# Indices 1 2 3 4 5 6 
#
# 1 0.013686 -0.002665 -0.002215 0.000000 0.000000 0.000000
# 2 -0.002665 0.009020 -0.004369 0.000000 0.000000 0.000000
# 3 -0.002215 -0.004369 0.019695 0.000000 0.000000 0.000000
# 4 0.000000 0.000000 0.000000 0.028338 0.000000 0.000000
# 5 0.000000 0.000000 0.000000 0.000000 0.063627 0.000000
# 6 0.000000 0.000000 0.000000 0.000000 0.000000 0.060895
#
#
# Mechanical properties :
#
#
# Convention : Reuss Voigt Hill
#
# Bulk Modulus (GPa) = 41.83587 49.31230 45.57408
# Shear Modulus (GPa) = 22.55021 26.58379 24.56700
#
# Velocity S-wave (km/s) = 3.37523 3.66469 3.52293
# Velocity P-wave (km/s) = 6.02700 6.54360 6.29061
#
# Compressibility (1/GPa) = 0.02390293
#
# Stress axis : x y z
#
# Youngs Moduli (GPa) = 73.06698 110.86069 50.77546
#
# Poissons Ratio (x) = 0.29540 0.11248
# Poissons Ratio (y) = 0.19469 0.22185
# Poissons Ratio (z) = 0.16186 0.48438
#
# Static dielectric constant tensor:
#      x y z
#    x 3.343700 0.000000 0.000000 
#    y 0.000000 4.297000 0.000000 
#    z 0.000000 0.000000 3.496580 
# 
# 
# High freq. dielectric constant tensor:
#      x y z
#    x 1.737620 0.000000 0.000000 
#    y 0.000000 1.803510 0.000000 
#    z 0.000000 0.000000 1.758430 
# 
# From -- ./inp_files/9398.got.cif
#   From: 2010.03.12/outbox.cif.g09.slc.cpg/sg40_5_cif.got.tgz:9398.got - 2010.04.14 01:38:03.
