data_PCOD8183079
_publ_section_title
;
Structure prediction by ZEFSAII (Michael W. Deem and Ramdas Pophale) SiO2 
 PCOD8183079
Probable space group: A M A 2
;
_chemical_formula_sum "Si O2"
_cell_formula_units_Z 64
_cell_length_a 8.668356
_cell_length_b 23.342677
_cell_length_c 18.942026
_cell_angle_alpha 90.000000
_cell_angle_beta 90.000000
_cell_angle_gamma 90.000000
_cell_volume 3832.779438
_symmetry_space_group_name_H-M "A M A 2"
_symmetry_group_IT_number 40
_symmetry_cell_setting 'orthorhombic'
loop_
_space_group_symop_operation_xyz
x,y,z
-x,-y,z
1/2-x,y,z
1/2+x,-y,z
x,1/2+y,1/2+z
-x,1/2-y,1/2+z
1/2-x,1/2+y,1/2+z
1/2+x,1/2-y,1/2+z
loop_
_atom_site_type_symbol
_atom_site_label
_atom_site_fract_x
_atom_site_fract_y
_atom_site_fract_z
Si Si1 0.068977 0.937681 0.842780
Si Si2 0.930072 0.167677 0.466451
Si Si3 0.429988 0.272562 0.543740
Si Si4 0.070248 0.745846 0.200193
Si Si5 0.568901 0.121150 0.695746
Si Si6 0.431282 0.726699 0.841503
Si Si7 0.431573 0.165937 0.919720
Si Si8 0.428912 0.439578 0.055244
O O1 0.250000 0.938531 0.857317
O O2 0.030537 0.916133 0.764324
O O3 0.988223 0.897198 0.900321
O O4 0.000000 0.000000 0.853354
O O5 0.750000 0.182567 0.472688
O O6 0.965317 0.103065 0.490478
O O7 0.022262 0.209659 0.518002
O O8 0.986733 0.176381 0.386239
O O9 0.250000 0.281284 0.528662
O O10 0.468643 0.277136 0.626508
O O11 0.524268 0.320977 0.501085
O O12 0.250000 0.748845 0.217594
O O13 0.022158 0.680001 0.199079
O O14 0.977749 0.780388 0.260048
O O15 0.750000 0.135266 0.689081
O O16 0.505455 0.085845 0.628540
O O17 0.250000 0.720984 0.850562
O O18 0.484036 0.788893 0.868727
O O19 0.250000 0.171609 0.908805
O O20 0.500000 0.500000 0.035375
O O21 0.250000 0.449288 0.065812
#
# Coordination Sequence:
#
# PCOD8183079 Si02
#       8
#     8   8   8   8   8   8   8   8
#     4  11  22  35  52  73 102 140 178 217 252 298
#     4  10  19  33  51  72  99 132 170 211 252 299
#     4  10  20  33  51  75 101 131 166 208 256 305
#     4  11  21  32  51  77 103 135 171 207 252 307
#     4  10  20  34  49  70 102 139 176 211 248 292
#     4  11  21  33  51  73 101 133 167 210 258 306
#     4  11  21  34  52  74 100 133 171 212 255 303
#     4  10  21  34  50  72 100 137 176 212 251 294
#
# _framework density 16.698065
#
# number of rings (size 3 to 8) (size 9 to 14) (size 15 to 20)
#    0.000    1.500    2.500    5.625    0.000    3.500 
#    0.000    0.000    0.000    0.000    0.000    0.875 
#    0.000    4.000    0.000    0.000    0.000    0.000 
#
# Total GULP energy -396889.442176 kJ/mol
# GULP energy per Si atom -12402.795068 kJ/mol
# Density = 1.666006 g / cm^3
# Si number density = 16.698065 Si / 1000 Ang^3
#
#
#
# Elastic Constant Matrix: (Units=GPa)
#
#
# Indices 1 2 3 4 5 6 
#
# 1 45.3388 23.3595 31.2376 0.0000 0.0000 0.0000
# 2 23.3595 84.3188 53.2758 0.0000 0.0000 0.0000
# 3 31.2376 53.2758 111.3678 0.0000 0.0000 0.0000
# 4 0.0000 0.0000 0.0000 21.8001 0.0000 0.0000
# 5 0.0000 0.0000 0.0000 0.0000 16.4720 0.0000
# 6 0.0000 0.0000 0.0000 0.0000 0.0000 28.1745
#
#
#
# Elastic Compliance Matrix: (Units=1/GPa)
#
#
# Indices 1 2 3 4 5 6 
#
# 1 0.028270 -0.004044 -0.005995 0.000000 0.000000 0.000000
# 2 -0.004044 0.017576 -0.007274 0.000000 0.000000 0.000000
# 3 -0.005995 -0.007274 0.014140 0.000000 0.000000 0.000000
# 4 0.000000 0.000000 0.000000 0.045871 0.000000 0.000000
# 5 0.000000 0.000000 0.000000 0.000000 0.060709 0.000000
# 6 0.000000 0.000000 0.000000 0.000000 0.000000 0.035493
#
#
# Mechanical properties :
#
#
# Convention : Reuss Voigt Hill
#
# Bulk Modulus (GPa) = 39.43037 50.75236 45.09137
# Shear Modulus (GPa) = 20.39662 22.16615 21.28138
#
# Velocity S-wave (km/s) = 3.49878 3.64740 3.57386
# Velocity P-wave (km/s) = 6.32352 6.94249 6.64022
#
# Compressibility (1/GPa) = 0.02536116
#
# Stress axis : x y z
#
# Youngs Moduli (GPa) = 35.37295 56.89637 70.72008
#
# Poissons Ratio (x) = 0.23010 0.42396
# Poissons Ratio (y) = 0.14305 0.51438
# Poissons Ratio (z) = 0.21206 0.41384
#
# Static dielectric constant tensor:
#      x y z
#    x 3.241010 0.000000 0.000000 
#    y 0.000000 2.954390 0.000000 
#    z 0.000000 0.000000 3.382060 
# 
# 
# High freq. dielectric constant tensor:
#      x y z
#    x 1.658730 0.000000 0.000000 
#    y 0.000000 1.614250 0.000000 
#    z 0.000000 0.000000 1.642990 
# 
# From -- ./inp_files/19693.got.cif
#   From: 2010.03.12/outbox.cif.g09.slc.cpg/sg40_10_cif.got.tgz:19693.got - 2010.04.14 01:38:03.
