data_PCOD8183644
_publ_section_title
;
Structure prediction by ZEFSAII (Michael W. Deem and Ramdas Pophale) SiO2 
 PCOD8183644
Probable space group: A M A 2
;
_chemical_formula_sum "Si O2"
_cell_formula_units_Z 64
_cell_length_a 8.724658
_cell_length_b 19.923253
_cell_length_c 20.126552
_cell_angle_alpha 90.000000
_cell_angle_beta 90.000000
_cell_angle_gamma 90.000000
_cell_volume 3498.469094
_symmetry_space_group_name_H-M "A M A 2"
_symmetry_group_IT_number 40
_symmetry_cell_setting 'orthorhombic'
loop_
_space_group_symop_operation_xyz
x,y,z
-x,-y,z
1/2-x,y,z
1/2+x,-y,z
x,1/2+y,1/2+z
-x,1/2-y,1/2+z
1/2-x,1/2+y,1/2+z
1/2+x,1/2-y,1/2+z
loop_
_atom_site_type_symbol
_atom_site_label
_atom_site_fract_x
_atom_site_fract_y
_atom_site_fract_z
Si Si1 0.930620 0.930670 0.946730
Si Si2 0.067425 0.428479 0.953590
Si Si3 0.570883 0.172372 0.340247
Si Si4 0.431642 0.069827 0.096404
Si Si5 0.069715 0.829104 0.699607
Si Si6 0.068522 0.071363 0.594873
Si Si7 0.930530 0.323935 0.702171
Si Si8 0.430097 0.174554 0.838111
O O1 0.750000 0.937808 0.945533
O O2 0.985436 0.870364 0.899757
O O3 0.989095 0.915525 0.021427
O O4 0.000000 0.000000 0.919687
O O5 0.250000 0.432777 0.958444
O O6 0.000000 0.500000 0.931719
O O7 0.001217 0.406053 0.024507
O O8 0.010925 0.373894 0.900105
O O9 0.750000 0.163191 0.331199
O O10 0.494902 0.148933 0.271697
O O11 0.527393 0.249143 0.356738
O O12 0.250000 0.065292 0.099577
O O13 0.494223 0.129473 0.142990
O O14 0.500000 0.000000 0.122696
O O15 0.250000 0.839896 0.688545
O O16 0.017856 0.752237 0.687751
O O17 0.974642 0.873437 0.648693
O O18 0.024013 0.850220 0.774078
O O19 0.250000 0.064681 0.588600
O O20 0.000000 0.000000 0.617327
O O21 0.750000 0.328104 0.706757
O O22 0.250000 0.166469 0.823445
#
# Coordination Sequence:
#
# PCOD8183644 Si02
#       8
#     8   8   8   8   8   8   8   8
#     4   9  18  32  51  72  98 129 163 203 247 293
#     4  10  20  35  54  77 104 136 171 212 259 309
#     4   9  19  34  53  75 101 133 171 211 253 299
#     4   9  18  33  51  74 101 133 170 209 252 298
#     4  10  20  35  54  77 104 135 169 210 256 305
#     4  11  22  37  56  78 104 135 170 212 257 308
#     4   9  19  34  53  75 103 137 173 211 253 302
#     4   9  18  34  53  74 100 134 172 210 250 298
#
# _framework density 18.293716
#
# number of rings (size 3 to 8) (size 9 to 14) (size 15 to 20)
#    0.000    2.500    0.000    2.625    0.000    4.500 
#    0.000    7.500    0.000    3.000    0.000    0.000 
#    0.000    0.000    0.000    0.000    0.000    0.000 
#
# Total GULP energy -396850.076212 kJ/mol
# GULP energy per Si atom -12401.564882 kJ/mol
# Density = 1.825208 g / cm^3
# Si number density = 18.293716 Si / 1000 Ang^3
#
#
#
# Elastic Constant Matrix: (Units=GPa)
#
#
# Indices 1 2 3 4 5 6 
#
# 1 51.7102 32.9815 36.9429 0.0000 0.0000 0.0000
# 2 32.9815 118.7834 98.0399 0.0000 0.0000 0.0000
# 3 36.9429 98.0399 135.0111 0.0000 0.0000 0.0000
# 4 0.0000 0.0000 0.0000 40.7967 0.0000 0.0000
# 5 0.0000 0.0000 0.0000 0.0000 25.4607 0.0000
# 6 0.0000 0.0000 0.0000 0.0000 0.0000 26.7258
#
#
#
# Elastic Compliance Matrix: (Units=1/GPa)
#
#
# Indices 1 2 3 4 5 6 
#
# 1 0.024507 -0.003169 -0.004404 0.000000 0.000000 0.000000
# 2 -0.003169 0.021422 -0.014689 0.000000 0.000000 0.000000
# 3 -0.004404 -0.014689 0.019278 0.000000 0.000000 0.000000
# 4 0.000000 0.000000 0.000000 0.024512 0.000000 0.000000
# 5 0.000000 0.000000 0.000000 0.000000 0.039276 0.000000
# 6 0.000000 0.000000 0.000000 0.000000 0.000000 0.037417
#
#
# Mechanical properties :
#
#
# Convention : Reuss Voigt Hill
#
# Bulk Modulus (GPa) = 48.35041 71.27036 59.81039
# Shear Modulus (GPa) = 22.95351 27.76601 25.35976
#
# Velocity S-wave (km/s) = 3.54605 3.90011 3.72728
# Velocity P-wave (km/s) = 6.57673 7.70225 7.16163
#
# Compressibility (1/GPa) = 0.02068235
#
# Stress axis : x y z
#
# Youngs Moduli (GPa) = 40.80550 46.67990 51.87142
#
# Poissons Ratio (x) = 0.14795 0.22845
# Poissons Ratio (y) = 0.12933 0.76194
# Poissons Ratio (z) = 0.17971 0.68568
#
# Static dielectric constant tensor:
#      x y z
#    x 3.297300 0.000000 0.000000 
#    y 0.000000 3.531710 0.000000 
#    z 0.000000 0.000000 3.563660 
# 
# 
# High freq. dielectric constant tensor:
#      x y z
#    x 1.706730 0.000000 0.000000 
#    y 0.000000 1.710340 0.000000 
#    z 0.000000 0.000000 1.713110 
# 
# From -- ./inp_files/19591.got.cif
#   From: 2010.03.12/outbox.cif.g09.slc.cpg/sg40_10_cif.got.tgz:19591.got - 2010.04.14 01:38:03.
