data_PCOD8183809
_publ_section_title
;
Structure prediction by ZEFSAII (Michael W. Deem and Ramdas Pophale) SiO2 
 PCOD8183809
Probable space group: A M A 2
;
_chemical_formula_sum "Si O2"
_cell_formula_units_Z 64
_cell_length_a 17.741942
_cell_length_b 16.039466
_cell_length_c 12.073732
_cell_angle_alpha 90.000000
_cell_angle_beta 90.000000
_cell_angle_gamma 90.000000
_cell_volume 3435.837315
_symmetry_space_group_name_H-M "A M A 2"
_symmetry_group_IT_number 40
_symmetry_cell_setting 'orthorhombic'
loop_
_space_group_symop_operation_xyz
x,y,z
-x,-y,z
1/2-x,y,z
1/2+x,-y,z
x,1/2+y,1/2+z
-x,1/2-y,1/2+z
1/2-x,1/2+y,1/2+z
1/2+x,1/2-y,1/2+z
loop_
_atom_site_type_symbol
_atom_site_label
_atom_site_fract_x
_atom_site_fract_y
_atom_site_fract_z
Si Si1 0.337420 0.142131 0.321840
Si Si2 0.336633 0.234908 0.674740
Si Si3 0.085818 0.097510 0.550911
Si Si4 0.337378 0.362096 0.854745
Si Si5 0.910887 0.003483 0.201008
Si Si6 0.662461 0.609910 0.524415
Si Si7 0.089535 0.406544 0.071634
Si Si8 0.836421 0.664360 0.282008
O O1 0.250000 0.117664 0.331714
O O2 0.376148 0.128515 0.439248
O O3 0.376732 0.087419 0.226173
O O4 0.348186 0.237445 0.289432
O O5 0.250000 0.208353 0.662543
O O6 0.386694 0.153174 0.654636
O O7 0.353727 0.273045 0.796341
O O8 0.358536 0.303649 0.583496
O O9 0.996717 0.106691 0.539461
O O10 0.111193 0.003427 0.573522
O O11 0.250000 0.385228 0.840286
O O12 0.385311 0.435076 0.798640
O O13 0.359890 0.356475 0.982878
O O14 0.883411 0.034325 0.080430
O O15 0.000000 0.000000 0.201585
O O16 0.750000 0.590429 0.542514
O O17 0.641410 0.618238 0.396026
O O18 0.106454 0.369875 0.191467
O O19 0.750000 0.643674 0.250997
#
# Coordination Sequence:
#
# PCOD8183809 Si02
#       8
#     8   8   8   8   8   8   8   8
#     4  11  21  37  62  88 112 150 200 246 280 339
#     4   9  18  35  60  85 107 143 199 242 276 337
#     4  11  22  37  57  87 117 153 196 239 283 353
#     4  10  20  36  60  86 116 153 192 243 294 341
#     4  11  21  34  57  91 121 144 188 240 298 339
#     4   9  18  37  59  83 110 149 195 236 278 340
#     4  11  24  38  55  88 124 154 185 240 302 350
#     4  10  22  40  60  81 113 155 199 235 283 352
#
# _framework density 18.627192000000001
#
# number of rings (size 3 to 8) (size 9 to 14) (size 15 to 20)
#    0.000    1.750    2.500    3.375    0.000    4.500 
#    2.250    1.250    0.000    1.500    0.000    0.000 
#    0.000    0.000    0.000    0.000    0.000    0.000 
#
# Total GULP energy -396901.434953 kJ/mol
# GULP energy per Si atom -12403.169842 kJ/mol
# Density = 1.858480 g / cm^3
# Si number density = 18.627192 Si / 1000 Ang^3
#
#
#
# Elastic Constant Matrix: (Units=GPa)
#
#
# Indices 1 2 3 4 5 6 
#
# 1 99.7625 50.3488 54.7781 0.0000 0.0000 0.0000
# 2 50.3488 87.1869 56.1428 0.0000 0.0000 0.0000
# 3 54.7781 56.1428 123.1533 0.0000 0.0000 0.0000
# 4 0.0000 0.0000 0.0000 28.0825 0.0000 0.0000
# 5 0.0000 0.0000 0.0000 0.0000 12.5806 0.0000
# 6 0.0000 0.0000 0.0000 0.0000 0.0000 28.0725
#
#
#
# Elastic Compliance Matrix: (Units=1/GPa)
#
#
# Indices 1 2 3 4 5 6 
#
# 1 0.015398 -0.006344 -0.003957 0.000000 0.000000 0.000000
# 2 -0.006344 0.018850 -0.005771 0.000000 0.000000 0.000000
# 3 -0.003957 -0.005771 0.012511 0.000000 0.000000 0.000000
# 4 0.000000 0.000000 0.000000 0.035609 0.000000 0.000000
# 5 0.000000 0.000000 0.000000 0.000000 0.079487 0.000000
# 6 0.000000 0.000000 0.000000 0.000000 0.000000 0.035622
#
#
# Mechanical properties :
#
#
# Convention : Reuss Voigt Hill
#
# Bulk Modulus (GPa) = 68.42693 70.29356 69.36024
# Shear Modulus (GPa) = 21.32253 23.66934 22.49593
#
# Velocity S-wave (km/s) = 3.38701 3.56854 3.47896
# Velocity P-wave (km/s) = 7.21876 7.40259 7.31125
#
# Compressibility (1/GPa) = 0.01461413
#
# Stress axis : x y z
#
# Youngs Moduli (GPa) = 64.94202 53.05159 79.93000
#
# Poissons Ratio (x) = 0.33657 0.31628
# Poissons Ratio (y) = 0.41201 0.46129
# Poissons Ratio (z) = 0.25697 0.30617
#
# Static dielectric constant tensor:
#      x y z
#    x 3.395330 0.000000 0.000000 
#    y 0.000000 3.548150 0.000000 
#    z 0.000000 0.000000 3.448960 
# 
# 
# High freq. dielectric constant tensor:
#      x y z
#    x 1.725820 0.000000 0.000000 
#    y 0.000000 1.717530 0.000000 
#    z 0.000000 0.000000 1.718990 
# 
# From -- ./inp_files/12443.got.cif
#   From: 2010.03.12/outbox.cif.g09.slc.cpg/sg40_7_cif.got.tgz:12443.got - 2010.04.14 01:38:03.
