data_PCOD8183536
_publ_section_title
;
Structure prediction by ZEFSAII (Michael W. Deem and Ramdas Pophale) SiO2 
 PCOD8183536
Probable space group: A M A 2
;
_chemical_formula_sum "Si O2"
_cell_formula_units_Z 64
_cell_length_a 8.873236
_cell_length_b 20.669822
_cell_length_c 19.324990
_cell_angle_alpha 90.000000
_cell_angle_beta 90.000000
_cell_angle_gamma 90.000000
_cell_volume 3544.361799
_symmetry_space_group_name_H-M "A M A 2"
_symmetry_group_IT_number 40
_symmetry_cell_setting 'orthorhombic'
loop_
_space_group_symop_operation_xyz
x,y,z
-x,-y,z
1/2-x,y,z
1/2+x,-y,z
x,1/2+y,1/2+z
-x,1/2-y,1/2+z
1/2-x,1/2+y,1/2+z
1/2+x,1/2-y,1/2+z
loop_
_atom_site_type_symbol
_atom_site_label
_atom_site_fract_x
_atom_site_fract_y
_atom_site_fract_z
Si Si1 0.424324 0.872203 0.024830
Si Si2 0.424789 0.313491 0.166498
Si Si3 0.572297 0.432730 0.240013
Si Si4 0.923332 0.270578 0.878421
Si Si5 0.924249 0.565530 0.665402
Si Si6 0.923167 0.238527 0.518572
Si Si7 0.428498 0.807017 0.243049
Si Si8 0.421353 0.881782 0.871536
O O1 0.250000 0.849210 0.026156
O O2 0.458068 0.924751 0.083815
O O3 0.524811 0.809904 0.040302
O O4 0.461677 0.903168 0.949979
O O5 0.250000 0.318003 0.187625
O O6 0.508735 0.377765 0.190093
O O7 0.446154 0.308163 0.084100
O O8 0.492992 0.252044 0.204766
O O9 0.500000 0.500000 0.216115
O O10 0.750000 0.436513 0.231981
O O11 0.532330 0.418598 0.320019
O O12 0.750000 0.291124 0.871825
O O13 0.945954 0.194702 0.864753
O O14 0.021877 0.309603 0.822898
O O15 0.980510 0.289305 0.954824
O O16 0.750000 0.557608 0.680337
O O17 0.986038 0.626755 0.708045
O O18 0.000000 0.500000 0.691760
O O19 0.750000 0.241894 0.495651
O O20 0.250000 0.798599 0.236347
O O21 0.250000 0.900583 0.852521
#
# Coordination Sequence:
#
# PCOD8183536 Si02
#       8
#     8   8   8   8   8   8   8   8
#     4   9  18  34  53  77 111 149 188 229 275 326
#     4  11  22  37  58  85 114 146 186 233 281 332
#     4  12  25  39  57  79 111 151 190 235 281 337
#     4  10  20  34  56  83 115 147 180 230 283 332
#     4  10  22  37  54  79 112 150 190 233 280 332
#     4  10  20  33  55  85 114 144 183 229 276 332
#     4  11  21  35  58  84 111 146 191 236 279 332
#     4   9  18  33  53  78 112 147 185 228 273 329
#
# _framework density 18.056847000000001
#
# number of rings (size 3 to 8) (size 9 to 14) (size 15 to 20)
#    0.000    1.750    2.500    3.375    0.000    5.500 
#    0.000    1.250    0.000    0.750    0.000    3.500 
#    0.000    0.000    0.000    0.000    0.000    0.000 
#
# Total GULP energy -396886.067089 kJ/mol
# GULP energy per Si atom -12402.689597 kJ/mol
# Density = 1.801575 g / cm^3
# Si number density = 18.056847 Si / 1000 Ang^3
#
#
#
# Elastic Constant Matrix: (Units=GPa)
#
#
# Indices 1 2 3 4 5 6 
#
# 1 105.7466 53.8326 43.7600 0.0000 0.0000 0.0000
# 2 53.8326 114.5834 52.6802 0.0000 0.0000 0.0000
# 3 43.7600 52.6802 88.1677 0.0000 0.0000 0.0000
# 4 0.0000 0.0000 0.0000 15.0299 0.0000 0.0000
# 5 0.0000 0.0000 0.0000 0.0000 29.2497 0.0000
# 6 0.0000 0.0000 0.0000 0.0000 0.0000 29.0774
#
#
#
# Elastic Compliance Matrix: (Units=1/GPa)
#
#
# Indices 1 2 3 4 5 6 
#
# 1 0.013368 -0.004453 -0.003974 0.000000 0.000000 0.000000
# 2 -0.004453 0.013516 -0.005866 0.000000 0.000000 0.000000
# 3 -0.003974 -0.005866 0.016819 0.000000 0.000000 0.000000
# 4 0.000000 0.000000 0.000000 0.066534 0.000000 0.000000
# 5 0.000000 0.000000 0.000000 0.000000 0.034188 0.000000
# 6 0.000000 0.000000 0.000000 0.000000 0.000000 0.034391
#
#
# Mechanical properties :
#
#
# Convention : Reuss Voigt Hill
#
# Bulk Modulus (GPa) = 66.14891 67.67147 66.91019
# Shear Modulus (GPa) = 23.53579 25.21973 24.37776
#
# Velocity S-wave (km/s) = 3.61422 3.74128 3.67830
# Velocity P-wave (km/s) = 7.35731 7.49808 7.42803
#
# Compressibility (1/GPa) = 0.01511741
#
# Stress axis : x y z
#
# Youngs Moduli (GPa) = 74.80413 73.98477 59.45593
#
# Poissons Ratio (x) = 0.32949 0.23628
# Poissons Ratio (y) = 0.33314 0.34875
# Poissons Ratio (z) = 0.29728 0.43397
#
# Static dielectric constant tensor:
#      x y z
#    x 3.396970 0.000000 0.000000 
#    y 0.000000 3.173380 0.000000 
#    z 0.000000 0.000000 3.546210 
# 
# 
# High freq. dielectric constant tensor:
#      x y z
#    x 1.708370 0.000000 0.000000 
#    y 0.000000 1.671430 0.000000 
#    z 0.000000 0.000000 1.705730 
# 
# From -- ./inp_files/22384.got.cif
#   From: 2010.03.12/outbox.cif.g09.slc.cpg/sg40_12_cif.got.tgz:22384.got - 2010.04.14 01:38:03.
