data_PCOD8183248
_publ_section_title
;
Structure prediction by ZEFSAII (Michael W. Deem and Ramdas Pophale) SiO2 
 PCOD8183248
Probable space group: A M A 2
;
_chemical_formula_sum "Si O2"
_cell_formula_units_Z 64
_cell_length_a 8.744139
_cell_length_b 25.076246
_cell_length_c 14.973204
_cell_angle_alpha 90.000000
_cell_angle_beta 90.000000
_cell_angle_gamma 90.000000
_cell_volume 3283.177146
_symmetry_space_group_name_H-M "A M A 2"
_symmetry_group_IT_number 40
_symmetry_cell_setting 'orthorhombic'
loop_
_space_group_symop_operation_xyz
x,y,z
-x,-y,z
1/2-x,y,z
1/2+x,-y,z
x,1/2+y,1/2+z
-x,1/2-y,1/2+z
1/2-x,1/2+y,1/2+z
1/2+x,1/2-y,1/2+z
loop_
_atom_site_type_symbol
_atom_site_label
_atom_site_fract_x
_atom_site_fract_y
_atom_site_fract_z
Si Si1 0.929370 0.846571 0.577460
Si Si2 0.071528 0.359797 0.453707
Si Si3 0.068749 0.057086 0.088078
Si Si4 0.931885 0.395996 0.773775
Si Si5 0.575504 0.778017 0.248548
Si Si6 0.576129 0.761698 0.040896
Si Si7 0.569549 0.944273 0.457189
Si Si8 0.071957 0.169668 0.779594
O O1 0.750000 0.835514 0.566189
O O2 0.981536 0.900764 0.529852
O O3 0.974786 0.850945 0.681400
O O4 0.017845 0.798526 0.529598
O O5 0.250000 0.370816 0.465108
O O6 0.978406 0.401961 0.511627
O O7 0.030249 0.299813 0.482361
O O8 0.022683 0.365755 0.350119
O O9 0.250000 0.053079 0.090422
O O10 0.002971 0.076894 0.183790
O O11 0.000000 0.000000 0.064451
O O12 0.750000 0.395804 0.769518
O O13 0.986596 0.334774 0.783730
O O14 0.993896 0.428303 0.859266
O O15 0.750000 0.766877 0.278514
O O16 0.563555 0.780559 0.142278
O O17 0.469078 0.732170 0.289234
O O18 0.750000 0.765809 0.006388
O O19 0.750000 0.949425 0.453933
O O20 0.500000 0.000000 0.487901
O O21 0.250000 0.162069 0.798685
#
# Coordination Sequence:
#
# PCOD8183248 Si02
#       8
#     8   8   8   8   8   8   8   8
#     4   9  20  38  59  84 116 154 195 240 296 352
#     4  12  24  38  58  85 116 157 201 243 295 354
#     4  11  22  40  61  86 119 158 199 245 294 350
#     4   9  18  34  57  84 120 158 189 228 284 345
#     4   9  17  33  55  83 117 157 190 223 283 353
#     4  10  19  34  57  85 118 152 189 236 288 344
#     4  10  21  38  59  84 114 152 195 238 285 339
#     4  10  21  37  56  83 118 153 193 248 297 346
#
# _framework density 19.493314000000002
#
# number of rings (size 3 to 8) (size 9 to 14) (size 15 to 20)
#    0.000    2.000    1.250    2.625    1.750    1.500 
#    0.000    1.875    0.000    1.500    0.000    0.000 
#    0.000    0.000    0.000    0.000    0.000    0.000 
#
# Total GULP energy -396903.182740 kJ/mol
# GULP energy per Si atom -12403.224461 kJ/mol
# Density = 1.944895 g / cm^3
# Si number density = 19.493314 Si / 1000 Ang^3
#
#
#
# Elastic Constant Matrix: (Units=GPa)
#
#
# Indices 1 2 3 4 5 6 
#
# 1 57.3202 26.9709 25.2293 0.0000 0.0000 0.0000
# 2 26.9709 133.1553 61.7191 0.0000 0.0000 0.0000
# 3 25.2293 61.7191 99.1193 0.0000 0.0000 0.0000
# 4 0.0000 0.0000 0.0000 26.6216 0.0000 0.0000
# 5 0.0000 0.0000 0.0000 0.0000 24.0489 0.0000
# 6 0.0000 0.0000 0.0000 0.0000 0.0000 33.5399
#
#
#
# Elastic Compliance Matrix: (Units=1/GPa)
#
#
# Indices 1 2 3 4 5 6 
#
# 1 0.020178 -0.002399 -0.003642 0.000000 0.000000 0.000000
# 2 -0.002399 0.010842 -0.006141 0.000000 0.000000 0.000000
# 3 -0.003642 -0.006141 0.014839 0.000000 0.000000 0.000000
# 4 0.000000 0.000000 0.000000 0.037563 0.000000 0.000000
# 5 0.000000 0.000000 0.000000 0.000000 0.041582 0.000000
# 6 0.000000 0.000000 0.000000 0.000000 0.000000 0.029815
#
#
# Mechanical properties :
#
#
# Convention : Reuss Voigt Hill
#
# Bulk Modulus (GPa) = 46.52005 57.49260 52.00633
# Shear Modulus (GPa) = 26.83145 28.55379 27.69262
#
# Velocity S-wave (km/s) = 3.71407 3.83142 3.77320
# Velocity P-wave (km/s) = 6.50453 7.00932 6.76164
#
# Compressibility (1/GPa) = 0.02149611
#
# Stress axis : x y z
#
# Youngs Moduli (GPa) = 49.55972 92.23280 67.38775
#
# Poissons Ratio (x) = 0.22125 0.24544
# Poissons Ratio (y) = 0.11888 0.41380
# Poissons Ratio (z) = 0.18051 0.56636
#
# Static dielectric constant tensor:
#      x y z
#    x 3.405070 0.000000 0.000000 
#    y 0.000000 3.531720 0.000000 
#    z 0.000000 0.000000 3.701710 
# 
# 
# High freq. dielectric constant tensor:
#      x y z
#    x 1.746060 0.000000 0.000000 
#    y 0.000000 1.753090 0.000000 
#    z 0.000000 0.000000 1.764140 
# 
# From -- ./inp_files/15590.got.cif
#   From: 2010.03.12/outbox.cif.g09.slc.cpg/sg40_8_cif.got.tgz:15590.got - 2010.04.14 01:38:03.
