data_PCOD8183860
_publ_section_title
;
Structure prediction by ZEFSAII (Michael W. Deem and Ramdas Pophale) SiO2 
 PCOD8183860
Probable space group: A M A 2
;
_chemical_formula_sum "Si O2"
_cell_formula_units_Z 48
_cell_length_a 8.701904
_cell_length_b 15.271172
_cell_length_c 18.551455
_cell_angle_alpha 90.000000
_cell_angle_beta 90.000000
_cell_angle_gamma 90.000000
_cell_volume 2465.270811
_symmetry_space_group_name_H-M "A M A 2"
_symmetry_group_IT_number 40
_symmetry_cell_setting 'orthorhombic'
loop_
_space_group_symop_operation_xyz
x,y,z
-x,-y,z
1/2-x,y,z
1/2+x,-y,z
x,1/2+y,1/2+z
-x,1/2-y,1/2+z
1/2-x,1/2+y,1/2+z
1/2+x,1/2-y,1/2+z
loop_
_atom_site_type_symbol
_atom_site_label
_atom_site_fract_x
_atom_site_fract_y
_atom_site_fract_z
Si Si1 0.069143 0.248441 0.378230
Si Si2 0.068623 0.089983 0.640927
Si Si3 0.069644 0.759945 0.225920
Si Si4 0.568279 0.406392 0.458600
Si Si5 0.930597 0.092270 0.110893
Si Si6 0.568471 0.909631 0.477750
O O1 0.250000 0.263080 0.387053
O O2 0.009033 0.170436 0.429358
O O3 0.027993 0.222585 0.297069
O O4 0.981169 0.337080 0.398420
O O5 0.250000 0.083129 0.641520
O O6 0.012575 0.169297 0.690726
O O7 0.009690 0.106150 0.559369
O O8 0.000000 0.000000 0.672378
O O9 0.250000 0.757328 0.243962
O O10 0.029563 0.837522 0.171370
O O11 0.500000 0.500000 0.436305
O O12 0.750000 0.413878 0.461973
O O13 0.504489 0.375879 0.536043
O O14 0.750000 0.082408 0.098320
O O15 0.000000 0.000000 0.136101
O O16 0.750000 0.916478 0.474089
O O17 0.500000 0.000000 0.446851
#
# Coordination Sequence:
#
# PCOD8183860 Si02
#       6
#     8   8   8   8   8   8
#     4  11  23  38  56  81 115 151 187 229 279 334
#     4   9  18  35  57  79 104 136 176 221 269 319
#     4  10  22  38  55  78 113 152 185 223 275 333
#     4  11  22  38  61  86 112 144 187 235 284 339
#     4  10  20  37  60  84 112 146 187 234 282 333
#     4   9  19  36  58  82 108 141 181 226 274 324
#
# _framework density 19.470476999999999
#
# number of rings (size 3 to 8) (size 9 to 14) (size 15 to 20)
#    0.000    2.000    0.000    4.500    0.000    7.333 
#    0.000    8.333    0.000    0.000    0.000    0.000 
#    0.000    0.000    0.000    0.000    0.000    0.000 
#
# Total GULP energy -297703.290116 kJ/mol
# GULP energy per Si atom -12404.303755 kJ/mol
# Density = 1.942616 g / cm^3
# Si number density = 19.470477 Si / 1000 Ang^3
#
#
#
# Elastic Constant Matrix: (Units=GPa)
#
#
# Indices 1 2 3 4 5 6 
#
# 1 71.3450 27.2198 19.8338 0.0000 0.0000 0.0000
# 2 27.2198 97.4905 31.1262 0.0000 0.0000 0.0000
# 3 19.8338 31.1262 61.8739 0.0000 0.0000 0.0000
# 4 0.0000 0.0000 0.0000 16.6968 0.0000 0.0000
# 5 0.0000 0.0000 0.0000 0.0000 31.1115 0.0000
# 6 0.0000 0.0000 0.0000 0.0000 0.0000 29.3660
#
#
#
# Elastic Compliance Matrix: (Units=1/GPa)
#
#
# Indices 1 2 3 4 5 6 
#
# 1 0.016299 -0.003434 -0.003497 0.000000 0.000000 0.000000
# 2 -0.003434 0.012944 -0.005411 0.000000 0.000000 0.000000
# 3 -0.003497 -0.005411 0.020005 0.000000 0.000000 0.000000
# 4 0.000000 0.000000 0.000000 0.059892 0.000000 0.000000
# 5 0.000000 0.000000 0.000000 0.000000 0.032142 0.000000
# 6 0.000000 0.000000 0.000000 0.000000 0.000000 0.034053
#
#
# Mechanical properties :
#
#
# Convention : Reuss Voigt Hill
#
# Bulk Modulus (GPa) = 40.71062 43.00767 41.85915
# Shear Modulus (GPa) = 24.01468 25.60351 24.80910
#
# Velocity S-wave (km/s) = 3.51577 3.63022 3.57345
# Velocity P-wave (km/s) = 6.11843 6.30142 6.21060
#
# Compressibility (1/GPa) = 0.02456361
#
# Stress axis : x y z
#
# Youngs Moduli (GPa) = 61.35425 77.25759 49.98813
#
# Poissons Ratio (x) = 0.26532 0.17481
# Poissons Ratio (y) = 0.21070 0.27047
# Poissons Ratio (z) = 0.21456 0.41801
#
# Static dielectric constant tensor:
#      x y z
#    x 3.477260 0.000000 0.000000 
#    y 0.000000 3.741670 0.000000 
#    z 0.000000 0.000000 3.521100 
# 
# 
# High freq. dielectric constant tensor:
#      x y z
#    x 1.756990 0.000000 0.000000 
#    y 0.000000 1.771050 0.000000 
#    z 0.000000 0.000000 1.753050 
# 
# From -- ./inp_files/15059.got.cif
#   From: 2010.03.12/outbox.cif.g09.slc.cpg/sg40_8_cif.got.tgz:15059.got - 2010.04.14 01:38:03.
