data_PCOD8183862
_publ_section_title
;
Structure prediction by ZEFSAII (Michael W. Deem and Ramdas Pophale) SiO2 
 PCOD8183862
Probable space group: A M A 2
;
_chemical_formula_sum "Si O2"
_cell_formula_units_Z 48
_cell_length_a 18.566437
_cell_length_b 15.524412
_cell_length_c 8.512195
_cell_angle_alpha 90.000000
_cell_angle_beta 90.000000
_cell_angle_gamma 90.000000
_cell_volume 2453.495649
_symmetry_space_group_name_H-M "A M A 2"
_symmetry_group_IT_number 40
_symmetry_cell_setting 'orthorhombic'
loop_
_space_group_symop_operation_xyz
x,y,z
-x,-y,z
1/2-x,y,z
1/2+x,-y,z
x,1/2+y,1/2+z
-x,1/2-y,1/2+z
1/2-x,1/2+y,1/2+z
1/2+x,1/2-y,1/2+z
loop_
_atom_site_type_symbol
_atom_site_label
_atom_site_fract_x
_atom_site_fract_y
_atom_site_fract_z
Si Si1 0.833982 0.105922 0.335420
Si Si2 0.944077 0.777724 0.351522
Si Si3 0.423603 0.540157 0.686863
Si Si4 0.829234 0.205523 0.639930
Si Si5 0.830384 0.378259 0.439076
Si Si6 0.907795 0.767861 0.711155
O O1 0.750000 0.088572 0.305208
O O2 0.849136 0.130267 0.517089
O O3 0.859111 0.182204 0.219063
O O4 0.878837 0.020073 0.303784
O O5 0.935700 0.870301 0.273722
O O6 0.887073 0.709740 0.279481
O O7 0.932709 0.785356 0.535869
O O8 0.023831 0.742231 0.325487
O O9 0.500000 0.500000 0.641214
O O10 0.379350 0.550375 0.524689
O O11 0.750000 0.188741 0.713362
O O12 0.827701 0.294127 0.545849
O O13 0.750000 0.415683 0.413359
O O14 0.863628 0.351418 0.270767
#
# Coordination Sequence:
#
# PCOD8183862 Si02
#       6
#     8   8   8   8   8   8
#     4  10  20  37  60  85 117 157 198 243 296 354
#     4  11  22  36  59  88 120 154 201 248 299 355
#     4  11  21  36  60  89 120 159 194 234 302 366
#     4   8  17  34  57  82 114 154 197 237 282 345
#     4   9  19  37  58  82 114 154 196 237 291 350
#     4  11  21  37  60  86 116 155 203 252 294 351
#
# _framework density 19.563924
#
# number of rings (size 3 to 8) (size 9 to 14) (size 15 to 20)
#    0.000    2.000    1.667    5.000    0.000    2.000 
#    0.000    2.500    0.000    2.000    0.000    0.000 
#    0.000    0.000    0.000    0.000    0.000    0.000 
#
# Total GULP energy -297625.483103 kJ/mol
# GULP energy per Si atom -12401.061796 kJ/mol
# Density = 1.951940 g / cm^3
# Si number density = 19.563924 Si / 1000 Ang^3
#
#
#
# Elastic Constant Matrix: (Units=GPa)
#
#
# Indices 1 2 3 4 5 6 
#
# 1 168.0086 44.7426 60.4929 0.0000 0.0000 0.0000
# 2 44.7426 61.1572 21.9131 0.0000 0.0000 0.0000
# 3 60.4929 21.9131 106.8638 0.0000 0.0000 0.0000
# 4 0.0000 0.0000 0.0000 25.6442 0.0000 0.0000
# 5 0.0000 0.0000 0.0000 0.0000 32.7569 0.0000
# 6 0.0000 0.0000 0.0000 0.0000 0.0000 21.3966
#
#
#
# Elastic Compliance Matrix: (Units=1/GPa)
#
#
# Indices 1 2 3 4 5 6 
#
# 1 0.008672 -0.004949 -0.003894 0.000000 0.000000 0.000000
# 2 -0.004949 0.020473 -0.001396 0.000000 0.000000 0.000000
# 3 -0.003894 -0.001396 0.011848 0.000000 0.000000 0.000000
# 4 0.000000 0.000000 0.000000 0.038995 0.000000 0.000000
# 5 0.000000 0.000000 0.000000 0.000000 0.030528 0.000000
# 6 0.000000 0.000000 0.000000 0.000000 0.000000 0.046736
#
#
# Mechanical properties :
#
#
# Convention : Reuss Voigt Hill
#
# Bulk Modulus (GPa) = 48.74850 65.59187 57.17018
# Shear Modulus (GPa) = 27.08992 29.88493 28.48742
#
# Velocity S-wave (km/s) = 3.72518 3.91263 3.82005
# Velocity P-wave (km/s) = 6.59350 7.34924 6.98160
#
# Compressibility (1/GPa) = 0.02051345
#
# Stress axis : x y z
#
# Youngs Moduli (GPa) = 115.30958 48.84593 84.39888
#
# Poissons Ratio (x) = 0.24175 0.32867
# Poissons Ratio (y) = 0.57070 0.11785
# Poissons Ratio (z) = 0.44905 0.06821
#
# Static dielectric constant tensor:
#      x y z
#    x 3.990820 0.000000 0.000000 
#    y 0.000000 3.456070 0.000000 
#    z 0.000000 0.000000 3.406010 
# 
# 
# High freq. dielectric constant tensor:
#      x y z
#    x 1.787570 0.000000 0.000000 
#    y 0.000000 1.738920 0.000000 
#    z 0.000000 0.000000 1.745550 
# 
# From -- ./inp_files/7452.got.cif
#   From: 2010.03.12/outbox.cif.g09.slc.cpg/sg40_4_cif.got.tgz:7452.got - 2010.04.14 01:38:03.
