data_PCOD8183669
_publ_section_title
;
Structure prediction by ZEFSAII (Michael W. Deem and Ramdas Pophale) SiO2 
 PCOD8183669
Probable space group: A M A 2
;
_chemical_formula_sum "Si O2"
_cell_formula_units_Z 48
_cell_length_a 15.337418
_cell_length_b 8.672751
_cell_length_c 18.247694
_cell_angle_alpha 90.000000
_cell_angle_beta 90.000000
_cell_angle_gamma 90.000000
_cell_volume 2427.264595
_symmetry_space_group_name_H-M "A M A 2"
_symmetry_group_IT_number 40
_symmetry_cell_setting 'orthorhombic'
loop_
_space_group_symop_operation_xyz
x,y,z
-x,-y,z
1/2-x,y,z
1/2+x,-y,z
x,1/2+y,1/2+z
-x,1/2-y,1/2+z
1/2-x,1/2+y,1/2+z
1/2+x,1/2-y,1/2+z
loop_
_atom_site_type_symbol
_atom_site_label
_atom_site_fract_x
_atom_site_fract_y
_atom_site_fract_z
Si Si1 0.085665 0.398597 0.227680
Si Si2 0.849602 0.788886 0.092544
Si Si3 0.149738 0.358094 0.615502
Si Si4 0.995807 0.319713 0.842609
Si Si5 0.153932 0.202743 0.766368
Si Si6 0.008610 0.822279 0.994241
O O1 0.126686 0.333844 0.154007
O O2 0.155689 0.517070 0.261517
O O3 0.000000 0.500000 0.210989
O O4 0.068857 0.259988 0.284419
O O5 0.750000 0.763519 0.065669
O O6 0.862037 0.959355 0.125741
O O7 0.915622 0.764462 0.025177
O O8 0.250000 0.315265 0.596004
O O9 0.119262 0.277174 0.690393
O O10 0.085880 0.296315 0.552499
O O11 0.092978 0.253631 0.832930
O O12 0.000000 0.500000 0.828260
O O13 0.965137 0.280097 0.924490
O O14 0.250000 0.264729 0.783893
O O15 0.000000 0.000000 0.970235
#
# Coordination Sequence:
#
# PCOD8183669 Si02
#       6
#     8   8   8   8   8   8
#     4  10  20  35  56  82 109 144 186 229 278 328
#     4  10  20  35  58  85 112 145 184 225 274 334
#     4   9  19  36  59  85 112 146 185 226 274 327
#     4  11  23  38  56  79 111 151 188 227 278 330
#     4  10  20  36  59  84 111 142 183 233 277 325
#     4  10  20  36  55  79 114 150 185 226 274 330
#
# _framework density 19.775345999999999
#
# number of rings (size 3 to 8) (size 9 to 14) (size 15 to 20)
#    0.000    2.000    0.000    5.000    0.000    4.000 
#    0.000    6.667    0.000    0.000    0.000    0.000 
#    0.000    0.000    0.000    0.000    0.000    0.000 
#
# Total GULP energy -297629.364217 kJ/mol
# GULP energy per Si atom -12401.223509 kJ/mol
# Density = 1.973034 g / cm^3
# Si number density = 19.775346 Si / 1000 Ang^3
#
#
#
# Elastic Constant Matrix: (Units=GPa)
#
#
# Indices 1 2 3 4 5 6 
#
# 1 83.6141 10.3562 27.8030 0.0000 0.0000 0.0000
# 2 10.3562 89.1448 23.7771 0.0000 0.0000 0.0000
# 3 27.8030 23.7771 61.8337 0.0000 0.0000 0.0000
# 4 0.0000 0.0000 0.0000 33.9626 0.0000 0.0000
# 5 0.0000 0.0000 0.0000 0.0000 20.2878 0.0000
# 6 0.0000 0.0000 0.0000 0.0000 0.0000 19.2758
#
#
#
# Elastic Compliance Matrix: (Units=1/GPa)
#
#
# Indices 1 2 3 4 5 6 
#
# 1 0.014062 0.000059 -0.006346 0.000000 0.000000 0.000000
# 2 0.000059 0.012500 -0.004833 0.000000 0.000000 0.000000
# 3 -0.006346 -0.004833 0.020884 0.000000 0.000000 0.000000
# 4 0.000000 0.000000 0.000000 0.029444 0.000000 0.000000
# 5 0.000000 0.000000 0.000000 0.000000 0.049291 0.000000
# 6 0.000000 0.000000 0.000000 0.000000 0.000000 0.051878
#
#
# Mechanical properties :
#
#
# Convention : Reuss Voigt Hill
#
# Bulk Modulus (GPa) = 39.67196 39.82948 39.75072
# Shear Modulus (GPa) = 23.95759 26.21566 25.08663
#
# Velocity S-wave (km/s) = 3.48442 3.64493 3.56558
# Velocity P-wave (km/s) = 6.02438 6.15619 6.09064
#
# Compressibility (1/GPa) = 0.02520672
#
# Stress axis : x y z
#
# Youngs Moduli (GPa) = 71.11123 80.00008 47.88303
#
# Poissons Ratio (x) = -0.00471 0.30385
# Poissons Ratio (y) = -0.00419 0.23143
# Poissons Ratio (z) = 0.45125 0.38665
#
# Static dielectric constant tensor:
#      x y z
#    x 3.734870 0.000000 0.000000 
#    y 0.000000 3.671000 0.000000 
#    z 0.000000 0.000000 3.331530 
# 
# 
# High freq. dielectric constant tensor:
#      x y z
#    x 1.775370 0.000000 0.000000 
#    y 0.000000 1.774260 0.000000 
#    z 0.000000 0.000000 1.754450 
# 
# From -- ./inp_files/17624.got.cif
#   From: 2010.03.12/outbox.cif.g09.slc.cpg/sg40_9_cif.got.tgz:17624.got - 2010.04.14 01:38:03.
