data_PCOD8183887
_publ_section_title
;
Structure prediction by ZEFSAII (Michael W. Deem and Ramdas Pophale) SiO2 
 PCOD8183887
Probable space group: A M A 2
;
_chemical_formula_sum "Si O2"
_cell_formula_units_Z 64
_cell_length_a 16.691648
_cell_length_b 15.494551
_cell_length_c 12.251249
_cell_angle_alpha 90.000000
_cell_angle_beta 90.000000
_cell_angle_gamma 90.000000
_cell_volume 3168.535521
_symmetry_space_group_name_H-M "A M A 2"
_symmetry_group_IT_number 40
_symmetry_cell_setting 'orthorhombic'
loop_
_space_group_symop_operation_xyz
x,y,z
-x,-y,z
1/2-x,y,z
1/2+x,-y,z
x,1/2+y,1/2+z
-x,1/2-y,1/2+z
1/2-x,1/2+y,1/2+z
1/2+x,1/2-y,1/2+z
loop_
_atom_site_type_symbol
_atom_site_label
_atom_site_fract_x
_atom_site_fract_y
_atom_site_fract_z
Si Si1 0.844160 0.291029 0.232270
Si Si2 0.341268 0.317448 0.101686
Si Si3 0.084497 0.546040 0.338711
Si Si4 0.655081 0.627128 0.875184
Si Si5 0.591616 0.359054 0.567129
Si Si6 0.589057 0.675905 0.559351
Si Si7 0.406574 0.985100 0.196098
Si Si8 0.342278 0.369467 0.334171
O O1 0.750000 0.310710 0.242299
O O2 0.894028 0.378434 0.253531
O O3 0.871948 0.216109 0.316605
O O4 0.865848 0.258607 0.110443
O O5 0.250000 0.344978 0.115759
O O6 0.345615 0.218326 0.063221
O O7 0.381180 0.335300 0.219545
O O8 0.376868 0.373198 0.000424
O O9 0.084187 0.585852 0.458243
O O10 0.152562 0.472967 0.334518
O O11 0.000000 0.500000 0.311360
O O12 0.750000 0.619423 0.869054
O O13 0.617201 0.542682 0.818200
O O14 0.504554 0.317398 0.590147
O O15 0.627906 0.421658 0.661695
O O16 0.624925 0.588423 0.612759
O O17 0.604562 0.673621 0.429672
O O18 0.500000 0.000000 0.182888
O O19 0.250000 0.341551 0.349696
#
# Coordination Sequence:
#
# PCOD8183887 Si02
#       8
#     8   8   8   8   8   8   8   8
#     4  10  21  37  61  92 121 158 204 253 301 360
#     4  10  23  40  59  86 122 162 203 249 307 373
#     4  12  22  38  60  92 124 156 205 250 306 366
#     4   9  18  36  59  85 117 155 200 244 298 359
#     4  11  20  37  62  89 121 156 201 255 309 358
#     4  10  20  37  61  90 121 158 197 256 306 361
#     4   9  18  35  57  88 120 148 193 251 299 350
#     4  11  23  40  61  87 125 164 203 254 309 367
#
# _framework density 20.198606000000002
#
# number of rings (size 3 to 8) (size 9 to 14) (size 15 to 20)
#    0.000    1.750    3.750    1.125    1.750    1.500 
#    2.250    1.875    0.000    3.000    0.000    0.000 
#    0.000    0.000    0.000    0.000    0.000    0.000 
#
# Total GULP energy -396655.715958 kJ/mol
# GULP energy per Si atom -12395.491124 kJ/mol
# Density = 2.015263 g / cm^3
# Si number density = 20.198606 Si / 1000 Ang^3
#
#
#
# Elastic Constant Matrix: (Units=GPa)
#
#
# Indices 1 2 3 4 5 6 
#
# 1 33.6249 32.3857 32.3126 0.0000 0.0000 0.0000
# 2 32.3857 96.3020 60.3093 0.0000 0.0000 0.0000
# 3 32.3126 60.3093 156.4044 0.0000 0.0000 0.0000
# 4 0.0000 0.0000 0.0000 39.8082 0.0000 0.0000
# 5 0.0000 0.0000 0.0000 0.0000 21.5982 0.0000
# 6 0.0000 0.0000 0.0000 0.0000 0.0000 28.7245
#
#
#
# Elastic Compliance Matrix: (Units=1/GPa)
#
#
# Indices 1 2 3 4 5 6 
#
# 1 0.046482 -0.012680 -0.004714 0.000000 0.000000 0.000000
# 2 -0.012680 0.017149 -0.003993 0.000000 0.000000 0.000000
# 3 -0.004714 -0.003993 0.008907 0.000000 0.000000 0.000000
# 4 0.000000 0.000000 0.000000 0.025120 0.000000 0.000000
# 5 0.000000 0.000000 0.000000 0.000000 0.046300 0.000000
# 6 0.000000 0.000000 0.000000 0.000000 0.000000 0.034814
#
#
# Mechanical properties :
#
#
# Convention : Reuss Voigt Hill
#
# Bulk Modulus (GPa) = 33.59620 59.59406 46.59513
# Shear Modulus (GPa) = 21.60141 28.78108 25.19124
#
# Velocity S-wave (km/s) = 3.27379 3.77889 3.53537
# Velocity P-wave (km/s) = 5.56411 6.97195 6.30743
#
# Compressibility (1/GPa) = 0.02976527
#
# Stress axis : x y z
#
# Youngs Moduli (GPa) = 21.51370 58.31376 112.26854
#
# Poissons Ratio (x) = 0.73939 0.52921
# Poissons Ratio (y) = 0.27278 0.44828
# Poissons Ratio (z) = 0.10141 0.23284
#
# Static dielectric constant tensor:
#      x y z
#    x 3.441210 0.000000 0.000000 
#    y 0.000000 3.723750 0.000000 
#    z 0.000000 0.000000 3.830640 
# 
# 
# High freq. dielectric constant tensor:
#      x y z
#    x 1.772710 0.000000 0.000000 
#    y 0.000000 1.777590 0.000000 
#    z 0.000000 0.000000 1.788020 
# 
# From -- ./inp_files/13094.got.cif
#   From: 2010.03.12/outbox.cif.g09.slc.cpg/sg40_7_cif.got.tgz:13094.got - 2010.04.14 01:38:03.
