data_PCOD8183156
_publ_section_title
;
Structure prediction by ZEFSAII (Michael W. Deem and Ramdas Pophale) SiO2 
 PCOD8183156
Probable space group: A M A 2
;
_chemical_formula_sum "Si O2"
_cell_formula_units_Z 56
_cell_length_a 8.693147
_cell_length_b 14.342786
_cell_length_c 22.383632
_cell_angle_alpha 90.000000
_cell_angle_beta 90.000000
_cell_angle_gamma 90.000000
_cell_volume 2790.879588
_symmetry_space_group_name_H-M "A M A 2"
_symmetry_group_IT_number 40
_symmetry_cell_setting 'orthorhombic'
loop_
_space_group_symop_operation_xyz
x,y,z
-x,-y,z
1/2-x,y,z
1/2+x,-y,z
x,1/2+y,1/2+z
-x,1/2-y,1/2+z
1/2-x,1/2+y,1/2+z
1/2+x,1/2-y,1/2+z
loop_
_atom_site_type_symbol
_atom_site_label
_atom_site_fract_x
_atom_site_fract_y
_atom_site_fract_z
Si Si1 0.430776 0.597772 0.447940
Si Si2 0.931852 0.397623 0.792791
Si Si3 0.567529 0.099356 0.643326
Si Si4 0.571605 0.720129 0.687474
Si Si5 0.930623 0.903610 0.515560
Si Si6 0.428142 0.404729 0.574957
Si Si7 0.429169 0.223875 0.404213
O O1 0.500000 0.500000 0.425689
O O2 0.250000 0.588538 0.449179
O O3 0.490691 0.624430 0.513682
O O4 0.480985 0.678399 0.402023
O O5 0.750000 0.406342 0.791629
O O6 0.989547 0.340379 0.850441
O O7 0.000000 0.500000 0.795894
O O8 0.987424 0.345997 0.733863
O O9 0.750000 0.095840 0.646168
O O10 0.504629 0.177715 0.688594
O O11 0.512990 0.125055 0.576751
O O12 0.500000 0.000000 0.663673
O O13 0.750000 0.727804 0.704393
O O14 0.547661 0.677435 0.621882
O O15 0.750000 0.915712 0.528095
O O16 0.964975 0.825473 0.466892
O O17 0.000000 0.000000 0.490883
O O18 0.500000 0.500000 0.601001
O O19 0.250000 0.422290 0.561098
O O20 0.250000 0.244899 0.396828
#
# Coordination Sequence:
#
# PCOD8183156 Si02
#       7
#     8   8   8   8   8   8   8
#     4  11  22  36  58  85 115 149 187 233 283 337
#     4  11  24  42  63  87 116 151 190 235 282 333
#     4  11  22  37  58  85 117 151 189 235 285 341
#     4  11  23  39  59  84 115 152 193 238 286 338
#     4  10  19  33  55  84 118 153 188 232 283 337
#     4  10  20  34  55  83 117 152 187 231 283 338
#     4  10  22  39  58  82 115 152 191 234 282 334
#
# _framework density 20.065359999999998
#
# number of rings (size 3 to 8) (size 9 to 14) (size 15 to 20)
#    0.000    1.429    0.000    7.714    0.000    9.143 
#    0.000    0.714    0.000    3.429    0.000    0.000 
#    0.000    0.000    0.000    0.000    0.000    0.000 
#
# Total GULP energy -347326.561016 kJ/mol
# GULP energy per Si atom -12404.520036 kJ/mol
# Density = 2.001969 g / cm^3
# Si number density = 20.065360 Si / 1000 Ang^3
#
#
#
# Elastic Constant Matrix: (Units=GPa)
#
#
# Indices 1 2 3 4 5 6 
#
# 1 122.4038 71.6275 43.3394 0.0000 0.0000 0.0000
# 2 71.6275 167.4957 64.8895 0.0000 0.0000 0.0000
# 3 43.3394 64.8895 65.5455 0.0000 0.0000 0.0000
# 4 0.0000 0.0000 0.0000 36.5203 0.0000 0.0000
# 5 0.0000 0.0000 0.0000 0.0000 13.6911 0.0000
# 6 0.0000 0.0000 0.0000 0.0000 0.0000 35.8773
#
#
#
# Elastic Compliance Matrix: (Units=1/GPa)
#
#
# Indices 1 2 3 4 5 6 
#
# 1 0.011661 -0.003244 -0.004499 0.000000 0.000000 0.000000
# 2 -0.003244 0.010587 -0.008336 0.000000 0.000000 0.000000
# 3 -0.004499 -0.008336 0.026484 0.000000 0.000000 0.000000
# 4 0.000000 0.000000 0.000000 0.027382 0.000000 0.000000
# 5 0.000000 0.000000 0.000000 0.000000 0.073040 0.000000
# 6 0.000000 0.000000 0.000000 0.000000 0.000000 0.027873
#
#
# Mechanical properties :
#
#
# Convention : Reuss Voigt Hill
#
# Bulk Modulus (GPa) = 60.33537 79.46199 69.89868
# Shear Modulus (GPa) = 23.28727 28.92364 26.10545
#
# Velocity S-wave (km/s) = 3.41041 3.80079 3.61088
# Velocity P-wave (km/s) = 6.75593 7.67782 7.23158
#
# Compressibility (1/GPa) = 0.01657403
#
# Stress axis : x y z
#
# Youngs Moduli (GPa) = 85.75800 94.45603 37.75824
#
# Poissons Ratio (x) = 0.30637 0.16988
# Poissons Ratio (y) = 0.27816 0.31476
# Poissons Ratio (z) = 0.38583 0.78741
#
# Static dielectric constant tensor:
#      x y z
#    x 3.766850 0.000000 0.000000 
#    y 0.000000 3.721630 0.000000 
#    z 0.000000 0.000000 3.512790 
# 
# 
# High freq. dielectric constant tensor:
#      x y z
#    x 1.796090 0.000000 0.000000 
#    y 0.000000 1.801070 0.000000 
#    z 0.000000 0.000000 1.761700 
# 
# From -- ./inp_files/22192.got.cif
#   From: 2010.03.12/outbox.cif.g09.slc.cpg/sg40_12_cif.got.tgz:22192.got - 2010.04.14 01:38:03.
