data_PCOD8183308
_publ_section_title
;
Structure prediction by ZEFSAII (Michael W. Deem and Ramdas Pophale) SiO2 
 PCOD8183308
Probable space group: A M A 2
;
_chemical_formula_sum "Si O2"
_cell_formula_units_Z 48
_cell_length_a 8.342172
_cell_length_b 30.822605
_cell_length_c 9.142697
_cell_angle_alpha 90.000000
_cell_angle_beta 90.000000
_cell_angle_gamma 90.000000
_cell_volume 2350.838571
_symmetry_space_group_name_H-M "A M A 2"
_symmetry_group_IT_number 40
_symmetry_cell_setting 'orthorhombic'
loop_
_space_group_symop_operation_xyz
x,y,z
-x,-y,z
1/2-x,y,z
1/2+x,-y,z
x,1/2+y,1/2+z
-x,1/2-y,1/2+z
1/2-x,1/2+y,1/2+z
1/2+x,1/2-y,1/2+z
loop_
_atom_site_type_symbol
_atom_site_label
_atom_site_fract_x
_atom_site_fract_y
_atom_site_fract_z
Si Si1 0.938160 0.289894 0.588420
Si Si2 0.436474 0.792157 0.411824
Si Si3 0.937027 0.871710 0.585593
Si Si4 0.559673 0.372390 0.416527
Si Si5 0.440310 0.546331 0.602358
Si Si6 0.938256 0.047250 0.423774
O O1 0.750000 0.290777 0.566455
O O2 0.007230 0.246306 0.513468
O O3 0.012837 0.332098 0.508344
O O4 0.974904 0.290627 0.758404
O O5 0.250000 0.785780 0.381586
O O6 0.465077 0.837854 0.488904
O O7 0.750000 0.860237 0.577169
O O8 0.003033 0.869264 0.750958
O O9 0.966982 0.919588 0.525796
O O10 0.750000 0.371301 0.419045
O O11 0.501474 0.417435 0.487878
O O12 0.500000 0.500000 0.541990
O O13 0.250000 0.545760 0.625596
O O14 0.523388 0.557323 0.755572
O O15 0.750000 0.051197 0.451556
O O16 0.000000 0.000000 0.468881
#
# Coordination Sequence:
#
# PCOD8183308 Si02
#       6
#     8   8   8   8   8   8
#     4  10  21  39  61  84 114 152 192 236 288 343
#     4  11  23  38  59  89 118 148 192 240 286 341
#     4  11  22  39  60  83 116 156 192 233 287 341
#     4   9  20  37  58  82 110 149 194 235 282 342
#     4  10  19  35  58  84 113 149 192 237 289 344
#     4  11  22  38  59  86 116 150 194 239 286 341
#
# _framework density 20.418246
#
# number of rings (size 3 to 8) (size 9 to 14) (size 15 to 20)
#    0.000    1.667    0.000    6.000    0.000    4.667 
#    0.000    7.500    0.000    0.000    0.000    0.000 
#    0.000    0.000    0.000    0.000    0.000    0.000 
#
# Total GULP energy -297697.712258 kJ/mol
# GULP energy per Si atom -12404.071344 kJ/mol
# Density = 2.037177 g / cm^3
# Si number density = 20.418246 Si / 1000 Ang^3
#
#
#
# Elastic Constant Matrix: (Units=GPa)
#
#
# Indices 1 2 3 4 5 6 
#
# 1 35.1905 8.1453 -3.6912 0.0000 0.0000 0.0000
# 2 8.1453 146.9581 81.9651 0.0000 0.0000 0.0000
# 3 -3.6912 81.9651 140.6203 0.0000 0.0000 0.0000
# 4 0.0000 0.0000 0.0000 44.0244 0.0000 0.0000
# 5 0.0000 0.0000 0.0000 0.0000 26.4068 0.0000
# 6 0.0000 0.0000 0.0000 0.0000 0.0000 28.6614
#
#
#
# Elastic Compliance Matrix: (Units=1/GPa)
#
#
# Indices 1 2 3 4 5 6 
#
# 1 0.029390 -0.003051 0.002550 0.000000 0.000000 0.000000
# 2 -0.003051 0.010399 -0.006142 0.000000 0.000000 0.000000
# 3 0.002550 -0.006142 0.010758 0.000000 0.000000 0.000000
# 4 0.000000 0.000000 0.000000 0.022715 0.000000 0.000000
# 5 0.000000 0.000000 0.000000 0.000000 0.037869 0.000000
# 6 0.000000 0.000000 0.000000 0.000000 0.000000 0.034890
#
#
# Mechanical properties :
#
#
# Convention : Reuss Voigt Hill
#
# Bulk Modulus (GPa) = 26.83691 55.06747 40.95219
# Shear Modulus (GPa) = 29.11579 35.57517 32.34548
#
# Velocity S-wave (km/s) = 3.78030 4.17864 3.98445
# Velocity P-wave (km/s) = 5.67682 7.09293 6.42402
#
# Compressibility (1/GPa) = 0.03726211
#
# Stress axis : x y z
#
# Youngs Moduli (GPa) = 34.02461 96.16084 92.95291
#
# Poissons Ratio (x) = 0.29341 -0.23703
# Poissons Ratio (y) = 0.10382 0.57088
# Poissons Ratio (z) = -0.08676 0.59058
#
# Static dielectric constant tensor:
#      x y z
#    x 3.498970 0.000000 0.000000 
#    y 0.000000 4.081500 0.000000 
#    z 0.000000 0.000000 3.746290 
# 
# 
# High freq. dielectric constant tensor:
#      x y z
#    x 1.784430 0.000000 0.000000 
#    y 0.000000 1.816850 0.000000 
#    z 0.000000 0.000000 1.802460 
# 
# From -- ./inp_files/4592.got.cif
#   From: 2010.03.12/outbox.cif.g09.slc.cpg/sg40_3_cif.got.tgz:4592.got - 2010.04.14 01:38:03.
