data_PCOD8183112
_publ_section_title
;
Structure prediction by ZEFSAII (Michael W. Deem and Ramdas Pophale) SiO2 
 PCOD8183112
Probable space group: A M A 2
;
_chemical_formula_sum "Si O2"
_cell_formula_units_Z 64
_cell_length_a 8.965503
_cell_length_b 28.372002
_cell_length_c 12.350939
_cell_angle_alpha 90.000000
_cell_angle_beta 90.000000
_cell_angle_gamma 90.000000
_cell_volume 3141.699325
_symmetry_space_group_name_H-M "A M A 2"
_symmetry_group_IT_number 40
_symmetry_cell_setting 'orthorhombic'
loop_
_space_group_symop_operation_xyz
x,y,z
-x,-y,z
1/2-x,y,z
1/2+x,-y,z
x,1/2+y,1/2+z
-x,1/2-y,1/2+z
1/2-x,1/2+y,1/2+z
1/2+x,1/2-y,1/2+z
loop_
_atom_site_type_symbol
_atom_site_label
_atom_site_fract_x
_atom_site_fract_y
_atom_site_fract_z
Si Si1 0.074999 0.857741 0.671530
Si Si2 0.574064 0.952278 0.155564
Si Si3 0.581558 0.570134 0.871724
Si Si4 0.916886 0.317869 0.359255
Si Si5 0.575380 0.838815 0.466690
Si Si6 0.085880 0.957340 0.605597
Si Si7 0.424905 0.655111 0.600940
Si Si8 0.079534 0.787418 0.292788
O O1 0.250000 0.851996 0.650513
O O2 0.010445 0.908958 0.640984
O O3 0.034785 0.849996 0.795926
O O4 0.985838 0.825119 0.586143
O O5 0.750000 0.959579 0.149557
O O6 0.522263 0.952029 0.280044
O O7 0.529561 0.901082 0.102520
O O8 0.500000 0.000000 0.101554
O O9 0.750000 0.577522 0.827107
O O10 0.514772 0.619543 0.908975
O O11 0.585390 0.536194 0.975810
O O12 0.750000 0.338620 0.349668
O O13 0.961972 0.320552 0.485494
O O14 0.923364 0.269004 0.293170
O O15 0.750000 0.849683 0.469615
O O16 0.534478 0.795110 0.391644
O O17 0.250000 0.958330 0.654705
O O18 0.000000 0.000000 0.661312
O O19 0.250000 0.659431 0.630160
O O20 0.518232 0.686401 0.685818
O O21 0.250000 0.804731 0.312577
#
# Coordination Sequence:
#
# PCOD8183112 Si02
#       8
#     8   8   8   8   8   8   8   8
#     4  10  22  40  60  86 121 159 203 254 305 358
#     4  11  22  36  58  87 121 167 213 260 319 380
#     4  10  19  33  53  83 123 159 197 252 307 366
#     4  10  24  44  64  90 122 162 209 257 312 374
#     4  11  21  35  58  88 123 162 200 242 301 366
#     4   9  19  33  52  81 115 154 199 246 304 359
#     4  10  23  44  65  89 126 167 209 260 318 379
#     4  11  23  39  63  94 124 158 202 253 311 369
#
# _framework density 20.37114
#
# number of rings (size 3 to 8) (size 9 to 14) (size 15 to 20)
#    0.000    1.750    1.250    3.750    1.750    6.000 
#    0.000    0.625    0.000    3.000    0.000    0.000 
#    0.000    0.000    0.000    0.000    0.000    0.000 
#
# Total GULP energy -396456.619211 kJ/mol
# GULP energy per Si atom -12389.269350 kJ/mol
# Density = 2.032477 g / cm^3
# Si number density = 20.371140 Si / 1000 Ang^3
#
#
#
# Elastic Constant Matrix: (Units=GPa)
#
#
# Indices 1 2 3 4 5 6 
#
# 1 96.4107 36.2480 44.4236 0.0000 0.0000 0.0000
# 2 36.2480 85.3450 42.5316 0.0000 0.0000 0.0000
# 3 44.4236 42.5316 103.4910 0.0000 0.0000 0.0000
# 4 0.0000 0.0000 0.0000 14.6467 0.0000 0.0000
# 5 0.0000 0.0000 0.0000 0.0000 28.8387 0.0000
# 6 0.0000 0.0000 0.0000 0.0000 0.0000 29.6212
#
#
#
# Elastic Compliance Matrix: (Units=1/GPa)
#
#
# Indices 1 2 3 4 5 6 
#
# 1 0.013779 -0.003653 -0.004414 0.000000 0.000000 0.000000
# 2 -0.003653 0.015703 -0.004886 0.000000 0.000000 0.000000
# 3 -0.004414 -0.004886 0.013565 0.000000 0.000000 0.000000
# 4 0.000000 0.000000 0.000000 0.068275 0.000000 0.000000
# 5 0.000000 0.000000 0.000000 0.000000 0.034676 0.000000
# 6 0.000000 0.000000 0.000000 0.000000 0.000000 0.033760
#
#
# Mechanical properties :
#
#
# Convention : Reuss Voigt Hill
#
# Bulk Modulus (GPa) = 58.33075 59.07257 58.70166
# Shear Modulus (GPa) = 23.65447 25.42421 24.53934
#
# Velocity S-wave (km/s) = 3.41130 3.53661 3.47452
# Velocity P-wave (km/s) = 6.64922 6.76298 6.70634
#
# Compressibility (1/GPa) = 0.01714362
#
# Stress axis : x y z
#
# Youngs Moduli (GPa) = 72.57233 63.68074 73.71902
#
# Poissons Ratio (x) = 0.23262 0.32536
# Poissons Ratio (y) = 0.26510 0.36016
# Poissons Ratio (z) = 0.32030 0.31112
#
# Static dielectric constant tensor:
#      x y z
#    x 3.731820 0.000000 0.000000 
#    y 0.000000 3.858880 0.000000 
#    z 0.000000 0.000000 3.580660 
# 
# 
# High freq. dielectric constant tensor:
#      x y z
#    x 1.800680 0.000000 0.000000 
#    y 0.000000 1.796890 0.000000 
#    z 0.000000 0.000000 1.773120 
# 
# From -- ./inp_files/10637.got.cif
#   From: 2010.03.12/outbox.cif.g09.slc.cpg/sg40_6_cif.got.tgz:10637.got - 2010.04.14 01:38:03.
