data_PCOD8183678
_publ_section_title
;
Structure prediction by ZEFSAII (Michael W. Deem and Ramdas Pophale) SiO2 
 PCOD8183678
Probable space group: A M A 2
;
_chemical_formula_sum "Si O2"
_cell_formula_units_Z 48
_cell_length_a 8.691688
_cell_length_b 15.112332
_cell_length_c 18.866009
_cell_angle_alpha 90.000000
_cell_angle_beta 90.000000
_cell_angle_gamma 90.000000
_cell_volume 2478.081877
_symmetry_space_group_name_H-M "A M A 2"
_symmetry_group_IT_number 40
_symmetry_cell_setting 'orthorhombic'
loop_
_space_group_symop_operation_xyz
x,y,z
-x,-y,z
1/2-x,y,z
1/2+x,-y,z
x,1/2+y,1/2+z
-x,1/2-y,1/2+z
1/2-x,1/2+y,1/2+z
1/2+x,1/2-y,1/2+z
loop_
_atom_site_type_symbol
_atom_site_label
_atom_site_fract_x
_atom_site_fract_y
_atom_site_fract_z
Si Si1 0.929637 0.745756 0.611690
Si Si2 0.931089 0.907200 0.513561
Si Si3 0.429841 0.908055 0.363140
Si Si4 0.431281 0.094619 0.022466
Si Si5 0.930974 0.094434 0.873260
Si Si6 0.071631 0.237572 0.774838
O O1 0.750000 0.724610 0.601795
O O2 0.979604 0.833343 0.569805
O O3 0.973135 0.761714 0.692860
O O4 0.026378 0.663152 0.583706
O O5 0.750000 0.917223 0.507107
O O6 0.996700 0.879173 0.437490
O O7 0.000000 0.000000 0.539914
O O8 0.250000 0.921157 0.375017
O O9 0.468022 0.833830 0.305570
O O10 0.500000 0.000000 0.335079
O O11 0.250000 0.085950 0.014989
O O12 0.500000 0.000000 0.043673
O O13 0.499011 0.128062 0.947573
O O14 0.750000 0.084777 0.882408
O O15 0.968545 0.164055 0.812263
O O16 0.000000 0.000000 0.851305
O O17 0.250000 0.213822 0.786851
#
# Coordination Sequence:
#
# PCOD8183678 Si02
#       6
#     8   8   8   8   8   8
#     4  10  22  39  57  82 117 152 185 228 282 336
#     4  10  20  35  57  81 108 142 182 228 273 323
#     4  10  20  35  57  81 108 142 182 228 273 323
#     4  11  22  38  61  86 113 147 190 237 285 338
#     4  11  22  38  61  86 113 147 190 237 285 338
#     4  10  22  39  57  82 117 152 185 228 282 336
#
# _framework density 19.369820000000001
#
# number of rings (size 3 to 8) (size 9 to 14) (size 15 to 20)
#    0.000    1.667    0.000    7.000    0.000    7.333 
#    0.000    3.333    0.000    0.000    0.000    0.000 
#    0.000    0.000    0.000    0.000    0.000    0.000 
#
# Total GULP energy -297733.927800 kJ/mol
# GULP energy per Si atom -12405.580325 kJ/mol
# Density = 1.932573 g / cm^3
# Si number density = 19.369820 Si / 1000 Ang^3
#
#
#
# Elastic Constant Matrix: (Units=GPa)
#
#
# Indices 1 2 3 4 5 6 
#
# 1 110.1547 29.9132 13.2601 0.0000 0.0000 0.0000
# 2 29.9132 69.4852 16.0672 0.0000 0.0000 0.0000
# 3 13.2601 16.0672 40.3645 0.0000 0.0000 0.0000
# 4 0.0000 0.0000 0.0000 11.4785 0.0000 0.0000
# 5 0.0000 0.0000 0.0000 0.0000 23.8561 0.0000
# 6 0.0000 0.0000 0.0000 0.0000 0.0000 21.7321
#
#
#
# Elastic Compliance Matrix: (Units=1/GPa)
#
#
# Indices 1 2 3 4 5 6 
#
# 1 0.010397 -0.004060 -0.001800 0.000000 0.000000 0.000000
# 2 -0.004060 0.017436 -0.005607 0.000000 0.000000 0.000000
# 3 -0.001800 -0.005607 0.027597 0.000000 0.000000 0.000000
# 4 0.000000 0.000000 0.000000 0.087119 0.000000 0.000000
# 5 0.000000 0.000000 0.000000 0.000000 0.041918 0.000000
# 6 0.000000 0.000000 0.000000 0.000000 0.000000 0.046015
#
#
# Mechanical properties :
#
#
# Convention : Reuss Voigt Hill
#
# Bulk Modulus (GPa) = 30.77112 37.60950 34.19031
# Shear Modulus (GPa) = 18.92169 22.13094 20.52631
#
# Velocity S-wave (km/s) = 3.12887 3.38383 3.25884
# Velocity P-wave (km/s) = 5.38273 5.89285 5.64356
#
# Compressibility (1/GPa) = 0.03249800
#
# Stress axis : x y z
#
# Youngs Moduli (GPa) = 96.17926 57.35345 36.23566
#
# Poissons Ratio (x) = 0.23285 0.06521
# Poissons Ratio (y) = 0.39048 0.20316
# Poissons Ratio (z) = 0.17308 0.32156
#
# Static dielectric constant tensor:
#      x y z
#    x 3.581640 0.000000 0.000000 
#    y 0.000000 3.652180 0.000000 
#    z 0.000000 0.000000 3.487360 
# 
# 
# High freq. dielectric constant tensor:
#      x y z
#    x 1.763280 0.000000 0.000000 
#    y 0.000000 1.765950 0.000000 
#    z 0.000000 0.000000 1.749040 
# 
# From -- ./inp_files/19189.got.cif
#   From: 2010.03.12/outbox.cif.g09.slc.cpg/sg40_10_cif.got.tgz:19189.got - 2010.04.14 01:38:03.
