data_PCOD8183546
_publ_section_title
;
Structure prediction by ZEFSAII (Michael W. Deem and Ramdas Pophale) SiO2 
 PCOD8183546
Probable space group: A M A 2
;
_chemical_formula_sum "Si O2"
_cell_formula_units_Z 64
_cell_length_a 8.879288
_cell_length_b 23.091741
_cell_length_c 18.910094
_cell_angle_alpha 90.000000
_cell_angle_beta 90.000000
_cell_angle_gamma 90.000000
_cell_volume 3877.291990
_symmetry_space_group_name_H-M "A M A 2"
_symmetry_group_IT_number 40
_symmetry_cell_setting 'orthorhombic'
loop_
_space_group_symop_operation_xyz
x,y,z
-x,-y,z
1/2-x,y,z
1/2+x,-y,z
x,1/2+y,1/2+z
-x,1/2-y,1/2+z
1/2-x,1/2+y,1/2+z
1/2+x,1/2-y,1/2+z
loop_
_atom_site_type_symbol
_atom_site_label
_atom_site_fract_x
_atom_site_fract_y
_atom_site_fract_z
Si Si1 0.422507 0.158745 0.961330
Si Si2 0.573116 0.562238 0.092273
Si Si3 0.574562 0.751936 0.731682
Si Si4 0.926233 0.561327 0.380736
Si Si5 0.425823 0.375783 0.238442
Si Si6 0.571905 0.837130 0.510589
Si Si7 0.075347 0.776454 0.387476
Si Si8 0.075456 0.232742 0.092515
O O1 0.250000 0.141528 0.947360
O O2 0.526123 0.104168 0.943908
O O3 0.471014 0.211938 0.911309
O O4 0.448709 0.176864 0.042949
O O5 0.500000 0.500000 0.085386
O O6 0.750000 0.557878 0.079011
O O7 0.535772 0.587259 0.169417
O O8 0.500390 0.602066 0.031987
O O9 0.750000 0.752252 0.713830
O O10 0.520816 0.817584 0.737220
O O11 0.542349 0.717496 0.804323
O O12 0.485826 0.717715 0.670322
O O13 0.750000 0.552621 0.382722
O O14 0.979488 0.586852 0.305581
O O15 0.000000 0.500000 0.394491
O O16 0.250000 0.359770 0.243045
O O17 0.750000 0.841164 0.515696
O O18 0.523181 0.823098 0.430047
O O19 0.513780 0.787924 0.563608
O O20 0.250000 0.786808 0.406460
O O21 0.250000 0.250573 0.095795
#
# Coordination Sequence:
#
# PCOD8183546 Si02
#       8
#     8   8   8   8   8   8   8   8
#     4   9  18  34  51  69  97 133 168 207 254 298
#     4  11  22  36  52  71 101 139 176 216 254 299
#     4  11  20  31  52  78 103 135 172 207 250 307
#     4  11  22  34  50  72  99 135 176 213 250 296
#     4  10  21  34  48  70 102 139 174 209 250 293
#     4  11  21  33  51  75  99 132 174 213 252 301
#     4   9  19  34  51  73 102 134 164 207 260 303
#     4  10  20  34  51  72 103 135 165 208 260 305
#
# _framework density 16.506366
#
# number of rings (size 3 to 8) (size 9 to 14) (size 15 to 20)
#    0.000    1.750    2.500    3.750    0.000    4.500 
#    0.000    0.000    0.000    0.000    0.000    0.875 
#    0.000    2.000    0.000    0.000    0.000    0.000 
#
# Total GULP energy -396906.467158 kJ/mol
# GULP energy per Si atom -12403.327099 kJ/mol
# Density = 1.646880 g / cm^3
# Si number density = 16.506366 Si / 1000 Ang^3
#
#
#
# Elastic Constant Matrix: (Units=GPa)
#
#
# Indices 1 2 3 4 5 6 
#
# 1 93.1087 49.8353 51.8377 0.0000 0.0000 0.0000
# 2 49.8353 86.7052 53.2140 0.0000 0.0000 0.0000
# 3 51.8377 53.2140 109.3948 0.0000 0.0000 0.0000
# 4 0.0000 0.0000 0.0000 31.6950 0.0000 0.0000
# 5 0.0000 0.0000 0.0000 0.0000 17.9282 0.0000
# 6 0.0000 0.0000 0.0000 0.0000 0.0000 28.4262
#
#
#
# Elastic Compliance Matrix: (Units=1/GPa)
#
#
# Indices 1 2 3 4 5 6 
#
# 1 0.017071 -0.006910 -0.004728 0.000000 0.000000 0.000000
# 2 -0.006910 0.019239 -0.006084 0.000000 0.000000 0.000000
# 3 -0.004728 -0.006084 0.014341 0.000000 0.000000 0.000000
# 4 0.000000 0.000000 0.000000 0.031551 0.000000 0.000000
# 5 0.000000 0.000000 0.000000 0.000000 0.055778 0.000000
# 6 0.000000 0.000000 0.000000 0.000000 0.000000 0.035179
#
#
# Mechanical properties :
#
#
# Convention : Reuss Voigt Hill
#
# Bulk Modulus (GPa) = 65.76030 66.55363 66.15697
# Shear Modulus (GPa) = 23.40031 24.56465 23.98248
#
# Velocity S-wave (km/s) = 3.76926 3.86189 3.81586
# Velocity P-wave (km/s) = 7.67261 7.76487 7.71888
#
# Compressibility (1/GPa) = 0.01520674
#
# Stress axis : x y z
#
# Youngs Moduli (GPa) = 58.57919 51.97718 69.72937
#
# Poissons Ratio (x) = 0.35917 0.32967
# Poissons Ratio (y) = 0.40479 0.42425
# Poissons Ratio (z) = 0.27695 0.31624
#
# Static dielectric constant tensor:
#      x y z
#    x 3.170740 0.000000 0.000000 
#    y 0.000000 2.608110 0.000000 
#    z 0.000000 0.000000 3.363940 
# 
# 
# High freq. dielectric constant tensor:
#      x y z
#    x 1.647600 0.000000 0.000000 
#    y 0.000000 1.606040 0.000000 
#    z 0.000000 0.000000 1.635210 
# 
# From -- ./inp_files/19653.got.cif
#   From: 2010.03.12/outbox.cif.g09.slc.cpg/sg40_10_cif.got.tgz:19653.got - 2010.04.14 01:38:03.
