data_PCOD8183399
_publ_section_title
;
Structure prediction by ZEFSAII (Michael W. Deem and Ramdas Pophale) SiO2 
 PCOD8183399
Probable space group: A M A 2
;
_chemical_formula_sum "Si O2"
_cell_formula_units_Z 64
_cell_length_a 8.939148
_cell_length_b 30.678650
_cell_length_c 11.897057
_cell_angle_alpha 90.000000
_cell_angle_beta 90.000000
_cell_angle_gamma 90.000000
_cell_volume 3262.660723
_symmetry_space_group_name_H-M "A M A 2"
_symmetry_group_IT_number 40
_symmetry_cell_setting 'orthorhombic'
loop_
_space_group_symop_operation_xyz
x,y,z
-x,-y,z
1/2-x,y,z
1/2+x,-y,z
x,1/2+y,1/2+z
-x,1/2-y,1/2+z
1/2-x,1/2+y,1/2+z
1/2+x,1/2-y,1/2+z
loop_
_atom_site_type_symbol
_atom_site_label
_atom_site_fract_x
_atom_site_fract_y
_atom_site_fract_z
Si Si1 0.927270 0.206467 0.660670
Si Si2 0.573470 0.044578 0.121585
Si Si3 0.920021 0.568013 0.371238
Si Si4 0.575094 0.126959 0.263580
Si Si5 0.573275 0.802652 0.115745
Si Si6 0.419992 0.330650 0.393173
Si Si7 0.926449 0.956425 0.650366
Si Si8 0.074341 0.376521 0.025087
O O1 0.750000 0.206157 0.656322
O O2 0.990493 0.253385 0.623575
O O3 0.979761 0.197457 0.788219
O O4 0.985967 0.169099 0.576100
O O5 0.750000 0.040076 0.131288
O O6 0.515636 0.083833 0.200215
O O7 0.500000 0.000000 0.164900
O O8 0.522944 0.054315 0.994306
O O9 0.750000 0.551966 0.350416
O O10 0.928343 0.619562 0.355999
O O11 0.029257 0.546166 0.281468
O O12 0.750000 0.133158 0.240428
O O13 0.493039 0.169504 0.217447
O O14 0.537317 0.122754 0.393959
O O15 0.750000 0.803263 0.126815
O O16 0.527481 0.822679 0.997216
O O17 0.250000 0.318352 0.426910
O O18 0.750000 0.959163 0.638070
O O19 0.986201 0.915390 0.582562
O O20 0.000000 0.000000 0.598214
O O21 0.250000 0.382875 0.049153
#
# Coordination Sequence:
#
# PCOD8183399 Si02
#       8
#     8   8   8   8   8   8   8   8
#     4   9  20  38  60  87 119 156 194 244 304 353
#     4  10  21  37  57  86 115 148 194 240 292 349
#     4  10  19  37  63  87 118 155 197 244 293 352
#     4  10  22  41  63  85 115 161 204 239 293 362
#     4  11  23  37  58  92 126 154 196 248 296 352
#     4  10  19  38  64  85 116 159 198 240 298 356
#     4  12  25  40  61  90 123 155 197 244 297 357
#     4  10  21  42  66  84 113 158 205 249 296 351
#
# _framework density 19.615893
#
# number of rings (size 3 to 8) (size 9 to 14) (size 15 to 20)
#    0.000    1.750    2.500    1.875    1.750    3.500 
#    0.000    3.125    0.000    0.000    0.000    0.000 
#    0.000    0.000    0.000    0.000    0.000    0.000 
#
# Total GULP energy -396914.348983 kJ/mol
# GULP energy per Si atom -12403.573406 kJ/mol
# Density = 1.957125 g / cm^3
# Si number density = 19.615893 Si / 1000 Ang^3
#
#
#
# Elastic Constant Matrix: (Units=GPa)
#
#
# Indices 1 2 3 4 5 6 
#
# 1 67.9296 53.6741 46.4501 0.0000 0.0000 0.0000
# 2 53.6741 145.3952 56.8116 0.0000 0.0000 0.0000
# 3 46.4501 56.8116 109.6766 0.0000 0.0000 0.0000
# 4 0.0000 0.0000 0.0000 21.9621 0.0000 0.0000
# 5 0.0000 0.0000 0.0000 0.0000 17.4435 0.0000
# 6 0.0000 0.0000 0.0000 0.0000 0.0000 28.3022
#
#
#
# Elastic Compliance Matrix: (Units=1/GPa)
#
#
# Indices 1 2 3 4 5 6 
#
# 1 0.024573 -0.006275 -0.007157 0.000000 0.000000 0.000000
# 2 -0.006275 0.010226 -0.002639 0.000000 0.000000 0.000000
# 3 -0.007157 -0.002639 0.013516 0.000000 0.000000 0.000000
# 4 0.000000 0.000000 0.000000 0.045533 0.000000 0.000000
# 5 0.000000 0.000000 0.000000 0.000000 0.057328 0.000000
# 6 0.000000 0.000000 0.000000 0.000000 0.000000 0.035333
#
#
# Mechanical properties :
#
#
# Convention : Reuss Voigt Hill
#
# Bulk Modulus (GPa) = 61.83311 70.76366 66.29839
# Shear Modulus (GPa) = 22.31737 24.61260 23.46499
#
# Velocity S-wave (km/s) = 3.37667 3.54606 3.46240
# Velocity P-wave (km/s) = 6.84053 7.27454 7.06087
#
# Compressibility (1/GPa) = 0.01617257
#
# Stress axis : x y z
#
# Youngs Moduli (GPa) = 40.69506 97.79470 73.98755
#
# Poissons Ratio (x) = 0.61366 0.52951
# Poissons Ratio (y) = 0.25536 0.19527
# Poissons Ratio (z) = 0.29124 0.25810
#
# Static dielectric constant tensor:
#      x y z
#    x 3.338420 0.000000 0.000000 
#    y 0.000000 3.853550 0.000000 
#    z 0.000000 0.000000 3.629650 
# 
# 
# High freq. dielectric constant tensor:
#      x y z
#    x 1.741010 0.000000 0.000000 
#    y 0.000000 1.780480 0.000000 
#    z 0.000000 0.000000 1.768660 
# 
# From -- ./inp_files/10644.got.cif
#   From: 2010.03.12/outbox.cif.g09.slc.cpg/sg40_6_cif.got.tgz:10644.got - 2010.04.14 01:38:03.
