data_PCOD8183539
_publ_section_title
;
Structure prediction by ZEFSAII (Michael W. Deem and Ramdas Pophale) SiO2 
 PCOD8183539
Probable space group: A M A 2
;
_chemical_formula_sum "Si O2"
_cell_formula_units_Z 64
_cell_length_a 21.187988
_cell_length_b 18.916707
_cell_length_c 8.634047
_cell_angle_alpha 90.000000
_cell_angle_beta 90.000000
_cell_angle_gamma 90.000000
_cell_volume 3460.586138
_symmetry_space_group_name_H-M "A M A 2"
_symmetry_group_IT_number 40
_symmetry_cell_setting 'orthorhombic'
loop_
_space_group_symop_operation_xyz
x,y,z
-x,-y,z
1/2-x,y,z
1/2+x,-y,z
x,1/2+y,1/2+z
-x,1/2-y,1/2+z
1/2-x,1/2+y,1/2+z
1/2+x,1/2-y,1/2+z
loop_
_atom_site_type_symbol
_atom_site_label
_atom_site_fract_x
_atom_site_fract_y
_atom_site_fract_z
Si Si1 0.063410 0.234363 0.431390
Si Si2 0.179312 0.469482 0.249381
Si Si3 0.823295 0.661716 0.457366
Si Si4 0.475737 0.097829 0.600072
Si Si5 0.423369 0.051606 0.918763
Si Si6 0.592917 0.532455 0.979437
Si Si7 0.973726 0.831559 0.113056
Si Si8 0.086356 0.427604 0.645289
O O1 0.133190 0.268649 0.440397
O O2 0.057591 0.171890 0.558396
O O3 0.056169 0.213645 0.251308
O O4 0.006626 0.287375 0.474717
O O5 0.250000 0.495724 0.259767
O O6 0.171090 0.389243 0.309037
O O7 0.143416 0.531230 0.343899
O O8 0.158209 0.467776 0.071770
O O9 0.750000 0.683074 0.489067
O O10 0.851608 0.615662 0.596981
O O11 0.471517 0.073507 0.780419
O O12 0.549606 0.095998 0.551295
O O13 0.441661 0.041655 0.492758
O O14 0.419858 0.118787 0.034793
O O15 0.442154 0.981064 0.015785
O O16 0.609647 0.535393 0.800101
O O17 0.028308 0.877933 0.191682
#
# Coordination Sequence:
#
# PCOD8183539 Si02
#       8
#     8   8   8   8   8   8   8   8
#     4  11  22  36  54  81 121 151 190 239 283 357
#     4   9  20  38  59  83 110 149 197 237 282 339
#     4   9  21  39  58  79 110 157 196 227 278 346
#     4  10  21  34  53  87 119 143 180 230 295 349
#     4  10  21  35  58  80 114 149 183 234 294 339
#     4  10  20  33  57  87 115 141 180 244 289 337
#     4  11  22  32  52  82 113 150 184 235 298 343
#     4  10  20  33  57  86 112 140 190 241 287 339
#
# _framework density 18.493977000000001
#
# number of rings (size 3 to 8) (size 9 to 14) (size 15 to 20)
#    0.000    2.000    1.250    1.875   14.000    0.500 
#    0.000    3.125    0.000    1.500    0.000    0.000 
#    0.000    0.000    0.000    0.000    0.000    0.000 
#
# Total GULP energy -396532.980141 kJ/mol
# GULP energy per Si atom -12391.655629 kJ/mol
# Density = 1.845188 g / cm^3
# Si number density = 18.493977 Si / 1000 Ang^3
#
#
#
# Elastic Constant Matrix: (Units=GPa)
#
#
# Indices 1 2 3 4 5 6 
#
# 1 95.9671 47.0391 40.7988 0.0000 0.0000 0.0000
# 2 47.0391 95.7984 38.3139 0.0000 0.0000 0.0000
# 3 40.7988 38.3139 114.2128 0.0000 0.0000 0.0000
# 4 0.0000 0.0000 0.0000 32.0450 0.0000 0.0000
# 5 0.0000 0.0000 0.0000 0.0000 15.5765 0.0000
# 6 0.0000 0.0000 0.0000 0.0000 0.0000 26.1963
#
#
#
# Elastic Compliance Matrix: (Units=1/GPa)
#
#
# Indices 1 2 3 4 5 6 
#
# 1 0.014710 -0.005915 -0.003270 0.000000 0.000000 0.000000
# 2 -0.005915 0.014434 -0.002729 0.000000 0.000000 0.000000
# 3 -0.003270 -0.002729 0.010839 0.000000 0.000000 0.000000
# 4 0.000000 0.000000 0.000000 0.031206 0.000000 0.000000
# 5 0.000000 0.000000 0.000000 0.000000 0.064199 0.000000
# 6 0.000000 0.000000 0.000000 0.000000 0.000000 0.038173
#
#
# Mechanical properties :
#
#
# Convention : Reuss Voigt Hill
#
# Bulk Modulus (GPa) = 61.90205 62.03134 61.96670
# Shear Modulus (GPa) = 24.65771 26.75200 25.70485
#
# Velocity S-wave (km/s) = 3.65538 3.80745 3.73219
# Velocity P-wave (km/s) = 7.16658 7.27620 7.22160
#
# Compressibility (1/GPa) = 0.01615455
#
# Stress axis : x y z
#
# Youngs Moduli (GPa) = 67.98179 69.27854 92.25599
#
# Poissons Ratio (x) = 0.40977 0.30171
# Poissons Ratio (y) = 0.40210 0.25179
# Poissons Ratio (z) = 0.22233 0.18908
#
# Static dielectric constant tensor:
#      x y z
#    x 3.251570 0.000000 0.000000 
#    y 0.000000 3.517830 0.000000 
#    z 0.000000 0.000000 3.384960 
# 
# 
# High freq. dielectric constant tensor:
#      x y z
#    x 1.691460 0.000000 0.000000 
#    y 0.000000 1.714400 0.000000 
#    z 0.000000 0.000000 1.726940 
# 
# From -- ./inp_files/8451.got.cif
#   From: 2010.03.12/outbox.cif.g09.slc.cpg/sg40_5_cif.got.tgz:8451.got - 2010.04.14 01:38:03.
