data_PCOD8183327
_publ_section_title
;
Structure prediction by ZEFSAII (Michael W. Deem and Ramdas Pophale) SiO2 
 PCOD8183327
Probable space group: A M A 2
;
_chemical_formula_sum "Si O2"
_cell_formula_units_Z 40
_cell_length_a 10.395131
_cell_length_b 14.046519
_cell_length_c 13.311383
_cell_angle_alpha 90.000000
_cell_angle_beta 90.000000
_cell_angle_gamma 90.000000
_cell_volume 1943.666981
_symmetry_space_group_name_H-M "A M A 2"
_symmetry_group_IT_number 40
_symmetry_cell_setting 'orthorhombic'
loop_
_space_group_symop_operation_xyz
x,y,z
-x,-y,z
1/2-x,y,z
1/2+x,-y,z
x,1/2+y,1/2+z
-x,1/2-y,1/2+z
1/2-x,1/2+y,1/2+z
1/2+x,1/2-y,1/2+z
loop_
_atom_site_type_symbol
_atom_site_label
_atom_site_fract_x
_atom_site_fract_y
_atom_site_fract_z
Si Si1 0.750000 0.392141 0.643900
Si Si2 0.750000 0.115906 0.169388
Si Si3 0.750000 0.705676 0.880126
Si Si4 0.250000 0.406188 0.090961
Si Si5 0.010232 0.656728 0.344088
Si Si6 0.007135 0.395026 0.560537
Si Si7 0.500000 0.000000 0.678347
Si Si8 0.750000 0.235024 0.774832
O O1 0.750000 0.504751 0.643523
O O2 0.627938 0.345222 0.586606
O O3 0.750000 0.348703 0.755470
O O4 0.750000 0.132204 0.287447
O O5 0.875945 0.161384 0.115171
O O6 0.875037 0.771279 0.868740
O O7 0.750000 0.640463 0.979948
O O8 0.378210 0.471312 0.108556
O O9 0.250000 0.322600 0.171089
O O10 0.979394 0.593878 0.441602
O O11 0.041908 0.588664 0.249703
O O12 0.878975 0.714746 0.334518
O O13 0.000000 0.500000 0.608692
#
# Coordination Sequence:
#
# PCOD8183327 Si02
#       8
#     4   4   4   4   8   8   4   4
#     4  10  20  37  58  80 123 159 187 248 311 359
#     4  10  23  39  58  85 126 156 204 248 313 373
#     4  12  25  40  60  93 129 172 213 261 307 391
#     4  10  23  43  62  94 129 173 221 261 319 387
#     4  11  21  38  66  95 123 159 212 266 321 374
#     4  10  19  35  60  89 112 148 195 254 307 360
#     4  10  22  44  68  94 130 174 214 270 324 396
#     4  10  21  37  60  90 123 156 209 260 312 372
#
# _framework density 20.579658999999999
#
# number of rings (size 3 to 8) (size 9 to 14) (size 15 to 20)
#    0.000    1.600    1.000    4.200    0.000    1.600 
#    9.000    0.000    0.000    0.000    0.000    0.000 
#    0.000    0.000    0.000    0.000    0.000    0.000 
#
# Total GULP energy -247813.284171 kJ/mol
# GULP energy per Si atom -12390.664209 kJ/mol
# Density = 2.053282 g / cm^3
# Si number density = 20.579659 Si / 1000 Ang^3
#
#
#
# Elastic Constant Matrix: (Units=GPa)
#
#
# Indices 1 2 3 4 5 6 
#
# 1 204.9005 42.7444 78.8524 0.0000 0.0000 0.0000
# 2 42.7444 39.1837 36.1278 0.0000 0.0000 0.0000
# 3 78.8524 36.1278 121.5696 0.0000 0.0000 0.0000
# 4 0.0000 0.0000 0.0000 30.6181 0.0000 0.0000
# 5 0.0000 0.0000 0.0000 0.0000 28.9009 0.0000
# 6 0.0000 0.0000 0.0000 0.0000 0.0000 -17.8165
#
#
#
# Elastic Compliance Matrix: (Units=1/GPa)
#
#
# Indices 1 2 3 4 5 6 
#
# 1 0.007110 -0.004827 -0.003177 0.000000 0.000000 0.000000
# 2 -0.004827 0.038429 -0.008290 0.000000 0.000000 0.000000
# 3 -0.003177 -0.008290 0.012750 0.000000 0.000000 0.000000
# 4 0.000000 0.000000 0.000000 0.032660 0.000000 0.000000
# 5 0.000000 0.000000 0.000000 0.000000 0.034601 0.000000
# 6 0.000000 0.000000 0.000000 0.000000 0.000000 -0.056128
#
#
# Mechanical properties :
#
#
# Convention : Reuss Voigt Hill
#
# Bulk Modulus (GPa) = 38.90734 75.67813 57.29273
# Shear Modulus (GPa) = 45.21717 22.20246 33.70982
#
# Velocity S-wave (km/s) = 4.69249 3.28816 4.05163
# Velocity P-wave (km/s) = 6.95026 7.16024 7.05603
#
# Compressibility (1/GPa) = 0.02570209
#
# Stress axis : x y z
#
# Youngs Moduli (GPa) = 140.64600 26.02190 78.43043
#
# Poissons Ratio (x) = 0.12560 0.24920
# Poissons Ratio (y) = 0.67884 0.65016
# Poissons Ratio (z) = 0.44688 0.21571
#
# Static dielectric constant tensor:
#      x y z
#    x 4.363180 0.000000 0.000000 
#    y 0.000000 3.498800 0.000000 
#    z 0.000000 0.000000 3.667580 
# 
# 
# High freq. dielectric constant tensor:
#      x y z
#    x 1.832150 0.000000 0.000000 
#    y 0.000000 1.786150 0.000000 
#    z 0.000000 0.000000 1.796120 
# 
# From -- ./inp_files/11111.got.cif
#   From: 2010.03.12/outbox.cif.g09.slc.cpg/sg40_6_cif.got.tgz:11111.got - 2010.04.14 01:38:03.
