data_PCOD8183098
_publ_section_title
;
Structure prediction by ZEFSAII (Michael W. Deem and Ramdas Pophale) SiO2 
 PCOD8183098
Probable space group: A M A 2
;
_chemical_formula_sum "Si O2"
_cell_formula_units_Z 40
_cell_length_a 8.748556
_cell_length_b 13.551755
_cell_length_c 18.626295
_cell_angle_alpha 90.000000
_cell_angle_beta 90.000000
_cell_angle_gamma 90.000000
_cell_volume 2208.301638
_symmetry_space_group_name_H-M "A M A 2"
_symmetry_group_IT_number 40
_symmetry_cell_setting 'orthorhombic'
loop_
_space_group_symop_operation_xyz
x,y,z
-x,-y,z
1/2-x,y,z
1/2+x,-y,z
x,1/2+y,1/2+z
-x,1/2-y,1/2+z
1/2-x,1/2+y,1/2+z
1/2+x,1/2-y,1/2+z
loop_
_atom_site_type_symbol
_atom_site_label
_atom_site_fract_x
_atom_site_fract_y
_atom_site_fract_z
Si Si1 0.568912 0.395818 0.375000
Si Si2 0.929971 0.294461 0.814072
Si Si3 0.069597 0.701164 0.521027
Si Si4 0.568495 0.602972 0.947398
Si Si5 0.429645 0.606747 0.665487
O O1 0.500000 0.500000 0.351996
O O2 0.750000 0.396541 0.366309
O O3 0.499754 0.314172 0.322166
O O4 0.518568 0.371093 0.456549
O O5 0.750000 0.292222 0.828340
O O6 0.971437 0.328034 0.734086
O O7 0.006014 0.371857 0.868514
O O8 0.250000 0.702685 0.526951
O O9 0.013854 0.812438 0.503316
O O10 0.998944 0.661609 0.595509
O O11 0.500000 0.500000 0.974789
O O12 0.750000 0.596225 0.942721
O O13 0.500000 0.500000 0.674319
O O14 0.250000 0.593714 0.656508
#
# Coordination Sequence:
#
# PCOD8183098 Si02
#       5
#     8   8   8   8   8
#     4  10  19  33  54  76 101 132 167 207 247 292
#     4  10  20  33  51  75 103 133 166 204 247 297
#     4   8  17  33  51  73 100 130 164 203 246 293
#     4  10  19  33  53  74 100 132 168 209 249 293
#     4  10  20  34  52  74 101 131 162 201 249 297
#
# _framework density 18.113467
#
# number of rings (size 3 to 8) (size 9 to 14) (size 15 to 20)
#    0.000    2.400    0.000    4.200    0.000    3.200 
#    0.000    6.000    0.000    2.400    0.000    0.000 
#    0.000    0.000    0.000    0.000    0.000    0.000 
#
# Total GULP energy -248002.460134 kJ/mol
# GULP energy per Si atom -12400.123007 kJ/mol
# Density = 1.807224 g / cm^3
# Si number density = 18.113467 Si / 1000 Ang^3
#
#
#
# Elastic Constant Matrix: (Units=GPa)
#
#
# Indices 1 2 3 4 5 6 
#
# 1 67.3101 51.0197 45.8930 0.0000 0.0000 0.0000
# 2 51.0197 158.4752 65.9753 0.0000 0.0000 0.0000
# 3 45.8930 65.9753 120.7236 0.0000 0.0000 0.0000
# 4 0.0000 0.0000 0.0000 15.6604 0.0000 0.0000
# 5 0.0000 0.0000 0.0000 0.0000 19.7534 0.0000
# 6 0.0000 0.0000 0.0000 0.0000 0.0000 34.6125
#
#
#
# Elastic Compliance Matrix: (Units=1/GPa)
#
#
# Indices 1 2 3 4 5 6 
#
# 1 0.022539 -0.004776 -0.005958 0.000000 0.000000 0.000000
# 2 -0.004776 0.009181 -0.003202 0.000000 0.000000 0.000000
# 3 -0.005958 -0.003202 0.012298 0.000000 0.000000 0.000000
# 4 0.000000 0.000000 0.000000 0.063855 0.000000 0.000000
# 5 0.000000 0.000000 0.000000 0.000000 0.050624 0.000000
# 6 0.000000 0.000000 0.000000 0.000000 0.000000 0.028891
#
#
# Mechanical properties :
#
#
# Convention : Reuss Voigt Hill
#
# Bulk Modulus (GPa) = 61.93357 74.69833 68.31595
# Shear Modulus (GPa) = 22.66116 26.24664 24.45390
#
# Velocity S-wave (km/s) = 3.54088 3.81072 3.67827
# Velocity P-wave (km/s) = 7.14026 7.79043 7.47242
#
# Compressibility (1/GPa) = 0.01614633
#
# Stress axis : x y z
#
# Youngs Moduli (GPa) = 44.36767 108.92615 81.31332
#
# Poissons Ratio (x) = 0.52020 0.48448
# Poissons Ratio (y) = 0.21189 0.26034
# Poissons Ratio (z) = 0.26435 0.34874
#
# Static dielectric constant tensor:
#      x y z
#    x 3.245170 0.000000 0.000000 
#    y 0.000000 3.483630 0.000000 
#    z 0.000000 0.000000 3.497480 
# 
# 
# High freq. dielectric constant tensor:
#      x y z
#    x 1.695050 0.000000 0.000000 
#    y 0.000000 1.712410 0.000000 
#    z 0.000000 0.000000 1.690720 
# 
# From -- ./inp_files/14805.got.cif
#   From: 2010.03.12/outbox.cif.g09.slc.cpg/sg40_8_cif.got.tgz:14805.got - 2010.04.14 01:38:03.
