data_PCOD8183392
_publ_section_title
;
Structure prediction by ZEFSAII (Michael W. Deem and Ramdas Pophale) SiO2 
 PCOD8183392
Probable space group: A M A 2
;
_chemical_formula_sum "Si O2"
_cell_formula_units_Z 64
_cell_length_a 17.132963
_cell_length_b 20.677329
_cell_length_c 8.883886
_cell_angle_alpha 90.000000
_cell_angle_beta 90.000000
_cell_angle_gamma 90.000000
_cell_volume 3147.240214
_symmetry_space_group_name_H-M "A M A 2"
_symmetry_group_IT_number 40
_symmetry_cell_setting 'orthorhombic'
loop_
_space_group_symop_operation_xyz
x,y,z
-x,-y,z
1/2-x,y,z
1/2+x,-y,z
x,1/2+y,1/2+z
-x,1/2-y,1/2+z
1/2-x,1/2+y,1/2+z
1/2+x,1/2-y,1/2+z
loop_
_atom_site_type_symbol
_atom_site_label
_atom_site_fract_x
_atom_site_fract_y
_atom_site_fract_z
Si Si1 0.339173 0.094973 0.027570
Si Si2 0.078582 0.714982 0.566058
Si Si3 0.341077 0.477838 0.029008
Si Si4 0.599617 0.400991 0.203029
Si Si5 0.162195 0.225927 0.760262
Si Si6 0.439290 0.858825 0.560405
Si Si7 0.927853 0.657766 0.708482
Si Si8 0.589231 0.515684 0.709784
O O1 0.250000 0.097406 0.973345
O O2 0.358711 0.160836 0.124437
O O3 0.352509 0.031181 0.123079
O O4 0.396905 0.093700 0.884169
O O5 0.096004 0.721905 0.388833
O O6 0.082169 0.788292 0.633506
O O7 0.994836 0.684611 0.600379
O O8 0.250000 0.475089 0.990479
O O9 0.359015 0.534377 0.145877
O O10 0.366676 0.407046 0.089724
O O11 0.392359 0.493744 0.884002
O O12 0.648351 0.336443 0.152763
O O13 0.512167 0.392696 0.142618
O O14 0.250000 0.225887 0.824569
O O15 0.145397 0.294253 0.681385
O O16 0.457108 0.850003 0.381998
O O17 0.896552 0.588583 0.652352
O O18 0.500000 0.500000 0.677469
#
# Coordination Sequence:
#
# PCOD8183392 Si02
#       8
#     8   8   8   8   8   8   8   8
#     4  11  24  40  63  92 122 157 200 249 307 354
#     4  10  19  37  60  88 118 153 196 249 290 354
#     4  11  23  39  61  89 122 159 202 249 302 352
#     4  11  21  40  61  87 121 160 198 246 296 370
#     4  10  21  37  63  91 118 155 197 244 301 357
#     4  10  22  37  62  89 118 160 205 244 298 365
#     4  10  20  38  61  90 119 157 201 247 297 358
#     4  11  22  39  61  88 123 158 203 249 294 358
#
# _framework density 20.335276
#
# number of rings (size 3 to 8) (size 9 to 14) (size 15 to 20)
#    0.000    1.500    2.500    4.500    0.000    6.500 
#    0.000    0.000    0.000    0.000    0.000    0.000 
#    0.000    0.000    0.000    0.000    0.000    0.000 
#
# Total GULP energy -396463.608370 kJ/mol
# GULP energy per Si atom -12389.487762 kJ/mol
# Density = 2.028899 g / cm^3
# Si number density = 20.335276 Si / 1000 Ang^3
#
#
#
# Elastic Constant Matrix: (Units=GPa)
#
#
# Indices 1 2 3 4 5 6 
#
# 1 95.9773 45.6167 26.5808 0.0000 0.0000 0.0000
# 2 45.6167 197.1871 31.8016 0.0000 0.0000 0.0000
# 3 26.5808 31.8016 34.1786 0.0000 0.0000 0.0000
# 4 0.0000 0.0000 0.0000 26.4709 0.0000 0.0000
# 5 0.0000 0.0000 0.0000 0.0000 19.5555 0.0000
# 6 0.0000 0.0000 0.0000 0.0000 0.0000 24.0603
#
#
#
# Elastic Compliance Matrix: (Units=1/GPa)
#
#
# Indices 1 2 3 4 5 6 
#
# 1 0.013755 -0.001714 -0.009102 0.000000 0.000000 0.000000
# 2 -0.001714 0.006180 -0.004417 0.000000 0.000000 0.000000
# 3 -0.009102 -0.004417 0.040447 0.000000 0.000000 0.000000
# 4 0.000000 0.000000 0.000000 0.037777 0.000000 0.000000
# 5 0.000000 0.000000 0.000000 0.000000 0.051137 0.000000
# 6 0.000000 0.000000 0.000000 0.000000 0.000000 0.041562
#
#
# Mechanical properties :
#
#
# Convention : Reuss Voigt Hill
#
# Bulk Modulus (GPa) = 33.42843 59.48234 46.45539
# Shear Modulus (GPa) = 21.61722 28.90693 25.26207
#
# Velocity S-wave (km/s) = 3.26397 3.77439 3.52842
# Velocity P-wave (km/s) = 5.53886 6.95047 6.28442
#
# Compressibility (1/GPa) = 0.02991465
#
# Stress axis : x y z
#
# Youngs Moduli (GPa) = 72.70286 161.80537 24.72362
#
# Poissons Ratio (x) = 0.27733 0.22504
# Poissons Ratio (y) = 0.12461 0.10922
# Poissons Ratio (z) = 0.66176 0.71477
#
# Static dielectric constant tensor:
#      x y z
#    x 3.532990 0.000000 0.000000 
#    y 0.000000 4.646050 0.000000 
#    z 0.000000 0.000000 3.292870 
# 
# 
# High freq. dielectric constant tensor:
#      x y z
#    x 1.784980 0.000000 0.000000 
#    y 0.000000 1.835780 0.000000 
#    z 0.000000 0.000000 1.750470 
# 
# From -- ./inp_files/7804.got.cif
#   From: 2010.03.12/outbox.cif.g09.slc.cpg/sg40_4_cif.got.tgz:7804.got - 2010.04.14 01:38:03.
