data_PCOD8183865
_publ_section_title
;
Structure prediction by ZEFSAII (Michael W. Deem and Ramdas Pophale) SiO2 
 PCOD8183865
Probable space group: A M A 2
;
_chemical_formula_sum "Si O2"
_cell_formula_units_Z 64
_cell_length_a 8.842559
_cell_length_b 30.834250
_cell_length_c 11.926124
_cell_angle_alpha 90.000000
_cell_angle_beta 90.000000
_cell_angle_gamma 90.000000
_cell_volume 3251.701535
_symmetry_space_group_name_H-M "A M A 2"
_symmetry_group_IT_number 40
_symmetry_cell_setting 'orthorhombic'
loop_
_space_group_symop_operation_xyz
x,y,z
-x,-y,z
1/2-x,y,z
1/2+x,-y,z
x,1/2+y,1/2+z
-x,1/2-y,1/2+z
1/2-x,1/2+y,1/2+z
1/2+x,1/2-y,1/2+z
loop_
_atom_site_type_symbol
_atom_site_label
_atom_site_fract_x
_atom_site_fract_y
_atom_site_fract_z
Si Si1 0.077025 0.330509 0.764590
Si Si2 0.423809 0.431671 0.766926
Si Si3 0.428959 0.302673 0.518893
Si Si4 0.070513 0.954638 0.016044
Si Si5 0.929634 0.373633 0.121446
Si Si6 0.428283 0.705701 0.976935
Si Si7 0.572133 0.956885 0.488199
Si Si8 0.929305 0.876563 0.877827
O O1 0.250000 0.316539 0.781871
O O2 0.052350 0.380943 0.783793
O O3 0.022384 0.319217 0.640494
O O4 0.976374 0.303746 0.850441
O O5 0.250000 0.444958 0.786281
O O6 0.478930 0.445715 0.643902
O O7 0.527639 0.455434 0.857381
O O8 0.250000 0.307802 0.498634
O O9 0.486111 0.253314 0.509638
O O10 0.517577 0.331047 0.428419
O O11 0.250000 0.955760 0.003830
O O12 0.000000 0.000000 0.975422
O O13 0.007668 0.916662 0.938696
O O14 0.750000 0.372937 0.114333
O O15 0.983958 0.376399 0.249155
O O16 0.996297 0.330139 0.062824
O O17 0.993073 0.415332 0.054455
O O18 0.250000 0.704152 0.983873
O O19 0.750000 0.959813 0.500078
O O20 0.500000 0.000000 0.542774
O O21 0.750000 0.881270 0.888769
#
# Coordination Sequence:
#
# PCOD8183865 Si02
#       8
#     8   8   8   8   8   8   8   8
#     4  10  20  37  61  88 120 154 191 240 296 348
#     4  10  20  37  60  87 119 153 190 235 290 349
#     4  10  22  40  61  87 122 159 194 242 299 348
#     4  11  23  41  62  88 122 155 195 242 297 352
#     4   9  21  40  59  83 115 154 195 241 293 347
#     4  10  21  39  62  87 118 156 197 241 294 351
#     4  11  22  38  60  85 117 150 192 240 291 350
#     4  11  23  40  63  87 117 156 202 245 291 350
#
# _framework density 19.682003999999999
#
# number of rings (size 3 to 8) (size 9 to 14) (size 15 to 20)
#    0.000    1.750    2.500    1.500    1.750    3.500 
#    0.000    5.000    0.000    0.000    0.000    0.000 
#    0.000    0.000    0.000    0.000    0.000    0.000 
#
# Total GULP energy -396908.145092 kJ/mol
# GULP energy per Si atom -12403.379534 kJ/mol
# Density = 1.963721 g / cm^3
# Si number density = 19.682004 Si / 1000 Ang^3
#
#
#
# Elastic Constant Matrix: (Units=GPa)
#
#
# Indices 1 2 3 4 5 6 
#
# 1 46.8575 42.0592 31.4048 0.0000 0.0000 0.0000
# 2 42.0592 139.0635 64.8911 0.0000 0.0000 0.0000
# 3 31.4048 64.8911 128.1857 0.0000 0.0000 0.0000
# 4 0.0000 0.0000 0.0000 15.1686 0.0000 0.0000
# 5 0.0000 0.0000 0.0000 0.0000 22.6811 0.0000
# 6 0.0000 0.0000 0.0000 0.0000 0.0000 32.4109
#
#
#
# Elastic Compliance Matrix: (Units=1/GPa)
#
#
# Indices 1 2 3 4 5 6 
#
# 1 0.030563 -0.007528 -0.003677 0.000000 0.000000 0.000000
# 2 -0.007528 0.011269 -0.003860 0.000000 0.000000 0.000000
# 3 -0.003677 -0.003860 0.010656 0.000000 0.000000 0.000000
# 4 0.000000 0.000000 0.000000 0.065926 0.000000 0.000000
# 5 0.000000 0.000000 0.000000 0.000000 0.044089 0.000000
# 6 0.000000 0.000000 0.000000 0.000000 0.000000 0.030854
#
#
# Mechanical properties :
#
#
# Convention : Reuss Voigt Hill
#
# Bulk Modulus (GPa) = 44.72739 65.64632 55.18685
# Shear Modulus (GPa) = 21.65068 25.76891 23.70979
#
# Velocity S-wave (km/s) = 3.32026 3.62230 3.47456
# Velocity P-wave (km/s) = 6.12153 7.13587 6.64807
#
# Compressibility (1/GPa) = 0.02235767
#
# Stress axis : x y z
#
# Youngs Moduli (GPa) = 32.71978 88.73806 93.84146
#
# Poissons Ratio (x) = 0.66800 0.34504
# Poissons Ratio (y) = 0.24631 0.36227
# Poissons Ratio (z) = 0.12031 0.34257
#
# Static dielectric constant tensor:
#      x y z
#    x 3.387020 0.000000 0.000000 
#    y 0.000000 3.885930 0.000000 
#    z 0.000000 0.000000 3.644510 
# 
# 
# High freq. dielectric constant tensor:
#      x y z
#    x 1.749480 0.000000 0.000000 
#    y 0.000000 1.786100 0.000000 
#    z 0.000000 0.000000 1.769550 
# 
# From -- ./inp_files/10559.got.cif
#   From: 2010.03.12/outbox.cif.g09.slc.cpg/sg40_6_cif.got.tgz:10559.got - 2010.04.14 01:38:03.
