data_PCOD8183250
_publ_section_title
;
Structure prediction by ZEFSAII (Michael W. Deem and Ramdas Pophale) SiO2 
 PCOD8183250
Probable space group: A M A 2
;
_chemical_formula_sum "Si O2"
_cell_formula_units_Z 48
_cell_length_a 18.209561
_cell_length_b 15.775012
_cell_length_c 8.537484
_cell_angle_alpha 90.000000
_cell_angle_beta 90.000000
_cell_angle_gamma 90.000000
_cell_volume 2452.443873
_symmetry_space_group_name_H-M "A M A 2"
_symmetry_group_IT_number 40
_symmetry_cell_setting 'orthorhombic'
loop_
_space_group_symop_operation_xyz
x,y,z
-x,-y,z
1/2-x,y,z
1/2+x,-y,z
x,1/2+y,1/2+z
-x,1/2-y,1/2+z
1/2-x,1/2+y,1/2+z
1/2+x,1/2-y,1/2+z
loop_
_atom_site_type_symbol
_atom_site_label
_atom_site_fract_x
_atom_site_fract_y
_atom_site_fract_z
Si Si1 0.666667 0.141772 0.295470
Si Si2 0.553670 0.220514 0.718672
Si Si3 0.909887 0.296039 0.413263
Si Si4 0.834103 0.740423 0.493549
Si Si5 0.836267 0.907194 0.690987
Si Si6 0.073960 0.950924 0.528788
O O1 0.750000 0.110659 0.319347
O O2 0.655574 0.227737 0.395516
O O3 0.611773 0.070504 0.362131
O O4 0.651110 0.162833 0.113483
O O5 0.563971 0.297561 0.593941
O O6 0.477079 0.234557 0.804439
O O7 0.619316 0.224014 0.840541
O O8 0.553624 0.131674 0.628057
O O9 0.877122 0.386295 0.356623
O O10 0.750000 0.741924 0.440704
O O11 0.854750 0.830124 0.572805
O O12 0.750000 0.918230 0.719375
O O13 0.868862 0.994127 0.628057
O O14 0.000000 0.000000 0.488769
#
# Coordination Sequence:
#
# PCOD8183250 Si02
#       6
#     8   8   8   8   8   8
#     4   9  19  36  59  84 112 152 196 238 293 355
#     4  11  22  36  61  85 121 154 201 250 299 352
#     4  10  19  34  57  86 114 152 199 243 293 350
#     4   9  20  38  60  86 115 152 202 252 296 351
#     4  10  20  38  60  83 120 157 196 245 298 353
#     4  11  22  37  57  90 121 158 199 235 299 362
#
# _framework density 19.572313000000001
#
# number of rings (size 3 to 8) (size 9 to 14) (size 15 to 20)
#    0.000    2.000    1.667    4.000    2.333    4.000 
#    0.000    2.500    0.000    0.000    0.000    0.000 
#    0.000    0.000    0.000    0.000    0.000    0.000 
#
# Total GULP energy -297561.805163 kJ/mol
# GULP energy per Si atom -12398.408548 kJ/mol
# Density = 1.952777 g / cm^3
# Si number density = 19.572313 Si / 1000 Ang^3
#
#
#
# Elastic Constant Matrix: (Units=GPa)
#
#
# Indices 1 2 3 4 5 6 
#
# 1 104.7569 24.1343 55.5240 0.0000 0.0000 0.0000
# 2 24.1343 64.2676 27.0872 0.0000 0.0000 0.0000
# 3 55.5240 27.0872 109.6163 0.0000 0.0000 0.0000
# 4 0.0000 0.0000 0.0000 28.7862 0.0000 0.0000
# 5 0.0000 0.0000 0.0000 0.0000 37.2975 0.0000
# 6 0.0000 0.0000 0.0000 0.0000 0.0000 32.1970
#
#
#
# Elastic Compliance Matrix: (Units=1/GPa)
#
#
# Indices 1 2 3 4 5 6 
#
# 1 0.013378 -0.002420 -0.006178 0.000000 0.000000 0.000000
# 2 -0.002420 0.017807 -0.003174 0.000000 0.000000 0.000000
# 3 -0.006178 -0.003174 0.013037 0.000000 0.000000 0.000000
# 4 0.000000 0.000000 0.000000 0.034739 0.000000 0.000000
# 5 0.000000 0.000000 0.000000 0.000000 0.026811 0.000000
# 6 0.000000 0.000000 0.000000 0.000000 0.000000 0.031059
#
#
# Mechanical properties :
#
#
# Convention : Reuss Voigt Hill
#
# Bulk Modulus (GPa) = 48.36525 54.68133 51.52329
# Shear Modulus (GPa) = 29.89212 31.11584 30.50398
#
# Velocity S-wave (km/s) = 3.91226 3.99154 3.95210
# Velocity P-wave (km/s) = 6.72105 7.01726 6.87075
#
# Compressibility (1/GPa) = 0.02067600
#
# Stress axis : x y z
#
# Youngs Moduli (GPa) = 74.74873 56.15890 76.70617
#
# Poissons Ratio (x) = 0.13589 0.47393
# Poissons Ratio (y) = 0.18088 0.24350
# Poissons Ratio (z) = 0.46183 0.17828
#
# Static dielectric constant tensor:
#      x y z
#    x 3.760070 0.000000 0.000000 
#    y 0.000000 3.449230 0.000000 
#    z 0.000000 0.000000 3.623830 
# 
# 
# High freq. dielectric constant tensor:
#      x y z
#    x 1.785160 0.000000 0.000000 
#    y 0.000000 1.736290 0.000000 
#    z 0.000000 0.000000 1.753600 
# 
# From -- ./inp_files/7471.got.cif
#   From: 2010.03.12/outbox.cif.g09.slc.cpg/sg40_4_cif.got.tgz:7471.got - 2010.04.14 01:38:03.
