data_PCOD8183858
_publ_section_title
;
Structure prediction by ZEFSAII (Michael W. Deem and Ramdas Pophale) SiO2 
 PCOD8183858
Probable space group: A M A 2
;
_chemical_formula_sum "Si O2"
_cell_formula_units_Z 48
_cell_length_a 18.330766
_cell_length_b 8.618456
_cell_length_c 15.272230
_cell_angle_alpha 90.000000
_cell_angle_beta 90.000000
_cell_angle_gamma 90.000000
_cell_volume 2412.751188
_symmetry_space_group_name_H-M "A M A 2"
_symmetry_group_IT_number 40
_symmetry_cell_setting 'orthorhombic'
loop_
_space_group_symop_operation_xyz
x,y,z
-x,-y,z
1/2-x,y,z
1/2+x,-y,z
x,1/2+y,1/2+z
-x,1/2-y,1/2+z
1/2-x,1/2+y,1/2+z
1/2+x,1/2-y,1/2+z
loop_
_atom_site_type_symbol
_atom_site_label
_atom_site_fract_x
_atom_site_fract_y
_atom_site_fract_z
Si Si1 0.169974 0.643244 0.245950
Si Si2 0.400866 0.382519 0.637539
Si Si3 0.669720 0.053000 0.569918
Si Si4 0.441227 0.227387 0.149628
Si Si5 0.834062 0.250295 0.970721
Si Si6 0.071445 0.411287 0.330094
O O1 0.250000 0.682570 0.281389
O O2 0.129255 0.803773 0.225731
O O3 0.172458 0.541991 0.158954
O O4 0.129921 0.548035 0.320883
O O5 0.404096 0.561556 0.664373
O O6 0.478018 0.302156 0.612291
O O7 0.347200 0.357764 0.555643
O O8 0.750000 0.130167 0.555205
O O9 0.606101 0.181462 0.576443
O O10 0.652628 0.931854 0.492306
O O11 0.446440 0.323435 0.239630
O O12 0.750000 0.224346 0.940027
O O13 0.893612 0.210205 0.897206
O O14 0.000000 0.500000 0.366856
#
# Coordination Sequence:
#
# PCOD8183858 Si02
#       6
#     8   8   8   8   8   8
#     4   9  17  33  57  82 111 151 193 232 284 346
#     4  10  20  37  59  86 118 152 203 249 289 350
#     4   8  17  34  57  82 111 152 197 236 283 348
#     4  10  21  36  58  89 115 153 203 245 292 350
#     4  10  22  39  59  85 117 156 199 246 303 357
#     4  11  21  37  60  87 120 157 193 240 301 363
#
# _framework density 19.894302
#
# number of rings (size 3 to 8) (size 9 to 14) (size 15 to 20)
#    0.000    2.333    1.667    2.000    2.333    2.000 
#    0.000    5.000    0.000    2.000    0.000    0.000 
#    0.000    0.000    0.000    0.000    0.000    0.000 
#
# Total GULP energy -297501.888986 kJ/mol
# GULP energy per Si atom -12395.912041 kJ/mol
# Density = 1.984902 g / cm^3
# Si number density = 19.894302 Si / 1000 Ang^3
#
#
#
# Elastic Constant Matrix: (Units=GPa)
#
#
# Indices 1 2 3 4 5 6 
#
# 1 146.3504 72.0893 28.0766 0.0000 0.0000 0.0000
# 2 72.0893 105.7007 22.0740 0.0000 0.0000 0.0000
# 3 28.0766 22.0740 50.9058 0.0000 0.0000 0.0000
# 4 0.0000 0.0000 0.0000 26.5970 0.0000 0.0000
# 5 0.0000 0.0000 0.0000 0.0000 25.5136 0.0000
# 6 0.0000 0.0000 0.0000 0.0000 0.0000 30.0500
#
#
#
# Elastic Compliance Matrix: (Units=1/GPa)
#
#
# Indices 1 2 3 4 5 6 
#
# 1 0.010693 -0.006664 -0.003008 0.000000 0.000000 0.000000
# 2 -0.006664 0.014556 -0.002636 0.000000 0.000000 0.000000
# 3 -0.003008 -0.002636 0.022446 0.000000 0.000000 0.000000
# 4 0.000000 0.000000 0.000000 0.037598 0.000000 0.000000
# 5 0.000000 0.000000 0.000000 0.000000 0.039195 0.000000
# 6 0.000000 0.000000 0.000000 0.000000 0.000000 0.033278
#
#
# Mechanical properties :
#
#
# Convention : Reuss Voigt Hill
#
# Bulk Modulus (GPa) = 43.33030 60.82627 52.07828
# Shear Modulus (GPa) = 26.30531 28.47992 27.39262
#
# Velocity S-wave (km/s) = 3.64023 3.78770 3.71470
# Velocity P-wave (km/s) = 6.28457 7.05479 6.68079
#
# Compressibility (1/GPa) = 0.02307854
#
# Stress axis : x y z
#
# Youngs Moduli (GPa) = 93.52188 68.69787 44.55122
#
# Poissons Ratio (x) = 0.45783 0.13399
# Poissons Ratio (y) = 0.62327 0.11745
# Poissons Ratio (z) = 0.28127 0.18111
#
# Static dielectric constant tensor:
#      x y z
#    x 3.973510 0.000000 0.000000 
#    y 0.000000 3.655370 0.000000 
#    z 0.000000 0.000000 3.213900 
# 
# 
# High freq. dielectric constant tensor:
#      x y z
#    x 1.794470 0.000000 0.000000 
#    y 0.000000 1.773080 0.000000 
#    z 0.000000 0.000000 1.736570 
# 
# From -- ./inp_files/17620.got.cif
#   From: 2010.03.12/outbox.cif.g09.slc.cpg/sg40_9_cif.got.tgz:17620.got - 2010.04.14 01:38:03.
