data_PCOD8183227
_publ_section_title
;
Structure prediction by ZEFSAII (Michael W. Deem and Ramdas Pophale) SiO2 
 PCOD8183227
Probable space group: A M A 2
;
_chemical_formula_sum "Si O2"
_cell_formula_units_Z 64
_cell_length_a 8.630826
_cell_length_b 33.588061
_cell_length_c 11.685565
_cell_angle_alpha 90.000000
_cell_angle_beta 90.000000
_cell_angle_gamma 90.000000
_cell_volume 3387.560108
_symmetry_space_group_name_H-M "A M A 2"
_symmetry_group_IT_number 40
_symmetry_cell_setting 'orthorhombic'
loop_
_space_group_symop_operation_xyz
x,y,z
-x,-y,z
1/2-x,y,z
1/2+x,-y,z
x,1/2+y,1/2+z
-x,1/2-y,1/2+z
1/2-x,1/2+y,1/2+z
1/2+x,1/2-y,1/2+z
loop_
_atom_site_type_symbol
_atom_site_label
_atom_site_fract_x
_atom_site_fract_y
_atom_site_fract_z
Si Si1 0.929882 0.681781 0.225180
Si Si2 0.072075 0.887510 0.117418
Si Si3 0.069253 0.623334 0.050211
Si Si4 0.067390 0.041067 0.232390
Si Si5 0.066768 0.457477 0.980242
Si Si6 0.069896 0.729295 0.682839
Si Si7 0.068075 0.176715 0.969810
Si Si8 0.925673 0.667315 0.837269
O O1 0.750000 0.671476 0.211146
O O2 0.970180 0.724342 0.168864
O O3 0.027913 0.647121 0.165362
O O4 0.972501 0.685901 0.357120
O O5 0.250000 0.895386 0.083953
O O6 0.058603 0.862866 0.233340
O O7 0.979465 0.928070 0.135103
O O8 0.983580 0.866452 0.013834
O O9 0.250000 0.614919 0.045131
O O10 0.986185 0.580183 0.056060
O O11 0.023524 0.650531 0.942440
O O12 0.250000 0.039029 0.251129
O O13 0.988639 0.052117 0.352421
O O14 0.000000 0.000000 0.186134
O O15 0.250000 0.460637 0.982702
O O16 0.000000 0.500000 0.024406
O O17 0.250000 0.721666 0.704936
O O18 0.017181 0.709124 0.564335
O O19 0.983472 0.710333 0.792907
O O20 0.250000 0.177619 0.944263
O O21 0.750000 0.671814 0.880425
#
# Coordination Sequence:
#
# PCOD8183227 Si02
#       8
#     8   8   8   8   8   8   8   8
#     4  11  24  41  59  84 115 153 197 244 293 347
#     4  10  19  34  56  81 111 150 188 232 283 341
#     4  12  24  38  58  86 119 157 198 242 294 351
#     4  11  20  31  51  82 118 153 187 232 284 344
#     4  11  21  36  57  85 120 157 194 240 295 354
#     4   9  21  39  59  83 114 150 191 239 292 345
#     4  10  21  39  59  82 111 149 194 240 288 344
#     4  10  20  34  56  83 114 149 190 235 286 344
#
# _framework density 18.892654
#
# number of rings (size 3 to 8) (size 9 to 14) (size 15 to 20)
#    0.000    1.500    1.250    5.625    1.750    2.500 
#    0.000    0.000    0.000    0.750    0.000    5.250 
#    0.000    0.000    0.000    0.000    0.000    0.000 
#
# Total GULP energy -396889.288691 kJ/mol
# GULP energy per Si atom -12402.790272 kJ/mol
# Density = 1.884965 g / cm^3
# Si number density = 18.892654 Si / 1000 Ang^3
#
#
#
# Elastic Constant Matrix: (Units=GPa)
#
#
# Indices 1 2 3 4 5 6 
#
# 1 92.8752 50.4232 21.9847 0.0000 0.0000 0.0000
# 2 50.4232 127.0815 41.9609 0.0000 0.0000 0.0000
# 3 21.9847 41.9609 70.4581 0.0000 0.0000 0.0000
# 4 0.0000 0.0000 0.0000 25.0009 0.0000 0.0000
# 5 0.0000 0.0000 0.0000 0.0000 30.4280 0.0000
# 6 0.0000 0.0000 0.0000 0.0000 0.0000 33.2031
#
#
#
# Elastic Compliance Matrix: (Units=1/GPa)
#
#
# Indices 1 2 3 4 5 6 
#
# 1 0.013819 -0.005053 -0.001303 0.000000 0.000000 0.000000
# 2 -0.005053 0.011643 -0.005357 0.000000 0.000000 0.000000
# 3 -0.001303 -0.005357 0.017790 0.000000 0.000000 0.000000
# 4 0.000000 0.000000 0.000000 0.039999 0.000000 0.000000
# 5 0.000000 0.000000 0.000000 0.000000 0.032864 0.000000
# 6 0.000000 0.000000 0.000000 0.000000 0.000000 0.030118
#
#
# Mechanical properties :
#
#
# Convention : Reuss Voigt Hill
#
# Bulk Modulus (GPa) = 50.43894 57.68361 54.06127
# Shear Modulus (GPa) = 28.36629 29.46281 28.91455
#
# Velocity S-wave (km/s) = 3.87905 3.95332 3.91636
# Velocity P-wave (km/s) = 6.84239 7.17195 7.00911
#
# Compressibility (1/GPa) = 0.01982595
#
# Stress axis : x y z
#
# Youngs Moduli (GPa) = 72.36541 85.89076 56.21244
#
# Poissons Ratio (x) = 0.43400 0.07322
# Poissons Ratio (y) = 0.36565 0.30114
# Poissons Ratio (z) = 0.09426 0.46013
#
# Static dielectric constant tensor:
#      x y z
#    x 3.570640 0.000000 0.000000 
#    y 0.000000 3.751570 0.000000 
#    z 0.000000 0.000000 3.236250 
# 
# 
# High freq. dielectric constant tensor:
#      x y z
#    x 1.749440 0.000000 0.000000 
#    y 0.000000 1.742180 0.000000 
#    z 0.000000 0.000000 1.704490 
# 
# From -- ./inp_files/10692.got.cif
#   From: 2010.03.12/outbox.cif.g09.slc.cpg/sg40_6_cif.got.tgz:10692.got - 2010.04.14 01:38:03.
