data_PCOD8183540
_publ_section_title
;
Structure prediction by ZEFSAII (Michael W. Deem and Ramdas Pophale) SiO2 
 PCOD8183540
Probable space group: A M A 2
;
_chemical_formula_sum "Si O2"
_cell_formula_units_Z 48
_cell_length_a 15.442985
_cell_length_b 8.865363
_cell_length_c 19.008564
_cell_angle_alpha 90.000000
_cell_angle_beta 90.000000
_cell_angle_gamma 90.000000
_cell_volume 2602.418166
_symmetry_space_group_name_H-M "A M A 2"
_symmetry_group_IT_number 40
_symmetry_cell_setting 'orthorhombic'
loop_
_space_group_symop_operation_xyz
x,y,z
-x,-y,z
1/2-x,y,z
1/2+x,-y,z
x,1/2+y,1/2+z
-x,1/2-y,1/2+z
1/2-x,1/2+y,1/2+z
1/2+x,1/2-y,1/2+z
loop_
_atom_site_type_symbol
_atom_site_label
_atom_site_fract_x
_atom_site_fract_y
_atom_site_fract_z
Si Si1 0.655211 0.331005 0.978320
Si Si2 0.598897 0.015293 0.972136
Si Si3 0.250000 0.991951 0.581150
Si Si4 0.087583 0.579912 0.837814
Si Si5 0.587698 0.579275 0.309164
Si Si6 0.750000 0.431148 0.242446
Si Si7 0.250000 0.370170 0.833701
Si Si8 0.250000 0.717097 0.488481
O O1 0.750000 0.322423 0.939484
O O2 0.632086 0.167185 0.008729
O O3 0.585984 0.390662 0.921939
O O4 0.662415 0.441605 0.044923
O O5 0.605040 0.032316 0.888806
O O6 0.500000 0.000000 0.997556
O O7 0.661501 0.878368 0.993220
O O8 0.250000 0.815171 0.560706
O O9 0.250000 0.055245 0.658871
O O10 0.087996 0.740540 0.798441
O O11 0.166421 0.471447 0.816942
O O12 0.000000 0.500000 0.814926
O O13 0.500000 0.500000 0.282097
O O14 0.664983 0.518504 0.263567
O O15 0.750000 0.265154 0.277039
O O16 0.250000 0.314518 0.915639
#
# Coordination Sequence:
#
# PCOD8183540 Si02
#       8
#     8   8   4   8   8   4   4   4
#     4   9  18  37  53  78 121 143 180 239 292 335
#     4  10  20  33  62  89 112 149 189 246 299 347
#     4  10  23  37  59  83 118 159 193 238 297 348
#     4  11  21  34  60  91 117 146 193 258 299 342
#     4  10  21  37  58  88 119 150 199 243 298 358
#     4  12  23  39  61  79 118 169 193 232 313 364
#     4  12  21  35  59  91 116 152 203 248 298 351
#     4  12  19  37  57  91 118 142 203 252 282 355
#
# _framework density 18.444385
#
# number of rings (size 3 to 8) (size 9 to 14) (size 15 to 20)
#    0.500    1.000    5.000    1.500    7.000    0.000 
#    0.000    5.833    0.000    2.000    0.000    0.000 
#    0.000    0.000    0.000    0.000    0.000    0.000 
#
# Total GULP energy -297387.826777 kJ/mol
# GULP energy per Si atom -12391.159449 kJ/mol
# Density = 1.840241 g / cm^3
# Si number density = 18.444385 Si / 1000 Ang^3
#
#
#
# Elastic Constant Matrix: (Units=GPa)
#
#
# Indices 1 2 3 4 5 6 
#
# 1 134.9714 68.9807 28.3745 0.0000 0.0000 0.0000
# 2 68.9807 154.1092 43.3184 0.0000 0.0000 0.0000
# 3 28.3745 43.3184 58.9145 0.0000 0.0000 0.0000
# 4 0.0000 0.0000 0.0000 19.0496 0.0000 0.0000
# 5 0.0000 0.0000 0.0000 0.0000 14.1343 0.0000
# 6 0.0000 0.0000 0.0000 0.0000 0.0000 37.2434
#
#
#
# Elastic Compliance Matrix: (Units=1/GPa)
#
#
# Indices 1 2 3 4 5 6 
#
# 1 0.009769 -0.003845 -0.001878 0.000000 0.000000 0.000000
# 2 -0.003845 0.009693 -0.005275 0.000000 0.000000 0.000000
# 3 -0.001878 -0.005275 0.021757 0.000000 0.000000 0.000000
# 4 0.000000 0.000000 0.000000 0.052495 0.000000 0.000000
# 5 0.000000 0.000000 0.000000 0.000000 0.070750 0.000000
# 6 0.000000 0.000000 0.000000 0.000000 0.000000 0.026850
#
#
# Mechanical properties :
#
#
# Convention : Reuss Voigt Hill
#
# Bulk Modulus (GPa) = 52.02156 69.92692 60.97424
# Shear Modulus (GPa) = 22.75669 27.90690 25.33180
#
# Velocity S-wave (km/s) = 3.51636 3.89399 3.70998
# Velocity P-wave (km/s) = 6.68971 7.62969 7.17511
#
# Compressibility (1/GPa) = 0.01922280
#
# Stress axis : x y z
#
# Youngs Moduli (GPa) = 102.36777 103.17179 45.96269
#
# Poissons Ratio (x) = 0.39666 0.08631
# Poissons Ratio (y) = 0.39357 0.24245
# Poissons Ratio (z) = 0.19224 0.54423
#
# Static dielectric constant tensor:
#      x y z
#    x 3.529930 0.000000 0.000000 
#    y 0.000000 3.712640 0.000000 
#    z 0.000000 0.000000 2.893880 
# 
# 
# High freq. dielectric constant tensor:
#      x y z
#    x 1.723690 0.000000 0.000000 
#    y 0.000000 1.739080 0.000000 
#    z 0.000000 0.000000 1.655170 
# 
# From -- ./inp_files/23015.got.cif
#   From: 2010.03.12/outbox.cif.g09.slc.cpg/sg40_12_cif.got.tgz:23015.got - 2010.04.14 01:38:03.
