data_PCOD8183907
_publ_section_title
;
Structure prediction by ZEFSAII (Michael W. Deem and Ramdas Pophale) SiO2 
 PCOD8183907
Probable space group: A M A 2
;
_chemical_formula_sum "Si O2"
_cell_formula_units_Z 64
_cell_length_a 16.979903
_cell_length_b 11.509613
_cell_length_c 16.057455
_cell_angle_alpha 90.000000
_cell_angle_beta 90.000000
_cell_angle_gamma 90.000000
_cell_volume 3138.142349
_symmetry_space_group_name_H-M "A M A 2"
_symmetry_group_IT_number 40
_symmetry_cell_setting 'orthorhombic'
loop_
_space_group_symop_operation_xyz
x,y,z
-x,-y,z
1/2-x,y,z
1/2+x,-y,z
x,1/2+y,1/2+z
-x,1/2-y,1/2+z
1/2-x,1/2+y,1/2+z
1/2+x,1/2-y,1/2+z
loop_
_atom_site_type_symbol
_atom_site_label
_atom_site_fract_x
_atom_site_fract_y
_atom_site_fract_z
Si Si1 0.091257 0.014760 0.509510
Si Si2 0.922016 0.252115 0.785892
Si Si3 0.910609 0.183932 0.239375
Si Si4 0.576257 0.069191 0.927652
Si Si5 0.841767 0.981102 0.337310
Si Si6 0.159091 0.099848 0.811080
Si Si7 0.655421 0.235089 0.058711
Si Si8 0.158561 0.420623 0.170345
O O1 0.140542 0.971927 0.429771
O O2 0.114951 0.145566 0.531923
O O3 0.109913 0.928777 0.585399
O O4 0.000000 0.000000 0.487124
O O5 0.949745 0.158342 0.854752
O O6 0.872631 0.349617 0.833545
O O7 0.864629 0.196512 0.717570
O O8 0.995118 0.305886 0.735104
O O9 0.883238 0.276290 0.308875
O O10 0.867789 0.208400 0.152871
O O11 0.887320 0.055843 0.268629
O O12 0.500000 0.000000 0.961490
O O13 0.635733 0.973844 0.891482
O O14 0.621408 0.131984 0.002266
O O15 0.750000 0.986177 0.317952
O O16 0.250000 0.125560 0.816681
O O17 0.136798 0.031418 0.726675
O O18 0.750000 0.244369 0.049568
O O19 0.250000 0.417827 0.148576
#
# Coordination Sequence:
#
# PCOD8183907 Si02
#       8
#     8   8   8   8   8   8   8   8
#     4  12  24  40  65  99 132 174 225 281 334 396
#     4  11  23  42  67  95 134 173 222 276 337 398
#     4  12  24  43  66  97 133 177 220 270 334 405
#     4  11  23  40  67  98 130 168 222 282 335 392
#     4  12  26  44  67  95 134 178 222 271 335 406
#     4  10  20  37  63  94 127 164 215 269 326 389
#     4  12  25  44  69  97 135 180 228 274 334 411
#     4  10  21  37  64  97 128 166 220 278 330 385
#
# _framework density 20.394231000000001
#
# number of rings (size 3 to 8) (size 9 to 14) (size 15 to 20)
#    0.000    0.750    3.750    4.875    0.000    2.000 
#    0.000    1.250    0.000    0.000    0.000    0.000 
#    0.000    0.000    0.000    0.000    0.000    0.000 
#
# Total GULP energy -396947.473376 kJ/mol
# GULP energy per Si atom -12404.608543 kJ/mol
# Density = 2.034781 g / cm^3
# Si number density = 20.394231 Si / 1000 Ang^3
#
#
#
# Elastic Constant Matrix: (Units=GPa)
#
#
# Indices 1 2 3 4 5 6 
#
# 1 61.6792 28.5130 16.8190 0.0000 0.0000 0.0000
# 2 28.5130 83.0010 33.3455 0.0000 0.0000 0.0000
# 3 16.8190 33.3455 78.3330 0.0000 0.0000 0.0000
# 4 0.0000 0.0000 0.0000 29.0708 0.0000 0.0000
# 5 0.0000 0.0000 0.0000 0.0000 32.5578 0.0000
# 6 0.0000 0.0000 0.0000 0.0000 0.0000 36.5353
#
#
#
# Elastic Compliance Matrix: (Units=1/GPa)
#
#
# Indices 1 2 3 4 5 6 
#
# 1 0.019440 -0.006033 -0.001606 0.000000 0.000000 0.000000
# 2 -0.006033 0.016406 -0.005688 0.000000 0.000000 0.000000
# 3 -0.001606 -0.005688 0.015532 0.000000 0.000000 0.000000
# 4 0.000000 0.000000 0.000000 0.034399 0.000000 0.000000
# 5 0.000000 0.000000 0.000000 0.000000 0.030715 0.000000
# 6 0.000000 0.000000 0.000000 0.000000 0.000000 0.027371
#
#
# Mechanical properties :
#
#
# Convention : Reuss Voigt Hill
#
# Bulk Modulus (GPa) = 40.44728 42.26311 41.35519
# Shear Modulus (GPa) = 27.97085 29.25515 28.61300
#
# Velocity S-wave (km/s) = 3.70741 3.79156 3.74972
# Velocity P-wave (km/s) = 6.18080 6.31949 6.25053
#
# Compressibility (1/GPa) = 0.02472354
#
# Stress axis : x y z
#
# Youngs Moduli (GPa) = 51.44114 60.95389 64.38198
#
# Poissons Ratio (x) = 0.36773 0.10338
# Poissons Ratio (y) = 0.31034 0.36623
# Poissons Ratio (z) = 0.08260 0.34673
#
# Static dielectric constant tensor:
#      x y z
#    x 3.765580 0.000000 0.000000 
#    y 0.000000 3.822550 0.000000 
#    z 0.000000 0.000000 3.687370 
# 
# 
# High freq. dielectric constant tensor:
#      x y z
#    x 1.810920 0.000000 0.000000 
#    y 0.000000 1.797820 0.000000 
#    z 0.000000 0.000000 1.792650 
# 
# From -- ./inp_files/17896.got.cif
#   From: 2010.03.12/outbox.cif.g09.slc.cpg/sg40_9_cif.got.tgz:17896.got - 2010.04.14 01:38:03.
