data_PCOD8183696
_publ_section_title
;
Structure prediction by ZEFSAII (Michael W. Deem and Ramdas Pophale) SiO2 
 PCOD8183696
Probable space group: A M A 2
;
_chemical_formula_sum "Si O2"
_cell_formula_units_Z 48
_cell_length_a 18.221897
_cell_length_b 9.221332
_cell_length_c 15.257764
_cell_angle_alpha 90.000000
_cell_angle_beta 90.000000
_cell_angle_gamma 90.000000
_cell_volume 2563.764555
_symmetry_space_group_name_H-M "A M A 2"
_symmetry_group_IT_number 40
_symmetry_cell_setting 'orthorhombic'
loop_
_space_group_symop_operation_xyz
x,y,z
-x,-y,z
1/2-x,y,z
1/2+x,-y,z
x,1/2+y,1/2+z
-x,1/2-y,1/2+z
1/2-x,1/2+y,1/2+z
1/2+x,1/2-y,1/2+z
loop_
_atom_site_type_symbol
_atom_site_label
_atom_site_fract_x
_atom_site_fract_y
_atom_site_fract_z
Si Si1 0.932122 0.704698 0.539150
Si Si2 0.403630 0.623574 0.536620
Si Si3 0.668284 0.882250 0.862293
Si Si4 0.831465 0.724802 0.385225
Si Si5 0.577977 0.923232 0.701008
Si Si6 0.664280 0.208976 0.691860
O O1 0.895607 0.548114 0.554236
O O2 0.889683 0.780575 0.457441
O O3 0.927068 0.806584 0.623697
O O4 0.015514 0.677886 0.512615
O O5 0.354804 0.683274 0.456154
O O6 0.378428 0.689537 0.626738
O O7 0.750000 0.826183 0.836857
O O8 0.608522 0.840348 0.787693
O O9 0.668320 0.052997 0.875731
O O10 0.750000 0.779584 0.412114
O O11 0.852935 0.778054 0.287659
O O12 0.500000 0.000000 0.720214
O O13 0.637216 0.045061 0.677357
O O14 0.750000 0.209039 0.672136
#
# Coordination Sequence:
#
# PCOD8183696 Si02
#       6
#     8   8   8   8   8   8
#     4  10  21  34  55  84 110 142 185 224 279 324
#     4  10  20  35  58  82 112 142 182 231 273 332
#     4   9  19  34  55  81 106 144 188 226 270 323
#     4   8  17  33  55  77 104 143 183 220 266 329
#     4  11  21  35  56  84 111 147 182 229 275 326
#     4  10  20  37  59  81 109 146 185 224 274 331
#
# _framework density 18.722469
#
# number of rings (size 3 to 8) (size 9 to 14) (size 15 to 20)
#    0.000    2.333    1.667    2.000    7.000    2.000 
#    0.000    1.667    3.667    2.000    0.000    0.000 
#    0.000    0.000    0.000    0.000    0.000    0.000 
#
# Total GULP energy -297452.749816 kJ/mol
# GULP energy per Si atom -12393.864576 kJ/mol
# Density = 1.867986 g / cm^3
# Si number density = 18.722469 Si / 1000 Ang^3
#
#
#
# Elastic Constant Matrix: (Units=GPa)
#
#
# Indices 1 2 3 4 5 6 
#
# 1 69.4805 11.4339 39.3050 0.0000 0.0000 0.0000
# 2 11.4339 31.2455 25.0744 0.0000 0.0000 0.0000
# 3 39.3050 25.0744 122.6250 0.0000 0.0000 0.0000
# 4 0.0000 0.0000 0.0000 38.9752 0.0000 0.0000
# 5 0.0000 0.0000 0.0000 0.0000 39.9121 0.0000
# 6 0.0000 0.0000 0.0000 0.0000 0.0000 20.4005
#
#
#
# Elastic Compliance Matrix: (Units=1/GPa)
#
#
# Indices 1 2 3 4 5 6 
#
# 1 0.017718 -0.002304 -0.005208 0.000000 0.000000 0.000000
# 2 -0.002304 0.038587 -0.007152 0.000000 0.000000 0.000000
# 3 -0.005208 -0.007152 0.011287 0.000000 0.000000 0.000000
# 4 0.000000 0.000000 0.000000 0.025657 0.000000 0.000000
# 5 0.000000 0.000000 0.000000 0.000000 0.025055 0.000000
# 6 0.000000 0.000000 0.000000 0.000000 0.000000 0.049019
#
#
# Mechanical properties :
#
#
# Convention : Reuss Voigt Hill
#
# Bulk Modulus (GPa) = 26.13445 41.66420 33.89932
# Shear Modulus (GPa) = 23.87720 29.69340 26.78530
#
# Velocity S-wave (km/s) = 3.57504 3.98675 3.78650
# Velocity P-wave (km/s) = 5.57049 6.59501 6.10428
#
# Compressibility (1/GPa) = 0.03826367
#
# Stress axis : x y z
#
# Youngs Moduli (GPa) = 56.44034 25.91544 88.60051
#
# Poissons Ratio (x) = 0.05972 0.46142
# Poissons Ratio (y) = 0.13005 0.63365
# Poissons Ratio (z) = 0.29394 0.18534
#
# Static dielectric constant tensor:
#      x y z
#    x 4.047510 0.000000 0.000000 
#    y 0.000000 3.018980 0.000000 
#    z 0.000000 0.000000 3.838350 
# 
# 
# High freq. dielectric constant tensor:
#      x y z
#    x 1.743120 0.000000 0.000000 
#    y 0.000000 1.677950 0.000000 
#    z 0.000000 0.000000 1.739040 
# 
# From -- ./inp_files/12922.got.cif
#   From: 2010.03.12/outbox.cif.g09.slc.cpg/sg40_7_cif.got.tgz:12922.got - 2010.04.14 01:38:03.
