data_PCOD8183004
_publ_section_title
;
Structure prediction by ZEFSAII (Michael W. Deem and Ramdas Pophale) SiO2 
 PCOD8183004
Probable space group: A M A 2
;
_chemical_formula_sum "Si O2"
_cell_formula_units_Z 64
_cell_length_a 8.701688
_cell_length_b 14.712417
_cell_length_c 27.477814
_cell_angle_alpha 90.000000
_cell_angle_beta 90.000000
_cell_angle_gamma 90.000000
_cell_volume 3517.788402
_symmetry_space_group_name_H-M "A M A 2"
_symmetry_group_IT_number 40
_symmetry_cell_setting 'orthorhombic'
loop_
_space_group_symop_operation_xyz
x,y,z
-x,-y,z
1/2-x,y,z
1/2+x,-y,z
x,1/2+y,1/2+z
-x,1/2-y,1/2+z
1/2-x,1/2+y,1/2+z
1/2+x,1/2-y,1/2+z
loop_
_atom_site_type_symbol
_atom_site_label
_atom_site_fract_x
_atom_site_fract_y
_atom_site_fract_z
Si Si1 0.931318 0.405068 0.390930
Si Si2 0.431748 0.730774 0.473726
Si Si3 0.430030 0.593714 0.555857
Si Si4 0.932140 0.904319 0.166945
Si Si5 0.932397 0.095115 0.616119
Si Si6 0.931736 0.405562 0.010651
Si Si7 0.931513 0.276810 0.195647
Si Si8 0.569642 0.905812 0.781647
O O1 0.750000 0.414793 0.393312
O O2 0.985820 0.323767 0.425880
O O3 0.989696 0.383388 0.336163
O O4 0.000000 0.500000 0.409684
O O5 0.250000 0.748266 0.473889
O O6 0.485382 0.675484 0.521565
O O7 0.520343 0.826440 0.473306
O O8 0.500000 0.500000 0.536372
O O9 0.250000 0.581963 0.552306
O O10 0.481879 0.613587 0.611053
O O11 0.750000 0.903446 0.173894
O O12 0.010527 0.826511 0.199473
O O13 0.000000 0.000000 0.185082
O O14 0.750000 0.088722 0.613419
O O15 0.996714 0.117316 0.562996
O O16 0.981129 0.175825 0.651313
O O17 0.000000 0.000000 0.635902
O O18 0.750000 0.413771 0.015232
O O19 0.000000 0.500000 0.990484
O O20 0.750000 0.281478 0.186757
O O21 0.980384 0.324776 0.246007
O O22 0.750000 0.918693 0.781632
O O23 0.500000 0.000000 0.762190
#
# Coordination Sequence:
#
# PCOD8183004 Si02
#       8
#     8   8   8   8   8   8   8   8
#     4   9  18  33  53  77 106 137 167 204 251 301
#     4  10  19  32  51  75 103 134 168 205 247 295
#     4   9  18  30  46  70 100 131 161 197 238 286
#     4  10  20  34  50  70  99 134 171 210 252 298
#     4  11  21  34  51  74 105 137 171 209 253 304
#     4  11  22  36  53  73 100 134 171 210 253 299
#     4  11  21  33  51  75 102 134 174 215 257 305
#     4   9  19  34  52  76 105 135 167 206 253 304
#
# _framework density 18.193248000000001
#
# number of rings (size 3 to 8) (size 9 to 14) (size 15 to 20)
#    0.000    2.000    0.000    5.250    0.000    4.500 
#    0.000    0.000    0.000    0.750    0.000    0.000 
#    0.000    0.000    0.000    0.000    0.000    0.000 
#
# Total GULP energy -396884.101853 kJ/mol
# GULP energy per Si atom -12402.628183 kJ/mol
# Density = 1.815184 g / cm^3
# Si number density = 18.193248 Si / 1000 Ang^3
#
#
#
# Elastic Constant Matrix: (Units=GPa)
#
#
# Indices 1 2 3 4 5 6 
#
# 1 82.1423 50.6461 34.6064 0.0000 0.0000 0.0000
# 2 50.6461 159.6992 71.1806 0.0000 0.0000 0.0000
# 3 34.6064 71.1806 78.3373 0.0000 0.0000 0.0000
# 4 0.0000 0.0000 0.0000 21.5835 0.0000 0.0000
# 5 0.0000 0.0000 0.0000 0.0000 17.0760 0.0000
# 6 0.0000 0.0000 0.0000 0.0000 0.0000 35.7897
#
#
#
# Elastic Compliance Matrix: (Units=1/GPa)
#
#
# Indices 1 2 3 4 5 6 
#
# 1 0.015879 -0.003209 -0.004099 0.000000 0.000000 0.000000
# 2 -0.003209 0.011172 -0.008734 0.000000 0.000000 0.000000
# 3 -0.004099 -0.008734 0.022512 0.000000 0.000000 0.000000
# 4 0.000000 0.000000 0.000000 0.046332 0.000000 0.000000
# 5 0.000000 0.000000 0.000000 0.000000 0.058562 0.000000
# 6 0.000000 0.000000 0.000000 0.000000 0.000000 0.027941
#
#
# Mechanical properties :
#
#
# Convention : Reuss Voigt Hill
#
# Bulk Modulus (GPa) = 57.20898 70.33834 63.77366
# Shear Modulus (GPa) = 22.69534 25.80622 24.25078
#
# Velocity S-wave (km/s) = 3.53577 3.77032 3.65493
# Velocity P-wave (km/s) = 6.94135 7.59602 7.27605
#
# Compressibility (1/GPa) = 0.01747977
#
# Stress axis : x y z
#
# Youngs Moduli (GPa) = 62.97451 89.50681 44.41994
#
# Poissons Ratio (x) = 0.28721 0.18209
# Poissons Ratio (y) = 0.20207 0.38797
# Poissons Ratio (z) = 0.25815 0.78176
#
# Static dielectric constant tensor:
#      x y z
#    x 3.314440 0.000000 0.000000 
#    y 0.000000 3.524280 0.000000 
#    z 0.000000 0.000000 3.440260 
# 
# 
# High freq. dielectric constant tensor:
#      x y z
#    x 1.708490 0.000000 0.000000 
#    y 0.000000 1.709530 0.000000 
#    z 0.000000 0.000000 1.681240 
# 
# From -- ./inp_files/24249.got.cif
#   From: 2010.03.12/outbox.cif.g09.slc.cpg/sg40_13_cif.got.tgz:24249.got - 2010.04.14 01:38:03.
