data_PCOD8183851
_publ_section_title
;
Structure prediction by ZEFSAII (Michael W. Deem and Ramdas Pophale) SiO2 
 PCOD8183851
Probable space group: A M A 2
;
_chemical_formula_sum "Si O2"
_cell_formula_units_Z 60
_cell_length_a 14.279814
_cell_length_b 21.895484
_cell_length_c 9.455058
_cell_angle_alpha 90.000000
_cell_angle_beta 90.000000
_cell_angle_gamma 90.000000
_cell_volume 2956.250950
_symmetry_space_group_name_H-M "A M A 2"
_symmetry_group_IT_number 40
_symmetry_cell_setting 'orthorhombic'
loop_
_space_group_symop_operation_xyz
x,y,z
-x,-y,z
1/2-x,y,z
1/2+x,-y,z
x,1/2+y,1/2+z
-x,1/2-y,1/2+z
1/2-x,1/2+y,1/2+z
1/2+x,1/2-y,1/2+z
loop_
_atom_site_type_symbol
_atom_site_label
_atom_site_fract_x
_atom_site_fract_y
_atom_site_fract_z
Si Si1 0.586522 0.543475 0.387410
Si Si2 0.502304 0.672414 0.367086
Si Si3 0.000000 0.500000 0.870490
Si Si4 0.853888 0.007587 0.586855
Si Si5 0.146458 0.032736 0.142324
Si Si6 0.358444 0.634707 0.126995
Si Si7 0.854517 0.779512 0.367162
Si Si8 0.148279 0.165287 0.071746
O O1 0.500000 0.500000 0.360438
O O2 0.560786 0.613505 0.413262
O O3 0.646029 0.537249 0.243183
O O4 0.636965 0.523565 0.532929
O O5 0.430153 0.655733 0.245133
O O6 0.575150 0.725011 0.330812
O O7 0.437232 0.698457 0.493613
O O8 0.931597 0.462472 0.765797
O O9 0.929580 0.537667 0.976878
O O10 0.750000 0.018591 0.525840
O O11 0.878231 0.935490 0.588712
O O12 0.250000 0.029071 0.212644
O O13 0.137702 0.092734 0.044870
O O14 0.250000 0.642172 0.175858
O O15 0.383475 0.679346 0.998808
O O16 0.750000 0.752062 0.387769
O O17 0.857748 0.825685 0.237887
O O18 0.250000 0.188126 0.014731
#
# Coordination Sequence:
#
# PCOD8183851 Si02
#       8
#     8   8   4   8   8   8   8   8
#     4  12  21  38  57  89 122 151 189 241 285 351
#     4  12  21  36  60  85 116 150 186 233 294 337
#     4  12  20  34  52  84 116 142 192 236 292 346
#     4  11  22  37  59  84 115 154 194 243 294 336
#     4  11  22  37  59  84 115 154 194 243 294 336
#     4  10  20  37  59  83 109 142 193 243 279 330
#     4  10  23  38  54  81 116 152 187 227 284 347
#     4  10  20  37  59  83 109 142 193 243 279 330
#
# _framework density 20.295977000000001
#
# number of rings (size 3 to 8) (size 9 to 14) (size 15 to 20)
#    0.000    1.067    4.000    2.800    0.000    5.333 
#    0.000    0.000    0.000    0.000    0.000   11.200 
#    0.000    0.000    0.000    0.000    0.000    0.000 
#
# Total GULP energy -371767.976887 kJ/mol
# GULP energy per Si atom -12392.265896 kJ/mol
# Density = 2.024978 g / cm^3
# Si number density = 20.295977 Si / 1000 Ang^3
#
#
#
# Elastic Constant Matrix: (Units=GPa)
#
#
# Indices 1 2 3 4 5 6 
#
# 1 132.5221 31.2058 47.1737 0.0000 0.0000 0.0000
# 2 31.2058 72.7143 11.7707 0.0000 0.0000 0.0000
# 3 47.1737 11.7707 91.2524 0.0000 0.0000 0.0000
# 4 0.0000 0.0000 0.0000 20.7603 0.0000 0.0000
# 5 0.0000 0.0000 0.0000 0.0000 35.1459 0.0000
# 6 0.0000 0.0000 0.0000 0.0000 0.0000 16.9657
#
#
#
# Elastic Compliance Matrix: (Units=1/GPa)
#
#
# Indices 1 2 3 4 5 6 
#
# 1 0.010073 -0.003554 -0.004749 0.000000 0.000000 0.000000
# 2 -0.003554 0.015300 -0.000136 0.000000 0.000000 0.000000
# 3 -0.004749 -0.000136 0.013431 0.000000 0.000000 0.000000
# 4 0.000000 0.000000 0.000000 0.048169 0.000000 0.000000
# 5 0.000000 0.000000 0.000000 0.000000 0.028453 0.000000
# 6 0.000000 0.000000 0.000000 0.000000 0.000000 0.058942
#
#
# Mechanical properties :
#
#
# Convention : Reuss Voigt Hill
#
# Bulk Modulus (GPa) = 45.60893 52.97658 49.29276
# Shear Modulus (GPa) = 25.18180 28.33027 26.75603
#
# Velocity S-wave (km/s) = 3.52622 3.74017 3.63477
# Velocity P-wave (km/s) = 6.25297 6.69406 6.47727
#
# Compressibility (1/GPa) = 0.02192553
#
# Stress axis : x y z
#
# Youngs Moduli (GPa) = 99.27161 65.36017 74.45339
#
# Poissons Ratio (x) = 0.23231 0.35358
# Poissons Ratio (y) = 0.35284 0.01013
# Poissons Ratio (z) = 0.47144 0.00890
#
# Static dielectric constant tensor:
#      x y z
#    x 4.093700 0.000000 0.000000 
#    y 0.000000 3.354790 0.000000 
#    z 0.000000 0.000000 3.730530 
# 
# 
# High freq. dielectric constant tensor:
#      x y z
#    x 1.814140 0.000000 0.000000 
#    y 0.000000 1.751520 0.000000 
#    z 0.000000 0.000000 1.802430 
# 
# From -- ./inp_files/6858.got.cif
#   From: 2010.03.12/outbox.cif.g09.slc.cpg/sg40_4_cif.got.tgz:6858.got - 2010.04.14 01:38:03.
