data_PCOD8183643
_publ_section_title
;
Structure prediction by ZEFSAII (Michael W. Deem and Ramdas Pophale) SiO2 
 PCOD8183643
Probable space group: A M A 2
;
_chemical_formula_sum "Si O2"
_cell_formula_units_Z 64
_cell_length_a 8.579122
_cell_length_b 23.190298
_cell_length_c 18.823898
_cell_angle_alpha 90.000000
_cell_angle_beta 90.000000
_cell_angle_gamma 90.000000
_cell_volume 3745.059605
_symmetry_space_group_name_H-M "A M A 2"
_symmetry_group_IT_number 40
_symmetry_cell_setting 'orthorhombic'
loop_
_space_group_symop_operation_xyz
x,y,z
-x,-y,z
1/2-x,y,z
1/2+x,-y,z
x,1/2+y,1/2+z
-x,1/2-y,1/2+z
1/2-x,1/2+y,1/2+z
1/2+x,1/2-y,1/2+z
loop_
_atom_site_type_symbol
_atom_site_label
_atom_site_fract_x
_atom_site_fract_y
_atom_site_fract_z
Si Si1 0.930141 0.842107 0.197770
Si Si2 0.568147 0.666656 0.247896
Si Si3 0.931980 0.377704 0.471905
Si Si4 0.430881 0.774489 0.321613
Si Si5 0.928536 0.228946 0.608258
Si Si6 0.067153 0.438162 0.608144
Si Si7 0.432776 0.563032 0.324287
Si Si8 0.929838 0.747961 0.465254
O O1 0.750000 0.860000 0.196856
O O2 0.964666 0.790640 0.143126
O O3 0.975246 0.822064 0.276821
O O4 0.034047 0.896285 0.174614
O O5 0.750000 0.676932 0.263577
O O6 0.472424 0.709581 0.298324
O O7 0.531740 0.679160 0.165203
O O8 0.516114 0.602046 0.264860
O O9 0.750000 0.362343 0.475767
O O10 0.974643 0.413883 0.402201
O O11 0.978385 0.416180 0.538616
O O12 0.026979 0.318870 0.471909
O O13 0.250000 0.785694 0.309613
O O14 0.473076 0.780483 0.404305
O O15 0.750000 0.225883 0.583718
O O16 0.035878 0.220070 0.539584
O O17 0.250000 0.441554 0.592609
O O18 0.000000 0.500000 0.629164
O O19 0.500000 0.500000 0.315168
O O20 0.250000 0.562991 0.310120
O O21 0.750000 0.753500 0.446004
#
# Coordination Sequence:
#
# PCOD8183643 Si02
#       8
#     8   8   8   8   8   8   8   8
#     4  10  20  36  55  76 104 136 175 221 266 312
#     4  10  20  35  54  75 102 135 175 219 264 311
#     4  11  22  36  51  73 106 142 182 223 259 305
#     4  11  21  34  53  76 106 138 174 216 264 317
#     4   9  19  34  53  75 104 136 169 214 267 314
#     4  12  24  37  54  76 104 143 184 222 263 311
#     4  11  23  36  53  74 103 141 181 221 261 308
#     4  12  22  32  52  79 107 141 178 215 261 317
#
# _framework density 17.089181
#
# number of rings (size 3 to 8) (size 9 to 14) (size 15 to 20)
#    0.000    1.250    2.500    6.000    0.000    5.000 
#    0.000    0.000    0.000    0.000    0.000    0.875 
#    0.000    4.000    0.000    0.000    0.000    0.000 
#
# Total GULP energy -396978.287597 kJ/mol
# GULP energy per Si atom -12405.571487 kJ/mol
# Density = 1.705029 g / cm^3
# Si number density = 17.089181 Si / 1000 Ang^3
#
#
#
# Elastic Constant Matrix: (Units=GPa)
#
#
# Indices 1 2 3 4 5 6 
#
# 1 68.4404 16.1989 27.4620 0.0000 0.0000 0.0000
# 2 16.1989 79.1331 45.0992 0.0000 0.0000 0.0000
# 3 27.4620 45.0992 101.2626 0.0000 0.0000 0.0000
# 4 0.0000 0.0000 0.0000 20.4496 0.0000 0.0000
# 5 0.0000 0.0000 0.0000 0.0000 28.6316 0.0000
# 6 0.0000 0.0000 0.0000 0.0000 0.0000 26.5942
#
#
#
# Elastic Compliance Matrix: (Units=1/GPa)
#
#
# Indices 1 2 3 4 5 6 
#
# 1 0.016467 -0.001107 -0.003973 0.000000 0.000000 0.000000
# 2 -0.001107 0.017010 -0.007276 0.000000 0.000000 0.000000
# 3 -0.003973 -0.007276 0.014193 0.000000 0.000000 0.000000
# 4 0.000000 0.000000 0.000000 0.048901 0.000000 0.000000
# 5 0.000000 0.000000 0.000000 0.000000 0.034926 0.000000
# 6 0.000000 0.000000 0.000000 0.000000 0.000000 0.037602
#
#
# Mechanical properties :
#
#
# Convention : Reuss Voigt Hill
#
# Bulk Modulus (GPa) = 43.55419 47.37294 45.46356
# Shear Modulus (GPa) = 24.81840 25.80683 25.31262
#
# Velocity S-wave (km/s) = 3.81502 3.89025 3.85282
# Velocity P-wave (km/s) = 6.70430 6.92531 6.81570
#
# Compressibility (1/GPa) = 0.02295990
#
# Stress axis : x y z
#
# Youngs Moduli (GPa) = 60.72613 58.78918 70.45684
#
# Poissons Ratio (x) = 0.06506 0.27993
# Poissons Ratio (y) = 0.06720 0.51261
# Poissons Ratio (z) = 0.24127 0.42772
#
# Static dielectric constant tensor:
#      x y z
#    x 3.283400 0.000000 0.000000 
#    y 0.000000 3.012910 0.000000 
#    z 0.000000 0.000000 3.296410 
# 
# 
# High freq. dielectric constant tensor:
#      x y z
#    x 1.675970 0.000000 0.000000 
#    y 0.000000 1.631130 0.000000 
#    z 0.000000 0.000000 1.656880 
# 
# From -- ./inp_files/19571.got.cif
#   From: 2010.03.12/outbox.cif.g09.slc.cpg/sg40_10_cif.got.tgz:19571.got - 2010.04.14 01:38:03.
