data_PCOD8183668
_publ_section_title
;
Structure prediction by ZEFSAII (Michael W. Deem and Ramdas Pophale) SiO2 
 PCOD8183668
Probable space group: A M A 2
;
_chemical_formula_sum "Si O2"
_cell_formula_units_Z 48
_cell_length_a 8.974998
_cell_length_b 30.128775
_cell_length_c 9.735549
_cell_angle_alpha 90.000000
_cell_angle_beta 90.000000
_cell_angle_gamma 90.000000
_cell_volume 2632.547897
_symmetry_space_group_name_H-M "A M A 2"
_symmetry_group_IT_number 40
_symmetry_cell_setting 'orthorhombic'
loop_
_space_group_symop_operation_xyz
x,y,z
-x,-y,z
1/2-x,y,z
1/2+x,-y,z
x,1/2+y,1/2+z
-x,1/2-y,1/2+z
1/2-x,1/2+y,1/2+z
1/2+x,1/2-y,1/2+z
loop_
_atom_site_type_symbol
_atom_site_label
_atom_site_fract_x
_atom_site_fract_y
_atom_site_fract_z
Si Si1 0.080597 0.884918 0.500000
Si Si2 0.074550 0.545457 0.498689
Si Si3 0.078414 0.284278 0.979558
Si Si4 0.423738 0.210555 0.201818
Si Si5 0.076593 0.881187 0.182157
Si Si6 0.576245 0.955124 0.683645
O O1 0.250000 0.897023 0.538170
O O2 0.045802 0.833728 0.534490
O O3 0.049768 0.894414 0.340040
O O4 0.971281 0.914030 0.590926
O O5 0.250000 0.541360 0.519661
O O6 0.030862 0.554697 0.340732
O O7 0.000000 0.500000 0.550401
O O8 0.013505 0.585514 0.587674
O O9 0.250000 0.281056 0.931066
O O10 0.973980 0.272911 0.851230
O O11 0.039604 0.250326 0.099102
O O12 0.250000 0.198438 0.203691
O O13 0.516208 0.167965 0.153099
O O14 0.250000 0.882617 0.143534
O O15 0.750000 0.962319 0.668102
O O16 0.500000 0.000000 0.629675
#
# Coordination Sequence:
#
# PCOD8183668 Si02
#       6
#     8   8   8   8   8   8
#     4   9  19  36  55  76 105 139 175 215 260 312
#     4  10  21  37  56  80 108 139 177 219 264 316
#     4   9  20  37  54  77 109 141 176 218 264 316
#     4  10  20  35  56  81 108 140 179 221 264 314
#     4  10  21  37  56  79 108 142 178 219 267 316
#     4  10  21  36  55  79 106 137 174 216 262 312
#
# _framework density 18.233287000000001
#
# number of rings (size 3 to 8) (size 9 to 14) (size 15 to 20)
#    0.000    2.333    0.000    3.000    0.000    8.667 
#    0.000    3.333    0.000    0.000    0.000    0.000 
#    0.000    0.000    0.000    0.000    0.000    0.000 
#
# Total GULP energy -297692.842616 kJ/mol
# GULP energy per Si atom -12403.868442 kJ/mol
# Density = 1.819179 g / cm^3
# Si number density = 18.233287 Si / 1000 Ang^3
#
#
#
# Elastic Constant Matrix: (Units=GPa)
#
#
# Indices 1 2 3 4 5 6 
#
# 1 79.8508 49.9785 43.7345 0.0000 0.0000 0.0000
# 2 49.9785 116.1390 70.2587 0.0000 0.0000 0.0000
# 3 43.7345 70.2587 78.3816 0.0000 0.0000 0.0000
# 4 0.0000 0.0000 0.0000 35.0942 0.0000 0.0000
# 5 0.0000 0.0000 0.0000 0.0000 33.4959 0.0000
# 6 0.0000 0.0000 0.0000 0.0000 0.0000 36.4502
#
#
#
# Elastic Compliance Matrix: (Units=1/GPa)
#
#
# Indices 1 2 3 4 5 6 
#
# 1 0.018774 -0.003806 -0.007064 0.000000 0.000000 0.000000
# 2 -0.003806 0.019582 -0.015429 0.000000 0.000000 0.000000
# 3 -0.007064 -0.015429 0.030530 0.000000 0.000000 0.000000
# 4 0.000000 0.000000 0.000000 0.028495 0.000000 0.000000
# 5 0.000000 0.000000 0.000000 0.000000 0.029854 0.000000
# 6 0.000000 0.000000 0.000000 0.000000 0.000000 0.027435
#
#
# Mechanical properties :
#
#
# Convention : Reuss Voigt Hill
#
# Bulk Modulus (GPa) = 61.39449 66.92385 64.15917
# Shear Modulus (GPa) = 23.50748 28.36803 25.93775
#
# Velocity S-wave (km/s) = 3.59452 3.94869 3.77576
# Velocity P-wave (km/s) = 7.13948 7.58772 7.36701
#
# Compressibility (1/GPa) = 0.01628811
#
# Stress axis : x y z
#
# Youngs Moduli (GPa) = 53.26382 51.06696 32.75467
#
# Poissons Ratio (x) = 0.19435 0.23138
# Poissons Ratio (y) = 0.20271 0.50538
# Poissons Ratio (z) = 0.37627 0.78793
#
# Static dielectric constant tensor:
#      x y z
#    x 3.463700 0.000000 0.000000 
#    y 0.000000 3.401890 0.000000 
#    z 0.000000 0.000000 3.316650 
# 
# 
# High freq. dielectric constant tensor:
#      x y z
#    x 1.718310 0.000000 0.000000 
#    y 0.000000 1.713050 0.000000 
#    z 0.000000 0.000000 1.702050 
# 
# From -- ./inp_files/4575.got.cif
#   From: 2010.03.12/outbox.cif.g09.slc.cpg/sg40_3_cif.got.tgz:4575.got - 2010.04.14 01:38:03.
