data_PCOD8183021
_publ_section_title
;
Structure prediction by ZEFSAII (Michael W. Deem and Ramdas Pophale) SiO2 
 PCOD8183021
Probable space group: A M A 2
;
_chemical_formula_sum "Si O2"
_cell_formula_units_Z 56
_cell_length_a 8.843282
_cell_length_b 21.001763
_cell_length_c 13.865742
_cell_angle_alpha 90.000000
_cell_angle_beta 90.000000
_cell_angle_gamma 90.000000
_cell_volume 2575.208176
_symmetry_space_group_name_H-M "A M A 2"
_symmetry_group_IT_number 40
_symmetry_cell_setting 'orthorhombic'
loop_
_space_group_symop_operation_xyz
x,y,z
-x,-y,z
1/2-x,y,z
1/2+x,-y,z
x,1/2+y,1/2+z
-x,1/2-y,1/2+z
1/2-x,1/2+y,1/2+z
1/2+x,1/2-y,1/2+z
loop_
_atom_site_type_symbol
_atom_site_label
_atom_site_fract_x
_atom_site_fract_y
_atom_site_fract_z
Si Si1 0.928421 0.644846 0.088210
Si Si2 0.422653 0.934716 0.149493
Si Si3 0.076314 0.890386 0.937459
Si Si4 0.428905 0.566981 0.248023
Si Si5 0.929059 0.755472 0.449227
Si Si6 0.085876 0.660298 0.780397
Si Si7 0.414372 0.559098 0.942606
O O1 0.750000 0.652279 0.099791
O O2 0.001907 0.628281 0.191869
O O3 0.993767 0.709298 0.040331
O O4 0.971987 0.585112 0.022783
O O5 0.250000 0.940271 0.180234
O O6 0.482215 0.868676 0.196614
O O7 0.500000 0.000000 0.185538
O O8 0.445241 0.929159 0.035528
O O9 0.250000 0.893182 0.901677
O O10 0.026172 0.817804 0.955622
O O11 0.968129 0.923355 0.860174
O O12 0.500000 0.500000 0.211782
O O13 0.250000 0.564391 0.233807
O O14 0.750000 0.767804 0.457837
O O15 0.985787 0.781525 0.343555
O O16 0.250000 0.680270 0.736256
O O17 0.114566 0.606177 0.857165
O O18 0.500000 0.500000 0.895781
O O19 0.250000 0.542383 0.988960
#
# Coordination Sequence:
#
# PCOD8183021 Si02
#       7
#     8   8   8   8   8   8   8
#     4  11  22  37  59  87 120 157 198 244 295 356
#     4  11  23  38  59  86 118 154 194 242 292 346
#     4  10  23  43  64  88 120 158 200 250 302 353
#     4  12  25  42  64  90 121 158 203 253 307 364
#     4   9  20  41  64  89 123 159 197 243 297 356
#     4   9  19  35  57  83 114 152 192 237 288 346
#     4  10  19  32  51  79 114 152 193 241 298 355
#
# _framework density 21.745816000000001
#
# number of rings (size 3 to 8) (size 9 to 14) (size 15 to 20)
#    0.000    1.714    0.000    5.571    0.000    8.000 
#    0.000    2.857    0.000    0.000    0.000    0.000 
#    0.000    0.000    0.000    0.000    0.000    0.000 
#
# Total GULP energy -347084.590012 kJ/mol
# GULP energy per Si atom -12395.878215 kJ/mol
# Density = 2.169632 g / cm^3
# Si number density = 21.745816 Si / 1000 Ang^3
#
#
#
# Elastic Constant Matrix: (Units=GPa)
#
#
# Indices 1 2 3 4 5 6 
#
# 1 118.3110 29.6582 29.7289 0.0000 0.0000 0.0000
# 2 29.6582 80.4216 2.2928 0.0000 0.0000 0.0000
# 3 29.7289 2.2928 67.9996 0.0000 0.0000 0.0000
# 4 0.0000 0.0000 0.0000 104.1832 0.0000 0.0000
# 5 0.0000 0.0000 0.0000 0.0000 32.4612 0.0000
# 6 0.0000 0.0000 0.0000 0.0000 0.0000 21.4546
#
#
#
# Elastic Compliance Matrix: (Units=1/GPa)
#
#
# Indices 1 2 3 4 5 6 
#
# 1 0.010516 -0.003751 -0.004471 0.000000 0.000000 0.000000
# 2 -0.003751 0.013784 0.001175 0.000000 0.000000 0.000000
# 3 -0.004471 0.001175 0.016621 0.000000 0.000000 0.000000
# 4 0.000000 0.000000 0.000000 0.009598 0.000000 0.000000
# 5 0.000000 0.000000 0.000000 0.000000 0.030806 0.000000
# 6 0.000000 0.000000 0.000000 0.000000 0.000000 0.046610
#
#
# Mechanical properties :
#
#
# Convention : Reuss Voigt Hill
#
# Bulk Modulus (GPa) = 37.27481 43.34356 40.30919
# Shear Modulus (GPa) = 33.11878 45.28994 39.20436
#
# Velocity S-wave (km/s) = 3.90679 4.56861 4.25060
# Velocity P-wave (km/s) = 6.12610 6.91410 6.53199
#
# Compressibility (1/GPa) = 0.02682777
#
# Stress axis : x y z
#
# Youngs Moduli (GPa) = 95.09326 72.54702 60.16462
#
# Poissons Ratio (x) = 0.27210 0.26900
# Poissons Ratio (y) = 0.35666 -0.07069
# Poissons Ratio (z) = 0.42517 -0.08524
#
# Static dielectric constant tensor:
#      x y z
#    x 3.838480 0.000000 0.000000 
#    y 0.000000 2.063880 0.000000 
#    z 0.000000 0.000000 4.065430 
# 
# 
# High freq. dielectric constant tensor:
#      x y z
#    x 1.850610 0.000000 0.000000 
#    y 0.000000 1.855400 0.000000 
#    z 0.000000 0.000000 1.851910 
# 
# From -- ./inp_files/15307.got.cif
#   From: 2010.03.12/outbox.cif.g09.slc.cpg/sg40_8_cif.got.tgz:15307.got - 2010.04.14 01:38:03.
