data_PCOD8183423
_publ_section_title
;
Structure prediction by ZEFSAII (Michael W. Deem and Ramdas Pophale) SiO2 
 PCOD8183423
Probable space group: A M A 2
;
_chemical_formula_sum "Si O2"
_cell_formula_units_Z 64
_cell_length_a 18.872348
_cell_length_b 9.362356
_cell_length_c 17.139625
_cell_angle_alpha 90.000000
_cell_angle_beta 90.000000
_cell_angle_gamma 90.000000
_cell_volume 3028.394180
_symmetry_space_group_name_H-M "A M A 2"
_symmetry_group_IT_number 40
_symmetry_cell_setting 'orthorhombic'
loop_
_space_group_symop_operation_xyz
x,y,z
-x,-y,z
1/2-x,y,z
1/2+x,-y,z
x,1/2+y,1/2+z
-x,1/2-y,1/2+z
1/2-x,1/2+y,1/2+z
1/2+x,1/2-y,1/2+z
loop_
_atom_site_type_symbol
_atom_site_label
_atom_site_fract_x
_atom_site_fract_y
_atom_site_fract_z
Si Si1 0.331637 0.999518 0.725830
Si Si2 0.829112 0.186117 0.455944
Si Si3 0.167941 0.498553 0.507047
Si Si4 0.074337 0.058586 0.439406
Si Si5 0.832710 0.710542 0.362429
Si Si6 0.071897 0.412806 0.652727
Si Si7 0.063594 0.099625 0.608261
Si Si8 0.671425 0.185595 0.274952
O O1 0.250000 0.974816 0.707802
O O2 0.357134 0.869967 0.782960
O O3 0.368797 0.010089 0.641261
O O4 0.347580 0.147196 0.769809
O O5 0.750000 0.158470 0.488184
O O6 0.853755 0.344281 0.477859
O O7 0.884687 0.069989 0.485356
O O8 0.832364 0.150235 0.364834
O O9 0.250000 0.492273 0.533769
O O10 0.155231 0.392951 0.435426
O O11 0.117455 0.460163 0.578352
O O12 0.062212 0.150174 0.517689
O O13 0.118464 0.148671 0.375372
O O14 0.000000 0.000000 0.402857
O O15 0.750000 0.756528 0.357533
O O16 0.120278 0.426152 0.730263
O O17 0.000000 0.500000 0.660913
O O18 0.053196 0.247012 0.652852
O O19 0.000000 0.000000 0.631771
O O20 0.750000 0.160797 0.240518
#
# Coordination Sequence:
#
# PCOD8183423 Si02
#       8
#     8   8   8   8   8   8   8   8
#     4   9  18  37  66  92 116 151 205 258 302 358
#     4  10  21  39  62  87 123 160 197 252 313 367
#     4  10  20  36  62  93 118 152 205 258 306 365
#     4  11  24  40  58  87 129 167 201 247 308 371
#     4  10  19  38  64  94 121 151 205 262 305 362
#     4  11  23  38  64  88 122 163 205 255 305 366
#     4  10  23  42  58  85 127 166 201 249 308 371
#     4   9  18  38  63  90 119 156 199 251 311 364
#
# _framework density 21.133313000000001
#
# number of rings (size 3 to 8) (size 9 to 14) (size 15 to 20)
#    0.000    2.000    2.500    0.750    3.500    2.000 
#    6.750    0.625    0.000    0.000    0.000    0.000 
#    0.000    0.000    0.000    0.000    0.000    0.000 
#
# Total GULP energy -396497.194593 kJ/mol
# GULP energy per Si atom -12390.537331 kJ/mol
# Density = 2.108521 g / cm^3
# Si number density = 21.133313 Si / 1000 Ang^3
#
#
#
# Elastic Constant Matrix: (Units=GPa)
#
#
# Indices 1 2 3 4 5 6 
#
# 1 112.2944 63.0545 37.6751 0.0000 0.0000 0.0000
# 2 63.0545 101.8497 25.2861 0.0000 0.0000 0.0000
# 3 37.6751 25.2861 65.7143 0.0000 0.0000 0.0000
# 4 0.0000 0.0000 0.0000 19.8277 0.0000 0.0000
# 5 0.0000 0.0000 0.0000 0.0000 10.1079 0.0000
# 6 0.0000 0.0000 0.0000 0.0000 0.0000 36.9688
#
#
#
# Elastic Compliance Matrix: (Units=1/GPa)
#
#
# Indices 1 2 3 4 5 6 
#
# 1 0.015361 -0.008097 -0.005691 0.000000 0.000000 0.000000
# 2 -0.008097 0.015123 -0.001177 0.000000 0.000000 0.000000
# 3 -0.005691 -0.001177 0.018933 0.000000 0.000000 0.000000
# 4 0.000000 0.000000 0.000000 0.050434 0.000000 0.000000
# 5 0.000000 0.000000 0.000000 0.000000 0.098933 0.000000
# 6 0.000000 0.000000 0.000000 0.000000 0.000000 0.027050
#
#
# Mechanical properties :
#
#
# Convention : Reuss Voigt Hill
#
# Bulk Modulus (GPa) = 51.31606 59.09885 55.20745
# Shear Modulus (GPa) = 19.06494 23.63705 21.35100
#
# Velocity S-wave (km/s) = 3.00680 3.34799 3.18197
# Velocity P-wave (km/s) = 6.03235 6.55521 6.29921
#
# Compressibility (1/GPa) = 0.01948708
#
# Stress axis : x y z
#
# Youngs Moduli (GPa) = 65.09938 66.12238 52.81734
#
# Poissons Ratio (x) = 0.53540 0.30059
# Poissons Ratio (y) = 0.52711 0.06217
# Poissons Ratio (z) = 0.37049 0.07784
#
# Static dielectric constant tensor:
#      x y z
#    x 3.902460 0.000000 0.000000 
#    y 0.000000 3.881320 0.000000 
#    z 0.000000 0.000000 3.755780 
# 
# 
# High freq. dielectric constant tensor:
#      x y z
#    x 1.823880 0.000000 0.000000 
#    y 0.000000 1.829830 0.000000 
#    z 0.000000 0.000000 1.824760 
# 
# From -- ./inp_files/21371.got.cif
#   From: 2010.03.12/outbox.cif.g09.slc.cpg/sg40_11_cif.got.tgz:21371.got - 2010.04.14 01:38:03.
