data_PCOD8183732
_publ_section_title
;
Structure prediction by ZEFSAII (Michael W. Deem and Ramdas Pophale) SiO2 
 PCOD8183732
Probable space group: A M A 2
;
_chemical_formula_sum "Si O2"
_cell_formula_units_Z 64
_cell_length_a 8.563856
_cell_length_b 23.127217
_cell_length_c 18.866149
_cell_angle_alpha 90.000000
_cell_angle_beta 90.000000
_cell_angle_gamma 90.000000
_cell_volume 3736.594683
_symmetry_space_group_name_H-M "A M A 2"
_symmetry_group_IT_number 40
_symmetry_cell_setting 'orthorhombic'
loop_
_space_group_symop_operation_xyz
x,y,z
-x,-y,z
1/2-x,y,z
1/2+x,-y,z
x,1/2+y,1/2+z
-x,1/2-y,1/2+z
1/2-x,1/2+y,1/2+z
1/2+x,1/2-y,1/2+z
loop_
_atom_site_type_symbol
_atom_site_label
_atom_site_fract_x
_atom_site_fract_y
_atom_site_fract_z
Si Si1 0.067238 0.562132 0.817570
Si Si2 0.571193 0.770369 0.816496
Si Si3 0.067474 0.379458 0.955272
Si Si4 0.931528 0.439350 0.090262
Si Si5 0.070273 0.171030 0.677005
Si Si6 0.930271 0.752848 0.460458
Si Si7 0.929570 0.156599 0.226658
Si Si8 0.930296 0.776925 0.102572
O O1 0.250000 0.558909 0.834746
O O2 0.000000 0.500000 0.797610
O O3 0.974719 0.586067 0.884886
O O4 0.036732 0.603147 0.750075
O O5 0.750000 0.774847 0.841048
O O6 0.527421 0.820569 0.759914
O O7 0.463687 0.777423 0.885207
O O8 0.537906 0.708831 0.780581
O O9 0.250000 0.364885 0.955300
O O10 0.974070 0.320011 0.958535
O O11 0.025188 0.419495 0.021384
O O12 0.750000 0.444722 0.070504
O O13 0.958014 0.395046 0.155144
O O14 0.000000 0.500000 0.116732
O O15 0.250000 0.190335 0.665304
O O16 0.965653 0.211554 0.627407
O O17 0.750000 0.747748 0.479265
O O18 0.025220 0.718098 0.520186
O O19 0.750000 0.137416 0.228192
O O20 0.973469 0.176136 0.147458
O O21 0.750000 0.790541 0.113272
#
# Coordination Sequence:
#
# PCOD8183732 Si02
#       8
#     8   8   8   8   8   8   8   8
#     4  12  24  38  55  76 104 142 183 221 261 309
#     4   9  18  33  53  75 101 133 170 212 262 313
#     4  12  23  36  51  73 104 141 182 221 258 306
#     4  11  22  36  53  74 103 141 180 219 260 306
#     4   9  19  35  53  72 101 136 173 215 262 309
#     4  12  22  33  51  77 107 140 174 212 263 317
#     4  10  20  36  55  76 105 137 173 218 264 310
#     4  11  21  33  53  77 104 136 174 215 261 314
#
# _framework density 17.127894000000001
#
# number of rings (size 3 to 8) (size 9 to 14) (size 15 to 20)
#    0.000    1.250    2.500    6.375    0.000    2.500 
#    0.000    0.000    0.000    0.000    0.000    0.875 
#    0.000    2.000    0.000    0.000    0.000    0.000 
#
# Total GULP energy -396953.188541 kJ/mol
# GULP energy per Si atom -12404.787142 kJ/mol
# Density = 1.708891 g / cm^3
# Si number density = 17.127894 Si / 1000 Ang^3
#
#
#
# Elastic Constant Matrix: (Units=GPa)
#
#
# Indices 1 2 3 4 5 6 
#
# 1 74.3338 13.2300 22.3175 0.0000 0.0000 0.0000
# 2 13.2300 74.1726 42.7795 0.0000 0.0000 0.0000
# 3 22.3175 42.7795 102.3169 0.0000 0.0000 0.0000
# 4 0.0000 0.0000 0.0000 14.4650 0.0000 0.0000
# 5 0.0000 0.0000 0.0000 0.0000 27.4372 0.0000
# 6 0.0000 0.0000 0.0000 0.0000 0.0000 23.3311
#
#
#
# Elastic Compliance Matrix: (Units=1/GPa)
#
#
# Indices 1 2 3 4 5 6 
#
# 1 0.014452 -0.001001 -0.002734 0.000000 0.000000 0.000000
# 2 -0.001001 0.017836 -0.007239 0.000000 0.000000 0.000000
# 3 -0.002734 -0.007239 0.013396 0.000000 0.000000 0.000000
# 4 0.000000 0.000000 0.000000 0.069132 0.000000 0.000000
# 5 0.000000 0.000000 0.000000 0.000000 0.036447 0.000000
# 6 0.000000 0.000000 0.000000 0.000000 0.000000 0.042861
#
#
# Mechanical properties :
#
#
# Convention : Reuss Voigt Hill
#
# Bulk Modulus (GPa) = 42.12894 45.27524 43.70209
# Shear Modulus (GPa) = 22.32303 24.54640 23.43471
#
# Velocity S-wave (km/s) = 3.61406 3.78977 3.70296
# Velocity P-wave (km/s) = 6.48578 6.75580 6.62217
#
# Compressibility (1/GPa) = 0.02373665
#
# Stress axis : x y z
#
# Youngs Moduli (GPa) = 69.19581 56.06730 74.64653
#
# Poissons Ratio (x) = 0.05613 0.20406
# Poissons Ratio (y) = 0.06927 0.54036
# Poissons Ratio (z) = 0.18916 0.40587
#
# Static dielectric constant tensor:
#      x y z
#    x 3.292760 0.000000 0.000000 
#    y 0.000000 3.072470 0.000000 
#    z 0.000000 0.000000 3.283750 
# 
# 
# High freq. dielectric constant tensor:
#      x y z
#    x 1.675120 0.000000 0.000000 
#    y 0.000000 1.631490 0.000000 
#    z 0.000000 0.000000 1.657480 
# 
# From -- ./inp_files/19619.got.cif
#   From: 2010.03.12/outbox.cif.g09.slc.cpg/sg40_10_cif.got.tgz:19619.got - 2010.04.14 01:38:03.
