data_PCOD8183993
_publ_section_title
;
Structure prediction by ZEFSAII (Michael W. Deem and Ramdas Pophale) SiO2 
 PCOD8183993
Probable space group: A M A 2
;
_chemical_formula_sum "Si O2"
_cell_formula_units_Z 56
_cell_length_a 19.020891
_cell_length_b 15.634244
_cell_length_c 9.517044
_cell_angle_alpha 90.000000
_cell_angle_beta 90.000000
_cell_angle_gamma 90.000000
_cell_volume 2830.152382
_symmetry_space_group_name_H-M "A M A 2"
_symmetry_group_IT_number 40
_symmetry_cell_setting 'orthorhombic'
loop_
_space_group_symop_operation_xyz
x,y,z
-x,-y,z
1/2-x,y,z
1/2+x,-y,z
x,1/2+y,1/2+z
-x,1/2-y,1/2+z
1/2-x,1/2+y,1/2+z
1/2+x,1/2-y,1/2+z
loop_
_atom_site_type_symbol
_atom_site_label
_atom_site_fract_x
_atom_site_fract_y
_atom_site_fract_z
Si Si1 0.830572 0.692355 0.990950
Si Si2 0.413570 0.794210 0.204817
Si Si3 0.546344 0.890977 0.624727
Si Si4 0.603670 0.564906 0.198483
Si Si5 0.168592 0.338427 0.440619
Si Si6 0.966994 0.410109 0.798389
Si Si7 0.830167 0.319631 0.740111
O O1 0.750000 0.680926 0.948937
O O2 0.874592 0.705201 0.851823
O O3 0.855291 0.606573 0.068269
O O4 0.841321 0.774523 0.090289
O O5 0.417040 0.698222 0.150322
O O6 0.490757 0.834017 0.222327
O O7 0.371358 0.846753 0.087779
O O8 0.474855 0.897172 0.714095
O O9 0.523863 0.903878 0.464417
O O10 0.601593 0.963389 0.672195
O O11 0.644031 0.583153 0.343097
O O12 0.250000 0.349521 0.472297
O O13 0.153286 0.248618 0.362810
O O14 0.884823 0.398622 0.755229
O O15 0.000000 0.500000 0.746576
O O16 0.750000 0.354092 0.753781
#
# Coordination Sequence:
#
# PCOD8183993 Si02
#       7
#     8   8   8   8   8   8   8
#     4  10  20  39  65  92 126 169 210 256 320 385
#     4  12  23  38  65  95 130 164 205 277 321 376
#     4  11  22  38  64  93 123 159 219 266 318 379
#     4  10  20  41  64  89 121 164 214 262 308 386
#     4  10  21  40  63  94 129 167 211 258 319 382
#     4  12  23  42  64  94 127 166 219 270 319 383
#     4   9  20  39  65  91 123 167 215 256 313 390
#
# _framework density 19.786919000000001
#
# number of rings (size 3 to 8) (size 9 to 14) (size 15 to 20)
#    0.000    1.429    4.286    3.429    0.000    0.000 
#    5.143    7.143    0.000    0.000    0.000    0.000 
#    0.000    0.000    0.000    0.000    0.000    0.000 
#
# Total GULP energy -347277.213832 kJ/mol
# GULP energy per Si atom -12402.757637 kJ/mol
# Density = 1.974188 g / cm^3
# Si number density = 19.786919 Si / 1000 Ang^3
#
#
#
# Elastic Constant Matrix: (Units=GPa)
#
#
# Indices 1 2 3 4 5 6 
#
# 1 121.2691 45.5231 36.1411 0.0000 0.0000 0.0000
# 2 45.5231 100.9763 22.1270 0.0000 0.0000 0.0000
# 3 36.1411 22.1270 96.3986 0.0000 0.0000 0.0000
# 4 0.0000 0.0000 0.0000 4.9233 0.0000 0.0000
# 5 0.0000 0.0000 0.0000 0.0000 7.9889 0.0000
# 6 0.0000 0.0000 0.0000 0.0000 0.0000 38.7796
#
#
#
# Elastic Compliance Matrix: (Units=1/GPa)
#
#
# Indices 1 2 3 4 5 6 
#
# 1 0.010722 -0.004162 -0.003064 0.000000 0.000000 0.000000
# 2 -0.004162 0.012044 -0.001204 0.000000 0.000000 0.000000
# 3 -0.003064 -0.001204 0.011799 0.000000 0.000000 0.000000
# 4 0.000000 0.000000 0.000000 0.203116 0.000000 0.000000
# 5 0.000000 0.000000 0.000000 0.000000 0.125173 0.000000
# 6 0.000000 0.000000 0.000000 0.000000 0.000000 0.025787
#
#
# Mechanical properties :
#
#
# Convention : Reuss Voigt Hill
#
# Bulk Modulus (GPa) = 56.48725 58.46962 57.47844
# Shear Modulus (GPa) = 12.15356 24.66189 18.40773
#
# Velocity S-wave (km/s) = 2.48104 3.53423 3.05339
# Velocity P-wave (km/s) = 6.06771 6.80207 6.44536
#
# Compressibility (1/GPa) = 0.01770311
#
# Stress axis : x y z
#
# Youngs Moduli (GPa) = 93.26761 83.03167 84.75419
#
# Poissons Ratio (x) = 0.34560 0.25972
# Poissons Ratio (y) = 0.38820 0.10204
# Poissons Ratio (z) = 0.28581 0.09997
#
# Static dielectric constant tensor:
#      x y z
#    x 3.736480 0.000000 0.000000 
#    y 0.000000 3.486980 0.000000 
#    z 0.000000 0.000000 3.644770 
# 
# 
# High freq. dielectric constant tensor:
#      x y z
#    x 1.781950 0.000000 0.000000 
#    y 0.000000 1.753870 0.000000 
#    z 0.000000 0.000000 1.771410 
# 
# From -- ./inp_files/8322.got.cif
#   From: 2010.03.12/outbox.cif.g09.slc.cpg/sg40_5_cif.got.tgz:8322.got - 2010.04.14 01:38:03.
