data_PCOD8183240
_publ_section_title
;
Structure prediction by ZEFSAII (Michael W. Deem and Ramdas Pophale) SiO2 
 PCOD8183240
Probable space group: A M A 2
;
_chemical_formula_sum "Si O2"
_cell_formula_units_Z 64
_cell_length_a 17.323829
_cell_length_b 12.154882
_cell_length_c 16.343353
_cell_angle_alpha 90.000000
_cell_angle_beta 90.000000
_cell_angle_gamma 90.000000
_cell_volume 3441.405088
_symmetry_space_group_name_H-M "A M A 2"
_symmetry_group_IT_number 40
_symmetry_cell_setting 'orthorhombic'
loop_
_space_group_symop_operation_xyz
x,y,z
-x,-y,z
1/2-x,y,z
1/2+x,-y,z
x,1/2+y,1/2+z
-x,1/2-y,1/2+z
1/2-x,1/2+y,1/2+z
1/2+x,1/2-y,1/2+z
loop_
_atom_site_type_symbol
_atom_site_label
_atom_site_fract_x
_atom_site_fract_y
_atom_site_fract_z
Si Si1 0.341244 0.128573 0.774730
Si Si2 0.841035 0.715906 0.178128
Si Si3 0.659241 0.458594 0.951875
Si Si4 0.659854 0.687878 0.891047
Si Si5 0.590281 0.486667 0.124835
Si Si6 0.340465 0.765838 0.863267
Si Si7 0.840040 0.857596 0.030905
Si Si8 0.589614 0.517455 0.413384
O O1 0.250000 0.128206 0.759260
O O2 0.371762 0.245839 0.811344
O O3 0.384171 0.105557 0.690111
O O4 0.359505 0.033959 0.840659
O O5 0.750000 0.706302 0.174700
O O6 0.872071 0.603136 0.142529
O O7 0.870326 0.734535 0.269911
O O8 0.866428 0.819813 0.121650
O O9 0.750000 0.472250 0.970015
O O10 0.626251 0.564976 0.902288
O O11 0.640506 0.353786 0.897292
O O12 0.615248 0.443200 0.036699
O O13 0.750000 0.678668 0.878021
O O14 0.640076 0.755542 0.972332
O O15 0.500000 0.500000 0.129569
O O16 0.250000 0.793832 0.869847
O O17 0.389516 0.853557 0.915694
O O18 0.750000 0.888569 0.027314
O O19 0.888312 0.963679 0.000986
O O20 0.500000 0.500000 0.394496
#
# Coordination Sequence:
#
# PCOD8183240 Si02
#       8
#     8   8   8   8   8   8   8   8
#     4  10  19  34  57  83 108 140 189 239 273 322
#     4  10  19  35  58  79 102 141 192 235 268 322
#     4  10  20  38  58  81 114 149 186 231 286 342
#     4   8  15  30  55  82 103 135 182 226 271 322
#     4  12  23  34  53  86 115 147 186 233 290 340
#     4  10  21  36  57  83 112 145 184 235 287 336
#     4   9  17  32  57  82 103 141 192 231 262 323
#     4  11  21  33  54  83 118 146 179 228 292 333
#
# _framework density 18.597055000000001
#
# number of rings (size 3 to 8) (size 9 to 14) (size 15 to 20)
#    0.000    2.000    2.500    3.375    0.000    1.000 
#    0.000    1.250    0.000    5.250    0.000    0.000 
#    0.000    0.000    0.000    0.000    0.000    0.000 
#
# Total GULP energy -396752.159123 kJ/mol
# GULP energy per Si atom -12398.504973 kJ/mol
# Density = 1.855473 g / cm^3
# Si number density = 18.597055 Si / 1000 Ang^3
#
#
#
# Elastic Constant Matrix: (Units=GPa)
#
#
# Indices 1 2 3 4 5 6 
#
# 1 29.2933 25.8054 18.8667 0.0000 0.0000 0.0000
# 2 25.8054 108.1521 52.1901 0.0000 0.0000 0.0000
# 3 18.8667 52.1901 96.5409 0.0000 0.0000 0.0000
# 4 0.0000 0.0000 0.0000 34.2776 0.0000 0.0000
# 5 0.0000 0.0000 0.0000 0.0000 18.4684 0.0000
# 6 0.0000 0.0000 0.0000 0.0000 0.0000 -21.9239
#
#
#
# Elastic Compliance Matrix: (Units=1/GPa)
#
#
# Indices 1 2 3 4 5 6 
#
# 1 0.044327 -0.008654 -0.003984 0.000000 0.000000 0.000000
# 2 -0.008654 0.014199 -0.005985 0.000000 0.000000 0.000000
# 3 -0.003984 -0.005985 0.014372 0.000000 0.000000 0.000000
# 4 0.000000 0.000000 0.000000 0.029174 0.000000 0.000000
# 5 0.000000 0.000000 0.000000 0.000000 0.054147 0.000000
# 6 0.000000 0.000000 0.000000 0.000000 0.000000 -0.045612
#
#
# Mechanical properties :
#
#
# Convention : Reuss Voigt Hill
#
# Bulk Modulus (GPa) = 28.04863 47.52340 37.78601
# Shear Modulus (GPa) = 31.30143 15.30601 23.30372
#
# Velocity S-wave (km/s) = 4.10706 2.87197 3.54374
# Velocity P-wave (km/s) = 6.13234 6.05040 6.09151
#
# Compressibility (1/GPa) = 0.03565237
#
# Stress axis : x y z
#
# Youngs Moduli (GPa) = 22.55954 70.42679 69.57779
#
# Poissons Ratio (x) = 0.60946 0.27723
# Poissons Ratio (y) = 0.19523 0.41641
# Poissons Ratio (z) = 0.08989 0.42150
#
# Static dielectric constant tensor:
#      x y z
#    x 2.977190 0.000000 0.000000 
#    y 0.000000 3.640110 0.000000 
#    z 0.000000 0.000000 3.629650 
# 
# 
# High freq. dielectric constant tensor:
#      x y z
#    x 1.700750 0.000000 0.000000 
#    y 0.000000 1.718660 0.000000 
#    z 0.000000 0.000000 1.717040 
# 
# From -- ./inp_files/20778.got.cif
#   From: 2010.03.12/outbox.cif.g09.slc.cpg/sg40_11_cif.got.tgz:20778.got - 2010.04.14 01:38:03.
