data_PCOD8183502
_publ_section_title
;
Structure prediction by ZEFSAII (Michael W. Deem and Ramdas Pophale) SiO2 
 PCOD8183502
Probable space group: A M A 2
;
_chemical_formula_sum "Si O2"
_cell_formula_units_Z 64
_cell_length_a 8.613566
_cell_length_b 30.013974
_cell_length_c 14.226528
_cell_angle_alpha 90.000000
_cell_angle_beta 90.000000
_cell_angle_gamma 90.000000
_cell_volume 3677.946526
_symmetry_space_group_name_H-M "A M A 2"
_symmetry_group_IT_number 40
_symmetry_cell_setting 'orthorhombic'
loop_
_space_group_symop_operation_xyz
x,y,z
-x,-y,z
1/2-x,y,z
1/2+x,-y,z
x,1/2+y,1/2+z
-x,1/2-y,1/2+z
1/2-x,1/2+y,1/2+z
1/2+x,1/2-y,1/2+z
loop_
_atom_site_type_symbol
_atom_site_label
_atom_site_fract_x
_atom_site_fract_y
_atom_site_fract_z
Si Si1 0.432844 0.546924 0.714870
Si Si2 0.928634 0.815475 0.308003
Si Si3 0.930196 0.218244 0.596719
Si Si4 0.431009 0.364995 0.972048
Si Si5 0.928799 0.775877 0.798205
Si Si6 0.928360 0.634776 0.643109
Si Si7 0.067650 0.046856 0.433366
Si Si8 0.927304 0.700294 0.482545
O O1 0.500000 0.500000 0.679686
O O2 0.250000 0.548351 0.698873
O O3 0.512336 0.584333 0.649980
O O4 0.475848 0.554497 0.823918
O O5 0.750000 0.801033 0.313855
O O6 0.966848 0.854297 0.380552
O O7 0.038478 0.774146 0.333788
O O8 0.964173 0.832917 0.204477
O O9 0.750000 0.229393 0.585029
O O10 0.972078 0.169984 0.553727
O O11 0.970729 0.214292 0.706240
O O12 0.022525 0.257592 0.545838
O O13 0.250000 0.364183 0.947308
O O14 0.485831 0.415045 0.997359
O O15 0.750000 0.782737 0.772961
O O16 0.975449 0.806512 0.886697
O O17 0.750000 0.637669 0.677173
O O18 0.945733 0.653671 0.537777
O O19 0.250000 0.047573 0.450452
O O20 0.000000 0.000000 0.468431
O O21 0.750000 0.709136 0.454692
#
# Coordination Sequence:
#
# PCOD8183502 Si02
#       8
#     8   8   8   8   8   8   8   8
#     4  10  20  33  51  76 107 142 177 217 264 315
#     4  12  22  32  51  75 106 143 181 222 265 313
#     4  11  23  37  55  78 107 142 182 223 268 319
#     4  11  22  35  53  77 107 142 180 220 266 319
#     4  12  24  38  54  75 106 143 184 228 270 311
#     4  11  22  35  53  77 107 142 180 220 266 319
#     4  10  20  33  51  76 107 142 177 217 264 315
#     4  11  23  37  55  78 107 142 182 223 268 319
#
# _framework density 17.401014
#
# number of rings (size 3 to 8) (size 9 to 14) (size 15 to 20)
#    0.000    1.000    3.750    4.500    0.000    4.000 
#    0.000    0.000    0.000    0.000    0.000    0.875 
#    0.000    0.000    0.000    0.000    0.000    0.000 
#
# Total GULP energy -396895.791055 kJ/mol
# GULP energy per Si atom -12402.993470 kJ/mol
# Density = 1.736141 g / cm^3
# Si number density = 17.401014 Si / 1000 Ang^3
#
#
#
# Elastic Constant Matrix: (Units=GPa)
#
#
# Indices 1 2 3 4 5 6 
#
# 1 78.3831 31.2556 14.3923 0.0000 0.0000 0.0000
# 2 31.2556 103.5593 19.6857 0.0000 0.0000 0.0000
# 3 14.3923 19.6857 55.4604 0.0000 0.0000 0.0000
# 4 0.0000 0.0000 0.0000 22.5387 0.0000 0.0000
# 5 0.0000 0.0000 0.0000 0.0000 21.9571 0.0000
# 6 0.0000 0.0000 0.0000 0.0000 0.0000 31.1138
#
#
#
# Elastic Compliance Matrix: (Units=1/GPa)
#
#
# Indices 1 2 3 4 5 6 
#
# 1 0.014800 -0.004007 -0.002418 0.000000 0.000000 0.000000
# 2 -0.004007 0.011440 -0.003021 0.000000 0.000000 0.000000
# 3 -0.002418 -0.003021 0.019731 0.000000 0.000000 0.000000
# 4 0.000000 0.000000 0.000000 0.044368 0.000000 0.000000
# 5 0.000000 0.000000 0.000000 0.000000 0.045543 0.000000
# 6 0.000000 0.000000 0.000000 0.000000 0.000000 0.032140
#
#
# Mechanical properties :
#
#
# Convention : Reuss Voigt Hill
#
# Bulk Modulus (GPa) = 36.93026 40.89668 38.91347
# Shear Modulus (GPa) = 25.51802 26.59322 26.05562
#
# Velocity S-wave (km/s) = 3.83360 3.91353 3.87377
# Velocity P-wave (km/s) = 6.39253 6.63133 6.51302
#
# Compressibility (1/GPa) = 0.02707807
#
# Stress axis : x y z
#
# Youngs Moduli (GPa) = 67.56884 87.41336 50.68257
#
# Poissons Ratio (x) = 0.35027 0.12257
# Poissons Ratio (y) = 0.27075 0.15310
# Poissons Ratio (z) = 0.16340 0.26405
#
# Static dielectric constant tensor:
#      x y z
#    x 3.330350 0.000000 0.000000 
#    y 0.000000 3.325530 0.000000 
#    z 0.000000 0.000000 3.047610 
# 
# 
# High freq. dielectric constant tensor:
#      x y z
#    x 1.691820 0.000000 0.000000 
#    y 0.000000 1.665740 0.000000 
#    z 0.000000 0.000000 1.639310 
# 
# From -- ./inp_files/10548.got.cif
#   From: 2010.03.12/outbox.cif.g09.slc.cpg/sg40_6_cif.got.tgz:10548.got - 2010.04.14 01:38:03.
