data_PCOD8183484
_publ_section_title
;
Structure prediction by ZEFSAII (Michael W. Deem and Ramdas Pophale) SiO2 
 PCOD8183484
Probable space group: A M A 2
;
_chemical_formula_sum "Si O2"
_cell_formula_units_Z 48
_cell_length_a 8.818124
_cell_length_b 13.675216
_cell_length_c 23.440368
_cell_angle_alpha 90.000000
_cell_angle_beta 90.000000
_cell_angle_gamma 90.000000
_cell_volume 2826.668127
_symmetry_space_group_name_H-M "A M A 2"
_symmetry_group_IT_number 40
_symmetry_cell_setting 'orthorhombic'
loop_
_space_group_symop_operation_xyz
x,y,z
-x,-y,z
1/2-x,y,z
1/2+x,-y,z
x,1/2+y,1/2+z
-x,1/2-y,1/2+z
1/2-x,1/2+y,1/2+z
1/2+x,1/2-y,1/2+z
loop_
_atom_site_type_symbol
_atom_site_label
_atom_site_fract_x
_atom_site_fract_y
_atom_site_fract_z
Si Si1 0.928044 0.896193 0.715320
Si Si2 0.074010 0.213242 0.266349
Si Si3 0.424384 0.707358 0.098983
Si Si4 0.426959 0.399440 0.665925
Si Si5 0.426461 0.601865 0.880102
Si Si6 0.071243 0.395927 0.997762
O O1 0.750000 0.900507 0.725394
O O2 0.967310 0.864341 0.650972
O O3 0.996486 0.818318 0.759345
O O4 0.000000 0.000000 0.728913
O O5 0.250000 0.221274 0.250805
O O6 0.047536 0.181890 0.331431
O O7 0.000533 0.132318 0.225501
O O8 0.250000 0.692833 0.081319
O O9 0.456820 0.818691 0.117351
O O10 0.530488 0.683375 0.045670
O O11 0.500000 0.500000 0.644169
O O12 0.250000 0.413689 0.677181
O O13 0.500000 0.500000 0.860489
O O14 0.250000 0.583711 0.892352
O O15 0.505323 0.641150 0.937572
O O16 0.250000 0.407289 0.993273
O O17 0.000000 0.500000 0.014921
#
# Coordination Sequence:
#
# PCOD8183484 Si02
#       6
#     8   8   8   8   8   8
#     4  10  20  33  51  74 101 132 164 201 244 290
#     4  10  20  33  51  74 100 131 165 202 244 289
#     4   9  19  34  50  71  99 130 162 198 241 287
#     4  10  20  33  51  74 101 132 163 200 244 290
#     4  10  20  33  50  72  99 130 162 199 242 288
#     4  11  21  32  50  73  98 129 162 200 243 288
#
# _framework density 16.981124000000001
#
# number of rings (size 3 to 8) (size 9 to 14) (size 15 to 20)
#    0.000    2.000    0.000    6.500    0.000    9.333 
#    0.000    0.000    0.000    1.000    0.000    4.667 
#    0.000    0.000    0.000    0.000    0.000    0.000 
#
# Total GULP energy -297687.960026 kJ/mol
# GULP energy per Si atom -12403.665001 kJ/mol
# Density = 1.694247 g / cm^3
# Si number density = 16.981124 Si / 1000 Ang^3
#
#
#
# Elastic Constant Matrix: (Units=GPa)
#
#
# Indices 1 2 3 4 5 6 
#
# 1 136.1970 62.2928 67.0905 0.0000 0.0000 0.0000
# 2 62.2928 118.7147 58.0882 0.0000 0.0000 0.0000
# 3 67.0905 58.0882 100.4554 0.0000 0.0000 0.0000
# 4 0.0000 0.0000 0.0000 22.2363 0.0000 0.0000
# 5 0.0000 0.0000 0.0000 0.0000 29.2207 0.0000
# 6 0.0000 0.0000 0.0000 0.0000 0.0000 32.7998
#
#
#
# Elastic Compliance Matrix: (Units=1/GPa)
#
#
# Indices 1 2 3 4 5 6 
#
# 1 0.011778 -0.003251 -0.005986 0.000000 0.000000 0.000000
# 2 -0.003251 0.012645 -0.005141 0.000000 0.000000 0.000000
# 3 -0.005986 -0.005141 0.016925 0.000000 0.000000 0.000000
# 4 0.000000 0.000000 0.000000 0.044971 0.000000 0.000000
# 5 0.000000 0.000000 0.000000 0.000000 0.034222 0.000000
# 6 0.000000 0.000000 0.000000 0.000000 0.000000 0.030488
#
#
# Mechanical properties :
#
#
# Convention : Reuss Voigt Hill
#
# Bulk Modulus (GPa) = 79.41359 81.14557 80.27958
# Shear Modulus (GPa) = 27.17642 28.04439 27.61041
#
# Velocity S-wave (km/s) = 4.00483 4.06828 4.03668
# Velocity P-wave (km/s) = 8.26149 8.36405 8.31293
#
# Compressibility (1/GPa) = 0.01259230
#
# Stress axis : x y z
#
# Youngs Moduli (GPa) = 84.90350 79.08352 59.08391
#
# Poissons Ratio (x) = 0.25712 0.35368
# Poissons Ratio (y) = 0.27604 0.30372
# Poissons Ratio (z) = 0.50824 0.40653
#
# Static dielectric constant tensor:
#      x y z
#    x 3.326700 0.000000 0.000000 
#    y 0.000000 3.136140 0.000000 
#    z 0.000000 0.000000 3.063970 
# 
# 
# High freq. dielectric constant tensor:
#      x y z
#    x 1.674870 0.000000 0.000000 
#    y 0.000000 1.645810 0.000000 
#    z 0.000000 0.000000 1.642940 
# 
# From -- ./inp_files/21990.got.cif
#   From: 2010.03.12/outbox.cif.g09.slc.cpg/sg40_11_cif.got.tgz:21990.got - 2010.04.14 01:38:03.
