data_PCOD8183100
_publ_section_title
;
Structure prediction by ZEFSAII (Michael W. Deem and Ramdas Pophale) SiO2 
 PCOD8183100
Probable space group: A M A 2
;
_chemical_formula_sum "Si O2"
_cell_formula_units_Z 64
_cell_length_a 8.597177
_cell_length_b 18.548619
_cell_length_c 21.547029
_cell_angle_alpha 90.000000
_cell_angle_beta 90.000000
_cell_angle_gamma 90.000000
_cell_volume 3436.013369
_symmetry_space_group_name_H-M "A M A 2"
_symmetry_group_IT_number 40
_symmetry_cell_setting 'orthorhombic'
loop_
_space_group_symop_operation_xyz
x,y,z
-x,-y,z
1/2-x,y,z
1/2+x,-y,z
x,1/2+y,1/2+z
-x,1/2-y,1/2+z
1/2-x,1/2+y,1/2+z
1/2+x,1/2-y,1/2+z
loop_
_atom_site_type_symbol
_atom_site_label
_atom_site_fract_x
_atom_site_fract_y
_atom_site_fract_z
Si Si1 0.573150 0.324747 0.612440
Si Si2 0.434006 0.571294 0.839610
Si Si3 0.070685 0.423504 0.512353
Si Si4 0.567343 0.572320 0.704849
Si Si5 0.568369 0.924194 0.753382
Si Si6 0.931871 0.220209 0.712283
Si Si7 0.067578 0.282581 0.836248
Si Si8 0.929156 0.869930 0.888373
O O1 0.750000 0.330881 0.590382
O O2 0.473295 0.355158 0.555532
O O3 0.540033 0.367634 0.675169
O O4 0.534120 0.245088 0.640304
O O5 0.500000 0.500000 0.876759
O O6 0.250000 0.564180 0.828885
O O7 0.536912 0.571830 0.777591
O O8 0.476152 0.649667 0.868290
O O9 0.250000 0.435755 0.519147
O O10 0.000000 0.500000 0.533553
O O11 0.031630 0.404754 0.441823
O O12 0.500000 0.500000 0.673989
O O13 0.750000 0.582230 0.690109
O O14 0.750000 0.919883 0.739148
O O15 0.484021 0.862493 0.714057
O O16 0.534216 0.913906 0.826146
O O17 0.500000 0.000000 0.731121
O O18 0.750000 0.227759 0.727558
O O19 0.021985 0.267383 0.764543
O O20 0.250000 0.298553 0.837373
O O21 0.025577 0.213601 0.878386
O O22 0.750000 0.877221 0.907722
#
# Coordination Sequence:
#
# PCOD8183100 Si02
#       8
#     8   8   8   8   8   8   8   8
#     4  11  22  36  52  72 102 138 177 219 262 311
#     4  11  20  30  45  69 101 136 173 212 257 310
#     4  12  25  39  56  77 105 143 185 227 265 310
#     4  11  20  30  45  65  95 132 172 211 251 301
#     4  10  20  34  55  81 110 140 173 216 268 320
#     4  10  20  33  52  76 104 137 174 215 264 321
#     4  10  19  33  53  76 104 137 174 220 270 320
#     4   9  20  37  56  78 105 139 178 222 269 315
#
# _framework density 18.626237
#
# number of rings (size 3 to 8) (size 9 to 14) (size 15 to 20)
#    0.000    1.500    1.250    7.125    0.000    5.500 
#    0.000    0.000    0.000    0.000    0.000    0.875 
#    0.000    0.000    0.000    0.000    0.000    0.125 
#
# Total GULP energy -396564.576821 kJ/mol
# GULP energy per Si atom -12392.643026 kJ/mol
# Density = 1.858384 g / cm^3
# Si number density = 18.626237 Si / 1000 Ang^3
#
#
#
# Elastic Constant Matrix: (Units=GPa)
#
#
# Indices 1 2 3 4 5 6 
#
# 1 95.4980 40.7772 27.1045 0.0000 0.0000 0.0000
# 2 40.7772 118.2449 20.6749 0.0000 0.0000 0.0000
# 3 27.1045 20.6749 52.0145 0.0000 0.0000 0.0000
# 4 0.0000 0.0000 0.0000 19.7920 0.0000 0.0000
# 5 0.0000 0.0000 0.0000 0.0000 23.1012 0.0000
# 6 0.0000 0.0000 0.0000 0.0000 0.0000 30.9276
#
#
#
# Elastic Compliance Matrix: (Units=1/GPa)
#
#
# Indices 1 2 3 4 5 6 
#
# 1 0.013663 -0.003726 -0.005639 0.000000 0.000000 0.000000
# 2 -0.003726 0.010105 -0.002075 0.000000 0.000000 0.000000
# 3 -0.005639 -0.002075 0.022988 0.000000 0.000000 0.000000
# 4 0.000000 0.000000 0.000000 0.050526 0.000000 0.000000
# 5 0.000000 0.000000 0.000000 0.000000 0.043288 0.000000
# 6 0.000000 0.000000 0.000000 0.000000 0.000000 0.032334
#
#
# Mechanical properties :
#
#
# Convention : Reuss Voigt Hill
#
# Bulk Modulus (GPa) = 41.88115 49.20785 45.54450
# Shear Modulus (GPa) = 24.54104 26.57754 25.55929
#
# Velocity S-wave (km/s) = 3.63375 3.78151 3.70837
# Velocity P-wave (km/s) = 6.33556 6.74851 6.54529
#
# Compressibility (1/GPa) = 0.02387709
#
# Stress axis : x y z
#
# Youngs Moduli (GPa) = 73.19215 98.96425 43.50011
#
# Poissons Ratio (x) = 0.36871 0.24528
# Poissons Ratio (y) = 0.27269 0.09026
# Poissons Ratio (z) = 0.41270 0.20535
#
# Static dielectric constant tensor:
#      x y z
#    x 3.460260 0.000000 0.000000 
#    y 0.000000 4.082660 0.000000 
#    z 0.000000 0.000000 3.019170 
# 
# 
# High freq. dielectric constant tensor:
#      x y z
#    x 1.736860 0.000000 0.000000 
#    y 0.000000 1.738110 0.000000 
#    z 0.000000 0.000000 1.666350 
# 
# From -- ./inp_files/22425.got.cif
#   From: 2010.03.12/outbox.cif.g09.slc.cpg/sg40_12_cif.got.tgz:22425.got - 2010.04.14 01:38:03.
