data_PCOD8183208
_publ_section_title
;
Structure prediction by ZEFSAII (Michael W. Deem and Ramdas Pophale) SiO2 
 PCOD8183208
Probable space group: A M A 2
;
_chemical_formula_sum "Si O2"
_cell_formula_units_Z 48
_cell_length_a 15.371482
_cell_length_b 18.177143
_cell_length_c 8.924040
_cell_angle_alpha 90.000000
_cell_angle_beta 90.000000
_cell_angle_gamma 90.000000
_cell_volume 2493.462683
_symmetry_space_group_name_H-M "A M A 2"
_symmetry_group_IT_number 40
_symmetry_cell_setting 'orthorhombic'
loop_
_space_group_symop_operation_xyz
x,y,z
-x,-y,z
1/2-x,y,z
1/2+x,-y,z
x,1/2+y,1/2+z
-x,1/2-y,1/2+z
1/2-x,1/2+y,1/2+z
1/2+x,1/2-y,1/2+z
loop_
_atom_site_type_symbol
_atom_site_label
_atom_site_fract_x
_atom_site_fract_y
_atom_site_fract_z
Si Si1 0.850383 0.088167 0.434960
Si Si2 0.344655 0.583090 0.435724
Si Si3 0.413020 0.456440 0.618795
Si Si4 0.491139 0.829279 0.935139
Si Si5 0.499678 0.676290 0.083180
Si Si6 0.849690 0.436530 0.096579
O O1 0.750000 0.110576 0.462666
O O2 0.868005 0.081849 0.259063
O O3 0.912686 0.150882 0.500516
O O4 0.873246 0.011411 0.513253
O O5 0.250000 0.619788 0.442773
O O6 0.347231 0.515807 0.550983
O O7 0.410114 0.648489 0.474641
O O8 0.364375 0.549519 0.272246
O O9 0.500000 0.500000 0.666084
O O10 0.429207 0.394416 0.493174
O O11 0.478879 0.818999 0.758428
O O12 0.469994 0.755255 0.023244
O O13 0.417912 0.624588 0.041670
O O14 0.750000 0.411783 0.061475
#
# Coordination Sequence:
#
# PCOD8183208 Si02
#       6
#     8   8   8   8   8   8
#     4  11  22  35  56  83 110 143 184 228 273 323
#     4   9  18  35  58  81 107 138 178 226 274 330
#     4  10  19  34  55  81 108 141 181 226 275 324
#     4  10  22  36  56  80 110 149 184 220 276 331
#     4  11  21  38  56  79 114 149 182 226 274 327
#     4   9  19  36  58  82 106 140 182 224 275 329
#
# _framework density 19.250339
#
# number of rings (size 3 to 8) (size 9 to 14) (size 15 to 20)
#    0.000    2.000    0.000    4.000    0.000    4.667 
#    0.000    6.667    0.000    0.000    0.000    0.000 
#    0.000    0.000    0.000    0.000    0.000    0.000 
#
# Total GULP energy -297639.145570 kJ/mol
# GULP energy per Si atom -12401.631065 kJ/mol
# Density = 1.920652 g / cm^3
# Si number density = 19.250339 Si / 1000 Ang^3
#
#
#
# Elastic Constant Matrix: (Units=GPa)
#
#
# Indices 1 2 3 4 5 6 
#
# 1 71.6150 18.2408 10.1576 0.0000 0.0000 0.0000
# 2 18.2408 64.0137 15.7212 0.0000 0.0000 0.0000
# 3 10.1576 15.7212 74.1962 0.0000 0.0000 0.0000
# 4 0.0000 0.0000 0.0000 35.6174 0.0000 0.0000
# 5 0.0000 0.0000 0.0000 0.0000 27.0015 0.0000
# 6 0.0000 0.0000 0.0000 0.0000 0.0000 20.7480
#
#
#
# Elastic Compliance Matrix: (Units=1/GPa)
#
#
# Indices 1 2 3 4 5 6 
#
# 1 0.015161 -0.004020 -0.001224 0.000000 0.000000 0.000000
# 2 -0.004020 0.017545 -0.003167 0.000000 0.000000 0.000000
# 3 -0.001224 -0.003167 0.014316 0.000000 0.000000 0.000000
# 4 0.000000 0.000000 0.000000 0.028076 0.000000 0.000000
# 5 0.000000 0.000000 0.000000 0.000000 0.037035 0.000000
# 6 0.000000 0.000000 0.000000 0.000000 0.000000 0.048197
#
#
# Mechanical properties :
#
#
# Convention : Reuss Voigt Hill
#
# Bulk Modulus (GPa) = 33.11160 33.11824 33.11492
# Shear Modulus (GPa) = 26.70670 27.72043 27.21356
#
# Velocity S-wave (km/s) = 3.72874 3.79885 3.76395
# Velocity P-wave (km/s) = 5.98129 6.04011 6.01077
#
# Compressibility (1/GPa) = 0.03020090
#
# Stress axis : x y z
#
# Youngs Moduli (GPa) = 65.95896 56.99674 69.84986
#
# Poissons Ratio (x) = 0.22910 0.08549
# Poissons Ratio (y) = 0.26513 0.22123
# Poissons Ratio (z) = 0.08073 0.18052
#
# Static dielectric constant tensor:
#      x y z
#    x 3.579920 0.000000 0.000000 
#    y 0.000000 3.342770 0.000000 
#    z 0.000000 0.000000 3.534490 
# 
# 
# High freq. dielectric constant tensor:
#      x y z
#    x 1.752730 0.000000 0.000000 
#    y 0.000000 1.737530 0.000000 
#    z 0.000000 0.000000 1.756240 
# 
# From -- ./inp_files/6418.got.cif
#   From: 2010.03.12/outbox.cif.g09.slc.cpg/sg40_4_cif.got.tgz:6418.got - 2010.04.14 01:38:03.
