data_PCOD8183407
_publ_section_title
;
Structure prediction by ZEFSAII (Michael W. Deem and Ramdas Pophale) SiO2 
 PCOD8183407
Probable space group: A M A 2
;
_chemical_formula_sum "Si O2"
_cell_formula_units_Z 64
_cell_length_a 8.579674
_cell_length_b 15.470566
_cell_length_c 23.675826
_cell_angle_alpha 90.000000
_cell_angle_beta 90.000000
_cell_angle_gamma 90.000000
_cell_volume 3142.549512
_symmetry_space_group_name_H-M "A M A 2"
_symmetry_group_IT_number 40
_symmetry_cell_setting 'orthorhombic'
loop_
_space_group_symop_operation_xyz
x,y,z
-x,-y,z
1/2-x,y,z
1/2+x,-y,z
x,1/2+y,1/2+z
-x,1/2-y,1/2+z
1/2-x,1/2+y,1/2+z
1/2+x,1/2-y,1/2+z
loop_
_atom_site_type_symbol
_atom_site_label
_atom_site_fract_x
_atom_site_fract_y
_atom_site_fract_z
Si Si1 0.433901 0.591997 0.626370
Si Si2 0.066006 0.843467 0.750137
Si Si3 0.067597 0.246076 0.561896
Si Si4 0.934210 0.749525 0.938885
Si Si5 0.564948 0.591822 0.371194
Si Si6 0.566402 0.350752 0.750915
Si Si7 0.432776 0.911555 0.364476
Si Si8 0.933755 0.090373 0.632058
O O1 0.500000 0.500000 0.606571
O O2 0.250000 0.595932 0.617058
O O3 0.511914 0.663960 0.587726
O O4 0.479547 0.607289 0.691383
O O5 0.250000 0.836612 0.744141
O O6 0.016328 0.895303 0.805855
O O7 0.998551 0.746494 0.752736
O O8 0.997667 0.891238 0.694893
O O9 0.250000 0.235309 0.571577
O O10 0.028769 0.244389 0.496300
O O11 0.980188 0.166699 0.590592
O O12 0.750000 0.746021 0.950422
O O13 0.993244 0.670023 0.900333
O O14 0.977594 0.837778 0.908191
O O15 0.500000 0.500000 0.391482
O O16 0.750000 0.598529 0.379960
O O17 0.750000 0.352208 0.761427
O O18 0.485313 0.405348 0.799678
O O19 0.250000 0.916446 0.367282
O O20 0.500000 0.000000 0.390938
O O21 0.750000 0.084078 0.633412
O O22 0.000000 0.000000 0.609246
#
# Coordination Sequence:
#
# PCOD8183407 Si02
#       8
#     8   8   8   8   8   8   8   8
#     4  11  23  41  65  94 129 166 206 255 309 370
#     4   9  18  35  62  93 127 166 202 245 305 366
#     4  12  26  44  66  92 121 163 212 261 315 369
#     4  11  25  45  65  89 121 161 210 262 311 365
#     4  11  22  39  64  94 128 164 205 252 305 368
#     4  10  19  37  64  93 127 166 203 247 305 367
#     4  11  24  40  63  94 126 162 204 253 307 367
#     4  11  22  41  65  95 130 167 208 254 309 368
#
# _framework density 20.365628999999998
#
# number of rings (size 3 to 8) (size 9 to 14) (size 15 to 20)
#    0.000    1.250    2.500    3.750    0.000    4.500 
#    0.000    5.625    0.000    0.000    0.000    0.000 
#    0.000    0.000    0.000    0.000    0.000    0.000 
#
# Total GULP energy -396963.893732 kJ/mol
# GULP energy per Si atom -12405.121679 kJ/mol
# Density = 2.031928 g / cm^3
# Si number density = 20.365629 Si / 1000 Ang^3
#
#
#
# Elastic Constant Matrix: (Units=GPa)
#
#
# Indices 1 2 3 4 5 6 
#
# 1 59.8092 24.1903 20.6889 0.0000 0.0000 0.0000
# 2 24.1903 166.6974 40.4052 0.0000 0.0000 0.0000
# 3 20.6889 40.4052 104.0414 0.0000 0.0000 0.0000
# 4 0.0000 0.0000 0.0000 4.5775 0.0000 0.0000
# 5 0.0000 0.0000 0.0000 0.0000 29.6431 0.0000
# 6 0.0000 0.0000 0.0000 0.0000 0.0000 -0.6560
#
#
#
# Elastic Compliance Matrix: (Units=1/GPa)
#
#
# Indices 1 2 3 4 5 6 
#
# 1 0.018530 -0.001982 -0.002915 0.000000 0.000000 0.000000
# 2 -0.001982 0.006834 -0.002260 0.000000 0.000000 0.000000
# 3 -0.002915 -0.002260 0.011069 0.000000 0.000000 0.000000
# 4 0.000000 0.000000 0.000000 0.218461 0.000000 0.000000
# 5 0.000000 0.000000 0.000000 0.000000 0.033735 0.000000
# 6 0.000000 0.000000 0.000000 0.000000 0.000000 -1.524453
#
#
# Mechanical properties :
#
#
# Convention : Reuss Voigt Hill
#
# Bulk Modulus (GPa) = 45.21067 55.67964 50.44516
# Shear Modulus (GPa) = -4.11815 23.06383 9.47284
#
# Velocity S-wave (km/s) = -1.42355 3.36890 2.15905
# Velocity P-wave (km/s) = 4.42105 6.52165 5.57125
#
# Compressibility (1/GPa) = 0.02211867
#
# Stress axis : x y z
#
# Youngs Moduli (GPa) = 53.96672 146.31953 90.34360
#
# Poissons Ratio (x) = 0.29007 0.26334
# Poissons Ratio (y) = 0.10699 0.20417
# Poissons Ratio (z) = 0.15730 0.33068
#
# Static dielectric constant tensor:
#      x y z
#    x 3.566260 0.000000 0.000000 
#    y 0.000000 3.654740 0.000000 
#    z 0.000000 0.000000 3.778630 
# 
# 
# High freq. dielectric constant tensor:
#      x y z
#    x 1.791040 0.000000 0.000000 
#    y 0.000000 1.814950 0.000000 
#    z 0.000000 0.000000 1.794860 
# 
# From -- ./inp_files/24225.got.cif
#   From: 2010.03.12/outbox.cif.g09.slc.cpg/sg40_13_cif.got.tgz:24225.got - 2010.04.14 01:38:03.
