data_PCOD8183768
_publ_section_title
;
Structure prediction by ZEFSAII (Michael W. Deem and Ramdas Pophale) SiO2 
 PCOD8183768
Probable space group: A M A 2
;
_chemical_formula_sum "Si O2"
_cell_formula_units_Z 64
_cell_length_a 14.649477
_cell_length_b 22.206225
_cell_length_c 9.421403
_cell_angle_alpha 90.000000
_cell_angle_beta 90.000000
_cell_angle_gamma 90.000000
_cell_volume 3064.872675
_symmetry_space_group_name_H-M "A M A 2"
_symmetry_group_IT_number 40
_symmetry_cell_setting 'orthorhombic'
loop_
_space_group_symop_operation_xyz
x,y,z
-x,-y,z
1/2-x,y,z
1/2+x,-y,z
x,1/2+y,1/2+z
-x,1/2-y,1/2+z
1/2-x,1/2+y,1/2+z
1/2+x,1/2-y,1/2+z
loop_
_atom_site_type_symbol
_atom_site_label
_atom_site_fract_x
_atom_site_fract_y
_atom_site_fract_z
Si Si1 0.089512 0.222427 0.809820
Si Si2 0.145244 0.485731 0.409819
Si Si3 0.150967 0.906094 0.658858
Si Si4 0.456724 0.898106 0.104638
Si Si5 0.039165 0.853785 0.407593
Si Si6 0.850172 0.883712 0.996049
Si Si7 0.649970 0.307228 0.001104
Si Si8 0.392432 0.811320 0.870245
O O1 0.084788 0.287960 0.885289
O O2 0.148495 0.177569 0.906464
O O3 0.132476 0.222690 0.654327
O O4 0.988579 0.196871 0.791250
O O5 0.250000 0.465394 0.440019
O O6 0.111421 0.459921 0.257868
O O7 0.079689 0.460814 0.536872
O O8 0.137935 0.557648 0.395569
O O9 0.250000 0.923374 0.594818
O O10 0.082500 0.891119 0.534455
O O11 0.167876 0.849849 0.763671
O O12 0.436182 0.894109 0.270956
O O13 0.566333 0.887527 0.104594
O O14 0.407650 0.844132 0.021068
O O15 0.931199 0.850278 0.445941
O O16 0.750000 0.886549 0.072030
O O17 0.750000 0.339848 0.999784
O O18 0.657181 0.251651 0.892879
#
# Coordination Sequence:
#
# PCOD8183768 Si02
#       8
#     8   8   8   8   8   8   8   8
#     4  10  20  36  57  86 126 159 188 244 303 353
#     4   9  20  40  66  91 114 154 211 255 292 348
#     4  10  20  36  60  88 118 156 200 252 303 345
#     4  10  20  37  62  84 119 158 196 248 303 346
#     4  11  23  38  57  93 129 154 196 249 304 366
#     4  10  21  38  65  92 117 154 207 251 290 355
#     4  11  21  34  55  83 123 168 198 234 300 365
#     4   9  18  35  54  80 113 157 201 241 280 353
#
# _framework density 20.881779999999999
#
# number of rings (size 3 to 8) (size 9 to 14) (size 15 to 20)
#    0.000    2.000    2.500    1.125    0.000    2.500 
#    0.000    0.000    5.500    0.000    0.000    0.000 
#    0.000    0.000    0.000    0.000    0.000    0.000 
#
# Total GULP energy -396536.579132 kJ/mol
# GULP energy per Si atom -12391.768098 kJ/mol
# Density = 2.083425 g / cm^3
# Si number density = 20.881780 Si / 1000 Ang^3
#
#
#
# Elastic Constant Matrix: (Units=GPa)
#
#
# Indices 1 2 3 4 5 6 
#
# 1 107.6113 17.1442 44.5387 0.0000 0.0000 0.0000
# 2 17.1442 67.3609 30.4855 0.0000 0.0000 0.0000
# 3 44.5387 30.4855 112.6599 0.0000 0.0000 0.0000
# 4 0.0000 0.0000 0.0000 10.3008 0.0000 0.0000
# 5 0.0000 0.0000 0.0000 0.0000 12.9081 0.0000
# 6 0.0000 0.0000 0.0000 0.0000 0.0000 73.5485
#
#
#
# Elastic Compliance Matrix: (Units=1/GPa)
#
#
# Indices 1 2 3 4 5 6 
#
# 1 0.011165 -0.000962 -0.004154 0.000000 0.000000 0.000000
# 2 -0.000962 0.017000 -0.004220 0.000000 0.000000 0.000000
# 3 -0.004154 -0.004220 0.011660 0.000000 0.000000 0.000000
# 4 0.000000 0.000000 0.000000 0.097080 0.000000 0.000000
# 5 0.000000 0.000000 0.000000 0.000000 0.077471 0.000000
# 6 0.000000 0.000000 0.000000 0.000000 0.000000 0.013596
#
#
# Mechanical properties :
#
#
# Convention : Reuss Voigt Hill
#
# Bulk Modulus (GPa) = 47.27128 52.44101 49.85615
# Shear Modulus (GPa) = 19.70866 32.38238 26.04552
#
# Velocity S-wave (km/s) = 3.07550 3.94223 3.53552
# Velocity P-wave (km/s) = 5.94124 6.77417 6.37133
#
# Compressibility (1/GPa) = 0.02115449
#
# Stress axis : x y z
#
# Youngs Moduli (GPa) = 89.56483 58.82346 85.76109
#
# Poissons Ratio (x) = 0.05658 0.35623
# Poissons Ratio (y) = 0.08614 0.36191
# Poissons Ratio (z) = 0.37203 0.24823
#
# Static dielectric constant tensor:
#      x y z
#    x 3.951380 0.000000 0.000000 
#    y 0.000000 3.663180 0.000000 
#    z 0.000000 0.000000 3.548090 
# 
# 
# High freq. dielectric constant tensor:
#      x y z
#    x 1.829010 0.000000 0.000000 
#    y 0.000000 1.799690 0.000000 
#    z 0.000000 0.000000 1.794970 
# 
# From -- ./inp_files/6906.got.cif
#   From: 2010.03.12/outbox.cif.g09.slc.cpg/sg40_4_cif.got.tgz:6906.got - 2010.04.14 01:38:03.
