data_PCOD8183349
_publ_section_title
;
Structure prediction by ZEFSAII (Michael W. Deem and Ramdas Pophale) SiO2 
 PCOD8183349
Probable space group: A M A 2
;
_chemical_formula_sum "Si O2"
_cell_formula_units_Z 64
_cell_length_a 8.763391
_cell_length_b 27.424438
_cell_length_c 13.009978
_cell_angle_alpha 90.000000
_cell_angle_beta 90.000000
_cell_angle_gamma 90.000000
_cell_volume 3126.701974
_symmetry_space_group_name_H-M "A M A 2"
_symmetry_group_IT_number 40
_symmetry_cell_setting 'orthorhombic'
loop_
_space_group_symop_operation_xyz
x,y,z
-x,-y,z
1/2-x,y,z
1/2+x,-y,z
x,1/2+y,1/2+z
-x,1/2-y,1/2+z
1/2-x,1/2+y,1/2+z
1/2+x,1/2-y,1/2+z
loop_
_atom_site_type_symbol
_atom_site_label
_atom_site_fract_x
_atom_site_fract_y
_atom_site_fract_z
Si Si1 0.570115 0.618938 0.188680
Si Si2 0.569529 0.946973 0.861571
Si Si3 0.569369 0.551301 0.779619
Si Si4 0.926683 0.796558 0.120577
Si Si5 0.431833 0.597563 0.579004
Si Si6 0.922984 0.769986 0.467450
Si Si7 0.928328 0.629003 0.952907
Si Si8 0.922499 0.220628 0.765358
O O1 0.750000 0.616364 0.210970
O O2 0.489388 0.578757 0.258431
O O3 0.497828 0.671438 0.223413
O O4 0.532982 0.609890 0.068381
O O5 0.750000 0.950269 0.855530
O O6 0.500000 0.000000 0.865676
O O7 0.516716 0.919490 0.965690
O O8 0.500000 0.500000 0.814774
O O9 0.750000 0.547191 0.771251
O O10 0.503608 0.564444 0.667777
O O11 0.520340 0.589611 0.867998
O O12 0.750000 0.808977 0.118651
O O13 0.004602 0.848028 0.093535
O O14 0.987443 0.773589 0.227705
O O15 0.961018 0.749578 0.050962
O O16 0.250000 0.595002 0.590097
O O17 0.750000 0.775051 0.508292
O O18 0.931275 0.725354 0.386762
O O19 0.977804 0.822311 0.427344
O O20 0.750000 0.640684 0.944157
O O21 0.750000 0.217956 0.723350
#
# Coordination Sequence:
#
# PCOD8183349 Si02
#       8
#     8   8   8   8   8   8   8   8
#     4  10  20  39  63  85 118 162 204 248 300 359
#     4  11  24  41  61  89 119 155 202 253 309 363
#     4  11  24  41  64  91 120 157 206 259 313 370
#     4  10  19  36  58  82 117 159 192 229 290 356
#     4  10  22  40  64  92 125 161 200 250 309 368
#     4  11  21  33  55  88 119 154 201 247 288 345
#     4  10  22  41  62  86 121 165 203 245 306 366
#     4   9  18  33  55  81 115 157 193 229 286 349
#
# _framework density 20.468851000000001
#
# number of rings (size 3 to 8) (size 9 to 14) (size 15 to 20)
#    0.000    1.750    1.250    3.000    0.000    5.500 
#    0.000    3.125    0.000    0.000    0.000    0.000 
#    0.000    0.000    0.000    0.000    0.000    0.000 
#
# Total GULP energy -396552.270327 kJ/mol
# GULP energy per Si atom -12392.258448 kJ/mol
# Density = 2.042226 g / cm^3
# Si number density = 20.468851 Si / 1000 Ang^3
#
#
#
# Elastic Constant Matrix: (Units=GPa)
#
#
# Indices 1 2 3 4 5 6 
#
# 1 22.8372 25.1225 29.9024 0.0000 0.0000 0.0000
# 2 25.1225 105.1511 17.0899 0.0000 0.0000 0.0000
# 3 29.9024 17.0899 87.4961 0.0000 0.0000 0.0000
# 4 0.0000 0.0000 0.0000 38.7445 0.0000 0.0000
# 5 0.0000 0.0000 0.0000 0.0000 17.9406 0.0000
# 6 0.0000 0.0000 0.0000 0.0000 0.0000 25.2716
#
#
#
# Elastic Compliance Matrix: (Units=1/GPa)
#
#
# Indices 1 2 3 4 5 6 
#
# 1 0.111531 -0.021122 -0.033991 0.000000 0.000000 0.000000
# 2 -0.021122 0.013822 0.004519 0.000000 0.000000 0.000000
# 3 -0.033991 0.004519 0.022163 0.000000 0.000000 0.000000
# 4 0.000000 0.000000 0.000000 0.025810 0.000000 0.000000
# 5 0.000000 0.000000 0.000000 0.000000 0.055740 0.000000
# 6 0.000000 0.000000 0.000000 0.000000 0.000000 0.039570
#
#
# Mechanical properties :
#
#
# Convention : Reuss Voigt Hill
#
# Bulk Modulus (GPa) = 21.58538 39.96823 30.77681
# Shear Modulus (GPa) = 12.97804 25.94932 19.46368
#
# Velocity S-wave (km/s) = 2.52074 3.56441 3.08700
# Velocity P-wave (km/s) = 4.36355 6.04225 5.27017
#
# Compressibility (1/GPa) = 0.04632765
#
# Stress axis : x y z
#
# Youngs Moduli (GPa) = 8.96615 72.34758 45.12026
#
# Poissons Ratio (x) = 1.52814 1.53367
# Poissons Ratio (y) = 0.18939 -0.20389
# Poissons Ratio (z) = 0.30477 -0.32693
#
# Static dielectric constant tensor:
#      x y z
#    x 3.479250 0.000000 0.000000 
#    y 0.000000 3.841860 0.000000 
#    z 0.000000 0.000000 4.041370 
# 
# 
# High freq. dielectric constant tensor:
#      x y z
#    x 1.778290 0.000000 0.000000 
#    y 0.000000 1.811230 0.000000 
#    z 0.000000 0.000000 1.811540 
# 
# From -- ./inp_files/10698.got.cif
#   From: 2010.03.12/outbox.cif.g09.slc.cpg/sg40_6_cif.got.tgz:10698.got - 2010.04.14 01:38:03.
