data_PCOD8183518
_publ_section_title
;
Structure prediction by ZEFSAII (Michael W. Deem and Ramdas Pophale) SiO2 
 PCOD8183518
Probable space group: A M A 2
;
_chemical_formula_sum "Si O2"
_cell_formula_units_Z 64
_cell_length_a 9.150910
_cell_length_b 16.057863
_cell_length_c 22.513200
_cell_angle_alpha 90.000000
_cell_angle_beta 90.000000
_cell_angle_gamma 90.000000
_cell_volume 3308.180991
_symmetry_space_group_name_H-M "A M A 2"
_symmetry_group_IT_number 40
_symmetry_cell_setting 'orthorhombic'
loop_
_space_group_symop_operation_xyz
x,y,z
-x,-y,z
1/2-x,y,z
1/2+x,-y,z
x,1/2+y,1/2+z
-x,1/2-y,1/2+z
1/2-x,1/2+y,1/2+z
1/2+x,1/2-y,1/2+z
loop_
_atom_site_type_symbol
_atom_site_label
_atom_site_fract_x
_atom_site_fract_y
_atom_site_fract_z
Si Si1 0.085803 0.577303 0.696470
Si Si2 0.079102 0.083055 0.608134
Si Si3 0.413007 0.076782 0.865428
Si Si4 0.912304 0.783044 0.291840
Si Si5 0.578599 0.264550 0.023683
Si Si6 0.084716 0.636196 0.237890
Si Si7 0.924295 0.586743 0.577025
Si Si8 0.923507 0.242982 0.404092
O O1 0.250000 0.554694 0.673945
O O2 0.096536 0.638784 0.750264
O O3 0.000000 0.500000 0.724031
O O4 0.989357 0.609408 0.641299
O O5 0.250000 0.067609 0.600579
O O6 0.031986 0.167770 0.573684
O O7 0.033868 0.092320 0.677236
O O8 0.000000 0.000000 0.582912
O O9 0.250000 0.065746 0.888408
O O10 0.422009 0.073455 0.793693
O O11 0.476106 0.162305 0.891736
O O12 0.500000 0.000000 0.893188
O O13 0.750000 0.756615 0.313194
O O14 0.978267 0.711672 0.250797
O O15 0.010917 0.807899 0.348593
O O16 0.750000 0.271220 0.011139
O O17 0.535536 0.168961 0.038894
O O18 0.490232 0.290471 0.965005
O O19 0.250000 0.670678 0.230501
O O20 0.750000 0.574423 0.579539
O O21 0.000000 0.500000 0.553551
O O22 0.750000 0.233463 0.404438
#
# Coordination Sequence:
#
# PCOD8183518 Si02
#       8
#     8   8   8   8   8   8   8   8
#     4  10  20  33  52  80 110 138 171 215 265 320
#     4  10  21  37  57  82 111 144 184 228 274 324
#     4   9  18  31  49  76 106 135 167 205 253 311
#     4  10  20  34  54  80 107 136 174 219 267 320
#     4  10  22  39  57  78 108 147 187 228 274 321
#     4   9  18  33  53  79 111 142 172 209 260 323
#     4  10  20  35  57  84 115 149 181 219 268 323
#     4  10  22  38  55  75 101 137 181 225 267 316
#
# _framework density 19.345977999999999
#
# number of rings (size 3 to 8) (size 9 to 14) (size 15 to 20)
#    0.000    2.250    0.000    4.125    0.000    8.000 
#    0.000    3.125    0.000    0.000    0.000    0.000 
#    0.000    0.000    0.000    0.000    0.000    0.000 
#
# Total GULP energy -396618.133990 kJ/mol
# GULP energy per Si atom -12394.316687 kJ/mol
# Density = 1.930195 g / cm^3
# Si number density = 19.345978 Si / 1000 Ang^3
#
#
#
# Elastic Constant Matrix: (Units=GPa)
#
#
# Indices 1 2 3 4 5 6 
#
# 1 93.1558 38.6438 34.2167 0.0000 0.0000 0.0000
# 2 38.6438 74.0088 27.3904 0.0000 0.0000 0.0000
# 3 34.2167 27.3904 68.1020 0.0000 0.0000 0.0000
# 4 0.0000 0.0000 0.0000 14.5148 0.0000 0.0000
# 5 0.0000 0.0000 0.0000 0.0000 -75.2940 0.0000
# 6 0.0000 0.0000 0.0000 0.0000 0.0000 31.2663
#
#
#
# Elastic Compliance Matrix: (Units=1/GPa)
#
#
# Indices 1 2 3 4 5 6 
#
# 1 0.015120 -0.005973 -0.005195 0.000000 0.000000 0.000000
# 2 -0.005973 0.018234 -0.004333 0.000000 0.000000 0.000000
# 3 -0.005195 -0.004333 0.019037 0.000000 0.000000 0.000000
# 4 0.000000 0.000000 0.000000 0.068895 0.000000 0.000000
# 5 0.000000 0.000000 0.000000 0.000000 -0.013281 0.000000
# 6 0.000000 0.000000 0.000000 0.000000 0.000000 0.031983
#
#
# Mechanical properties :
#
#
# Convention : Reuss Voigt Hill
#
# Bulk Modulus (GPa) = 46.74970 48.41870 47.58420
# Shear Modulus (GPa) = 28.07113 3.09848 15.58480
#
# Velocity S-wave (km/s) = 3.81334 1.26692 2.84136
# Velocity P-wave (km/s) = 6.60351 5.21749 5.95099
#
# Compressibility (1/GPa) = 0.02139051
#
# Stress axis : x y z
#
# Youngs Moduli (GPa) = 66.13583 54.84245 52.53044
#
# Poissons Ratio (x) = 0.32755 0.27289
# Poissons Ratio (y) = 0.39500 0.22761
# Poissons Ratio (z) = 0.34357 0.23763
#
# Static dielectric constant tensor:
#      x y z
#    x 3.727620 0.000000 0.000000 
#    y 0.000000 3.484850 0.000000 
#    z 0.000000 0.000000 3.450710 
# 
# 
# High freq. dielectric constant tensor:
#      x y z
#    x 1.760690 0.000000 0.000000 
#    y 0.000000 1.740260 0.000000 
#    z 0.000000 0.000000 1.745510 
# 
# From -- ./inp_files/24264.got.cif
#   From: 2010.03.12/outbox.cif.g09.slc.cpg/sg40_13_cif.got.tgz:24264.got - 2010.04.14 01:38:03.
