data_PCOD8183941
_publ_section_title
;
Structure prediction by ZEFSAII (Michael W. Deem and Ramdas Pophale) SiO2 
 PCOD8183941
Probable space group: A M A 2
;
_chemical_formula_sum "Si O2"
_cell_formula_units_Z 48
_cell_length_a 8.452648
_cell_length_b 30.794339
_cell_length_c 8.944353
_cell_angle_alpha 90.000000
_cell_angle_beta 90.000000
_cell_angle_gamma 90.000000
_cell_volume 2328.158808
_symmetry_space_group_name_H-M "A M A 2"
_symmetry_group_IT_number 40
_symmetry_cell_setting 'orthorhombic'
loop_
_space_group_symop_operation_xyz
x,y,z
-x,-y,z
1/2-x,y,z
1/2+x,-y,z
x,1/2+y,1/2+z
-x,1/2-y,1/2+z
1/2-x,1/2+y,1/2+z
1/2+x,1/2-y,1/2+z
loop_
_atom_site_type_symbol
_atom_site_label
_atom_site_fract_x
_atom_site_fract_y
_atom_site_fract_z
Si Si1 0.432452 0.126680 0.950890
Si Si2 0.933196 0.289853 0.951832
Si Si3 0.567266 0.704190 0.273708
Si Si4 0.935806 0.045560 0.435258
Si Si5 0.934467 0.131454 0.271991
Si Si6 0.062293 0.953706 0.775672
O O1 0.250000 0.125987 0.998160
O O2 0.461598 0.164904 0.833076
O O3 0.478320 0.081391 0.877833
O O4 0.539065 0.134842 0.095813
O O5 0.750000 0.287975 0.997458
O O6 0.983732 0.248145 0.855990
O O7 0.964044 0.332162 0.853698
O O8 0.039862 0.290169 0.098381
O O9 0.750000 0.692877 0.301595
O O10 0.750000 0.042483 0.431457
O O11 0.995750 0.084787 0.331291
O O12 0.993742 0.053746 0.604829
O O13 0.000000 0.000000 0.371664
O O14 0.750000 0.138357 0.308515
O O15 0.250000 0.950192 0.793188
O O16 0.000000 0.000000 0.832645
#
# Coordination Sequence:
#
# PCOD8183941 Si02
#       6
#     8   8   8   8   8   8
#     4  12  25  40  60  88 121 159 204 252 302 358
#     4  11  24  41  64  93 122 156 200 247 297 357
#     4  11  24  42  64  90 122 159 198 244 300 360
#     4   9  20  37  60  87 115 151 194 241 293 352
#     4  11  23  40  61  87 122 161 200 246 302 360
#     4  10  20  38  62  89 120 156 200 248 303 363
#
# _framework density 20.617149999999999
#
# number of rings (size 3 to 8) (size 9 to 14) (size 15 to 20)
#    0.000    1.333    0.000    5.500    0.000    9.333 
#    0.000    1.667    0.000    0.000    0.000    0.000 
#    0.000    0.000    0.000    0.000    0.000    0.000 
#
# Total GULP energy -297775.473193 kJ/mol
# GULP energy per Si atom -12407.311383 kJ/mol
# Density = 2.057022 g / cm^3
# Si number density = 20.617150 Si / 1000 Ang^3
#
#
#
# Elastic Constant Matrix: (Units=GPa)
#
#
# Indices 1 2 3 4 5 6 
#
# 1 56.6827 29.1061 9.3273 0.0000 0.0000 0.0000
# 2 29.1061 145.3542 54.8682 0.0000 0.0000 0.0000
# 3 9.3273 54.8682 106.3070 0.0000 0.0000 0.0000
# 4 0.0000 0.0000 0.0000 30.4967 0.0000 0.0000
# 5 0.0000 0.0000 0.0000 0.0000 32.0786 0.0000
# 6 0.0000 0.0000 0.0000 0.0000 0.0000 35.8604
#
#
#
# Elastic Compliance Matrix: (Units=1/GPa)
#
#
# Indices 1 2 3 4 5 6 
#
# 1 0.019676 -0.004084 0.000382 0.000000 0.000000 0.000000
# 2 -0.004084 0.009392 -0.004489 0.000000 0.000000 0.000000
# 3 0.000382 -0.004489 0.011690 0.000000 0.000000 0.000000
# 4 0.000000 0.000000 0.000000 0.032790 0.000000 0.000000
# 5 0.000000 0.000000 0.000000 0.000000 0.031173 0.000000
# 6 0.000000 0.000000 0.000000 0.000000 0.000000 0.027886
#
#
# Mechanical properties :
#
#
# Convention : Reuss Voigt Hill
#
# Bulk Modulus (GPa) = 41.02516 54.99410 48.00963
# Shear Modulus (GPa) = 31.82335 34.02329 32.92332
#
# Velocity S-wave (km/s) = 3.93305 4.06672 4.00045
# Velocity P-wave (km/s) = 6.36922 6.98447 6.68393
#
# Compressibility (1/GPa) = 0.02437528
#
# Stress axis : x y z
#
# Youngs Moduli (GPa) = 50.82220 106.47197 85.54126
#
# Poissons Ratio (x) = 0.43484 -0.03264
# Poissons Ratio (y) = 0.20756 0.38401
# Poissons Ratio (z) = -0.01939 0.47798
#
# Static dielectric constant tensor:
#      x y z
#    x 3.645820 0.000000 0.000000 
#    y 0.000000 4.016270 0.000000 
#    z 0.000000 0.000000 3.755340 
# 
# 
# High freq. dielectric constant tensor:
#      x y z
#    x 1.809820 0.000000 0.000000 
#    y 0.000000 1.823790 0.000000 
#    z 0.000000 0.000000 1.808450 
# 
# From -- ./inp_files/4614.got.cif
#   From: 2010.03.12/outbox.cif.g09.slc.cpg/sg40_3_cif.got.tgz:4614.got - 2010.04.14 01:38:03.
