data_PCOD8183690
_publ_section_title
;
Structure prediction by ZEFSAII (Michael W. Deem and Ramdas Pophale) SiO2 
 PCOD8183690
Probable space group: A M A 2
;
_chemical_formula_sum "Si O2"
_cell_formula_units_Z 56
_cell_length_a 17.841773
_cell_length_b 17.143425
_cell_length_c 9.715342
_cell_angle_alpha 90.000000
_cell_angle_beta 90.000000
_cell_angle_gamma 90.000000
_cell_volume 2971.622887
_symmetry_space_group_name_H-M "A M A 2"
_symmetry_group_IT_number 40
_symmetry_cell_setting 'orthorhombic'
loop_
_space_group_symop_operation_xyz
x,y,z
-x,-y,z
1/2-x,y,z
1/2+x,-y,z
x,1/2+y,1/2+z
-x,1/2-y,1/2+z
1/2-x,1/2+y,1/2+z
1/2+x,1/2-y,1/2+z
loop_
_atom_site_type_symbol
_atom_site_label
_atom_site_fract_x
_atom_site_fract_y
_atom_site_fract_z
Si Si1 0.160715 0.309841 0.834820
Si Si2 0.835637 0.569836 0.615917
Si Si3 0.907374 0.177054 0.895866
Si Si4 0.542175 0.418457 0.295996
Si Si5 0.935089 0.785174 0.629000
Si Si6 0.894715 0.242487 0.616813
Si Si7 0.663582 0.405721 0.521018
O O1 0.250000 0.295168 0.840792
O O2 0.137709 0.390529 0.758639
O O3 0.120806 0.240677 0.751452
O O4 0.126593 0.312249 0.987874
O O5 0.750000 0.590037 0.595838
O O6 0.872236 0.606139 0.480065
O O7 0.851249 0.477539 0.625864
O O8 0.864327 0.197151 0.753116
O O9 0.991948 0.148134 0.868854
O O10 0.903344 0.257887 0.982186
O O11 0.500000 0.500000 0.275094
O O12 0.560568 0.379816 0.145652
O O13 0.616909 0.426437 0.384773
O O14 0.016852 0.745239 0.639407
O O15 0.857875 0.327137 0.599695
O O16 0.750000 0.401393 0.475430
#
# Coordination Sequence:
#
# PCOD8183690 Si02
#       7
#     8   8   8   8   8   8   8
#     4  10  20  37  60  86 119 158 198 241 299 359
#     4   9  20  36  56  83 116 149 190 243 297 355
#     4  10  20  35  57  84 117 150 196 244 294 351
#     4  11  20  35  58  85 116 153 198 246 302 356
#     4  10  20  36  56  86 118 154 196 246 294 355
#     4  11  20  34  57  88 116 153 198 248 289 349
#     4  11  21  36  59  87 116 152 203 250 297 359
#
# _framework density 18.844920999999999
#
# number of rings (size 3 to 8) (size 9 to 14) (size 15 to 20)
#    0.000    1.714    4.286    1.286    0.000    1.143 
#    0.000    2.857    0.000    0.000    0.000    0.000 
#    0.000    0.000    0.000    0.000    0.000    0.000 
#
# Total GULP energy -346947.435888 kJ/mol
# GULP energy per Si atom -12390.979853 kJ/mol
# Density = 1.880203 g / cm^3
# Si number density = 18.844921 Si / 1000 Ang^3
#
#
#
# Elastic Constant Matrix: (Units=GPa)
#
#
# Indices 1 2 3 4 5 6 
#
# 1 72.8681 38.3475 34.2472 0.0000 0.0000 0.0000
# 2 38.3475 115.4811 53.3650 0.0000 0.0000 0.0000
# 3 34.2472 53.3650 128.1736 0.0000 0.0000 0.0000
# 4 0.0000 0.0000 0.0000 28.0873 0.0000 0.0000
# 5 0.0000 0.0000 0.0000 0.0000 17.1342 0.0000
# 6 0.0000 0.0000 0.0000 0.0000 0.0000 24.4872
#
#
#
# Elastic Compliance Matrix: (Units=1/GPa)
#
#
# Indices 1 2 3 4 5 6 
#
# 1 0.017393 -0.004492 -0.002777 0.000000 0.000000 0.000000
# 2 -0.004492 0.011883 -0.003747 0.000000 0.000000 0.000000
# 3 -0.002777 -0.003747 0.010104 0.000000 0.000000 0.000000
# 4 0.000000 0.000000 0.000000 0.035603 0.000000 0.000000
# 5 0.000000 0.000000 0.000000 0.000000 0.058363 0.000000
# 6 0.000000 0.000000 0.000000 0.000000 0.000000 0.040838
#
#
# Mechanical properties :
#
#
# Convention : Reuss Voigt Hill
#
# Bulk Modulus (GPa) = 57.64716 63.16025 60.40370
# Shear Modulus (GPa) = 24.75277 26.64596 25.69936
#
# Velocity S-wave (km/s) = 3.62815 3.76434 3.69688
# Velocity P-wave (km/s) = 6.94320 7.24447 7.09543
#
# Compressibility (1/GPa) = 0.01734691
#
# Stress axis : x y z
#
# Youngs Moduli (GPa) = 57.49562 84.15574 98.97118
#
# Poissons Ratio (x) = 0.37805 0.27483
# Poissons Ratio (y) = 0.25829 0.37085
# Poissons Ratio (z) = 0.15966 0.31534
#
# Static dielectric constant tensor:
#      x y z
#    x 3.495790 0.000000 0.000000 
#    y 0.000000 3.610420 0.000000 
#    z 0.000000 0.000000 3.593270 
# 
# 
# High freq. dielectric constant tensor:
#      x y z
#    x 1.733640 0.000000 0.000000 
#    y 0.000000 1.729520 0.000000 
#    z 0.000000 0.000000 1.720250 
# 
# From -- ./inp_files/8397.got.cif
#   From: 2010.03.12/outbox.cif.g09.slc.cpg/sg40_5_cif.got.tgz:8397.got - 2010.04.14 01:38:03.
