data_PCOD8183607
_publ_section_title
;
Structure prediction by ZEFSAII (Michael W. Deem and Ramdas Pophale) SiO2 
 PCOD8183607
Probable space group: A M A 2
;
_chemical_formula_sum "Si O2"
_cell_formula_units_Z 48
_cell_length_a 8.494622
_cell_length_b 13.794078
_cell_length_c 18.617582
_cell_angle_alpha 90.000000
_cell_angle_beta 90.000000
_cell_angle_gamma 90.000000
_cell_volume 2181.524078
_symmetry_space_group_name_H-M "A M A 2"
_symmetry_group_IT_number 40
_symmetry_cell_setting 'orthorhombic'
loop_
_space_group_symop_operation_xyz
x,y,z
-x,-y,z
1/2-x,y,z
1/2+x,-y,z
x,1/2+y,1/2+z
-x,1/2-y,1/2+z
1/2-x,1/2+y,1/2+z
1/2+x,1/2-y,1/2+z
loop_
_atom_site_type_symbol
_atom_site_label
_atom_site_fract_x
_atom_site_fract_y
_atom_site_fract_z
Si Si1 0.428405 0.903370 0.628300
Si Si2 0.934682 0.100871 0.008984
Si Si3 0.935897 0.607201 0.790527
Si Si4 0.930988 0.409303 0.280167
Si Si5 0.063407 0.192513 0.144633
Si Si6 0.566571 0.238698 0.881082
O O1 0.250000 0.904584 0.604468
O O2 0.450454 0.911538 0.713230
O O3 0.498740 0.796157 0.611273
O O4 0.500000 0.000000 0.589686
O O5 0.750000 0.091937 0.020497
O O6 0.975537 0.194368 0.958974
O O7 0.000000 0.000000 0.975627
O O8 0.018493 0.112756 0.085835
O O9 0.750000 0.604736 0.800544
O O10 0.000000 0.500000 0.778561
O O11 0.979870 0.670601 0.720255
O O12 0.016639 0.650062 0.864345
O O13 0.750000 0.420003 0.256445
O O14 0.000000 0.500000 0.327229
O O15 0.952748 0.312844 0.324446
O O16 0.250000 0.194773 0.158291
O O17 0.750000 0.222107 0.864651
#
# Coordination Sequence:
#
# PCOD8183607 Si02
#       6
#     8   8   8   8   8   8
#     4  10  20  34  56  86 122 160 202 255 308 368
#     4  11  25  43  66  94 129 169 212 262 318 383
#     4  12  25  42  67  95 126 166 213 266 321 381
#     4  11  20  31  53  84 119 158 197 248 304 365
#     4  11  23  41  65  93 131 171 214 265 317 380
#     4  11  23  41  62  90 125 162 208 262 316 377
#
# _framework density 22.002966000000001
#
# number of rings (size 3 to 8) (size 9 to 14) (size 15 to 20)
#    0.000    1.000    1.667    7.000    0.000    6.000 
#    0.000    0.833    0.000    2.000    0.000    0.000 
#    0.000    0.000    0.000    0.000    0.000    0.000 
#
# Total GULP energy -297357.265734 kJ/mol
# GULP energy per Si atom -12389.886072 kJ/mol
# Density = 2.195289 g / cm^3
# Si number density = 22.002966 Si / 1000 Ang^3
#
#
#
# Elastic Constant Matrix: (Units=GPa)
#
#
# Indices 1 2 3 4 5 6 
#
# 1 96.8671 34.0147 26.3742 0.0000 0.0000 0.0000
# 2 34.0147 121.7231 25.0514 0.0000 0.0000 0.0000
# 3 26.3742 25.0514 72.7176 0.0000 0.0000 0.0000
# 4 0.0000 0.0000 0.0000 24.4551 0.0000 0.0000
# 5 0.0000 0.0000 0.0000 0.0000 13.8869 0.0000
# 6 0.0000 0.0000 0.0000 0.0000 0.0000 39.7126
#
#
#
# Elastic Compliance Matrix: (Units=1/GPa)
#
#
# Indices 1 2 3 4 5 6 
#
# 1 0.012224 -0.002694 -0.003505 0.000000 0.000000 0.000000
# 2 -0.002694 0.009436 -0.002274 0.000000 0.000000 0.000000
# 3 -0.003505 -0.002274 0.015806 0.000000 0.000000 0.000000
# 4 0.000000 0.000000 0.000000 0.040891 0.000000 0.000000
# 5 0.000000 0.000000 0.000000 0.000000 0.072010 0.000000
# 6 0.000000 0.000000 0.000000 0.000000 0.000000 0.025181
#
#
# Mechanical properties :
#
#
# Convention : Reuss Voigt Hill
#
# Bulk Modulus (GPa) = 48.73298 51.35425 50.04362
# Shear Modulus (GPa) = 25.08330 29.33543 27.20936
#
# Velocity S-wave (km/s) = 3.38005 3.65533 3.52038
# Velocity P-wave (km/s) = 6.11796 6.41916 6.27037
#
# Compressibility (1/GPa) = 0.02051998
#
# Stress axis : x y z
#
# Youngs Moduli (GPa) = 81.80634 105.97450 63.26551
#
# Poissons Ratio (x) = 0.28555 0.22176
# Poissons Ratio (y) = 0.22043 0.14384
# Poissons Ratio (z) = 0.28676 0.24094
#
# Static dielectric constant tensor:
#      x y z
#    x 3.828650 0.000000 0.000000 
#    y 0.000000 4.886710 0.000000 
#    z 0.000000 0.000000 3.590880 
# 
# 
# High freq. dielectric constant tensor:
#      x y z
#    x 1.869710 0.000000 0.000000 
#    y 0.000000 1.890840 0.000000 
#    z 0.000000 0.000000 1.824930 
# 
# From -- ./inp_files/19206.got.cif
#   From: 2010.03.12/outbox.cif.g09.slc.cpg/sg40_10_cif.got.tgz:19206.got - 2010.04.14 01:38:03.
