data_PCOD8183983
_publ_section_title
;
Structure prediction by ZEFSAII (Michael W. Deem and Ramdas Pophale) SiO2 
 PCOD8183983
Probable space group: A M A 2
;
_chemical_formula_sum "Si O2"
_cell_formula_units_Z 56
_cell_length_a 16.570312
_cell_length_b 5.070077
_cell_length_c 31.332591
_cell_angle_alpha 90.000000
_cell_angle_beta 90.000000
_cell_angle_gamma 90.000000
_cell_volume 2632.337377
_symmetry_space_group_name_H-M "A M A 2"
_symmetry_group_IT_number 40
_symmetry_cell_setting 'orthorhombic'
loop_
_space_group_symop_operation_xyz
x,y,z
-x,-y,z
1/2-x,y,z
1/2+x,-y,z
x,1/2+y,1/2+z
-x,1/2-y,1/2+z
1/2-x,1/2+y,1/2+z
1/2+x,1/2-y,1/2+z
loop_
_atom_site_type_symbol
_atom_site_label
_atom_site_fract_x
_atom_site_fract_y
_atom_site_fract_z
Si Si1 0.345870 0.742771 0.914840
Si Si2 0.055372 0.249537 0.330116
Si Si3 0.158194 0.188671 0.247496
Si Si4 0.156471 0.609679 0.560061
Si Si5 0.410179 0.601725 0.102909
Si Si6 0.845670 0.756443 0.966323
Si Si7 0.842060 0.799938 0.692621
O O1 0.250000 0.731601 0.909560
O O2 0.383152 0.705889 0.868556
O O3 0.377747 0.515956 0.946697
O O4 0.376735 0.013809 0.935256
O O5 0.105894 0.282636 0.287157
O O6 0.000000 0.500000 0.338437
O O7 0.000000 0.000000 0.324997
O O8 0.250000 0.149831 0.263241
O O9 0.151795 0.411501 0.211962
O O10 0.125729 0.916978 0.226481
O O11 0.250000 0.526101 0.557997
O O12 0.106024 0.351155 0.572565
O O13 0.122014 0.703961 0.514247
O O14 0.147922 0.854085 0.592747
O O15 0.500000 0.500000 0.095923
O O16 0.397041 0.705140 0.150801
O O17 0.750000 0.757002 0.967992
O O18 0.750000 0.728618 0.679878
#
# Coordination Sequence:
#
# PCOD8183983 Si02
#       7
#     8   8   8   8   8   8   8
#     4  10  20  39  63  87 117 155 201 248 294 348
#     4  12  25  40  59  89 125 157 193 237 298 363
#     4  10  22  41  64  88 115 153 201 248 294 350
#     4  11  22  41  66  90 121 164 213 258 305 367
#     4  12  25  40  60  93 131 164 201 253 317 376
#     4   9  19  36  63  91 113 151 207 255 292 343
#     4  10  21  39  64  90 116 154 204 249 295 355
#
# _framework density 21.273869000000001
#
# number of rings (size 3 to 8) (size 9 to 14) (size 15 to 20)
#    0.000    1.429    0.000    5.571    0.000    5.143 
#    0.000   12.857    0.000    0.000    0.000    0.000 
#    0.000    0.000    0.000    0.000    0.000    0.000 
#
# Total GULP energy -347331.156792 kJ/mol
# GULP energy per Si atom -12404.684171 kJ/mol
# Density = 2.122545 g / cm^3
# Si number density = 21.273869 Si / 1000 Ang^3
#
#
#
# Elastic Constant Matrix: (Units=GPa)
#
#
# Indices 1 2 3 4 5 6 
#
# 1 62.8138 29.5532 45.0637 0.0000 0.0000 0.0000
# 2 29.5532 109.0101 18.9522 0.0000 0.0000 0.0000
# 3 45.0637 18.9522 112.5578 0.0000 0.0000 0.0000
# 4 0.0000 0.0000 0.0000 38.4154 0.0000 0.0000
# 5 0.0000 0.0000 0.0000 0.0000 10.4538 0.0000
# 6 0.0000 0.0000 0.0000 0.0000 0.0000 30.5536
#
#
#
# Elastic Compliance Matrix: (Units=1/GPa)
#
#
# Indices 1 2 3 4 5 6 
#
# 1 0.024868 -0.005162 -0.009087 0.000000 0.000000 0.000000
# 2 -0.005162 0.010522 0.000295 0.000000 0.000000 0.000000
# 3 -0.009087 0.000295 0.012473 0.000000 0.000000 0.000000
# 4 0.000000 0.000000 0.000000 0.026031 0.000000 0.000000
# 5 0.000000 0.000000 0.000000 0.000000 0.095659 0.000000
# 6 0.000000 0.000000 0.000000 0.000000 0.000000 0.032729
#
#
# Mechanical properties :
#
#
# Convention : Reuss Voigt Hill
#
# Bulk Modulus (GPa) = 50.11423 52.39112 51.25268
# Shear Modulus (GPa) = 21.11121 28.60540 24.85831
#
# Velocity S-wave (km/s) = 3.15358 3.67089 3.42203
# Velocity P-wave (km/s) = 6.07190 6.53052 6.30538
#
# Compressibility (1/GPa) = 0.01995441
#
# Stress axis : x y z
#
# Youngs Moduli (GPa) = 40.21260 95.04263 80.17512
#
# Poissons Ratio (x) = 0.49061 0.72855
# Poissons Ratio (y) = 0.20758 -0.02366
# Poissons Ratio (z) = 0.36541 -0.02804
#
# Static dielectric constant tensor:
#      x y z
#    x 3.655150 0.000000 0.000000 
#    y 0.000000 4.051420 0.000000 
#    z 0.000000 0.000000 3.898850 
# 
# 
# High freq. dielectric constant tensor:
#      x y z
#    x 1.817100 0.000000 0.000000 
#    y 0.000000 1.853690 0.000000 
#    z 0.000000 0.000000 1.843480 
# 
# From -- ./inp_files/26592.got.cif
#   From: 2010.03.12/outbox.cif.g09.slc.cpg/sg40_14_cif.got.tgz:26592.got - 2010.04.14 01:38:03.
