data_PCOD8183033
_publ_section_title
;
Structure prediction by ZEFSAII (Michael W. Deem and Ramdas Pophale) SiO2 
 PCOD8183033
Probable space group: A M A 2
;
_chemical_formula_sum "Si O2"
_cell_formula_units_Z 64
_cell_length_a 8.969870
_cell_length_b 27.937083
_cell_length_c 14.367554
_cell_angle_alpha 90.000000
_cell_angle_beta 90.000000
_cell_angle_gamma 90.000000
_cell_volume 3600.394131
_symmetry_space_group_name_H-M "A M A 2"
_symmetry_group_IT_number 40
_symmetry_cell_setting 'orthorhombic'
loop_
_space_group_symop_operation_xyz
x,y,z
-x,-y,z
1/2-x,y,z
1/2+x,-y,z
x,1/2+y,1/2+z
-x,1/2-y,1/2+z
1/2-x,1/2+y,1/2+z
1/2+x,1/2-y,1/2+z
loop_
_atom_site_type_symbol
_atom_site_label
_atom_site_fract_x
_atom_site_fract_y
_atom_site_fract_z
Si Si1 0.921837 0.223859 0.674010
Si Si2 0.074507 0.048574 0.887401
Si Si3 0.422291 0.641187 0.066591
Si Si4 0.420159 0.674128 0.868372
Si Si5 0.573855 0.175278 0.181004
Si Si6 0.080327 0.782886 0.886111
Si Si7 0.074915 0.048314 0.675284
Si Si8 0.574139 0.860771 0.005549
O O1 0.750000 0.236124 0.653584
O O2 0.942635 0.203898 0.778147
O O3 0.977882 0.184017 0.603737
O O4 0.016263 0.271666 0.658620
O O5 0.250000 0.042193 0.894231
O O6 0.024691 0.058959 0.781197
O O7 0.018458 0.092394 0.950368
O O8 0.000000 0.000000 0.924749
O O9 0.250000 0.650755 0.093579
O O10 0.479972 0.591711 0.110418
O O11 0.442118 0.638235 0.954928
O O12 0.250000 0.674343 0.831915
O O13 0.523845 0.657690 0.783298
O O14 0.461473 0.727503 0.902337
O O15 0.750000 0.174528 0.174740
O O16 0.506452 0.138915 0.105278
O O17 0.250000 0.793242 0.917966
O O18 0.968374 0.813830 0.947219
O O19 0.250000 0.041356 0.667937
O O20 0.000000 0.000000 0.637595
O O21 0.750000 0.861201 0.020401
#
# Coordination Sequence:
#
# PCOD8183033 Si02
#       8
#     8   8   8   8   8   8   8   8
#     4  10  20  33  50  74 105 137 169 206 248 296
#     4   9  19  34  52  75 103 132 162 199 245 298
#     4  10  19  32  53  77 102 133 170 210 251 298
#     4   9  19  35  51  70  99 133 170 212 253 291
#     4  11  22  35  51  71  99 135 172 210 250 295
#     4   9  18  31  47  72 104 135 167 203 246 296
#     4   9  18  33  52  77 106 134 163 197 244 298
#     4  11  21  33  52  76 101 131 168 209 252 300
#
# _framework density 17.775831
#
# number of rings (size 3 to 8) (size 9 to 14) (size 15 to 20)
#    0.000    2.250    0.000    4.125    0.000    6.500 
#    0.000    2.500    0.000    0.750    0.000    1.750 
#    0.000    0.000    0.000    0.000    0.000    0.000 
#
# Total GULP energy -396891.714881 kJ/mol
# GULP energy per Si atom -12402.866090 kJ/mol
# Density = 1.773537 g / cm^3
# Si number density = 17.775831 Si / 1000 Ang^3
#
#
#
# Elastic Constant Matrix: (Units=GPa)
#
#
# Indices 1 2 3 4 5 6 
#
# 1 76.7938 36.3989 46.0824 0.0000 0.0000 0.0000
# 2 36.3989 89.6512 65.0413 0.0000 0.0000 0.0000
# 3 46.0824 65.0413 104.7205 0.0000 0.0000 0.0000
# 4 0.0000 0.0000 0.0000 30.3435 0.0000 0.0000
# 5 0.0000 0.0000 0.0000 0.0000 27.5786 0.0000
# 6 0.0000 0.0000 0.0000 0.0000 0.0000 27.9112
#
#
#
# Elastic Compliance Matrix: (Units=1/GPa)
#
#
# Indices 1 2 3 4 5 6 
#
# 1 0.018087 -0.002856 -0.006186 0.000000 0.000000 0.000000
# 2 -0.002856 0.020754 -0.011633 0.000000 0.000000 0.000000
# 3 -0.006186 -0.011633 0.019496 0.000000 0.000000 0.000000
# 4 0.000000 0.000000 0.000000 0.032956 0.000000 0.000000
# 5 0.000000 0.000000 0.000000 0.000000 0.036260 0.000000
# 6 0.000000 0.000000 0.000000 0.000000 0.000000 0.035828
#
#
# Mechanical properties :
#
#
# Convention : Reuss Voigt Hill
#
# Bulk Modulus (GPa) = 58.86482 62.91230 60.88856
# Shear Modulus (GPa) = 23.76496 25.40951 24.58723
#
# Velocity S-wave (km/s) = 3.66037 3.78490 3.72315
# Velocity P-wave (km/s) = 7.14502 7.38712 7.26708
#
# Compressibility (1/GPa) = 0.01698807
#
# Stress axis : x y z
#
# Youngs Moduli (GPa) = 55.28709 48.18412 51.29127
#
# Poissons Ratio (x) = 0.13762 0.31726
# Poissons Ratio (y) = 0.15790 0.59668
# Poissons Ratio (z) = 0.34198 0.56054
#
# Static dielectric constant tensor:
#      x y z
#    x 3.232830 0.000000 0.000000 
#    y 0.000000 3.176320 0.000000 
#    z 0.000000 0.000000 3.417510 
# 
# 
# High freq. dielectric constant tensor:
#      x y z
#    x 1.688320 0.000000 0.000000 
#    y 0.000000 1.663880 0.000000 
#    z 0.000000 0.000000 1.689250 
# 
# From -- ./inp_files/15649.got.cif
#   From: 2010.03.12/outbox.cif.g09.slc.cpg/sg40_8_cif.got.tgz:15649.got - 2010.04.14 01:38:03.
