data_PCOD8183044
_publ_section_title
;
Structure prediction by ZEFSAII (Michael W. Deem and Ramdas Pophale) SiO2 
 PCOD8183044
Probable space group: A M A 2
;
_chemical_formula_sum "Si O2"
_cell_formula_units_Z 56
_cell_length_a 8.546213
_cell_length_b 15.629577
_cell_length_c 20.009645
_cell_angle_alpha 90.000000
_cell_angle_beta 90.000000
_cell_angle_gamma 90.000000
_cell_volume 2672.762201
_symmetry_space_group_name_H-M "A M A 2"
_symmetry_group_IT_number 40
_symmetry_cell_setting 'orthorhombic'
loop_
_space_group_symop_operation_xyz
x,y,z
-x,-y,z
1/2-x,y,z
1/2+x,-y,z
x,1/2+y,1/2+z
-x,1/2-y,1/2+z
1/2-x,1/2+y,1/2+z
1/2+x,1/2-y,1/2+z
loop_
_atom_site_type_symbol
_atom_site_label
_atom_site_fract_x
_atom_site_fract_y
_atom_site_fract_z
Si Si1 0.075691 0.915420 0.663420
Si Si2 0.066308 0.797857 0.999001
Si Si3 0.075611 0.382217 0.015315
Si Si4 0.065991 0.405765 0.625059
Si Si5 0.071445 0.583530 0.888537
Si Si6 0.568579 0.261686 0.363343
Si Si7 0.566594 0.749700 0.715593
O O1 0.250000 0.901500 0.692918
O O2 0.081228 0.931613 0.584721
O O3 0.969360 0.832367 0.672095
O O4 0.000000 0.000000 0.697377
O O5 0.250000 0.777456 0.001722
O O6 0.019183 0.817144 0.921108
O O7 0.023814 0.876085 0.049112
O O8 0.970473 0.717074 0.025746
O O9 0.250000 0.384817 0.982651
O O10 0.944825 0.428376 0.968768
O O11 0.250000 0.410642 0.633662
O O12 0.998359 0.336343 0.679439
O O13 0.000000 0.500000 0.639333
O O14 0.250000 0.599675 0.866572
O O15 0.000000 0.500000 0.851483
O O16 0.956319 0.661542 0.875198
O O17 0.750000 0.286788 0.366071
O O18 0.496234 0.272712 0.288962
O O19 0.750000 0.736232 0.722608
#
# Coordination Sequence:
#
# PCOD8183044 Si02
#       7
#     8   8   8   8   8   8   8
#     4  11  23  36  57  86 116 151 190 238 293 354
#     4  10  19  35  59  85 116 154 195 244 297 352
#     4  10  19  32  53  83 114 146 184 229 285 343
#     4  10  22  39  62  91 122 161 206 255 308 363
#     4  11  21  33  51  77 112 150 189 235 284 345
#     4  10  21  37  59  83 113 154 197 244 303 363
#     4  10  22  42  62  85 121 160 199 249 308 366
#
# _framework density 20.952107999999999
#
# number of rings (size 3 to 8) (size 9 to 14) (size 15 to 20)
#    0.000    1.714    1.429    5.143    0.000    6.286 
#    0.000    2.143    0.000    1.714    0.000    0.000 
#    0.000    0.000    0.000    0.000    0.000    0.000 
#
# Total GULP energy -346917.753625 kJ/mol
# GULP energy per Si atom -12389.919772 kJ/mol
# Density = 2.090442 g / cm^3
# Si number density = 20.952108 Si / 1000 Ang^3
#
#
#
# Elastic Constant Matrix: (Units=GPa)
#
#
# Indices 1 2 3 4 5 6 
#
# 1 59.4287 13.7113 22.9354 0.0000 0.0000 0.0000
# 2 13.7113 102.9323 22.0466 0.0000 0.0000 0.0000
# 3 22.9354 22.0466 102.1873 0.0000 0.0000 0.0000
# 4 0.0000 0.0000 0.0000 9.4103 0.0000 0.0000
# 5 0.0000 0.0000 0.0000 0.0000 23.5707 0.0000
# 6 0.0000 0.0000 0.0000 0.0000 0.0000 25.7231
#
#
#
# Elastic Compliance Matrix: (Units=1/GPa)
#
#
# Indices 1 2 3 4 5 6 
#
# 1 0.018692 -0.001668 -0.003835 0.000000 0.000000 0.000000
# 2 -0.001668 0.010335 -0.001855 0.000000 0.000000 0.000000
# 3 -0.003835 -0.001855 0.011047 0.000000 0.000000 0.000000
# 4 0.000000 0.000000 0.000000 0.106266 0.000000 0.000000
# 5 0.000000 0.000000 0.000000 0.000000 0.042426 0.000000
# 6 0.000000 0.000000 0.000000 0.000000 0.000000 0.038876
#
#
# Mechanical properties :
#
#
# Convention : Reuss Voigt Hill
#
# Bulk Modulus (GPa) = 39.43877 42.43721 40.93799
# Shear Modulus (GPa) = 19.93532 25.46449 22.69991
#
# Velocity S-wave (km/s) = 3.08794 3.48999 3.29510
# Velocity P-wave (km/s) = 5.61943 6.04470 5.83594
#
# Compressibility (1/GPa) = 0.02535576
#
# Stress axis : x y z
#
# Youngs Moduli (GPa) = 53.49882 96.76110 90.52204
#
# Poissons Ratio (x) = 0.16144 0.34718
# Poissons Ratio (y) = 0.08926 0.16794
# Poissons Ratio (z) = 0.20519 0.17951
#
# Static dielectric constant tensor:
#      x y z
#    x 3.740260 0.000000 0.000000 
#    y 0.000000 3.675090 0.000000 
#    z 0.000000 0.000000 4.176750 
# 
# 
# High freq. dielectric constant tensor:
#      x y z
#    x 1.815940 0.000000 0.000000 
#    y 0.000000 1.805490 0.000000 
#    z 0.000000 0.000000 1.812710 
# 
# From -- ./inp_files/22190.got.cif
#   From: 2010.03.12/outbox.cif.g09.slc.cpg/sg40_12_cif.got.tgz:22190.got - 2010.04.14 01:38:03.
