data_PCOD8183917
_publ_section_title
;
Structure prediction by ZEFSAII (Michael W. Deem and Ramdas Pophale) SiO2 
 PCOD8183917
Probable space group: A M A 2
;
_chemical_formula_sum "Si O2"
_cell_formula_units_Z 60
_cell_length_a 23.342426
_cell_length_b 8.782876
_cell_length_c 13.235040
_cell_angle_alpha 90.000000
_cell_angle_beta 90.000000
_cell_angle_gamma 90.000000
_cell_volume 2713.363635
_symmetry_space_group_name_H-M "A M A 2"
_symmetry_group_IT_number 40
_symmetry_cell_setting 'orthorhombic'
loop_
_space_group_symop_operation_xyz
x,y,z
-x,-y,z
1/2-x,y,z
1/2+x,-y,z
x,1/2+y,1/2+z
-x,1/2-y,1/2+z
1/2-x,1/2+y,1/2+z
1/2+x,1/2-y,1/2+z
loop_
_atom_site_type_symbol
_atom_site_label
_atom_site_fract_x
_atom_site_fract_y
_atom_site_fract_z
Si Si1 0.000000 0.000000 0.169410
Si Si2 0.516227 0.756088 0.336772
Si Si3 0.813362 0.292290 0.647813
Si Si4 0.882358 0.086085 0.120907
Si Si5 0.612565 0.271923 0.314174
Si Si6 0.596538 0.067623 0.711319
Si Si7 0.312243 0.893594 0.452647
Si Si8 0.403339 0.616152 0.010012
O O1 0.947039 0.032955 0.094114
O O2 0.018714 0.139096 0.238498
O O3 0.450325 0.722725 0.365715
O O4 0.545404 0.603975 0.290546
O O5 0.544904 0.834176 0.435691
O O6 0.750000 0.318267 0.697905
O O7 0.835559 0.453957 0.603182
O O8 0.862378 0.216912 0.717708
O O9 0.805058 0.160471 0.566223
O O10 0.883154 0.128140 0.239107
O O11 0.871088 0.234817 0.053330
O O12 0.630182 0.426224 0.258624
O O13 0.661347 0.251696 0.396734
O O14 0.576110 0.003672 0.599353
O O15 0.250000 0.938607 0.407662
O O16 0.355052 0.035771 0.441985
#
# Coordination Sequence:
#
# PCOD8183917 Si02
#       8
#     4   8   8   8   8   8   8   8
#     4  10  20  38  58  92 132 160 210 276 314 396
#     4  11  21  41  64  94 137 163 217 270 325 402
#     4  10  22  41  65  91 126 170 218 271 327 390
#     4  10  21  39  60  93 125 165 214 262 327 396
#     4  10  23  41  62  94 126 164 214 268 324 394
#     4  10  22  43  65  94 134 167 214 271 329 395
#     4  10  23  43  63  90 126 167 219 274 321 389
#     4  10  23  41  65  95 126 177 215 262 343 395
#
# _framework density 22.112774000000002
#
# number of rings (size 3 to 8) (size 9 to 14) (size 15 to 20)
#    0.000    1.867    1.333    2.000    1.867    2.667 
#   24.000    2.667    0.000    0.000    0.000    0.000 
#    0.000    0.000    0.000    0.000    0.000    0.000 
#
# Total GULP energy -371682.837765 kJ/mol
# GULP energy per Si atom -12389.427926 kJ/mol
# Density = 2.206244 g / cm^3
# Si number density = 22.112774 Si / 1000 Ang^3
#
#
#
# Elastic Constant Matrix: (Units=GPa)
#
#
# Indices 1 2 3 4 5 6 
#
# 1 104.5717 17.7855 33.2448 0.0000 0.0000 0.0000
# 2 17.7855 81.1117 11.6143 0.0000 0.0000 0.0000
# 3 33.2448 11.6143 58.7934 0.0000 0.0000 0.0000
# 4 0.0000 0.0000 0.0000 33.5434 0.0000 0.0000
# 5 0.0000 0.0000 0.0000 0.0000 22.2187 0.0000
# 6 0.0000 0.0000 0.0000 0.0000 0.0000 19.4796
#
#
#
# Elastic Compliance Matrix: (Units=1/GPa)
#
#
# Indices 1 2 3 4 5 6 
#
# 1 0.011880 -0.001691 -0.006383 0.000000 0.000000 0.000000
# 2 -0.001691 0.012928 -0.001598 0.000000 0.000000 0.000000
# 3 -0.006383 -0.001598 0.020934 0.000000 0.000000 0.000000
# 4 0.000000 0.000000 0.000000 0.029812 0.000000 0.000000
# 5 0.000000 0.000000 0.000000 0.000000 0.045007 0.000000
# 6 0.000000 0.000000 0.000000 0.000000 0.000000 0.051336
#
#
# Mechanical properties :
#
#
# Convention : Reuss Voigt Hill
#
# Bulk Modulus (GPa) = 37.88208 41.08511 39.48359
# Shear Modulus (GPa) = 24.99497 27.17048 26.08273
#
# Velocity S-wave (km/s) = 3.36570 3.50912 3.43816
# Velocity P-wave (km/s) = 5.68088 5.91935 5.80134
#
# Compressibility (1/GPa) = 0.02639771
#
# Stress axis : x y z
#
# Youngs Moduli (GPa) = 84.17665 77.35011 47.76945
#
# Poissons Ratio (x) = 0.13079 0.30493
# Poissons Ratio (y) = 0.14233 0.07633
# Poissons Ratio (z) = 0.53734 0.12359
#
# Static dielectric constant tensor:
#      x y z
#    x 4.273300 0.000000 0.000000 
#    y 0.000000 4.139920 0.000000 
#    z 0.000000 0.000000 3.759970 
# 
# 
# High freq. dielectric constant tensor:
#      x y z
#    x 1.859900 0.000000 0.000000 
#    y 0.000000 1.882220 0.000000 
#    z 0.000000 0.000000 1.847980 
# 
# From -- ./inp_files/18474.got.cif
#   From: 2010.03.12/outbox.cif.g09.slc.cpg/sg40_10_cif.got.tgz:18474.got - 2010.04.14 01:38:03.
