data_PCOD8183113
_publ_section_title
;
Structure prediction by ZEFSAII (Michael W. Deem and Ramdas Pophale) SiO2 
 PCOD8183113
Probable space group: A M A 2
;
_chemical_formula_sum "Si O2"
_cell_formula_units_Z 64
_cell_length_a 8.630227
_cell_length_b 28.860536
_cell_length_c 12.384962
_cell_angle_alpha 90.000000
_cell_angle_beta 90.000000
_cell_angle_gamma 90.000000
_cell_volume 3084.759356
_symmetry_space_group_name_H-M "A M A 2"
_symmetry_group_IT_number 40
_symmetry_cell_setting 'orthorhombic'
loop_
_space_group_symop_operation_xyz
x,y,z
-x,-y,z
1/2-x,y,z
1/2+x,-y,z
x,1/2+y,1/2+z
-x,1/2-y,1/2+z
1/2-x,1/2+y,1/2+z
1/2+x,1/2-y,1/2+z
loop_
_atom_site_type_symbol
_atom_site_label
_atom_site_fract_x
_atom_site_fract_y
_atom_site_fract_z
Si Si1 0.072447 0.864385 0.697790
Si Si2 0.565266 0.951789 0.166216
Si Si3 0.573560 0.562469 0.898727
Si Si4 0.927769 0.311052 0.372700
Si Si5 0.077822 0.833276 0.466833
Si Si6 0.930288 0.954636 0.615789
Si Si7 0.434789 0.651757 0.601426
Si Si8 0.927275 0.780736 0.290245
O O1 0.250000 0.858563 0.734601
O O2 0.036586 0.832620 0.593310
O O3 0.956535 0.854909 0.796135
O O4 0.041892 0.916246 0.663286
O O5 0.750000 0.954185 0.167839
O O6 0.495760 0.952185 0.285288
O O7 0.510640 0.902605 0.110742
O O8 0.500000 0.000000 0.110416
O O9 0.750000 0.543980 0.912143
O O10 0.571612 0.617277 0.911118
O O11 0.458204 0.541136 0.987412
O O12 0.750000 0.299454 0.388516
O O13 0.997487 0.324440 0.490505
O O14 0.002531 0.270197 0.301470
O O15 0.250000 0.811921 0.450565
O O16 0.950238 0.802257 0.408589
O O17 0.750000 0.946451 0.641764
O O18 0.000000 0.000000 0.672831
O O19 0.250000 0.651413 0.604320
O O20 0.500038 0.684872 0.698582
O O21 0.750000 0.773991 0.261798
#
# Coordination Sequence:
#
# PCOD8183113 Si02
#       8
#     8   8   8   8   8   8   8   8
#     4  10  22  41  61  87 123 159 201 254 306 360
#     4  11  21  37  59  87 120 164 209 258 315 378
#     4  10  19  33  53  84 123 161 198 249 306 364
#     4  11  24  43  64  89 120 164 210 255 313 374
#     4   9  19  35  57  85 120 156 192 242 299 356
#     4  11  21  35  57  86 120 162 207 254 307 369
#     4   9  22  43  64  86 125 167 205 257 316 373
#     4  11  22  39  63  92 121 158 201 248 308 371
#
# _framework density 20.747160999999998
#
# number of rings (size 3 to 8) (size 9 to 14) (size 15 to 20)
#    0.000    1.750    1.250    4.125    1.750    2.500 
#    0.000    5.000    0.000    1.500    0.000    0.000 
#    0.000    0.000    0.000    0.000    0.000    0.000 
#
# Total GULP energy -396495.901191 kJ/mol
# GULP energy per Si atom -12390.496912 kJ/mol
# Density = 2.069994 g / cm^3
# Si number density = 20.747161 Si / 1000 Ang^3
#
#
#
# Elastic Constant Matrix: (Units=GPa)
#
#
# Indices 1 2 3 4 5 6 
#
# 1 58.9877 18.4990 17.3400 0.0000 0.0000 0.0000
# 2 18.4990 106.5245 47.4837 0.0000 0.0000 0.0000
# 3 17.3400 47.4837 96.7452 0.0000 0.0000 0.0000
# 4 0.0000 0.0000 0.0000 -20.4533 0.0000 0.0000
# 5 0.0000 0.0000 0.0000 0.0000 24.9251 0.0000
# 6 0.0000 0.0000 0.0000 0.0000 0.0000 33.6614
#
#
#
# Elastic Compliance Matrix: (Units=1/GPa)
#
#
# Indices 1 2 3 4 5 6 
#
# 1 0.018288 -0.002195 -0.002200 0.000000 0.000000 0.000000
# 2 -0.002195 0.012280 -0.005634 0.000000 0.000000 0.000000
# 3 -0.002200 -0.005634 0.013496 0.000000 0.000000 0.000000
# 4 0.000000 0.000000 0.000000 -0.048892 0.000000 0.000000
# 5 0.000000 0.000000 0.000000 0.000000 0.040120 0.000000
# 6 0.000000 0.000000 0.000000 0.000000 0.000000 0.029708
#
#
# Mechanical properties :
#
#
# Convention : Reuss Voigt Hill
#
# Bulk Modulus (GPa) = 41.65733 47.65587 44.65660
# Shear Modulus (GPa) = 53.72882 19.55563 36.64222
#
# Velocity S-wave (km/s) = 5.09443 3.07346 4.20710
# Velocity P-wave (km/s) = 7.39773 5.96779 6.72090
#
# Compressibility (1/GPa) = 0.02400538
#
# Stress axis : x y z
#
# Youngs Moduli (GPa) = 54.68095 81.43353 74.09644
#
# Poissons Ratio (x) = 0.17875 0.16305
# Poissons Ratio (y) = 0.12003 0.41744
# Poissons Ratio (z) = 0.12032 0.45877
#
# Static dielectric constant tensor:
#      x y z
#    x 3.663090 0.000000 0.000000 
#    y 0.000000 4.108910 0.000000 
#    z 0.000000 0.000000 3.776570 
# 
# 
# High freq. dielectric constant tensor:
#      x y z
#    x 1.797980 0.000000 0.000000 
#    y 0.000000 1.829370 0.000000 
#    z 0.000000 0.000000 1.790600 
# 
# From -- ./inp_files/10634.got.cif
#   From: 2010.03.12/outbox.cif.g09.slc.cpg/sg40_6_cif.got.tgz:10634.got - 2010.04.14 01:38:03.
