data_PCOD8183284
_publ_section_title
;
Structure prediction by ZEFSAII (Michael W. Deem and Ramdas Pophale) SiO2 
 PCOD8183284
Probable space group: A M A 2
;
_chemical_formula_sum "Si O2"
_cell_formula_units_Z 48
_cell_length_a 16.745764
_cell_length_b 16.026534
_cell_length_c 9.132573
_cell_angle_alpha 90.000000
_cell_angle_beta 90.000000
_cell_angle_gamma 90.000000
_cell_volume 2450.968490
_symmetry_space_group_name_H-M "A M A 2"
_symmetry_group_IT_number 40
_symmetry_cell_setting 'orthorhombic'
loop_
_space_group_symop_operation_xyz
x,y,z
-x,-y,z
1/2-x,y,z
1/2+x,-y,z
x,1/2+y,1/2+z
-x,1/2-y,1/2+z
1/2-x,1/2+y,1/2+z
1/2+x,1/2-y,1/2+z
loop_
_atom_site_type_symbol
_atom_site_label
_atom_site_fract_x
_atom_site_fract_y
_atom_site_fract_z
Si Si1 0.091122 0.856491 0.250000
Si Si2 0.656356 0.477112 0.625208
Si Si3 0.838682 0.888258 0.849834
Si Si4 0.339060 0.283970 0.022153
Si Si5 0.843881 0.294691 0.079337
Si Si6 0.091724 0.683549 0.765282
O O1 0.104399 0.949757 0.193543
O O2 0.114581 0.851531 0.422119
O O3 0.145877 0.795318 0.154051
O O4 0.999392 0.834415 0.227679
O O5 0.750000 0.500248 0.622024
O O6 0.622470 0.457230 0.459050
O O7 0.646620 0.395047 0.724512
O O8 0.750000 0.919923 0.817790
O O9 0.877370 0.867727 0.690856
O O10 0.836642 0.802230 0.936613
O O11 0.250000 0.317797 0.053299
O O12 0.383057 0.267177 0.176602
O O13 0.750000 0.306843 0.044945
O O14 0.897479 0.298094 0.935948
#
# Coordination Sequence:
#
# PCOD8183284 Si02
#       6
#     8   8   8   8   8   8
#     4  11  21  34  54  82 112 141 183 240 282 315
#     4  10  19  35  56  78 105 145 187 225 273 339
#     4   7  14  29  52  75  98 132 178 217 258 322
#     4   9  17  33  53  74 102 143 183 216 262 332
#     4  10  19  35  57  81 107 145 190 231 276 339
#     4  11  21  34  54  82 113 144 182 231 282 331
#
# _framework density 19.584094
#
# number of rings (size 3 to 8) (size 9 to 14) (size 15 to 20)
#    0.000    2.333    0.000    6.500    0.000    0.000 
#    0.000    1.667    0.000    8.000    0.000    0.000 
#    0.000    0.000    0.000    0.000    0.000    0.000 
#
# Total GULP energy -297389.169756 kJ/mol
# GULP energy per Si atom -12391.215407 kJ/mol
# Density = 1.953952 g / cm^3
# Si number density = 19.584094 Si / 1000 Ang^3
#
#
#
# Elastic Constant Matrix: (Units=GPa)
#
#
# Indices 1 2 3 4 5 6 
#
# 1 66.4712 1.3175 13.9726 0.0000 0.0000 0.0000
# 2 1.3175 64.8278 42.3252 0.0000 0.0000 0.0000
# 3 13.9726 42.3252 142.4612 0.0000 0.0000 0.0000
# 4 0.0000 0.0000 0.0000 32.7220 0.0000 0.0000
# 5 0.0000 0.0000 0.0000 0.0000 24.8937 0.0000
# 6 0.0000 0.0000 0.0000 0.0000 0.0000 21.3524
#
#
#
# Elastic Compliance Matrix: (Units=1/GPa)
#
#
# Indices 1 2 3 4 5 6 
#
# 1 0.015397 0.000835 -0.001758 0.000000 0.000000 0.000000
# 2 0.000835 0.019183 -0.005781 0.000000 0.000000 0.000000
# 3 -0.001758 -0.005781 0.008909 0.000000 0.000000 0.000000
# 4 0.000000 0.000000 0.000000 0.030561 0.000000 0.000000
# 5 0.000000 0.000000 0.000000 0.000000 0.040171 0.000000
# 6 0.000000 0.000000 0.000000 0.000000 0.000000 0.046833
#
#
# Mechanical properties :
#
#
# Convention : Reuss Voigt Hill
#
# Bulk Modulus (GPa) = 33.24379 43.22122 38.23251
# Shear Modulus (GPa) = 27.10179 30.20328 28.65253
#
# Velocity S-wave (km/s) = 3.72407 3.93139 3.82913
# Velocity P-wave (km/s) = 5.95847 6.53645 6.25414
#
# Compressibility (1/GPa) = 0.03008080
#
# Stress axis : x y z
#
# Youngs Moduli (GPa) = 64.94708 52.12968 112.23998
#
# Poissons Ratio (x) = -0.04353 0.19734
# Poissons Ratio (y) = -0.05423 0.64888
# Poissons Ratio (z) = 0.11419 0.30137
#
# Static dielectric constant tensor:
#      x y z
#    x 3.410360 0.000000 0.000000 
#    y 0.000000 3.340900 0.000000 
#    z 0.000000 0.000000 3.961680 
# 
# 
# High freq. dielectric constant tensor:
#      x y z
#    x 1.752940 0.000000 0.000000 
#    y 0.000000 1.727940 0.000000 
#    z 0.000000 0.000000 1.770730 
# 
# From -- ./inp_files/6432.got.cif
#   From: 2010.03.12/outbox.cif.g09.slc.cpg/sg40_4_cif.got.tgz:6432.got - 2010.04.14 01:38:03.
