data_PCOD8183273
_publ_section_title
;
Structure prediction by ZEFSAII (Michael W. Deem and Ramdas Pophale) SiO2 
 PCOD8183273
Probable space group: A M A 2
;
_chemical_formula_sum "Si O2"
_cell_formula_units_Z 44
_cell_length_a 23.578207
_cell_length_b 8.850666
_cell_length_c 10.376465
_cell_angle_alpha 90.000000
_cell_angle_beta 90.000000
_cell_angle_gamma 90.000000
_cell_volume 2165.390134
_symmetry_space_group_name_H-M "A M A 2"
_symmetry_group_IT_number 40
_symmetry_cell_setting 'orthorhombic'
loop_
_space_group_symop_operation_xyz
x,y,z
-x,-y,z
1/2-x,y,z
1/2+x,-y,z
x,1/2+y,1/2+z
-x,1/2-y,1/2+z
1/2-x,1/2+y,1/2+z
1/2+x,1/2-y,1/2+z
loop_
_atom_site_type_symbol
_atom_site_label
_atom_site_fract_x
_atom_site_fract_y
_atom_site_fract_z
Si Si1 0.750000 0.357231 0.733990
Si Si2 0.066816 0.491156 0.240653
Si Si3 0.863696 0.503027 0.994535
Si Si4 0.250000 0.482121 0.479891
Si Si5 0.873393 0.317585 0.739262
Si Si6 0.135646 0.143900 0.958579
Si Si7 0.250000 0.627230 0.005480
O O1 0.750000 0.490249 0.631369
O O2 0.807764 0.257822 0.723822
O O3 0.750000 0.454245 0.865283
O O4 0.086469 0.321762 0.272074
O O5 0.089883 0.605350 0.349492
O O6 0.000000 0.500000 0.245406
O O7 0.086456 0.531783 0.095862
O O8 0.879976 0.430573 0.858133
O O9 0.853162 0.677833 0.966378
O O10 0.808550 0.429068 0.068080
O O11 0.193557 0.557056 0.419472
O O12 0.250000 0.302893 0.465154
O O13 0.888027 0.400820 0.602476
#
# Coordination Sequence:
#
# PCOD8183273 Si02
#       7
#     4   8   8   4   8   8   4
#     4   8  16  32  56  84 114 144 184 232 288 354
#     4  11  25  41  57  83 118 158 207 252 289 337
#     4  10  22  39  62  91 120 153 194 242 296 355
#     4  10  19  34  60  93 124 153 185 231 295 364
#     4   9  20  39  60  85 118 152 190 243 300 355
#     4  10  21  38  61  88 118 153 194 239 293 352
#     4  10  19  34  60  91 122 153 183 229 297 360
#
# _framework density 20.319662999999998
#
# number of rings (size 3 to 8) (size 9 to 14) (size 15 to 20)
#    0.000    2.182    0.000    2.727    0.000   11.636 
#    0.000    0.909    0.000    0.000    0.000    0.000 
#    0.000    0.000    0.000    0.000    0.000    0.000 
#
# Total GULP energy -272561.445679 kJ/mol
# GULP energy per Si atom -12389.156622 kJ/mol
# Density = 2.027341 g / cm^3
# Si number density = 20.319663 Si / 1000 Ang^3
#
#
#
# Elastic Constant Matrix: (Units=GPa)
#
#
# Indices 1 2 3 4 5 6 
#
# 1 151.8043 60.8208 50.2943 0.0000 0.0000 0.0000
# 2 60.8208 100.2360 55.5128 0.0000 0.0000 0.0000
# 3 50.2943 55.5128 121.4494 0.0000 0.0000 0.0000
# 4 0.0000 0.0000 0.0000 31.6449 0.0000 0.0000
# 5 0.0000 0.0000 0.0000 0.0000 28.2960 0.0000
# 6 0.0000 0.0000 0.0000 0.0000 0.0000 25.0629
#
#
#
# Elastic Compliance Matrix: (Units=1/GPa)
#
#
# Indices 1 2 3 4 5 6 
#
# 1 0.008940 -0.004518 -0.001637 0.000000 0.000000 0.000000
# 2 -0.004518 0.015641 -0.005278 0.000000 0.000000 0.000000
# 3 -0.001637 -0.005278 0.011325 0.000000 0.000000 0.000000
# 4 0.000000 0.000000 0.000000 0.031601 0.000000 0.000000
# 5 0.000000 0.000000 0.000000 0.000000 0.035341 0.000000
# 6 0.000000 0.000000 0.000000 0.000000 0.000000 0.039900
#
#
# Mechanical properties :
#
#
# Convention : Reuss Voigt Hill
#
# Bulk Modulus (GPa) = 76.69439 78.52730 77.61085
# Shear Modulus (GPa) = 29.41878 30.79154 30.10516
#
# Velocity S-wave (km/s) = 3.80912 3.89698 3.85330
# Velocity P-wave (km/s) = 7.56120 7.67975 7.62070
#
# Compressibility (1/GPa) = 0.01303876
#
# Stress axis : x y z
#
# Youngs Moduli (GPa) = 111.85789 63.93423 88.30388
#
# Poissons Ratio (x) = 0.28885 0.14456
# Poissons Ratio (y) = 0.50536 0.46610
# Poissons Ratio (z) = 0.18313 0.33747
#
# Static dielectric constant tensor:
#      x y z
#    x 3.649720 0.000000 0.000000 
#    y 0.000000 3.432240 0.000000 
#    z 0.000000 0.000000 4.031720 
# 
# 
# High freq. dielectric constant tensor:
#      x y z
#    x 1.779000 0.000000 0.000000 
#    y 0.000000 1.778650 0.000000 
#    z 0.000000 0.000000 1.811550 
# 
# From -- ./inp_files/13872.got.cif
#   From: 2010.03.12/outbox.cif.g09.slc.cpg/sg40_7_cif.got.tgz:13872.got - 2010.04.14 01:38:03.
