data_PCOD8183430
_publ_section_title
;
Structure prediction by ZEFSAII (Michael W. Deem and Ramdas Pophale) SiO2 
 PCOD8183430
Probable space group: A M A 2
;
_chemical_formula_sum "Si O2"
_cell_formula_units_Z 40
_cell_length_a 18.064156
_cell_length_b 12.190040
_cell_length_c 8.096708
_cell_angle_alpha 90.000000
_cell_angle_beta 90.000000
_cell_angle_gamma 90.000000
_cell_volume 1782.917645
_symmetry_space_group_name_H-M "A M A 2"
_symmetry_group_IT_number 40
_symmetry_cell_setting 'orthorhombic'
loop_
_space_group_symop_operation_xyz
x,y,z
-x,-y,z
1/2-x,y,z
1/2+x,-y,z
x,1/2+y,1/2+z
-x,1/2-y,1/2+z
1/2-x,1/2+y,1/2+z
1/2+x,1/2-y,1/2+z
loop_
_atom_site_type_symbol
_atom_site_label
_atom_site_fract_x
_atom_site_fract_y
_atom_site_fract_z
Si Si1 0.412938 0.024845 0.876230
Si Si2 0.080487 0.831548 0.672491
Si Si3 0.166203 0.743080 0.383474
Si Si4 0.034712 0.642575 0.885701
Si Si5 0.898329 0.550541 0.732709
O O1 0.389457 0.147366 0.819636
O O2 0.500000 0.000000 0.880937
O O3 0.381862 0.943422 0.736142
O O4 0.377820 0.999314 0.055257
O O5 0.142277 0.767464 0.570496
O O6 0.063258 0.763010 0.839252
O O7 0.006657 0.856161 0.562362
O O8 0.250000 0.699665 0.378150
O O9 0.161027 0.855393 0.278323
O O10 0.098579 0.547997 0.872226
O O11 0.978073 0.610867 0.736885
#
# Coordination Sequence:
#
# PCOD8183430 Si02
#       5
#     8   8   8   8   8
#     4  12  23  41  73 103 131 178 228 294 342 401
#     4  11  23  39  70  99 141 171 220 284 346 409
#     4  11  26  46  65  95 140 188 231 280 344 422
#     4  10  19  39  63 104 136 164 216 284 349 398
#     4  10  20  41  61  96 134 170 219 276 336 403
#
# _framework density 22.435137000000001
#
# number of rings (size 3 to 8) (size 9 to 14) (size 15 to 20)
#    0.000    1.200    4.000    3.600    5.600    1.600 
#    0.000    0.000    0.000    0.000    0.000    0.000 
#    0.000    0.000    0.000    0.000    0.000    0.000 
#
# Total GULP energy -247822.868669 kJ/mol
# GULP energy per Si atom -12391.143433 kJ/mol
# Density = 2.238407 g / cm^3
# Si number density = 22.435137 Si / 1000 Ang^3
#
#
#
# Elastic Constant Matrix: (Units=GPa)
#
#
# Indices 1 2 3 4 5 6 
#
# 1 86.1693 46.2126 13.0731 0.0000 0.0000 0.0000
# 2 46.2126 166.9710 48.7737 0.0000 0.0000 0.0000
# 3 13.0731 48.7737 70.6408 0.0000 0.0000 0.0000
# 4 0.0000 0.0000 0.0000 49.5057 0.0000 0.0000
# 5 0.0000 0.0000 0.0000 0.0000 13.5015 0.0000
# 6 0.0000 0.0000 0.0000 0.0000 0.0000 23.3345
#
#
#
# Elastic Compliance Matrix: (Units=1/GPa)
#
#
# Indices 1 2 3 4 5 6 
#
# 1 0.013628 -0.003802 0.000103 0.000000 0.000000 0.000000
# 2 -0.003802 0.008563 -0.005209 0.000000 0.000000 0.000000
# 3 0.000103 -0.005209 0.017733 0.000000 0.000000 0.000000
# 4 0.000000 0.000000 0.000000 0.020200 0.000000 0.000000
# 5 0.000000 0.000000 0.000000 0.000000 0.074066 0.000000
# 6 0.000000 0.000000 0.000000 0.000000 0.000000 0.042855
#
#
# Mechanical properties :
#
#
# Convention : Reuss Voigt Hill
#
# Bulk Modulus (GPa) = 45.22979 59.98890 52.60934
# Shear Modulus (GPa) = 24.72432 31.64979 28.18706
#
# Velocity S-wave (km/s) = 3.32329 3.76004 3.54839
# Velocity P-wave (km/s) = 5.91014 6.75628 6.34733
#
# Compressibility (1/GPa) = 0.02210932
#
# Stress axis : x y z
#
# Youngs Moduli (GPa) = 73.37579 116.78405 56.39114
#
# Poissons Ratio (x) = 0.44402 -0.00581
# Poissons Ratio (y) = 0.27898 0.29372
# Poissons Ratio (z) = -0.00755 0.60827
#
# Static dielectric constant tensor:
#      x y z
#    x 3.405520 0.000000 0.000000 
#    y 0.000000 4.613380 0.000000 
#    z 0.000000 0.000000 3.927190 
# 
# 
# High freq. dielectric constant tensor:
#      x y z
#    x 1.810700 0.000000 0.000000 
#    y 0.000000 1.916850 0.000000 
#    z 0.000000 0.000000 1.879160 
# 
# From -- ./inp_files/8104.got.cif
#   From: 2010.03.12/outbox.cif.g09.slc.cpg/sg40_5_cif.got.tgz:8104.got - 2010.04.14 01:38:03.
