data_PCOD8183930
_publ_section_title
;
Structure prediction by ZEFSAII (Michael W. Deem and Ramdas Pophale) SiO2 
 PCOD8183930
Probable space group: A M A 2
;
_chemical_formula_sum "Si O2"
_cell_formula_units_Z 64
_cell_length_a 20.133233
_cell_length_b 17.825681
_cell_length_c 9.095497
_cell_angle_alpha 90.000000
_cell_angle_beta 90.000000
_cell_angle_gamma 90.000000
_cell_volume 3264.270084
_symmetry_space_group_name_H-M "A M A 2"
_symmetry_group_IT_number 40
_symmetry_cell_setting 'orthorhombic'
loop_
_space_group_symop_operation_xyz
x,y,z
-x,-y,z
1/2-x,y,z
1/2+x,-y,z
x,1/2+y,1/2+z
-x,1/2-y,1/2+z
1/2-x,1/2+y,1/2+z
1/2+x,1/2-y,1/2+z
loop_
_atom_site_type_symbol
_atom_site_label
_atom_site_fract_x
_atom_site_fract_y
_atom_site_fract_z
Si Si1 0.674667 0.219421 0.990070
Si Si2 0.949053 0.720200 0.936810
Si Si3 0.324916 0.049452 0.873614
Si Si4 0.930864 0.032755 0.694824
Si Si5 0.062275 0.797130 0.771533
Si Si6 0.556179 0.054939 0.362709
Si Si7 0.826204 0.558724 0.633651
Si Si8 0.675195 0.781100 0.799496
O O1 0.750000 0.227694 0.931601
O O2 0.624841 0.239895 0.856855
O O3 0.660909 0.134678 0.043068
O O4 0.661332 0.277864 0.123760
O O5 0.974926 0.637960 0.888548
O O6 0.873594 0.724176 0.880552
O O7 0.995383 0.783067 0.863844
O O8 0.948599 0.737020 0.110283
O O9 0.250000 0.029729 0.828193
O O10 0.336537 0.138280 0.872306
O O11 0.370613 0.016015 0.749777
O O12 0.340724 0.013876 0.032478
O O13 0.923671 0.115525 0.757515
O O14 0.923804 0.024179 0.521114
O O15 0.000000 0.000000 0.753616
O O16 0.622391 0.054813 0.266445
O O17 0.500000 0.000000 0.292829
O O18 0.750000 0.557386 0.692253
O O19 0.750000 0.752221 0.828004
#
# Coordination Sequence:
#
# PCOD8183930 Si02
#       8
#     8   8   8   8   8   8   8   8
#     4  10  20  38  61  85 117 158 203 250 307 376
#     4  11  23  38  59  88 120 159 206 253 310 373
#     4  10  21  37  60  88 117 153 199 251 300 360
#     4  10  21  38  57  83 117 155 198 245 302 365
#     4  11  23  37  60  86 115 158 202 251 306 371
#     4  10  23  39  58  87 122 157 199 254 308 367
#     4  10  20  38  62  89 121 157 204 254 305 370
#     4  10  21  39  62  88 122 160 200 251 309 368
#
# _framework density 19.60622
#
# number of rings (size 3 to 8) (size 9 to 14) (size 15 to 20)
#    0.000    1.750    2.500    1.500    0.000    4.500 
#    0.000    2.500    0.000    5.250    0.000    0.000 
#    0.000    0.000    0.000    0.000    0.000    0.000 
#
# Total GULP energy -396802.195591 kJ/mol
# GULP energy per Si atom -12400.068612 kJ/mol
# Density = 1.956160 g / cm^3
# Si number density = 19.606220 Si / 1000 Ang^3
#
#
#
# Elastic Constant Matrix: (Units=GPa)
#
#
# Indices 1 2 3 4 5 6 
#
# 1 111.8338 20.7776 62.1694 0.0000 0.0000 0.0000
# 2 20.7776 52.2482 25.0493 0.0000 0.0000 0.0000
# 3 62.1694 25.0493 100.3883 0.0000 0.0000 0.0000
# 4 0.0000 0.0000 0.0000 30.0020 0.0000 0.0000
# 5 0.0000 0.0000 0.0000 0.0000 40.4361 0.0000
# 6 0.0000 0.0000 0.0000 0.0000 0.0000 27.7599
#
#
#
# Elastic Compliance Matrix: (Units=1/GPa)
#
#
# Indices 1 2 3 4 5 6 
#
# 1 0.013749 -0.001574 -0.008122 0.000000 0.000000 0.000000
# 2 -0.001574 0.021920 -0.004495 0.000000 0.000000 0.000000
# 3 -0.008122 -0.004495 0.016113 0.000000 0.000000 0.000000
# 4 0.000000 0.000000 0.000000 0.033331 0.000000 0.000000
# 5 0.000000 0.000000 0.000000 0.000000 0.024730 0.000000
# 6 0.000000 0.000000 0.000000 0.000000 0.000000 0.036023
#
#
# Mechanical properties :
#
#
# Convention : Reuss Voigt Hill
#
# Bulk Modulus (GPa) = 42.73377 53.38478 48.05927
# Shear Modulus (GPa) = 27.46506 30.07120 28.76813
#
# Velocity S-wave (km/s) = 3.74683 3.92057 3.83469
# Velocity P-wave (km/s) = 6.36881 6.91246 6.64619
#
# Compressibility (1/GPa) = 0.02340070
#
# Stress axis : x y z
#
# Youngs Moduli (GPa) = 72.73036 45.61983 62.06198
#
# Poissons Ratio (x) = 0.07179 0.50408
# Poissons Ratio (y) = 0.11446 0.27897
# Poissons Ratio (z) = 0.59073 0.20506
#
# Static dielectric constant tensor:
#      x y z
#    x 3.671790 0.000000 0.000000 
#    y 0.000000 3.628290 0.000000 
#    z 0.000000 0.000000 3.527820 
# 
# 
# High freq. dielectric constant tensor:
#      x y z
#    x 1.774280 0.000000 0.000000 
#    y 0.000000 1.761050 0.000000 
#    z 0.000000 0.000000 1.757210 
# 
# From -- ./inp_files/8453.got.cif
#   From: 2010.03.12/outbox.cif.g09.slc.cpg/sg40_5_cif.got.tgz:8453.got - 2010.04.14 01:38:03.
