data_PCOD8183185
_publ_section_title
;
Structure prediction by ZEFSAII (Michael W. Deem and Ramdas Pophale) SiO2 
 PCOD8183185
Probable space group: A M A 2
;
_chemical_formula_sum "Si O2"
_cell_formula_units_Z 56
_cell_length_a 8.827089
_cell_length_b 18.804660
_cell_length_c 17.654226
_cell_angle_alpha 90.000000
_cell_angle_beta 90.000000
_cell_angle_gamma 90.000000
_cell_volume 2930.432167
_symmetry_space_group_name_H-M "A M A 2"
_symmetry_group_IT_number 40
_symmetry_cell_setting 'orthorhombic'
loop_
_space_group_symop_operation_xyz
x,y,z
-x,-y,z
1/2-x,y,z
1/2+x,-y,z
x,1/2+y,1/2+z
-x,1/2-y,1/2+z
1/2-x,1/2+y,1/2+z
1/2+x,1/2-y,1/2+z
loop_
_atom_site_type_symbol
_atom_site_label
_atom_site_fract_x
_atom_site_fract_y
_atom_site_fract_z
Si Si1 0.571455 0.713204 0.305720
Si Si2 0.419565 0.292582 0.672139
Si Si3 0.929161 0.575439 0.213067
Si Si4 0.927977 0.429452 0.661067
Si Si5 0.080746 0.652807 0.077388
Si Si6 0.419913 0.300903 0.926549
Si Si7 0.579490 0.064758 0.321771
O O1 0.750000 0.719324 0.313299
O O2 0.515556 0.771203 0.245553
O O3 0.523773 0.634193 0.276565
O O4 0.499503 0.731749 0.388052
O O5 0.250000 0.314466 0.699173
O O6 0.499230 0.357489 0.626730
O O7 0.411688 0.229530 0.613787
O O8 0.750000 0.567870 0.208136
O O9 0.000000 0.500000 0.237284
O O10 0.988100 0.598299 0.130069
O O11 0.750000 0.429537 0.647706
O O12 0.000000 0.500000 0.622367
O O13 0.973702 0.426150 0.748799
O O14 0.250000 0.621724 0.066766
O O15 0.004573 0.664811 0.997070
O O16 0.250000 0.278687 0.950234
O O17 0.418742 0.362863 0.866019
O O18 0.750000 0.042964 0.298058
O O19 0.500000 0.000000 0.368991
#
# Coordination Sequence:
#
# PCOD8183185 Si02
#       7
#     8   8   8   8   8   8   8
#     4  10  20  34  56  82 107 141 185 230 275 328
#     4  10  19  34  53  76 104 136 177 224 269 318
#     4  10  21  38  60  86 114 146 189 236 284 339
#     4  11  20  30  49  74 102 135 169 212 256 307
#     4  10  22  37  56  79 109 146 183 226 276 330
#     4  11  22  35  53  78 112 148 185 227 272 329
#     4  10  20  32  47  71 103 138 173 211 253 304
#
# _framework density 19.10981
#
# number of rings (size 3 to 8) (size 9 to 14) (size 15 to 20)
#    0.000    1.714    1.429    4.714    0.000    5.714 
#    0.000    1.429    0.000    0.857    0.000    4.000 
#    0.000    0.000    0.000    0.000    0.000    0.000 
#
# Total GULP energy -347057.240612 kJ/mol
# GULP energy per Si atom -12394.901450 kJ/mol
# Density = 1.906632 g / cm^3
# Si number density = 19.109810 Si / 1000 Ang^3
#
#
#
# Elastic Constant Matrix: (Units=GPa)
#
#
# Indices 1 2 3 4 5 6 
#
# 1 123.2760 47.3154 12.1036 0.0000 0.0000 0.0000
# 2 47.3154 107.6486 8.1512 0.0000 0.0000 0.0000
# 3 12.1036 8.1512 28.9642 0.0000 0.0000 0.0000
# 4 0.0000 0.0000 0.0000 13.0947 0.0000 0.0000
# 5 0.0000 0.0000 0.0000 0.0000 23.6217 0.0000
# 6 0.0000 0.0000 0.0000 0.0000 0.0000 34.0550
#
#
#
# Elastic Compliance Matrix: (Units=1/GPa)
#
#
# Indices 1 2 3 4 5 6 
#
# 1 0.010008 -0.004171 -0.003008 0.000000 0.000000 0.000000
# 2 -0.004171 0.011230 -0.001417 0.000000 0.000000 0.000000
# 3 -0.003008 -0.001417 0.036181 0.000000 0.000000 0.000000
# 4 0.000000 0.000000 0.000000 0.076367 0.000000 0.000000
# 5 0.000000 0.000000 0.000000 0.000000 0.042334 0.000000
# 6 0.000000 0.000000 0.000000 0.000000 0.000000 0.029364
#
#
# Mechanical properties :
#
#
# Convention : Reuss Voigt Hill
#
# Bulk Modulus (GPa) = 24.85957 43.89213 34.37585
# Shear Modulus (GPa) = 21.17857 26.97550 24.07704
#
# Velocity S-wave (km/s) = 3.33266 3.76121 3.55340
# Velocity P-wave (km/s) = 5.27692 6.47151 5.90451
#
# Compressibility (1/GPa) = 0.04022596
#
# Stress axis : x y z
#
# Youngs Moduli (GPa) = 99.91790 89.04564 27.63848
#
# Poissons Ratio (x) = 0.37143 0.08315
# Poissons Ratio (y) = 0.41678 0.03917
# Poissons Ratio (z) = 0.30059 0.12621
#
# Static dielectric constant tensor:
#      x y z
#    x 4.051940 0.000000 0.000000 
#    y 0.000000 4.125320 0.000000 
#    z 0.000000 0.000000 3.229650 
# 
# 
# High freq. dielectric constant tensor:
#      x y z
#    x 1.764380 0.000000 0.000000 
#    y 0.000000 1.755200 0.000000 
#    z 0.000000 0.000000 1.697670 
# 
# From -- ./inp_files/19514.got.cif
#   From: 2010.03.12/outbox.cif.g09.slc.cpg/sg40_10_cif.got.tgz:19514.got - 2010.04.14 01:38:03.
