data_PCOD8183687
_publ_section_title
;
Structure prediction by ZEFSAII (Michael W. Deem and Ramdas Pophale) SiO2 
 PCOD8183687
Probable space group: A M A 2
;
_chemical_formula_sum "Si O2"
_cell_formula_units_Z 48
_cell_length_a 15.245264
_cell_length_b 8.581357
_cell_length_c 18.396405
_cell_angle_alpha 90.000000
_cell_angle_beta 90.000000
_cell_angle_gamma 90.000000
_cell_volume 2406.710658
_symmetry_space_group_name_H-M "A M A 2"
_symmetry_group_IT_number 40
_symmetry_cell_setting 'orthorhombic'
loop_
_space_group_symop_operation_xyz
x,y,z
-x,-y,z
1/2-x,y,z
1/2+x,-y,z
x,1/2+y,1/2+z
-x,1/2-y,1/2+z
1/2-x,1/2+y,1/2+z
1/2+x,1/2-y,1/2+z
loop_
_atom_site_type_symbol
_atom_site_label
_atom_site_fract_x
_atom_site_fract_y
_atom_site_fract_z
Si Si1 0.648718 0.161030 0.375000
Si Si2 0.008880 0.679988 0.478415
Si Si3 0.653902 0.797010 0.722476
Si Si4 0.350857 0.701698 0.896748
Si Si5 0.585997 0.604426 0.259678
Si Si6 0.004151 0.678886 0.645428
O O1 0.750000 0.209142 0.389453
O O2 0.588039 0.241538 0.434780
O O3 0.616578 0.220066 0.296485
O O4 0.636793 0.976608 0.374829
O O5 0.915374 0.762977 0.463928
O O6 0.000000 0.500000 0.456535
O O7 0.033548 0.700385 0.562596
O O8 0.750000 0.731396 0.704837
O O9 0.592347 0.751618 0.655455
O O10 0.659359 0.983839 0.731861
O O11 0.250000 0.737076 0.918575
O O12 0.380424 0.811136 0.831151
O O13 0.500000 0.500000 0.276066
O O14 0.572368 0.731952 0.196913
O O15 0.000000 0.500000 0.668747
#
# Coordination Sequence:
#
# PCOD8183687 Si02
#       6
#     8   8   8   8   8   8
#     4  10  22  39  60  85 112 146 187 232 279 327
#     4  11  23  39  58  81 114 152 187 229 279 331
#     4  10  20  36  59  84 111 142 183 233 277 325
#     4  11  22  36  59  87 114 147 186 229 278 333
#     4  10  20  35  57  84 111 146 187 229 277 327
#     4  10  22  39  57  79 111 151 187 224 277 333
#
# _framework density 19.944233000000001
#
# number of rings (size 3 to 8) (size 9 to 14) (size 15 to 20)
#    0.000    1.667    0.000    5.500    0.000    6.667 
#    0.000    6.667    0.000    0.000    0.000    0.000 
#    0.000    0.000    0.000    0.000    0.000    0.000 
#
# Total GULP energy -297623.069334 kJ/mol
# GULP energy per Si atom -12400.961222 kJ/mol
# Density = 1.989884 g / cm^3
# Si number density = 19.944233 Si / 1000 Ang^3
#
#
#
# Elastic Constant Matrix: (Units=GPa)
#
#
# Indices 1 2 3 4 5 6 
#
# 1 83.6788 23.9073 21.1914 0.0000 0.0000 0.0000
# 2 23.9073 115.5928 26.9612 0.0000 0.0000 0.0000
# 3 21.1914 26.9612 51.8200 0.0000 0.0000 0.0000
# 4 0.0000 0.0000 0.0000 32.3404 0.0000 0.0000
# 5 0.0000 0.0000 0.0000 0.0000 5.7147 0.0000
# 6 0.0000 0.0000 0.0000 0.0000 0.0000 26.4024
#
#
#
# Elastic Compliance Matrix: (Units=1/GPa)
#
#
# Indices 1 2 3 4 5 6 
#
# 1 0.013628 -0.001728 -0.004674 0.000000 0.000000 0.000000
# 2 -0.001728 0.010065 -0.004530 0.000000 0.000000 0.000000
# 3 -0.004674 -0.004530 0.023566 0.000000 0.000000 0.000000
# 4 0.000000 0.000000 0.000000 0.030921 0.000000 0.000000
# 5 0.000000 0.000000 0.000000 0.000000 0.174988 0.000000
# 6 0.000000 0.000000 0.000000 0.000000 0.000000 0.037875
#
#
# Mechanical properties :
#
#
# Convention : Reuss Voigt Hill
#
# Bulk Modulus (GPa) = 39.37854 43.91238 41.64546
# Shear Modulus (GPa) = 15.55830 24.82695 20.19263
#
# Velocity S-wave (km/s) = 2.79604 3.53203 3.18536
# Velocity P-wave (km/s) = 5.49645 6.22085 5.86984
#
# Compressibility (1/GPa) = 0.02539454
#
# Stress axis : x y z
#
# Youngs Moduli (GPa) = 73.37897 99.35309 42.43452
#
# Poissons Ratio (x) = 0.17173 0.19833
# Poissons Ratio (y) = 0.12683 0.19222
# Poissons Ratio (z) = 0.34295 0.45006
#
# Static dielectric constant tensor:
#      x y z
#    x 3.757050 0.000000 0.000000 
#    y 0.000000 3.933520 0.000000 
#    z 0.000000 0.000000 3.421490 
# 
# 
# High freq. dielectric constant tensor:
#      x y z
#    x 1.780470 0.000000 0.000000 
#    y 0.000000 1.797940 0.000000 
#    z 0.000000 0.000000 1.765630 
# 
# From -- ./inp_files/20531.got.cif
#   From: 2010.03.12/outbox.cif.g09.slc.cpg/sg40_11_cif.got.tgz:20531.got - 2010.04.14 01:38:03.
