data_PCOD8183129
_publ_section_title
;
Structure prediction by ZEFSAII (Michael W. Deem and Ramdas Pophale) SiO2 
 PCOD8183129
Probable space group: A M A 2
;
_chemical_formula_sum "Si O2"
_cell_formula_units_Z 64
_cell_length_a 16.524148
_cell_length_b 8.600230
_cell_length_c 23.461460
_cell_angle_alpha 90.000000
_cell_angle_beta 90.000000
_cell_angle_gamma 90.000000
_cell_volume 3334.142648
_symmetry_space_group_name_H-M "A M A 2"
_symmetry_group_IT_number 40
_symmetry_cell_setting 'orthorhombic'
loop_
_space_group_symop_operation_xyz
x,y,z
-x,-y,z
1/2-x,y,z
1/2+x,-y,z
x,1/2+y,1/2+z
-x,1/2-y,1/2+z
1/2-x,1/2+y,1/2+z
1/2+x,1/2-y,1/2+z
loop_
_atom_site_type_symbol
_atom_site_label
_atom_site_fract_x
_atom_site_fract_y
_atom_site_fract_z
Si Si1 0.657907 0.108228 0.699770
Si Si2 0.087542 0.220422 0.296581
Si Si3 0.430570 0.707305 0.225705
Si Si4 0.922352 0.100935 0.909083
Si Si5 0.474207 0.824136 0.618731
Si Si6 0.841244 0.792317 0.920231
Si Si7 0.342115 0.896014 0.307303
Si Si8 0.985986 0.683194 0.992193
O O1 0.750000 0.056540 0.687153
O O2 0.655735 0.235741 0.749875
O O3 0.618201 0.180464 0.642440
O O4 0.599941 0.969502 0.721726
O O5 0.108194 0.306018 0.354879
O O6 0.999135 0.268728 0.273957
O O7 0.095114 0.038173 0.310850
O O8 0.465975 0.760756 0.164223
O O9 0.355439 0.812545 0.245913
O O10 0.943218 0.221286 0.960095
O O11 0.852058 0.979014 0.925134
O O12 0.000000 0.000000 0.892754
O O13 0.481703 0.747064 0.556537
O O14 0.500000 0.000000 0.611285
O O15 0.750000 0.750820 0.937421
O O16 0.861445 0.728731 0.856945
O O17 0.898863 0.707199 0.964526
O O18 0.250000 0.955151 0.311068
O O19 0.000000 0.500000 0.990201
#
# Coordination Sequence:
#
# PCOD8183129 Si02
#       8
#     8   8   8   8   8   8   8   8
#     4  10  19  33  54  81 110 141 177 220 269 326
#     4  11  20  33  52  78 108 141 180 222 269 322
#     4  10  19  34  54  76 105 143 181 217 262 322
#     4  10  20  34  55  78 103 140 182 219 265 328
#     4   8  18  34  55  79 102 135 181 221 260 315
#     4  10  22  37  54  79 111 144 180 222 276 332
#     4  11  22  34  51  80 112 142 176 223 278 323
#     4  10  19  37  60  81 105 138 183 230 271 318
#
# _framework density 19.195340000000002
#
# number of rings (size 3 to 8) (size 9 to 14) (size 15 to 20)
#    0.000    2.000    0.000    6.000    0.000    2.500 
#    0.000    8.125    0.000    6.750    0.000    0.000 
#    0.000    0.000    0.000    0.000    0.000    0.000 
#
# Total GULP energy -396656.115105 kJ/mol
# GULP energy per Si atom -12395.503597 kJ/mol
# Density = 1.915165 g / cm^3
# Si number density = 19.195340 Si / 1000 Ang^3
#
#
#
# Elastic Constant Matrix: (Units=GPa)
#
#
# Indices 1 2 3 4 5 6 
#
# 1 87.4982 22.3682 53.6260 0.0000 0.0000 0.0000
# 2 22.3682 90.1026 46.2609 0.0000 0.0000 0.0000
# 3 53.6260 46.2609 145.9390 0.0000 0.0000 0.0000
# 4 0.0000 0.0000 0.0000 23.2517 0.0000 0.0000
# 5 0.0000 0.0000 0.0000 0.0000 18.1735 0.0000
# 6 0.0000 0.0000 0.0000 0.0000 0.0000 27.3163
#
#
#
# Elastic Compliance Matrix: (Units=1/GPa)
#
#
# Indices 1 2 3 4 5 6 
#
# 1 0.014834 -0.001056 -0.005116 0.000000 0.000000 0.000000
# 2 -0.001056 0.013331 -0.003838 0.000000 0.000000 0.000000
# 3 -0.005116 -0.003838 0.009949 0.000000 0.000000 0.000000
# 4 0.000000 0.000000 0.000000 0.043008 0.000000 0.000000
# 5 0.000000 0.000000 0.000000 0.000000 0.055025 0.000000
# 6 0.000000 0.000000 0.000000 0.000000 0.000000 0.036608
#
#
# Mechanical properties :
#
#
# Convention : Reuss Voigt Hill
#
# Bulk Modulus (GPa) = 55.26610 63.11665 59.19137
# Shear Modulus (GPa) = 25.15011 27.16728 26.15869
#
# Velocity S-wave (km/s) = 3.62362 3.76614 3.69557
# Velocity P-wave (km/s) = 6.80892 7.20169 7.00806
#
# Compressibility (1/GPa) = 0.01809427
#
# Stress axis : x y z
#
# Youngs Moduli (GPa) = 67.41084 75.01318 100.51547
#
# Poissons Ratio (x) = 0.07920 0.51427
# Poissons Ratio (y) = 0.07118 0.38576
# Poissons Ratio (z) = 0.34489 0.28788
#
# Static dielectric constant tensor:
#      x y z
#    x 3.456050 0.000000 0.000000 
#    y 0.000000 3.489200 0.000000 
#    z 0.000000 0.000000 3.715060 
# 
# 
# High freq. dielectric constant tensor:
#      x y z
#    x 1.738720 0.000000 0.000000 
#    y 0.000000 1.739970 0.000000 
#    z 0.000000 0.000000 1.741110 
# 
# From -- ./inp_files/23381.got.cif
#   From: 2010.03.12/outbox.cif.g09.slc.cpg/sg40_12_cif.got.tgz:23381.got - 2010.04.14 01:38:03.
