data_PCOD8183880
_publ_section_title
;
Structure prediction by ZEFSAII (Michael W. Deem and Ramdas Pophale) SiO2 
 PCOD8183880
Probable space group: A M A 2
;
_chemical_formula_sum "Si O2"
_cell_formula_units_Z 48
_cell_length_a 8.310453
_cell_length_b 18.830224
_cell_length_c 15.268151
_cell_angle_alpha 90.000000
_cell_angle_beta 90.000000
_cell_angle_gamma 90.000000
_cell_volume 2389.277704
_symmetry_space_group_name_H-M "A M A 2"
_symmetry_group_IT_number 40
_symmetry_cell_setting 'orthorhombic'
loop_
_space_group_symop_operation_xyz
x,y,z
-x,-y,z
1/2-x,y,z
1/2+x,-y,z
x,1/2+y,1/2+z
-x,1/2-y,1/2+z
1/2-x,1/2+y,1/2+z
1/2+x,1/2-y,1/2+z
loop_
_atom_site_type_symbol
_atom_site_label
_atom_site_fract_x
_atom_site_fract_y
_atom_site_fract_z
Si Si1 0.438361 0.921338 0.383870
Si Si2 0.941557 0.422375 0.694011
Si Si3 0.063734 0.668255 0.532984
Si Si4 0.934429 0.322869 0.032984
Si Si5 0.061639 0.921338 0.682097
Si Si6 0.558443 0.422375 0.371956
O O1 0.250000 0.917494 0.402642
O O2 0.476491 0.899109 0.284710
O O3 0.528446 0.867086 0.446500
O O4 0.500000 0.000000 0.404499
O O5 0.750000 0.421912 0.706453
O O6 0.006988 0.367712 0.620843
O O7 0.000000 0.500000 0.665355
O O8 0.250000 0.650137 0.532984
O O9 0.993012 0.632288 0.445125
O O10 0.038267 0.751761 0.532984
O O11 0.750000 0.300068 0.032984
O O12 0.971554 0.367086 0.119467
O O13 0.250000 0.917494 0.663326
O O14 0.023509 0.899109 0.781257
O O15 0.000000 0.000000 0.661469
O O16 0.500000 0.500000 0.400612
O O17 0.750000 0.421912 0.359515
#
# Coordination Sequence:
#
# PCOD8183880 Si02
#       6
#     8   8   8   8   8   8
#     4  11  22  39  62  87 116 149 190 237 285 338
#     4  10  20  37  61  88 117 150 192 237 283 335
#     4  10  23  40  58  84 119 156 192 234 283 338
#     4  12  25  40  59  84 115 152 193 236 287 344
#     4  11  22  39  62  87 116 149 190 237 285 338
#     4  10  20  37  61  88 117 150 192 237 283 335
#
# _framework density 20.089753000000002
#
# number of rings (size 3 to 8) (size 9 to 14) (size 15 to 20)
#    0.000    1.333    0.000    8.500    0.000    4.000 
#    0.000    0.000    0.000    0.000    0.000    0.000 
#    0.000    0.000    0.000    0.000    0.000    0.000 
#
# Total GULP energy -297706.924882 kJ/mol
# GULP energy per Si atom -12404.455203 kJ/mol
# Density = 2.004403 g / cm^3
# Si number density = 20.089753 Si / 1000 Ang^3
#
#
#
# Elastic Constant Matrix: (Units=GPa)
#
#
# Indices 1 2 3 4 5 6 
#
# 1 58.3078 -14.8078 -5.0128 0.0000 0.0000 0.0000
# 2 -14.8078 111.0064 78.4381 0.0000 0.0000 0.0000
# 3 -5.0128 78.4381 125.7230 0.0000 0.0000 0.0000
# 4 0.0000 0.0000 0.0000 127.9758 0.0000 0.0000
# 5 0.0000 0.0000 0.0000 0.0000 34.6154 0.0000
# 6 0.0000 0.0000 0.0000 0.0000 0.0000 32.0458
#
#
#
# Elastic Compliance Matrix: (Units=1/GPa)
#
#
# Indices 1 2 3 4 5 6 
#
# 1 0.017886 0.003366 -0.001387 0.000000 0.000000 0.000000
# 2 0.003366 0.016744 -0.010313 0.000000 0.000000 0.000000
# 3 -0.001387 -0.010313 0.014333 0.000000 0.000000 0.000000
# 4 0.000000 0.000000 0.000000 0.007814 0.000000 0.000000
# 5 0.000000 0.000000 0.000000 0.000000 0.028889 0.000000
# 6 0.000000 0.000000 0.000000 0.000000 0.000000 0.031205
#
#
# Mechanical properties :
#
#
# Convention : Reuss Voigt Hill
#
# Bulk Modulus (GPa) = 30.96364 45.80805 38.38585
# Shear Modulus (GPa) = 34.64914 54.68871 44.66892
#
# Velocity S-wave (km/s) = 4.15748 5.22315 4.72048
# Velocity P-wave (km/s) = 6.20421 7.69586 6.98994
#
# Compressibility (1/GPa) = 0.03229594
#
# Stress axis : x y z
#
# Youngs Moduli (GPa) = 55.90986 59.72127 69.77056
#
# Poissons Ratio (x) = -0.20101 0.09676
# Poissons Ratio (y) = -0.18818 0.71952
# Poissons Ratio (z) = 0.07753 0.61588
#
# Static dielectric constant tensor:
#      x y z
#    x 3.711360 0.000000 0.000000 
#    y 0.000000 3.513230 0.000000 
#    z 0.000000 0.000000 3.901930 
# 
# 
# High freq. dielectric constant tensor:
#      x y z
#    x 1.793240 0.000000 0.000000 
#    y 0.000000 1.778100 0.000000 
#    z 0.000000 0.000000 1.802140 
# 
# From -- ./inp_files/15045.got.cif
#   From: 2010.03.12/outbox.cif.g09.slc.cpg/sg40_8_cif.got.tgz:15045.got - 2010.04.14 01:38:03.
