data_PCOD8183805
_publ_section_title
;
Structure prediction by ZEFSAII (Michael W. Deem and Ramdas Pophale) SiO2 
 PCOD8183805
Probable space group: A M A 2
;
_chemical_formula_sum "Si O2"
_cell_formula_units_Z 64
_cell_length_a 17.301006
_cell_length_b 11.724654
_cell_length_c 16.246397
_cell_angle_alpha 90.000000
_cell_angle_beta 90.000000
_cell_angle_gamma 90.000000
_cell_volume 3295.554162
_symmetry_space_group_name_H-M "A M A 2"
_symmetry_group_IT_number 40
_symmetry_cell_setting 'orthorhombic'
loop_
_space_group_symop_operation_xyz
x,y,z
-x,-y,z
1/2-x,y,z
1/2+x,-y,z
x,1/2+y,1/2+z
-x,1/2-y,1/2+z
1/2-x,1/2+y,1/2+z
1/2+x,1/2-y,1/2+z
loop_
_atom_site_type_symbol
_atom_site_label
_atom_site_fract_x
_atom_site_fract_y
_atom_site_fract_z
Si Si1 0.158411 0.230387 0.934520
Si Si2 0.590898 0.522904 0.901844
Si Si3 0.160243 0.588013 0.052602
Si Si4 0.337327 0.416302 0.190169
Si Si5 0.389687 0.192247 0.118051
Si Si6 0.428439 0.069877 0.807200
Si Si7 0.590526 0.518780 0.718469
Si Si8 0.560055 0.756331 0.659799
O O1 0.250000 0.244679 0.915477
O O2 0.112033 0.347028 0.922072
O O3 0.121127 0.134285 0.876107
O O4 0.147527 0.192478 0.028314
O O5 0.500000 0.500000 0.913595
O O6 0.620620 0.495180 0.810377
O O7 0.637246 0.435506 0.959026
O O8 0.250000 0.618497 0.058630
O O9 0.137276 0.475758 0.104609
O O10 0.112479 0.693249 0.087891
O O11 0.250000 0.444889 0.208893
O O12 0.350399 0.282412 0.179420
O O13 0.380017 0.467808 0.268025
O O14 0.480916 0.218260 0.116482
O O15 0.369814 0.068322 0.155294
O O16 0.455861 0.156790 0.735196
O O17 0.500000 0.000000 0.847430
O O18 0.500000 0.500000 0.717708
O O19 0.608289 0.648828 0.693958
#
# Coordination Sequence:
#
# PCOD8183805 Si02
#       8
#     8   8   8   8   8   8   8   8
#     4  12  25  42  64  96 136 174 215 266 330 396
#     4  11  21  38  64  94 123 165 216 268 318 382
#     4  10  21  35  57  90 124 157 204 264 320 375
#     4  10  20  36  59  89 123 157 204 263 317 375
#     4  11  21  39  66  89 124 168 215 256 320 391
#     4  11  22  38  66  95 123 164 219 270 321 380
#     4   9  21  39  62  89 122 157 203 260 314 377
#     4  10  20  40  62  92 122 163 215 268 320 382
#
# _framework density 19.420102
#
# number of rings (size 3 to 8) (size 9 to 14) (size 15 to 20)
#    0.000    1.500    3.750    1.875    0.000    2.000 
#    0.000    5.000    0.000    0.000    0.000    0.000 
#    0.000    0.000    0.000    0.000    0.000    0.000 
#
# Total GULP energy -396772.966837 kJ/mol
# GULP energy per Si atom -12399.155214 kJ/mol
# Density = 1.937590 g / cm^3
# Si number density = 19.420102 Si / 1000 Ang^3
#
#
#
# Elastic Constant Matrix: (Units=GPa)
#
#
# Indices 1 2 3 4 5 6 
#
# 1 88.2020 37.9226 41.0968 0.0000 0.0000 0.0000
# 2 37.9226 119.9021 57.4940 0.0000 0.0000 0.0000
# 3 41.0968 57.4940 105.7604 0.0000 0.0000 0.0000
# 4 0.0000 0.0000 0.0000 32.1944 0.0000 0.0000
# 5 0.0000 0.0000 0.0000 0.0000 15.9160 0.0000
# 6 0.0000 0.0000 0.0000 0.0000 0.0000 14.6742
#
#
#
# Elastic Compliance Matrix: (Units=1/GPa)
#
#
# Indices 1 2 3 4 5 6 
#
# 1 0.014390 -0.002529 -0.004217 0.000000 0.000000 0.000000
# 2 -0.002529 0.011725 -0.005391 0.000000 0.000000 0.000000
# 3 -0.004217 -0.005391 0.014025 0.000000 0.000000 0.000000
# 4 0.000000 0.000000 0.000000 0.031061 0.000000 0.000000
# 5 0.000000 0.000000 0.000000 0.000000 0.062830 0.000000
# 6 0.000000 0.000000 0.000000 0.000000 0.000000 0.068147
#
#
# Mechanical properties :
#
#
# Convention : Reuss Voigt Hill
#
# Bulk Modulus (GPa) = 63.03077 65.21015 64.12046
# Shear Modulus (GPa) = 21.57582 24.38031 22.97806
#
# Velocity S-wave (km/s) = 3.33679 3.54703 3.44351
# Velocity P-wave (km/s) = 6.88277 7.10118 6.99283
#
# Compressibility (1/GPa) = 0.01586527
#
# Stress axis : x y z
#
# Youngs Moduli (GPa) = 69.49368 85.28586 71.30268
#
# Poissons Ratio (x) = 0.21571 0.30066
# Poissons Ratio (y) = 0.17577 0.38441
# Poissons Ratio (z) = 0.29303 0.45980
#
# Static dielectric constant tensor:
#      x y z
#    x 3.504140 0.000000 0.000000 
#    y 0.000000 3.828800 0.000000 
#    z 0.000000 0.000000 3.627310 
# 
# 
# High freq. dielectric constant tensor:
#      x y z
#    x 1.752870 0.000000 0.000000 
#    y 0.000000 1.758700 0.000000 
#    z 0.000000 0.000000 1.752990 
# 
# From -- ./inp_files/17840.got.cif
#   From: 2010.03.12/outbox.cif.g09.slc.cpg/sg40_9_cif.got.tgz:17840.got - 2010.04.14 01:38:03.
