data_PCOD8183914
_publ_section_title
;
Structure prediction by ZEFSAII (Michael W. Deem and Ramdas Pophale) SiO2 
 PCOD8183914
Probable space group: A M A 2
;
_chemical_formula_sum "Si O2"
_cell_formula_units_Z 52
_cell_length_a 15.189851
_cell_length_b 9.521255
_cell_length_c 19.475311
_cell_angle_alpha 90.000000
_cell_angle_beta 90.000000
_cell_angle_gamma 90.000000
_cell_volume 2816.644991
_symmetry_space_group_name_H-M "A M A 2"
_symmetry_group_IT_number 40
_symmetry_cell_setting 'orthorhombic'
loop_
_space_group_symop_operation_xyz
x,y,z
-x,-y,z
1/2-x,y,z
1/2+x,-y,z
x,1/2+y,1/2+z
-x,1/2-y,1/2+z
1/2-x,1/2+y,1/2+z
1/2+x,1/2-y,1/2+z
loop_
_atom_site_type_symbol
_atom_site_label
_atom_site_fract_x
_atom_site_fract_y
_atom_site_fract_z
Si Si1 0.401565 0.481388 0.038630
Si Si2 0.403100 0.504628 0.264151
Si Si3 0.750000 0.955083 0.009421
Si Si4 0.750000 0.659267 0.963289
Si Si5 0.400243 0.993905 0.109560
Si Si6 0.352208 0.788218 0.659750
Si Si7 0.750000 0.398073 0.361765
Si Si8 0.148213 0.195020 0.645363
O O1 0.500000 0.500000 0.008620
O O2 0.405644 0.364905 0.098924
O O3 0.366670 0.629055 0.069658
O O4 0.337592 0.433682 0.976237
O O5 0.500000 0.500000 0.298004
O O6 0.375306 0.351524 0.234887
O O7 0.337037 0.565981 0.320084
O O8 0.408775 0.609051 0.199697
O O9 0.750000 0.785672 0.019615
O O10 0.750000 0.997168 0.929358
O O11 0.662389 0.016125 0.043517
O O12 0.750000 0.733057 0.887294
O O13 0.375836 0.123609 0.159164
O O14 0.500000 0.000000 0.083150
O O15 0.385085 0.853324 0.152595
O O16 0.250000 0.816121 0.646054
O O17 0.250000 0.183736 0.666146
#
# Coordination Sequence:
#
# PCOD8183914 Si02
#       8
#     8   8   4   4   8   8   4   8
#     4  11  18  32  56  85 113 147 185 231 281 342
#     4  11  21  37  60  88 107 144 197 241 276 338
#     4  10  22  37  54  79 110 158 189 225 277 346
#     4  10  20  38  55  80 111 153 191 231 280 331
#     4  12  21  34  55  88 122 151 177 232 297 349
#     4  11  17  35  57  83 122 149 180 228 297 346
#     4  10  22  39  61  77 107 159 198 236 273 323
#     4  11  20  32  56  88 120 143 181 234 296 347
#
# _framework density 18.461680000000001
#
# number of rings (size 3 to 8) (size 9 to 14) (size 15 to 20)
#    0.462    0.615    6.154    4.615    0.000    0.615 
#    0.000    0.000    0.000    6.462    0.000    0.000 
#    0.000    0.000    0.000    0.000    0.000    0.000 
#
# Total GULP energy -322350.141282 kJ/mol
# GULP energy per Si atom -12398.082357 kJ/mol
# Density = 1.841966 g / cm^3
# Si number density = 18.461680 Si / 1000 Ang^3
#
#
#
# Elastic Constant Matrix: (Units=GPa)
#
#
# Indices 1 2 3 4 5 6 
#
# 1 166.4388 28.9010 45.5654 0.0000 0.0000 0.0000
# 2 28.9010 117.0545 35.2703 0.0000 0.0000 0.0000
# 3 45.5654 35.2703 83.8328 0.0000 0.0000 0.0000
# 4 0.0000 0.0000 0.0000 23.5437 0.0000 0.0000
# 5 0.0000 0.0000 0.0000 0.0000 14.6493 0.0000
# 6 0.0000 0.0000 0.0000 0.0000 0.0000 25.6947
#
#
#
# Elastic Compliance Matrix: (Units=1/GPa)
#
#
# Indices 1 2 3 4 5 6 
#
# 1 0.007105 -0.000676 -0.003577 0.000000 0.000000 0.000000
# 2 -0.000676 0.009848 -0.003775 0.000000 0.000000 0.000000
# 3 -0.003577 -0.003775 0.015461 0.000000 0.000000 0.000000
# 4 0.000000 0.000000 0.000000 0.042474 0.000000 0.000000
# 5 0.000000 0.000000 0.000000 0.000000 0.068263 0.000000
# 6 0.000000 0.000000 0.000000 0.000000 0.000000 0.038919
#
#
# Mechanical properties :
#
#
# Convention : Reuss Voigt Hill
#
# Bulk Modulus (GPa) = 61.14055 65.19993 63.17024
# Shear Modulus (GPa) = 24.56047 29.95016 27.25532
#
# Velocity S-wave (km/s) = 3.65135 4.03213 3.84646
# Velocity P-wave (km/s) = 7.13904 7.55450 7.34971
#
# Compressibility (1/GPa) = 0.01635576
#
# Stress axis : x y z
#
# Youngs Moduli (GPa) = 140.74646 101.54717 64.67785
#
# Poissons Ratio (x) = 0.06868 0.23136
# Poissons Ratio (y) = 0.09520 0.24419
# Poissons Ratio (z) = 0.50348 0.38339
#
# Static dielectric constant tensor:
#      x y z
#    x 3.502450 0.000000 0.000000 
#    y 0.000000 3.510270 0.000000 
#    z 0.000000 0.000000 2.968690 
# 
# 
# High freq. dielectric constant tensor:
#      x y z
#    x 1.736620 0.000000 0.000000 
#    y 0.000000 1.715890 0.000000 
#    z 0.000000 0.000000 1.663540 
# 
# From -- ./inp_files/24741.got.cif
#   From: 2010.03.12/outbox.cif.g09.slc.cpg/sg40_13_cif.got.tgz:24741.got - 2010.04.14 01:38:03.
