data_PCOD8183829
_publ_section_title
;
Structure prediction by ZEFSAII (Michael W. Deem and Ramdas Pophale) SiO2 
 PCOD8183829
Probable space group: A M A 2
;
_chemical_formula_sum "Si O2"
_cell_formula_units_Z 40
_cell_length_a 8.611446
_cell_length_b 14.707117
_cell_length_c 14.308333
_cell_angle_alpha 90.000000
_cell_angle_beta 90.000000
_cell_angle_gamma 90.000000
_cell_volume 1812.143848
_symmetry_space_group_name_H-M "A M A 2"
_symmetry_group_IT_number 40
_symmetry_cell_setting 'orthorhombic'
loop_
_space_group_symop_operation_xyz
x,y,z
-x,-y,z
1/2-x,y,z
1/2+x,-y,z
x,1/2+y,1/2+z
-x,1/2-y,1/2+z
1/2-x,1/2+y,1/2+z
1/2+x,1/2-y,1/2+z
loop_
_atom_site_type_symbol
_atom_site_label
_atom_site_fract_x
_atom_site_fract_y
_atom_site_fract_z
Si Si1 0.918394 0.085064 0.024800
Si Si2 0.431659 0.256277 0.294162
Si Si3 0.934500 0.898206 0.656095
Si Si4 0.418258 0.414854 0.734531
Si Si5 0.568051 0.228076 0.495449
O O1 0.750000 0.107378 0.976766
O O2 0.884602 0.053655 0.129587
O O3 0.000000 0.000000 0.971301
O O4 0.031812 0.170128 0.026299
O O5 0.250000 0.272074 0.305023
O O6 0.504719 0.347633 0.250015
O O7 0.469899 0.172359 0.226682
O O8 0.507151 0.221240 0.390138
O O9 0.750000 0.900982 0.659951
O O10 0.985033 0.844782 0.562608
O O11 0.000000 0.000000 0.653545
O O12 0.500000 0.500000 0.787929
O O13 0.250000 0.393296 0.782210
O O14 0.750000 0.208965 0.501478
#
# Coordination Sequence:
#
# PCOD8183829 Si02
#       5
#     8   8   8   8   8
#     4  10  20  36  61  92 127 164 207 260 321 387
#     4  12  25  43  68  99 135 178 227 281 340 407
#     4  12  26  48  73 102 139 184 234 288 348 418
#     4  10  20  36  61  92 127 164 207 260 321 387
#     4  12  25  43  68  99 135 178 227 281 340 407
#
# _framework density 22.073304
#
# number of rings (size 3 to 8) (size 9 to 14) (size 15 to 20)
#    0.000    0.800    2.000    6.600    0.000    3.200 
#    0.000    8.000    0.000    0.000    0.000    0.000 
#    0.000    0.000    0.000    0.000    0.000    0.000 
#
# Total GULP energy -247857.428052 kJ/mol
# GULP energy per Si atom -12392.871403 kJ/mol
# Density = 2.202306 g / cm^3
# Si number density = 22.073304 Si / 1000 Ang^3
#
#
#
# Elastic Constant Matrix: (Units=GPa)
#
#
# Indices 1 2 3 4 5 6 
#
# 1 182.9431 47.2095 15.9481 0.0000 0.0000 0.0000
# 2 47.2095 155.2865 0.8357 0.0000 0.0000 0.0000
# 3 15.9481 0.8357 35.7242 0.0000 0.0000 0.0000
# 4 0.0000 0.0000 0.0000 8.2242 0.0000 0.0000
# 5 0.0000 0.0000 0.0000 0.0000 22.1913 0.0000
# 6 0.0000 0.0000 0.0000 0.0000 0.0000 41.9604
#
#
#
# Elastic Compliance Matrix: (Units=1/GPa)
#
#
# Indices 1 2 3 4 5 6 
#
# 1 0.006184 -0.001866 -0.002717 0.000000 0.000000 0.000000
# 2 -0.001866 0.007003 0.000669 0.000000 0.000000 0.000000
# 3 -0.002717 0.000669 0.029190 0.000000 0.000000 0.000000
# 4 0.000000 0.000000 0.000000 0.121592 0.000000 0.000000
# 5 0.000000 0.000000 0.000000 0.000000 0.045063 0.000000
# 6 0.000000 0.000000 0.000000 0.000000 0.000000 0.023832
#
#
# Mechanical properties :
#
#
# Convention : Reuss Voigt Hill
#
# Bulk Modulus (GPa) = 28.94375 55.77116 42.35746
# Shear Modulus (GPa) = 19.82487 35.13922 27.48204
#
# Velocity S-wave (km/s) = 3.00015 3.99423 3.53233
# Velocity P-wave (km/s) = 5.01420 6.82591 5.98896
#
# Compressibility (1/GPa) = 0.03454977
#
# Stress axis : x y z
#
# Youngs Moduli (GPa) = 161.69519 142.79054 34.25872
#
# Poissons Ratio (x) = 0.26638 0.09309
# Poissons Ratio (y) = 0.30165 -0.02292
# Poissons Ratio (z) = 0.43937 -0.09553
#
# Static dielectric constant tensor:
#      x y z
#    x 4.523950 0.000000 0.000000 
#    y 0.000000 4.055080 0.000000 
#    z 0.000000 0.000000 4.021720 
# 
# 
# High freq. dielectric constant tensor:
#      x y z
#    x 1.893030 0.000000 0.000000 
#    y 0.000000 1.877840 0.000000 
#    z 0.000000 0.000000 1.848890 
# 
# From -- ./inp_files/14801.got.cif
#   From: 2010.03.12/outbox.cif.g09.slc.cpg/sg40_8_cif.got.tgz:14801.got - 2010.04.14 01:38:03.
