data_PCOD8183742
_publ_section_title
;
Structure prediction by ZEFSAII (Michael W. Deem and Ramdas Pophale) SiO2 
 PCOD8183742
Probable space group: A M A 2
;
_chemical_formula_sum "Si O2"
_cell_formula_units_Z 48
_cell_length_a 8.901104
_cell_length_b 29.879413
_cell_length_c 9.850834
_cell_angle_alpha 90.000000
_cell_angle_beta 90.000000
_cell_angle_gamma 90.000000
_cell_volume 2619.925472
_symmetry_space_group_name_H-M "A M A 2"
_symmetry_group_IT_number 40
_symmetry_cell_setting 'orthorhombic'
loop_
_space_group_symop_operation_xyz
x,y,z
-x,-y,z
1/2-x,y,z
1/2+x,-y,z
x,1/2+y,1/2+z
-x,1/2-y,1/2+z
1/2-x,1/2+y,1/2+z
1/2+x,1/2-y,1/2+z
loop_
_atom_site_type_symbol
_atom_site_label
_atom_site_fract_x
_atom_site_fract_y
_atom_site_fract_z
Si Si1 0.427387 0.620941 0.950670
Si Si2 0.579513 0.719011 0.654907
Si Si3 0.425825 0.045326 0.659064
Si Si4 0.075799 0.384571 0.665555
Si Si5 0.924002 0.213257 0.463963
Si Si6 0.072649 0.046036 0.968763
O O1 0.250000 0.620651 0.926423
O O2 0.508886 0.605928 0.813472
O O3 0.478055 0.669864 0.999894
O O4 0.478253 0.586672 0.067347
O O5 0.750000 0.732821 0.619232
O O6 0.553110 0.666932 0.624885
O O7 0.464591 0.746760 0.564364
O O8 0.542948 0.729608 0.811439
O O9 0.250000 0.038116 0.649858
O O10 0.476102 0.054979 0.813459
O O11 0.500000 0.000000 0.603349
O O12 0.250000 0.397943 0.667351
O O13 0.988162 0.413026 0.555295
O O14 0.750000 0.200188 0.479607
O O15 0.250000 0.042638 0.986143
O O16 0.000000 0.000000 0.022009
#
# Coordination Sequence:
#
# PCOD8183742 Si02
#       6
#     8   8   8   8   8   8
#     4  10  20  36  56  79 108 141 176 217 266 316
#     4   9  20  37  54  76 107 139 174 217 262 312
#     4   9  20  36  55  79 106 137 175 217 262 314
#     4  10  21  37  55  79 109 141 179 220 262 314
#     4  10  21  36  55  80 107 138 178 220 263 314
#     4  10  20  36  56  79 107 140 177 219 267 316
#
# _framework density 18.321131999999999
#
# number of rings (size 3 to 8) (size 9 to 14) (size 15 to 20)
#    0.000    2.333    0.000    3.000    0.000    8.000 
#    0.000    6.667    0.000    0.000    0.000    0.000 
#    0.000    0.000    0.000    0.000    0.000    0.000 
#
# Total GULP energy -297689.673229 kJ/mol
# GULP energy per Si atom -12403.736385 kJ/mol
# Density = 1.827943 g / cm^3
# Si number density = 18.321132 Si / 1000 Ang^3
#
#
#
# Elastic Constant Matrix: (Units=GPa)
#
#
# Indices 1 2 3 4 5 6 
#
# 1 72.0237 42.3674 41.5216 0.0000 0.0000 0.0000
# 2 42.3674 97.9053 70.4535 0.0000 0.0000 0.0000
# 3 41.5216 70.4535 92.6329 0.0000 0.0000 0.0000
# 4 0.0000 0.0000 0.0000 37.5114 0.0000 0.0000
# 5 0.0000 0.0000 0.0000 0.0000 30.6217 0.0000
# 6 0.0000 0.0000 0.0000 0.0000 0.0000 37.0475
#
#
#
# Elastic Compliance Matrix: (Units=1/GPa)
#
#
# Indices 1 2 3 4 5 6 
#
# 1 0.019690 -0.004792 -0.005181 0.000000 0.000000 0.000000
# 2 -0.004792 0.023729 -0.015899 0.000000 0.000000 0.000000
# 3 -0.005181 -0.015899 0.025210 0.000000 0.000000 0.000000
# 4 0.000000 0.000000 0.000000 0.026659 0.000000 0.000000
# 5 0.000000 0.000000 0.000000 0.000000 0.032657 0.000000
# 6 0.000000 0.000000 0.000000 0.000000 0.000000 0.026992
#
#
# Mechanical properties :
#
#
# Convention : Reuss Voigt Hill
#
# Bulk Modulus (GPa) = 59.22799 63.47187 61.34993
# Shear Modulus (GPa) = 23.55037 28.25075 25.90056
#
# Velocity S-wave (km/s) = 3.58917 3.93106 3.76400
# Velocity P-wave (km/s) = 7.04088 7.43798 7.24216
#
# Compressibility (1/GPa) = 0.01688391
#
# Stress axis : x y z
#
# Youngs Moduli (GPa) = 50.78652 42.14212 39.66653
#
# Poissons Ratio (x) = 0.20197 0.20551
# Poissons Ratio (y) = 0.24339 0.63068
# Poissons Ratio (z) = 0.26312 0.67004
#
# Static dielectric constant tensor:
#      x y z
#    x 3.412440 0.000000 0.000000 
#    y 0.000000 3.380640 0.000000 
#    z 0.000000 0.000000 3.417350 
# 
# 
# High freq. dielectric constant tensor:
#      x y z
#    x 1.720960 0.000000 0.000000 
#    y 0.000000 1.712470 0.000000 
#    z 0.000000 0.000000 1.710070 
# 
# From -- ./inp_files/4576.got.cif
#   From: 2010.03.12/outbox.cif.g09.slc.cpg/sg40_3_cif.got.tgz:4576.got - 2010.04.14 01:38:03.
