data_PCOD8183583
_publ_section_title
;
Structure prediction by ZEFSAII (Michael W. Deem and Ramdas Pophale) SiO2 
 PCOD8183583
Probable space group: A M A 2
;
_chemical_formula_sum "Si O2"
_cell_formula_units_Z 64
_cell_length_a 9.096341
_cell_length_b 28.694898
_cell_length_c 12.144186
_cell_angle_alpha 90.000000
_cell_angle_beta 90.000000
_cell_angle_gamma 90.000000
_cell_volume 3169.858151
_symmetry_space_group_name_H-M "A M A 2"
_symmetry_group_IT_number 40
_symmetry_cell_setting 'orthorhombic'
loop_
_space_group_symop_operation_xyz
x,y,z
-x,-y,z
1/2-x,y,z
1/2+x,-y,z
x,1/2+y,1/2+z
-x,1/2-y,1/2+z
1/2-x,1/2+y,1/2+z
1/2+x,1/2-y,1/2+z
loop_
_atom_site_type_symbol
_atom_site_label
_atom_site_fract_x
_atom_site_fract_y
_atom_site_fract_z
Si Si1 0.912586 0.867510 0.687880
Si Si2 0.575640 0.952447 0.182690
Si Si3 0.585879 0.567464 0.898326
Si Si4 0.913909 0.305968 0.386018
Si Si5 0.420899 0.831990 0.494140
Si Si6 0.084248 0.957199 0.642977
Si Si7 0.424529 0.651880 0.615563
Si Si8 0.924572 0.779450 0.311957
O O1 0.750000 0.877137 0.638033
O O2 0.897741 0.851743 0.812837
O O3 0.997361 0.830879 0.610753
O O4 0.008355 0.913049 0.693225
O O5 0.750000 0.957857 0.170326
O O6 0.533847 0.950854 0.311913
O O7 0.520949 0.902468 0.129825
O O8 0.500000 0.000000 0.132055
O O9 0.750000 0.562346 0.847516
O O10 0.552236 0.620747 0.927385
O O11 0.573973 0.538895 0.010923
O O12 0.750000 0.283878 0.404182
O O13 0.981927 0.323933 0.502645
O O14 0.018327 0.273625 0.308611
O O15 0.250000 0.821753 0.514655
O O16 0.497258 0.791780 0.426149
O O17 0.250000 0.957046 0.684338
O O18 0.000000 0.000000 0.697000
O O19 0.250000 0.650542 0.615301
O O20 0.479932 0.686194 0.714094
O O21 0.750000 0.781337 0.320764
#
# Coordination Sequence:
#
# PCOD8183583 Si02
#       8
#     8   8   8   8   8   8   8   8
#     4  10  21  37  59  85 117 154 199 246 293 352
#     4  11  21  35  57  84 116 157 199 243 297 358
#     4   9  18  32  51  80 115 151 187 233 289 347
#     4  10  23  43  63  86 118 160 202 247 304 362
#     4  10  20  35  57  84 119 156 191 238 294 350
#     4  10  20  34  54  82 117 157 200 246 303 356
#     4   9  21  42  63  85 121 162 198 245 306 366
#     4  11  22  38  62  92 119 152 197 241 298 364
#
# _framework density 20.190176999999998
#
# number of rings (size 3 to 8) (size 9 to 14) (size 15 to 20)
#    0.000    2.000    1.250    3.000    1.750    4.500 
#    0.000    2.500    0.000    1.500    0.000    0.000 
#    0.000    0.000    0.000    0.000    0.000    0.000 
#
# Total GULP energy -396500.672077 kJ/mol
# GULP energy per Si atom -12390.646002 kJ/mol
# Density = 2.014422 g / cm^3
# Si number density = 20.190177 Si / 1000 Ang^3
#
#
#
# Elastic Constant Matrix: (Units=GPa)
#
#
# Indices 1 2 3 4 5 6 
#
# 1 116.1935 43.5246 34.1342 0.0000 0.0000 0.0000
# 2 43.5246 85.5861 36.4871 0.0000 0.0000 0.0000
# 3 34.1342 36.4871 78.9924 0.0000 0.0000 0.0000
# 4 0.0000 0.0000 0.0000 10.4445 0.0000 0.0000
# 5 0.0000 0.0000 0.0000 0.0000 17.9278 0.0000
# 6 0.0000 0.0000 0.0000 0.0000 0.0000 36.0345
#
#
#
# Elastic Compliance Matrix: (Units=1/GPa)
#
#
# Indices 1 2 3 4 5 6 
#
# 1 0.011082 -0.004476 -0.002722 0.000000 0.000000 0.000000
# 2 -0.004476 0.016357 -0.005621 0.000000 0.000000 0.000000
# 3 -0.002722 -0.005621 0.016432 0.000000 0.000000 0.000000
# 4 0.000000 0.000000 0.000000 0.095744 0.000000 0.000000
# 5 0.000000 0.000000 0.000000 0.000000 0.055779 0.000000
# 6 0.000000 0.000000 0.000000 0.000000 0.000000 0.027751
#
#
# Mechanical properties :
#
#
# Convention : Reuss Voigt Hill
#
# Bulk Modulus (GPa) = 54.84233 56.56264 55.70248
# Shear Modulus (GPa) = 19.61860 23.98979 21.80419
#
# Velocity S-wave (km/s) = 3.12058 3.45075 3.28981
# Velocity P-wave (km/s) = 6.34081 6.62968 6.48685
#
# Compressibility (1/GPa) = 0.01823409
#
# Stress axis : x y z
#
# Youngs Moduli (GPa) = 90.23344 61.13720 60.85692
#
# Poissons Ratio (x) = 0.27363 0.16563
# Poissons Ratio (y) = 0.40385 0.34209
# Poissons Ratio (z) = 0.24558 0.34367
#
# Static dielectric constant tensor:
#      x y z
#    x 3.555180 0.000000 0.000000 
#    y 0.000000 3.817070 0.000000 
#    z 0.000000 0.000000 3.456640 
# 
# 
# High freq. dielectric constant tensor:
#      x y z
#    x 1.782850 0.000000 0.000000 
#    y 0.000000 1.799220 0.000000 
#    z 0.000000 0.000000 1.761940 
# 
# From -- ./inp_files/10635.got.cif
#   From: 2010.03.12/outbox.cif.g09.slc.cpg/sg40_6_cif.got.tgz:10635.got - 2010.04.14 01:38:03.
