data_PCOD8183481
_publ_section_title
;
Structure prediction by ZEFSAII (Michael W. Deem and Ramdas Pophale) SiO2 
 PCOD8183481
Probable space group: A M A 2
;
_chemical_formula_sum "Si O2"
_cell_formula_units_Z 40
_cell_length_a 8.783516
_cell_length_b 15.571559
_cell_length_c 18.923736
_cell_angle_alpha 90.000000
_cell_angle_beta 90.000000
_cell_angle_gamma 90.000000
_cell_volume 2588.256856
_symmetry_space_group_name_H-M "A M A 2"
_symmetry_group_IT_number 40
_symmetry_cell_setting 'orthorhombic'
loop_
_space_group_symop_operation_xyz
x,y,z
-x,-y,z
1/2-x,y,z
1/2+x,-y,z
x,1/2+y,1/2+z
-x,1/2-y,1/2+z
1/2-x,1/2+y,1/2+z
1/2+x,1/2-y,1/2+z
loop_
_atom_site_type_symbol
_atom_site_label
_atom_site_fract_x
_atom_site_fract_y
_atom_site_fract_z
Si Si1 0.930314 0.909464 0.140060
Si Si2 0.079154 0.087380 0.552589
Si Si3 0.428700 0.244788 0.039374
Si Si4 0.421173 0.178694 0.415259
Si Si5 0.930311 0.091405 0.288633
O O1 0.750000 0.918261 0.149836
O O2 0.975316 0.840703 0.080748
O O3 0.003243 0.878727 0.213591
O O4 0.000000 0.000000 0.115790
O O5 0.250000 0.088092 0.583014
O O6 0.080253 0.094725 0.466666
O O7 0.989121 0.171050 0.582506
O O8 0.000000 0.000000 0.577249
O O9 0.250000 0.253164 0.029970
O O10 0.506153 0.242845 0.961206
O O11 0.250000 0.203031 0.391846
O O12 0.522901 0.161679 0.346599
O O13 0.750000 0.083477 0.284015
O O14 0.000000 0.000000 0.310389
#
# Coordination Sequence:
#
# PCOD8183481 Si02
#       5
#     8   8   8   8   8
#     4  10  20  33  49  68  95 128 161 197 235 279
#     4   9  17  26  42  64  90 121 148 185 227 272
#     4   9  18  31  46  66  92 123 159 195 232 278
#     4   9  18  29  44  65  92 122 152 188 229 275
#     4  11  20  29  45  67  95 126 156 191 234 286
#
# _framework density 15.454416999999999
#
# number of rings (size 3 to 8) (size 9 to 14) (size 15 to 20)
#    1.200    1.200    0.000    5.400    0.000    4.800 
#    0.000    0.000    0.000    0.000    0.000    1.400 
#    0.000    3.200    0.000    0.000    0.000    0.000 
#
# Total GULP energy -247826.135080 kJ/mol
# GULP energy per Si atom -12391.306754 kJ/mol
# Density = 1.541924 g / cm^3
# Si number density = 15.454417 Si / 1000 Ang^3
#
#
#
# Elastic Constant Matrix: (Units=GPa)
#
#
# Indices 1 2 3 4 5 6 
#
# 1 118.0188 50.9050 47.1058 0.0000 0.0000 0.0000
# 2 50.9050 91.8015 54.7909 0.0000 0.0000 0.0000
# 3 47.1058 54.7909 81.4556 0.0000 0.0000 0.0000
# 4 0.0000 0.0000 0.0000 29.8102 0.0000 0.0000
# 5 0.0000 0.0000 0.0000 0.0000 19.1613 0.0000
# 6 0.0000 0.0000 0.0000 0.0000 0.0000 22.2574
#
#
#
# Elastic Compliance Matrix: (Units=1/GPa)
#
#
# Indices 1 2 3 4 5 6 
#
# 1 0.011897 -0.004161 -0.004081 0.000000 0.000000 0.000000
# 2 -0.004161 0.019655 -0.010814 0.000000 0.000000 0.000000
# 3 -0.004081 -0.010814 0.021911 0.000000 0.000000 0.000000
# 4 0.000000 0.000000 0.000000 0.033546 0.000000 0.000000
# 5 0.000000 0.000000 0.000000 0.000000 0.052189 0.000000
# 6 0.000000 0.000000 0.000000 0.000000 0.000000 0.044929
#
#
# Mechanical properties :
#
#
# Convention : Reuss Voigt Hill
#
# Bulk Modulus (GPa) = 65.14825 66.31990 65.73407
# Shear Modulus (GPa) = 21.99195 23.47739 22.73467
#
# Velocity S-wave (km/s) = 3.77639 3.90184 3.83963
# Velocity P-wave (km/s) = 7.82697 7.95648 7.89199
#
# Compressibility (1/GPa) = 0.01534961
#
# Stress axis : x y z
#
# Youngs Moduli (GPa) = 84.05493 50.87741 45.63942
#
# Poissons Ratio (x) = 0.21172 0.18625
# Poissons Ratio (y) = 0.34978 0.49356
# Poissons Ratio (z) = 0.34302 0.55021
#
# Static dielectric constant tensor:
#      x y z
#    x 3.073140 0.000000 0.000000 
#    y 0.000000 2.732520 0.000000 
#    z 0.000000 0.000000 2.714340 
# 
# 
# High freq. dielectric constant tensor:
#      x y z
#    x 1.617010 0.000000 0.000000 
#    y 0.000000 1.563520 0.000000 
#    z 0.000000 0.000000 1.560240 
# 
# From -- ./inp_files/19096.got.cif
#   From: 2010.03.12/outbox.cif.g09.slc.cpg/sg40_10_cif.got.tgz:19096.got - 2010.04.14 01:38:03.
