data_PCOD8183246
_publ_section_title
;
Structure prediction by ZEFSAII (Michael W. Deem and Ramdas Pophale) SiO2 
 PCOD8183246
Probable space group: A M A 2
;
_chemical_formula_sum "Si O2"
_cell_formula_units_Z 48
_cell_length_a 8.627557
_cell_length_b 23.227683
_cell_length_c 11.831414
_cell_angle_alpha 90.000000
_cell_angle_beta 90.000000
_cell_angle_gamma 90.000000
_cell_volume 2370.993585
_symmetry_space_group_name_H-M "A M A 2"
_symmetry_group_IT_number 40
_symmetry_cell_setting 'orthorhombic'
loop_
_space_group_symop_operation_xyz
x,y,z
-x,-y,z
1/2-x,y,z
1/2+x,-y,z
x,1/2+y,1/2+z
-x,1/2-y,1/2+z
1/2-x,1/2+y,1/2+z
1/2+x,1/2-y,1/2+z
loop_
_atom_site_type_symbol
_atom_site_label
_atom_site_fract_x
_atom_site_fract_y
_atom_site_fract_z
Si Si1 0.566302 0.847240 0.134140
Si Si2 0.922651 0.844469 0.884681
Si Si3 0.931330 0.633710 0.027421
Si Si4 0.931863 0.935664 0.320857
Si Si5 0.924010 0.441117 0.215941
Si Si6 0.934008 0.772570 0.678917
O O1 0.750000 0.837625 0.137206
O O2 0.524813 0.906224 0.200432
O O3 0.482090 0.793267 0.191305
O O4 0.495782 0.849210 0.006887
O O5 0.750000 0.821016 0.906289
O O6 0.919631 0.907917 0.833619
O O7 0.003183 0.802151 0.793178
O O8 0.750000 0.640432 0.006952
O O9 0.006556 0.609087 0.913817
O O10 0.965714 0.588253 0.125026
O O11 0.998106 0.696145 0.066366
O O12 0.750000 0.942104 0.337326
O O13 0.000000 0.000000 0.329922
O O14 0.750000 0.447154 0.165629
O O15 0.000000 0.500000 0.249868
O O16 0.750000 0.781147 0.674166
#
# Coordination Sequence:
#
# PCOD8183246 Si02
#       6
#     8   8   8   8   8   8
#     4  10  22  40  61  86 118 159 201 245 297 360
#     4   8  18  37  57  80 113 151 189 236 292 351
#     4  11  22  38  61  87 118 157 201 248 302 355
#     4  11  24  41  61  88 124 163 209 253 302 362
#     4  10  19  34  57  85 116 150 191 240 295 348
#     4  10  21  38  61  90 121 152 195 248 306 361
#
# _framework density 20.244676999999999
#
# number of rings (size 3 to 8) (size 9 to 14) (size 15 to 20)
#    0.000    2.000    0.000    4.500    2.333    2.000 
#    0.000    4.167    0.000    0.000    0.000    0.000 
#    0.000    0.000    0.000    0.000    0.000    0.000 
#
# Total GULP energy -297466.748104 kJ/mol
# GULP energy per Si atom -12394.447838 kJ/mol
# Density = 2.019860 g / cm^3
# Si number density = 20.244677 Si / 1000 Ang^3
#
#
#
# Elastic Constant Matrix: (Units=GPa)
#
#
# Indices 1 2 3 4 5 6 
#
# 1 80.8100 34.1497 28.7566 0.0000 0.0000 0.0000
# 2 34.1497 96.6274 31.1168 0.0000 0.0000 0.0000
# 3 28.7566 31.1168 119.6572 0.0000 0.0000 0.0000
# 4 0.0000 0.0000 0.0000 13.4293 0.0000 0.0000
# 5 0.0000 0.0000 0.0000 0.0000 19.9607 0.0000
# 6 0.0000 0.0000 0.0000 0.0000 0.0000 34.9625
#
#
#
# Elastic Compliance Matrix: (Units=1/GPa)
#
#
# Indices 1 2 3 4 5 6 
#
# 1 0.015183 -0.004574 -0.002459 0.000000 0.000000 0.000000
# 2 -0.004574 0.012673 -0.002196 0.000000 0.000000 0.000000
# 3 -0.002459 -0.002196 0.009519 0.000000 0.000000 0.000000
# 4 0.000000 0.000000 0.000000 0.074464 0.000000 0.000000
# 5 0.000000 0.000000 0.000000 0.000000 0.050098 0.000000
# 6 0.000000 0.000000 0.000000 0.000000 0.000000 0.028602
#
#
# Mechanical properties :
#
#
# Convention : Reuss Voigt Hill
#
# Bulk Modulus (GPa) = 52.86575 53.90454 53.38515
# Shear Modulus (GPa) = 23.22298 27.20861 25.21580
#
# Velocity S-wave (km/s) = 3.39058 3.67002 3.53307
# Velocity P-wave (km/s) = 6.44191 6.68155 6.56282
#
# Compressibility (1/GPa) = 0.01891584
#
# Stress axis : x y z
#
# Youngs Moduli (GPa) = 65.86421 78.90916 105.04850
#
# Poissons Ratio (x) = 0.36092 0.25835
# Poissons Ratio (y) = 0.30125 0.23072
# Poissons Ratio (z) = 0.16198 0.17331
#
# Static dielectric constant tensor:
#      x y z
#    x 3.557840 0.000000 0.000000 
#    y 0.000000 3.740310 0.000000 
#    z 0.000000 0.000000 3.900810 
# 
# 
# High freq. dielectric constant tensor:
#      x y z
#    x 1.778270 0.000000 0.000000 
#    y 0.000000 1.794400 0.000000 
#    z 0.000000 0.000000 1.794710 
# 
# From -- ./inp_files/10261.got.cif
#   From: 2010.03.12/outbox.cif.g09.slc.cpg/sg40_6_cif.got.tgz:10261.got - 2010.04.14 01:38:03.
