data_PCOD8183613
_publ_section_title
;
Structure prediction by ZEFSAII (Michael W. Deem and Ramdas Pophale) SiO2 
 PCOD8183613
Probable space group: A M A 2
;
_chemical_formula_sum "Si O2"
_cell_formula_units_Z 48
_cell_length_a 9.020342
_cell_length_b 27.279318
_cell_length_c 9.789712
_cell_angle_alpha 90.000000
_cell_angle_beta 90.000000
_cell_angle_gamma 90.000000
_cell_volume 2408.942468
_symmetry_space_group_name_H-M "A M A 2"
_symmetry_group_IT_number 40
_symmetry_cell_setting 'orthorhombic'
loop_
_space_group_symop_operation_xyz
x,y,z
-x,-y,z
1/2-x,y,z
1/2+x,-y,z
x,1/2+y,1/2+z
-x,1/2-y,1/2+z
1/2-x,1/2+y,1/2+z
1/2+x,1/2-y,1/2+z
loop_
_atom_site_type_symbol
_atom_site_label
_atom_site_fract_x
_atom_site_fract_y
_atom_site_fract_z
Si Si1 0.575871 0.552447 0.386640
Si Si2 0.925534 0.780879 0.559168
Si Si3 0.074583 0.701322 0.745489
Si Si4 0.423662 0.876812 0.640440
Si Si5 0.084070 0.451899 0.923658
Si Si6 0.580263 0.603742 0.660415
O O1 0.500000 0.500000 0.371472
O O2 0.750000 0.542878 0.394433
O O3 0.530807 0.587334 0.262435
O O4 0.520265 0.581987 0.519126
O O5 0.750000 0.778009 0.571728
O O6 0.974310 0.783465 0.399524
O O7 0.995822 0.733604 0.629937
O O8 0.983514 0.827075 0.645938
O O9 0.250000 0.706219 0.729347
O O10 0.026198 0.646026 0.714878
O O11 0.250000 0.863192 0.644575
O O12 0.473736 0.903843 0.501818
O O13 0.250000 0.461528 0.973374
O O14 0.071379 0.442172 0.763258
O O15 0.000000 0.500000 0.969451
O O16 0.750000 0.623214 0.649161
#
# Coordination Sequence:
#
# PCOD8183613 Si02
#       6
#     8   8   8   8   8   8
#     4  10  22  38  59  88 123 162 203 248 300 356
#     4  11  25  43  65  93 123 159 202 251 307 368
#     4  11  25  43  65  93 123 159 202 251 307 368
#     4  10  21  39  60  86 122 160 200 249 301 356
#     4  10  20  34  57  84 115 156 197 246 302 352
#     4  10  21  39  60  86 122 160 200 249 301 356
#
# _framework density 19.925756
#
# number of rings (size 3 to 8) (size 9 to 14) (size 15 to 20)
#    0.000    1.667    1.667    2.000    2.333    4.667 
#    0.000    0.000    0.000    0.000    0.000    0.000 
#    0.000    0.000    0.000    0.000    0.000    0.000 
#
# Total GULP energy -297634.363223 kJ/mol
# GULP energy per Si atom -12401.431801 kJ/mol
# Density = 1.988040 g / cm^3
# Si number density = 19.925756 Si / 1000 Ang^3
#
#
#
# Elastic Constant Matrix: (Units=GPa)
#
#
# Indices 1 2 3 4 5 6 
#
# 1 51.0564 24.3504 21.1681 0.0000 0.0000 0.0000
# 2 24.3504 71.3125 10.1533 0.0000 0.0000 0.0000
# 3 21.1681 10.1533 98.6127 0.0000 0.0000 0.0000
# 4 0.0000 0.0000 0.0000 -25.3521 0.0000 0.0000
# 5 0.0000 0.0000 0.0000 0.0000 38.9867 0.0000
# 6 0.0000 0.0000 0.0000 0.0000 0.0000 36.4484
#
#
#
# Elastic Compliance Matrix: (Units=1/GPa)
#
#
# Indices 1 2 3 4 5 6 
#
# 1 0.025306 -0.007984 -0.004610 0.000000 0.000000 0.000000
# 2 -0.007984 0.016751 -0.000011 0.000000 0.000000 0.000000
# 3 -0.004610 -0.000011 0.011131 0.000000 0.000000 0.000000
# 4 0.000000 0.000000 0.000000 -0.039444 0.000000 0.000000
# 5 0.000000 0.000000 0.000000 0.000000 0.025650 0.000000
# 6 0.000000 0.000000 0.000000 0.000000 0.000000 0.027436
#
#
# Mechanical properties :
#
#
# Convention : Reuss Voigt Hill
#
# Bulk Modulus (GPa) = 35.74336 36.92502 36.33419
# Shear Modulus (GPa) = 49.32667 21.03727 35.18197
#
# Velocity S-wave (km/s) = 4.98086 3.25281 4.20653
# Velocity P-wave (km/s) = 7.14534 5.71657 6.47051
#
# Compressibility (1/GPa) = 0.02797723
#
# Stress axis : x y z
#
# Youngs Moduli (GPa) = 39.51701 59.69899 89.83630
#
# Poissons Ratio (x) = 0.47667 0.41414
# Poissons Ratio (y) = 0.31552 0.00096
# Poissons Ratio (z) = 0.18217 0.00064
#
# Static dielectric constant tensor:
#      x y z
#    x 3.496740 0.000000 0.000000 
#    y 0.000000 3.549820 0.000000 
#    z 0.000000 0.000000 3.823170 
# 
# 
# High freq. dielectric constant tensor:
#      x y z
#    x 1.767160 0.000000 0.000000 
#    y 0.000000 1.783260 0.000000 
#    z 0.000000 0.000000 1.792590 
# 
# From -- ./inp_files/4584.got.cif
#   From: 2010.03.12/outbox.cif.g09.slc.cpg/sg40_3_cif.got.tgz:4584.got - 2010.04.14 01:38:03.
