data_PCOD8183797
_publ_section_title
;
Structure prediction by ZEFSAII (Michael W. Deem and Ramdas Pophale) SiO2 
 PCOD8183797
Probable space group: A M A 2
;
_chemical_formula_sum "Si O2"
_cell_formula_units_Z 64
_cell_length_a 8.815314
_cell_length_b 28.023866
_cell_length_c 12.510704
_cell_angle_alpha 90.000000
_cell_angle_beta 90.000000
_cell_angle_gamma 90.000000
_cell_volume 3090.634036
_symmetry_space_group_name_H-M "A M A 2"
_symmetry_group_IT_number 40
_symmetry_cell_setting 'orthorhombic'
loop_
_space_group_symop_operation_xyz
x,y,z
-x,-y,z
1/2-x,y,z
1/2+x,-y,z
x,1/2+y,1/2+z
-x,1/2-y,1/2+z
1/2-x,1/2+y,1/2+z
1/2+x,1/2-y,1/2+z
loop_
_atom_site_type_symbol
_atom_site_label
_atom_site_fract_x
_atom_site_fract_y
_atom_site_fract_z
Si Si1 0.919148 0.573527 0.295440
Si Si2 0.572992 0.298983 0.434456
Si Si3 0.926559 0.292449 0.013765
Si Si4 0.425383 0.045099 0.583927
Si Si5 0.571819 0.904270 0.006280
Si Si6 0.924841 0.885572 0.397348
Si Si7 0.918781 0.681493 0.225148
Si Si8 0.070784 0.448024 0.716959
O O1 0.750000 0.553351 0.315539
O O2 0.911256 0.628201 0.265257
O O3 0.996546 0.546163 0.198963
O O4 0.019703 0.566559 0.401670
O O5 0.750000 0.299384 0.409149
O O6 0.527646 0.254983 0.509125
O O7 0.527834 0.348366 0.493420
O O8 0.485205 0.288636 0.324079
O O9 0.750000 0.279035 0.013312
O O10 0.962287 0.329528 0.916417
O O11 0.968031 0.316417 0.125958
O O12 0.250000 0.036210 0.601769
O O13 0.457184 0.091229 0.512706
O O14 0.500000 0.000000 0.522425
O O15 0.750000 0.911132 0.023746
O O16 0.484671 0.926538 0.105720
O O17 0.750000 0.892894 0.363136
O O18 0.028677 0.909565 0.307996
O O19 0.750000 0.700385 0.195825
O O20 0.250000 0.454249 0.714456
O O21 0.000000 0.500000 0.740340
#
# Coordination Sequence:
#
# PCOD8183797 Si02
#       8
#     8   8   8   8   8   8   8   8
#     4  10  20  36  60  89 119 153 196 247 305 366
#     4  10  22  39  61  91 125 165 210 261 319 378
#     4  11  22  38  62  91 125 165 211 262 316 378
#     4  11  22  37  58  87 121 156 198 245 303 364
#     4  10  22  42  66  90 124 164 208 260 315 375
#     4  10  23  42  63  89 123 164 210 260 314 374
#     4  10  20  36  59  85 118 157 198 249 307 370
#     4  12  26  44  68  94 126 168 216 268 326 389
#
# _framework density 20.707723999999999
#
# number of rings (size 3 to 8) (size 9 to 14) (size 15 to 20)
#    0.000    1.500    1.250    3.750    0.000    7.000 
#    0.000    3.750    0.000    0.000    0.000    0.000 
#    0.000    0.000    0.000    0.000    0.000    0.000 
#
# Total GULP energy -396808.626163 kJ/mol
# GULP energy per Si atom -12400.269568 kJ/mol
# Density = 2.066059 g / cm^3
# Si number density = 20.707724 Si / 1000 Ang^3
#
#
#
# Elastic Constant Matrix: (Units=GPa)
#
#
# Indices 1 2 3 4 5 6 
#
# 1 88.4988 32.7595 30.6413 0.0000 0.0000 0.0000
# 2 32.7595 57.0011 15.8060 0.0000 0.0000 0.0000
# 3 30.6413 15.8060 88.2433 0.0000 0.0000 0.0000
# 4 0.0000 0.0000 0.0000 21.4360 0.0000 0.0000
# 5 0.0000 0.0000 0.0000 0.0000 40.9756 0.0000
# 6 0.0000 0.0000 0.0000 0.0000 0.0000 31.6803
#
#
#
# Elastic Compliance Matrix: (Units=1/GPa)
#
#
# Indices 1 2 3 4 5 6 
#
# 1 0.015593 -0.007850 -0.004008 0.000000 0.000000 0.000000
# 2 -0.007850 0.022413 -0.001289 0.000000 0.000000 0.000000
# 3 -0.004008 -0.001289 0.012955 0.000000 0.000000 0.000000
# 4 0.000000 0.000000 0.000000 0.046650 0.000000 0.000000
# 5 0.000000 0.000000 0.000000 0.000000 0.024405 0.000000
# 6 0.000000 0.000000 0.000000 0.000000 0.000000 0.031565
#
#
# Mechanical properties :
#
#
# Convention : Reuss Voigt Hill
#
# Bulk Modulus (GPa) = 40.54123 43.57299 42.05711
# Shear Modulus (GPa) = 26.58185 29.12081 27.85133
#
# Velocity S-wave (km/s) = 3.58672 3.75410 3.67137
# Velocity P-wave (km/s) = 6.06408 6.31495 6.19079
#
# Compressibility (1/GPa) = 0.02466625
#
# Stress axis : x y z
#
# Youngs Moduli (GPa) = 64.12975 44.61785 77.19029
#
# Poissons Ratio (x) = 0.35026 0.30941
# Poissons Ratio (y) = 0.50344 0.09947
# Poissons Ratio (z) = 0.25706 0.05749
#
# Static dielectric constant tensor:
#      x y z
#    x 4.005070 0.000000 0.000000 
#    y 0.000000 3.786330 0.000000 
#    z 0.000000 0.000000 3.752580 
# 
# 
# High freq. dielectric constant tensor:
#      x y z
#    x 1.820120 0.000000 0.000000 
#    y 0.000000 1.812290 0.000000 
#    z 0.000000 0.000000 1.808170 
# 
# From -- ./inp_files/10704.got.cif
#   From: 2010.03.12/outbox.cif.g09.slc.cpg/sg40_6_cif.got.tgz:10704.got - 2010.04.14 01:38:03.
