data_PCOD8183452
_publ_section_title
;
Structure prediction by ZEFSAII (Michael W. Deem and Ramdas Pophale) SiO2 
 PCOD8183452
Probable space group: A M A 2
;
_chemical_formula_sum "Si O2"
_cell_formula_units_Z 64
_cell_length_a 8.891588
_cell_length_b 22.600574
_cell_length_c 19.051657
_cell_angle_alpha 90.000000
_cell_angle_beta 90.000000
_cell_angle_gamma 90.000000
_cell_volume 3828.525591
_symmetry_space_group_name_H-M "A M A 2"
_symmetry_group_IT_number 40
_symmetry_cell_setting 'orthorhombic'
loop_
_space_group_symop_operation_xyz
x,y,z
-x,-y,z
1/2-x,y,z
1/2+x,-y,z
x,1/2+y,1/2+z
-x,1/2-y,1/2+z
1/2-x,1/2+y,1/2+z
1/2+x,1/2-y,1/2+z
loop_
_atom_site_type_symbol
_atom_site_label
_atom_site_fract_x
_atom_site_fract_y
_atom_site_fract_z
Si Si1 0.916819 0.163769 0.388670
Si Si2 0.429209 0.876533 0.746533
Si Si3 0.581511 0.164201 0.958126
Si Si4 0.927126 0.866771 0.602351
Si Si5 0.574316 0.436988 0.963163
Si Si6 0.429452 0.062375 0.878032
Si Si7 0.919418 0.737408 0.030844
Si Si8 0.084508 0.260310 0.318239
O O1 0.750000 0.142554 0.369092
O O2 0.915801 0.203979 0.457260
O O3 0.018127 0.106112 0.401320
O O4 0.978860 0.202681 0.323486
O O5 0.250000 0.885049 0.752116
O O6 0.489610 0.893631 0.669994
O O7 0.507669 0.919591 0.801959
O O8 0.475907 0.808181 0.761912
O O9 0.750000 0.144573 0.980779
O O10 0.481027 0.107747 0.938367
O O11 0.501317 0.199295 0.021836
O O12 0.593670 0.207449 0.892507
O O13 0.750000 0.863373 0.615400
O O14 0.969186 0.910420 0.538802
O O15 0.988410 0.801051 0.587100
O O16 0.500000 0.500000 0.953896
O O17 0.750000 0.444300 0.954790
O O18 0.250000 0.059427 0.875306
O O19 0.500000 0.000000 0.899175
O O20 0.750000 0.747315 0.058864
O O21 0.250000 0.238106 0.296372
#
# Coordination Sequence:
#
# PCOD8183452 Si02
#       8
#     8   8   8   8   8   8   8   8
#     4   9  16  26  43  64  84 107 138 176 219 263
#     4  10  20  33  47  64  88 119 153 189 224 262
#     4   9  16  28  45  65  87 111 141 180 225 269
#     4  10  20  32  45  63  88 120 154 189 225 263
#     4  10  20  32  45  61  85 116 150 185 220 258
#     4  11  21  33  47  64  88 119 154 189 224 265
#     4   9  16  27  44  65  86 111 143 181 224 268
#     4   8  15  27  43  62  84 109 138 175 221 264
#
# _framework density 16.716618
#
# number of rings (size 3 to 8) (size 9 to 14) (size 15 to 20)
#    0.000    2.500    0.000    4.125    0.000    8.500 
#    0.000    1.250    0.000    0.000    0.000    0.000 
#    0.000    1.000    0.000    5.500    0.000    6.125 
#
# Total GULP energy -396734.838118 kJ/mol
# GULP energy per Si atom -12397.963691 kJ/mol
# Density = 1.667857 g / cm^3
# Si number density = 16.716618 Si / 1000 Ang^3
#
#
#
# Elastic Constant Matrix: (Units=GPa)
#
#
# Indices 1 2 3 4 5 6 
#
# 1 106.3127 47.5927 7.6939 0.0000 0.0000 0.0000
# 2 47.5927 100.2078 17.1216 0.0000 0.0000 0.0000
# 3 7.6939 17.1216 5.0566 0.0000 0.0000 0.0000
# 4 0.0000 0.0000 0.0000 13.8489 0.0000 0.0000
# 5 0.0000 0.0000 0.0000 0.0000 18.6701 0.0000
# 6 0.0000 0.0000 0.0000 0.0000 0.0000 32.1691
#
#
#
# Elastic Compliance Matrix: (Units=1/GPa)
#
#
# Indices 1 2 3 4 5 6 
#
# 1 0.011959 -0.006100 0.002457 0.000000 0.000000 0.000000
# 2 -0.006100 0.026789 -0.081426 0.000000 0.000000 0.000000
# 3 0.002457 -0.081426 0.469731 0.000000 0.000000 0.000000
# 4 0.000000 0.000000 0.000000 0.072208 0.000000 0.000000
# 5 0.000000 0.000000 0.000000 0.000000 0.053562 0.000000
# 6 0.000000 0.000000 0.000000 0.000000 0.000000 0.031086
#
#
# Mechanical properties :
#
#
# Convention : Reuss Voigt Hill
#
# Bulk Modulus (GPa) = 2.95559 39.59928 21.27744
# Shear Modulus (GPa) = 5.27286 22.21554 13.74420
#
# Velocity S-wave (km/s) = 1.77795 3.64943 2.87049
# Velocity P-wave (km/s) = 2.44678 6.44188 4.87260
#
# Compressibility (1/GPa) = 0.33834208
#
# Stress axis : x y z
#
# Youngs Moduli (GPa) = 83.61905 37.32921 2.12888
#
# Poissons Ratio (x) = 0.22769 -0.00523
# Poissons Ratio (y) = 0.51004 0.17335
# Poissons Ratio (z) = -0.20545 3.03955
#
# Static dielectric constant tensor:
#      x y z
#    x 3.370120 0.000000 0.000000 
#    y 0.000000 3.117110 0.000000 
#    z 0.000000 0.000000 2.820780 
# 
# 
# High freq. dielectric constant tensor:
#      x y z
#    x 1.664240 0.000000 0.000000 
#    y 0.000000 1.631660 0.000000 
#    z 0.000000 0.000000 1.592280 
# 
# From -- ./inp_files/19601.got.cif
#   From: 2010.03.12/outbox.cif.g09.slc.cpg/sg40_10_cif.got.tgz:19601.got - 2010.04.14 01:38:03.
