data_PCOD8183705
_publ_section_title
;
Structure prediction by ZEFSAII (Michael W. Deem and Ramdas Pophale) SiO2 
 PCOD8183705
Probable space group: A M A 2
;
_chemical_formula_sum "Si O2"
_cell_formula_units_Z 64
_cell_length_a 17.038834
_cell_length_b 12.091051
_cell_length_c 16.062528
_cell_angle_alpha 90.000000
_cell_angle_beta 90.000000
_cell_angle_gamma 90.000000
_cell_volume 3309.160431
_symmetry_space_group_name_H-M "A M A 2"
_symmetry_group_IT_number 40
_symmetry_cell_setting 'orthorhombic'
loop_
_space_group_symop_operation_xyz
x,y,z
-x,-y,z
1/2-x,y,z
1/2+x,-y,z
x,1/2+y,1/2+z
-x,1/2-y,1/2+z
1/2-x,1/2+y,1/2+z
1/2+x,1/2-y,1/2+z
loop_
_atom_site_type_symbol
_atom_site_label
_atom_site_fract_x
_atom_site_fract_y
_atom_site_fract_z
Si Si1 0.156084 0.393450 0.939410
Si Si2 0.407641 0.881281 0.257119
Si Si3 0.887446 0.815945 0.641508
Si Si4 0.336685 0.138612 0.470160
Si Si5 0.415766 0.628368 0.718193
Si Si6 0.935481 0.197974 0.590860
Si Si7 0.840081 0.705464 0.334829
Si Si8 0.588791 0.028563 0.729912
O O1 0.250000 0.379490 0.955000
O O2 0.134573 0.361466 0.845117
O O3 0.124225 0.518133 0.956586
O O4 0.105552 0.314276 0.000858
O O5 0.372570 0.797483 0.189461
O O6 0.500677 0.859623 0.265950
O O7 0.388789 0.001712 0.219054
O O8 0.827284 0.827578 0.566061
O O9 0.971595 0.828064 0.594115
O O10 0.869466 0.913021 0.708121
O O11 0.250000 0.126876 0.431196
O O12 0.377729 0.238463 0.418221
O O13 0.423097 0.675955 0.623984
O O14 0.351346 0.702719 0.763521
O O15 0.895067 0.110698 0.653020
O O16 0.750000 0.675395 0.345954
O O17 0.880811 0.588439 0.313522
O O18 0.500000 0.000000 0.747903
#
# Coordination Sequence:
#
# PCOD8183705 Si02
#       8
#     8   8   8   8   8   8   8   8
#     4  11  22  36  56  88 118 147 194 248 299 347
#     4  10  21  36  59  84 118 155 194 244 293 353
#     4  10  20  36  57  83 114 152 195 236 295 351
#     4  10  21  35  54  84 115 148 195 240 288 349
#     4   9  19  36  56  85 115 154 199 235 294 353
#     4   9  19  34  57  83 112 148 193 247 286 344
#     4  10  20  35  58  87 116 149 195 248 295 350
#     4   9  18  35  56  82 117 149 197 241 289 351
#
# _framework density 19.340253000000001
#
# number of rings (size 3 to 8) (size 9 to 14) (size 15 to 20)
#    0.000    2.250    2.500    0.750    1.750    3.000 
#    0.000    1.250    2.750    1.500    0.000    0.000 
#    0.000    0.000    0.000    0.000    0.000    0.000 
#
# Total GULP energy -396554.943963 kJ/mol
# GULP energy per Si atom -12392.341999 kJ/mol
# Density = 1.929623 g / cm^3
# Si number density = 19.340253 Si / 1000 Ang^3
#
#
#
# Elastic Constant Matrix: (Units=GPa)
#
#
# Indices 1 2 3 4 5 6 
#
# 1 44.8418 28.0744 33.1115 0.0000 0.0000 0.0000
# 2 28.0744 116.1803 60.5539 0.0000 0.0000 0.0000
# 3 33.1115 60.5539 110.4664 0.0000 0.0000 0.0000
# 4 0.0000 0.0000 0.0000 33.3884 0.0000 0.0000
# 5 0.0000 0.0000 0.0000 0.0000 24.1010 0.0000
# 6 0.0000 0.0000 0.0000 0.0000 0.0000 21.5707
#
#
#
# Elastic Compliance Matrix: (Units=1/GPa)
#
#
# Indices 1 2 3 4 5 6 
#
# 1 0.029647 -0.003545 -0.006943 0.000000 0.000000 0.000000
# 2 -0.003545 0.012474 -0.005775 0.000000 0.000000 0.000000
# 3 -0.006943 -0.005775 0.014299 0.000000 0.000000 0.000000
# 4 0.000000 0.000000 0.000000 0.029950 0.000000 0.000000
# 5 0.000000 0.000000 0.000000 0.000000 0.041492 0.000000
# 6 0.000000 0.000000 0.000000 0.000000 0.000000 0.046359
#
#
# Mechanical properties :
#
#
# Convention : Reuss Voigt Hill
#
# Bulk Modulus (GPa) = 41.85253 57.21869 49.53561
# Shear Modulus (GPa) = 23.28680 25.79526 24.54103
#
# Velocity S-wave (km/s) = 3.47372 3.65603 3.56604
# Velocity P-wave (km/s) = 6.14622 6.88996 6.52869
#
# Compressibility (1/GPa) = 0.02389342
#
# Stress axis : x y z
#
# Youngs Moduli (GPa) = 33.73017 80.16622 69.93284
#
# Poissons Ratio (x) = 0.28421 0.48555
# Poissons Ratio (y) = 0.11958 0.40388
# Poissons Ratio (z) = 0.23419 0.46298
#
# Static dielectric constant tensor:
#      x y z
#    x 3.342140 0.000000 0.000000 
#    y 0.000000 3.774880 0.000000 
#    z 0.000000 0.000000 3.422250 
# 
# 
# High freq. dielectric constant tensor:
#      x y z
#    x 1.737240 0.000000 0.000000 
#    y 0.000000 1.750250 0.000000 
#    z 0.000000 0.000000 1.737150 
# 
# From -- ./inp_files/17889.got.cif
#   From: 2010.03.12/outbox.cif.g09.slc.cpg/sg40_9_cif.got.tgz:17889.got - 2010.04.14 01:38:03.
