data_PCOD8183110
_publ_section_title
;
Structure prediction by ZEFSAII (Michael W. Deem and Ramdas Pophale) SiO2 
 PCOD8183110
Probable space group: A M A 2
;
_chemical_formula_sum "Si O2"
_cell_formula_units_Z 64
_cell_length_a 15.651041
_cell_length_b 8.683133
_cell_length_c 23.961805
_cell_angle_alpha 90.000000
_cell_angle_beta 90.000000
_cell_angle_gamma 90.000000
_cell_volume 3256.410991
_symmetry_space_group_name_H-M "A M A 2"
_symmetry_group_IT_number 40
_symmetry_cell_setting 'orthorhombic'
loop_
_space_group_symop_operation_xyz
x,y,z
-x,-y,z
1/2-x,y,z
1/2+x,-y,z
x,1/2+y,1/2+z
-x,1/2-y,1/2+z
1/2-x,1/2+y,1/2+z
1/2+x,1/2-y,1/2+z
loop_
_atom_site_type_symbol
_atom_site_label
_atom_site_fract_x
_atom_site_fract_y
_atom_site_fract_z
Si Si1 0.348609 0.681244 0.973480
Si Si2 0.648613 0.660132 0.360314
Si Si3 0.345614 0.821135 0.483117
Si Si4 0.079980 0.387779 0.768129
Si Si5 0.995870 0.317874 0.055234
Si Si6 0.494826 0.817140 0.681012
Si Si7 0.845484 0.810925 0.247504
Si Si8 0.848149 0.314458 0.363157
O O1 0.250000 0.728151 0.986802
O O2 0.383808 0.757434 0.916579
O O3 0.357686 0.498803 0.966836
O O4 0.411353 0.740494 0.022573
O O5 0.750000 0.663542 0.361867
O O6 0.614821 0.751553 0.306324
O O7 0.614469 0.485950 0.355680
O O8 0.250000 0.794248 0.507774
O O9 0.415849 0.759798 0.527003
O O10 0.358547 0.723951 0.427602
O O11 0.155854 0.502350 0.748842
O O12 0.098421 0.304080 0.826199
O O13 0.000000 0.500000 0.775647
O O14 0.066041 0.259945 0.720410
O O15 0.989053 0.256966 0.118284
O O16 0.000000 0.500000 0.055977
O O17 0.400716 0.759624 0.697607
O O18 0.500000 0.000000 0.686439
O O19 0.750000 0.749469 0.238428
O O20 0.750000 0.305026 0.343703
#
# Coordination Sequence:
#
# PCOD8183110 Si02
#       8
#     8   8   8   8   8   8   8   8
#     4   9  17  33  55  79 107 140 175 217 268 325
#     4   9  18  32  53  81 111 138 171 218 273 324
#     4   9  18  32  53  79 108 141 178 217 264 322
#     4  10  21  35  53  76 107 142 179 221 270 326
#     4   9  19  35  55  77 103 139 183 225 265 316
#     4  10  21  38  56  79 110 141 182 233 276 318
#     4  10  20  36  57  80 107 145 184 221 270 329
#     4  10  19  33  53  81 111 138 173 220 269 322
#
# _framework density 19.65354
#
# number of rings (size 3 to 8) (size 9 to 14) (size 15 to 20)
#    0.000    2.500    0.000    1.875    0.000    6.000 
#    0.000   10.625    0.000    1.500    0.000    0.000 
#    0.000    0.000    0.000    0.000    0.000    0.000 
#
# Total GULP energy -396746.682105 kJ/mol
# GULP energy per Si atom -12398.333816 kJ/mol
# Density = 1.960881 g / cm^3
# Si number density = 19.653540 Si / 1000 Ang^3
#
#
#
# Elastic Constant Matrix: (Units=GPa)
#
#
# Indices 1 2 3 4 5 6 
#
# 1 77.9123 17.5857 44.4255 0.0000 0.0000 0.0000
# 2 17.5857 87.7858 35.5425 0.0000 0.0000 0.0000
# 3 44.4255 35.5425 112.2303 0.0000 0.0000 0.0000
# 4 0.0000 0.0000 0.0000 26.3028 0.0000 0.0000
# 5 0.0000 0.0000 0.0000 0.0000 32.3059 0.0000
# 6 0.0000 0.0000 0.0000 0.0000 0.0000 21.6062
#
#
#
# Elastic Compliance Matrix: (Units=1/GPa)
#
#
# Indices 1 2 3 4 5 6 
#
# 1 0.016621 -0.000764 -0.006337 0.000000 0.000000 0.000000
# 2 -0.000764 0.013102 -0.003847 0.000000 0.000000 0.000000
# 3 -0.006337 -0.003847 0.012637 0.000000 0.000000 0.000000
# 4 0.000000 0.000000 0.000000 0.038019 0.000000 0.000000
# 5 0.000000 0.000000 0.000000 0.000000 0.030954 0.000000
# 6 0.000000 0.000000 0.000000 0.000000 0.000000 0.046283
#
#
# Mechanical properties :
#
#
# Convention : Reuss Voigt Hill
#
# Bulk Modulus (GPa) = 48.86672 52.55953 50.71312
# Shear Modulus (GPa) = 26.83362 28.06794 27.45078
#
# Velocity S-wave (km/s) = 3.69905 3.78317 3.74135
# Velocity P-wave (km/s) = 6.56978 6.77379 6.67257
#
# Compressibility (1/GPa) = 0.02046383
#
# Stress axis : x y z
#
# Youngs Moduli (GPa) = 60.16516 76.32481 79.13161
#
# Poissons Ratio (x) = 0.05829 0.50149
# Poissons Ratio (y) = 0.04595 0.30442
# Poissons Ratio (z) = 0.38129 0.29362
#
# Static dielectric constant tensor:
#      x y z
#    x 3.673270 0.000000 0.000000 
#    y 0.000000 3.641840 0.000000 
#    z 0.000000 0.000000 3.632320 
# 
# 
# High freq. dielectric constant tensor:
#      x y z
#    x 1.763850 0.000000 0.000000 
#    y 0.000000 1.760500 0.000000 
#    z 0.000000 0.000000 1.757490 
# 
# From -- ./inp_files/23397.got.cif
#   From: 2010.03.12/outbox.cif.g09.slc.cpg/sg40_12_cif.got.tgz:23397.got - 2010.04.14 01:38:03.
