data_PCOD8183667
_publ_section_title
;
Structure prediction by ZEFSAII (Michael W. Deem and Ramdas Pophale) SiO2 
 PCOD8183667
Probable space group: A M A 2
;
_chemical_formula_sum "Si O2"
_cell_formula_units_Z 48
_cell_length_a 17.658800
_cell_length_b 15.013004
_cell_length_c 8.995440
_cell_angle_alpha 90.000000
_cell_angle_beta 90.000000
_cell_angle_gamma 90.000000
_cell_volume 2384.795806
_symmetry_space_group_name_H-M "A M A 2"
_symmetry_group_IT_number 40
_symmetry_cell_setting 'orthorhombic'
loop_
_space_group_symop_operation_xyz
x,y,z
-x,-y,z
1/2-x,y,z
1/2+x,-y,z
x,1/2+y,1/2+z
-x,1/2-y,1/2+z
1/2-x,1/2+y,1/2+z
1/2+x,1/2-y,1/2+z
loop_
_atom_site_type_symbol
_atom_site_label
_atom_site_fract_x
_atom_site_fract_y
_atom_site_fract_z
Si Si1 0.837697 0.176270 0.752260
Si Si2 0.661570 0.084700 0.465385
Si Si3 0.339842 0.240691 0.795713
Si Si4 0.408694 0.674194 0.569487
Si Si5 0.930284 0.253217 0.002074
Si Si6 0.570225 0.436512 0.832031
O O1 0.750000 0.167094 0.801637
O O2 0.863662 0.097572 0.638379
O O3 0.847959 0.267757 0.661482
O O4 0.891581 0.177779 0.897127
O O5 0.750000 0.095198 0.459944
O O6 0.630053 0.164198 0.359718
O O7 0.640531 0.987418 0.406111
O O8 0.250000 0.231870 0.788862
O O9 0.372430 0.224759 0.633276
O O10 0.374940 0.163691 0.903481
O O11 0.491666 0.718283 0.568481
O O12 0.414682 0.579763 0.655999
O O13 0.945548 0.342765 0.910276
O O14 0.500000 0.500000 0.858066
#
# Coordination Sequence:
#
# PCOD8183667 Si02
#       6
#     8   8   8   8   8   8
#     4   9  18  35  58  83 111 149 189 228 277 341
#     4   9  19  36  58  82 112 144 182 232 289 344
#     4  10  20  37  58  83 114 150 189 233 282 343
#     4  10  20  35  56  79 111 152 193 231 273 339
#     4  11  21  35  59  85 113 150 194 237 279 344
#     4  11  22  36  57  82 111 145 188 241 293 341
#
# _framework density 20.127510000000001
#
# number of rings (size 3 to 8) (size 9 to 14) (size 15 to 20)
#    0.000    2.000    0.000    7.000    0.000    4.000 
#    0.000    4.167    0.000    0.000    0.000    0.000 
#    0.000    0.000    0.000    0.000    0.000    0.000 
#
# Total GULP energy -297505.928372 kJ/mol
# GULP energy per Si atom -12396.080349 kJ/mol
# Density = 2.008170 g / cm^3
# Si number density = 20.127510 Si / 1000 Ang^3
#
#
#
# Elastic Constant Matrix: (Units=GPa)
#
#
# Indices 1 2 3 4 5 6 
#
# 1 78.4697 25.6542 43.8422 0.0000 0.0000 0.0000
# 2 25.6542 72.7556 42.0057 0.0000 0.0000 0.0000
# 3 43.8422 42.0057 137.7105 0.0000 0.0000 0.0000
# 4 0.0000 0.0000 0.0000 34.3106 0.0000 0.0000
# 5 0.0000 0.0000 0.0000 0.0000 33.2922 0.0000
# 6 0.0000 0.0000 0.0000 0.0000 0.0000 25.6857
#
#
#
# Elastic Compliance Matrix: (Units=1/GPa)
#
#
# Indices 1 2 3 4 5 6 
#
# 1 0.016130 -0.003305 -0.004127 0.000000 0.000000 0.000000
# 2 -0.003305 0.017360 -0.004243 0.000000 0.000000 0.000000
# 3 -0.004127 -0.004243 0.009870 0.000000 0.000000 0.000000
# 4 0.000000 0.000000 0.000000 0.029146 0.000000 0.000000
# 5 0.000000 0.000000 0.000000 0.000000 0.030037 0.000000
# 6 0.000000 0.000000 0.000000 0.000000 0.000000 0.038932
#
#
# Mechanical properties :
#
#
# Convention : Reuss Voigt Hill
#
# Bulk Modulus (GPa) = 49.97618 56.88224 53.42921
# Shear Modulus (GPa) = 29.15544 30.48658 29.82101
#
# Velocity S-wave (km/s) = 3.81009 3.89610 3.85334
# Velocity P-wave (km/s) = 6.65127 6.96863 6.81180
#
# Compressibility (1/GPa) = 0.02000953
#
# Stress axis : x y z
#
# Youngs Moduli (GPa) = 61.99571 57.60463 101.31866
#
# Poissons Ratio (x) = 0.19037 0.41817
# Poissons Ratio (y) = 0.20488 0.42991
# Poissons Ratio (z) = 0.25587 0.24442
#
# Static dielectric constant tensor:
#      x y z
#    x 3.677200 0.000000 0.000000 
#    y 0.000000 4.635930 0.000000 
#    z 0.000000 0.000000 3.963960 
# 
# 
# High freq. dielectric constant tensor:
#      x y z
#    x 1.797650 0.000000 0.000000 
#    y 0.000000 1.744920 0.000000 
#    z 0.000000 0.000000 1.796130 
# 
# From -- ./inp_files/7437.got.cif
#   From: 2010.03.12/outbox.cif.g09.slc.cpg/sg40_4_cif.got.tgz:7437.got - 2010.04.14 01:38:03.
