data_PCOD8183312
_publ_section_title
;
Structure prediction by ZEFSAII (Michael W. Deem and Ramdas Pophale) SiO2 
 PCOD8183312
Probable space group: A M A 2
;
_chemical_formula_sum "Si O2"
_cell_formula_units_Z 64
_cell_length_a 8.664191
_cell_length_b 24.638969
_cell_length_c 15.087005
_cell_angle_alpha 90.000000
_cell_angle_beta 90.000000
_cell_angle_gamma 90.000000
_cell_volume 3220.724545
_symmetry_space_group_name_H-M "A M A 2"
_symmetry_group_IT_number 40
_symmetry_cell_setting 'orthorhombic'
loop_
_space_group_symop_operation_xyz
x,y,z
-x,-y,z
1/2-x,y,z
1/2+x,-y,z
x,1/2+y,1/2+z
-x,1/2-y,1/2+z
1/2-x,1/2+y,1/2+z
1/2+x,1/2-y,1/2+z
loop_
_atom_site_type_symbol
_atom_site_label
_atom_site_fract_x
_atom_site_fract_y
_atom_site_fract_z
Si Si1 0.929900 0.353086 0.778640
Si Si2 0.067631 0.556382 0.637647
Si Si3 0.070578 0.216412 0.922502
Si Si4 0.070982 0.138423 0.641463
Si Si5 0.571618 0.661926 0.963835
Si Si6 0.568593 0.059042 0.783689
Si Si7 0.928966 0.732706 0.238449
Si Si8 0.932445 0.609774 0.469143
O O1 0.750000 0.354136 0.802968
O O2 0.978280 0.399416 0.710681
O O3 0.973873 0.295933 0.732980
O O4 0.024569 0.361720 0.868577
O O5 0.250000 0.553449 0.622984
O O6 0.000000 0.500000 0.673415
O O7 0.984808 0.568970 0.545315
O O8 0.250000 0.211718 0.896703
O O9 0.036812 0.273646 0.969517
O O10 0.966111 0.209766 0.835514
O O11 0.018781 0.167288 0.986301
O O12 0.250000 0.126991 0.654489
O O13 0.025363 0.130661 0.538782
O O14 0.978139 0.096758 0.702001
O O15 0.028878 0.200283 0.666834
O O16 0.750000 0.649689 0.980234
O O17 0.750000 0.053393 0.785625
O O18 0.510014 0.084758 0.875987
O O19 0.500000 0.000000 0.769260
O O20 0.750000 0.722668 0.217247
O O21 0.750000 0.618383 0.472117
#
# Coordination Sequence:
#
# PCOD8183312 Si02
#       8
#     8   8   8   8   8   8   8   8
#     4   9  21  41  63  87 119 158 202 254 311 364
#     4  11  24  42  63  89 121 160 206 258 307 363
#     4  10  20  35  57  87 123 161 200 243 299 364
#     4  12  24  38  60  90 124 164 207 253 302 364
#     4  10  22  39  61  89 124 161 201 254 309 365
#     4  11  24  42  63  88 122 163 206 256 306 362
#     4  10  19  35  58  86 121 158 198 247 300 360
#     4  11  23  38  60  90 124 163 203 249 300 362
#
# _framework density 19.871305
#
# number of rings (size 3 to 8) (size 9 to 14) (size 15 to 20)
#    0.000    1.500    1.250    3.750    1.750    5.500 
#    0.000    0.625    0.000    1.500    0.000    0.000 
#    0.000    0.000    0.000    0.000    0.000    0.000 
#
# Total GULP energy -396977.888065 kJ/mol
# GULP energy per Si atom -12405.559002 kJ/mol
# Density = 1.982608 g / cm^3
# Si number density = 19.871305 Si / 1000 Ang^3
#
#
#
# Elastic Constant Matrix: (Units=GPa)
#
#
# Indices 1 2 3 4 5 6 
#
# 1 54.4567 26.0967 29.6317 0.0000 0.0000 0.0000
# 2 26.0967 114.4751 54.7472 0.0000 0.0000 0.0000
# 3 29.6317 54.7472 98.2218 0.0000 0.0000 0.0000
# 4 0.0000 0.0000 0.0000 21.0427 0.0000 0.0000
# 5 0.0000 0.0000 0.0000 0.0000 30.3315 0.0000
# 6 0.0000 0.0000 0.0000 0.0000 0.0000 33.7523
#
#
#
# Elastic Compliance Matrix: (Units=1/GPa)
#
#
# Indices 1 2 3 4 5 6 
#
# 1 0.022510 -0.002569 -0.005359 0.000000 0.000000 0.000000
# 2 -0.002569 0.012204 -0.006027 0.000000 0.000000 0.000000
# 3 -0.005359 -0.006027 0.015157 0.000000 0.000000 0.000000
# 4 0.000000 0.000000 0.000000 0.047522 0.000000 0.000000
# 5 0.000000 0.000000 0.000000 0.000000 0.032969 0.000000
# 6 0.000000 0.000000 0.000000 0.000000 0.000000 0.029628
#
#
# Mechanical properties :
#
#
# Convention : Reuss Voigt Hill
#
# Bulk Modulus (GPa) = 45.53508 54.23386 49.88447
# Shear Modulus (GPa) = 25.61210 27.47052 26.54131
#
# Velocity S-wave (km/s) = 3.59402 3.72213 3.65863
# Velocity P-wave (km/s) = 6.33935 6.76935 6.55788
#
# Compressibility (1/GPa) = 0.02196109
#
# Stress axis : x y z
#
# Youngs Moduli (GPa) = 44.42422 81.94348 65.97507
#
# Poissons Ratio (x) = 0.21048 0.35358
# Poissons Ratio (y) = 0.11411 0.39764
# Poissons Ratio (z) = 0.23808 0.49389
#
# Static dielectric constant tensor:
#      x y z
#    x 3.610430 0.000000 0.000000 
#    y 0.000000 3.656120 0.000000 
#    z 0.000000 0.000000 3.538330 
# 
# 
# High freq. dielectric constant tensor:
#      x y z
#    x 1.783420 0.000000 0.000000 
#    y 0.000000 1.770890 0.000000 
#    z 0.000000 0.000000 1.771820 
# 
# From -- ./inp_files/15618.got.cif
#   From: 2010.03.12/outbox.cif.g09.slc.cpg/sg40_8_cif.got.tgz:15618.got - 2010.04.14 01:38:03.
