data_PCOD8183200
_publ_section_title
;
Structure prediction by ZEFSAII (Michael W. Deem and Ramdas Pophale) SiO2 
 PCOD8183200
Probable space group: A M A 2
;
_chemical_formula_sum "Si O2"
_cell_formula_units_Z 64
_cell_length_a 8.694031
_cell_length_b 24.994430
_cell_length_c 15.095561
_cell_angle_alpha 90.000000
_cell_angle_beta 90.000000
_cell_angle_gamma 90.000000
_cell_volume 3280.300869
_symmetry_space_group_name_H-M "A M A 2"
_symmetry_group_IT_number 40
_symmetry_cell_setting 'orthorhombic'
loop_
_space_group_symop_operation_xyz
x,y,z
-x,-y,z
1/2-x,y,z
1/2+x,-y,z
x,1/2+y,1/2+z
-x,1/2-y,1/2+z
1/2-x,1/2+y,1/2+z
1/2+x,1/2-y,1/2+z
loop_
_atom_site_type_symbol
_atom_site_label
_atom_site_fract_x
_atom_site_fract_y
_atom_site_fract_z
Si Si1 0.569432 0.170682 0.934830
Si Si2 0.431687 0.608991 0.927553
Si Si3 0.931213 0.149863 0.129592
Si Si4 0.072432 0.760061 0.654356
Si Si5 0.433420 0.943322 0.257028
Si Si6 0.927228 0.218681 0.450347
Si Si7 0.430359 0.863437 0.749515
Si Si8 0.067279 0.941411 0.601467
O O1 0.750000 0.182602 0.941695
O O2 0.486440 0.225896 0.909640
O O3 0.532470 0.129465 0.854240
O O4 0.507356 0.146409 0.027654
O O5 0.250000 0.601506 0.931214
O O6 0.499984 0.570438 0.852972
O O7 0.475943 0.670377 0.907347
O O8 0.506423 0.593135 0.020325
O O9 0.750000 0.147852 0.130402
O O10 0.995097 0.099957 0.185544
O O11 0.983354 0.205177 0.174360
O O12 0.250000 0.748316 0.673836
O O13 0.045868 0.780145 0.555009
O O14 0.001941 0.806585 0.716260
O O15 0.250000 0.945235 0.261732
O O16 0.500000 0.000000 0.225785
O O17 0.750000 0.210067 0.425246
O O18 0.250000 0.860217 0.731394
O O19 0.493257 0.913260 0.692312
O O20 0.250000 0.944288 0.596202
O O21 0.000000 0.000000 0.598610
#
# Coordination Sequence:
#
# PCOD8183200 Si02
#       8
#     8   8   8   8   8   8   8   8
#     4   9  18  35  58  85 115 151 193 233 280 336
#     4  12  24  38  58  85 113 150 191 233 283 342
#     4   9  20  37  57  83 114 146 186 240 287 329
#     4   9  17  32  54  81 113 151 187 222 274 337
#     4  11  24  42  60  82 112 148 192 240 290 339
#     4  10  19  34  54  82 119 154 186 228 280 334
#     4   9  18  34  57  83 115 153 189 230 277 333
#     4  11  22  40  60  83 116 154 192 233 283 336
#
# _framework density 19.510404999999999
#
# number of rings (size 3 to 8) (size 9 to 14) (size 15 to 20)
#    0.000    2.000    1.250    2.625    1.750    1.500 
#    0.000    1.875    0.000    0.000    0.000    0.000 
#    0.000    0.000    0.000    0.000    0.000    0.000 
#
# Total GULP energy -396787.956902 kJ/mol
# GULP energy per Si atom -12399.623653 kJ/mol
# Density = 1.946600 g / cm^3
# Si number density = 19.510405 Si / 1000 Ang^3
#
#
#
# Elastic Constant Matrix: (Units=GPa)
#
#
# Indices 1 2 3 4 5 6 
#
# 1 59.2042 26.9849 22.5549 0.0000 0.0000 0.0000
# 2 26.9849 98.5843 29.4328 0.0000 0.0000 0.0000
# 3 22.5549 29.4328 71.6391 0.0000 0.0000 0.0000
# 4 0.0000 0.0000 0.0000 32.6417 0.0000 0.0000
# 5 0.0000 0.0000 0.0000 0.0000 17.0573 0.0000
# 6 0.0000 0.0000 0.0000 0.0000 0.0000 27.6670
#
#
#
# Elastic Compliance Matrix: (Units=1/GPa)
#
#
# Indices 1 2 3 4 5 6 
#
# 1 0.020630 -0.004226 -0.004759 0.000000 0.000000 0.000000
# 2 -0.004226 0.012428 -0.003775 0.000000 0.000000 0.000000
# 3 -0.004759 -0.003775 0.017008 0.000000 0.000000 0.000000
# 4 0.000000 0.000000 0.000000 0.030636 0.000000 0.000000
# 5 0.000000 0.000000 0.000000 0.000000 0.058626 0.000000
# 6 0.000000 0.000000 0.000000 0.000000 0.000000 0.036144
#
#
# Mechanical properties :
#
#
# Convention : Reuss Voigt Hill
#
# Bulk Modulus (GPa) = 40.74123 43.04142 41.89132
# Shear Modulus (GPa) = 23.90358 25.50352 24.70355
#
# Velocity S-wave (km/s) = 3.50404 3.61941 3.56219
# Velocity P-wave (km/s) = 6.10723 6.29090 6.19975
#
# Compressibility (1/GPa) = 0.02454516
#
# Stress axis : x y z
#
# Youngs Moduli (GPa) = 48.47333 80.46665 58.79522
#
# Poissons Ratio (x) = 0.34006 0.27980
# Poissons Ratio (y) = 0.20485 0.22197
# Poissons Ratio (z) = 0.23068 0.30378
#
# Static dielectric constant tensor:
#      x y z
#    x 3.428830 0.000000 0.000000 
#    y 0.000000 3.629620 0.000000 
#    z 0.000000 0.000000 3.775720 
# 
# 
# High freq. dielectric constant tensor:
#      x y z
#    x 1.746810 0.000000 0.000000 
#    y 0.000000 1.753950 0.000000 
#    z 0.000000 0.000000 1.764030 
# 
# From -- ./inp_files/15635.got.cif
#   From: 2010.03.12/outbox.cif.g09.slc.cpg/sg40_8_cif.got.tgz:15635.got - 2010.04.14 01:38:03.
