data_PCOD8183785
_publ_section_title
;
Structure prediction by ZEFSAII (Michael W. Deem and Ramdas Pophale) SiO2 
 PCOD8183785
Probable space group: A M A 2
;
_chemical_formula_sum "Si O2"
_cell_formula_units_Z 64
_cell_length_a 14.152955
_cell_length_b 24.856007
_cell_length_c 9.311164
_cell_angle_alpha 90.000000
_cell_angle_beta 90.000000
_cell_angle_gamma 90.000000
_cell_volume 3275.536660
_symmetry_space_group_name_H-M "A M A 2"
_symmetry_group_IT_number 40
_symmetry_cell_setting 'orthorhombic'
loop_
_space_group_symop_operation_xyz
x,y,z
-x,-y,z
1/2-x,y,z
1/2+x,-y,z
x,1/2+y,1/2+z
-x,1/2-y,1/2+z
1/2-x,1/2+y,1/2+z
1/2+x,1/2-y,1/2+z
loop_
_atom_site_type_symbol
_atom_site_label
_atom_site_fract_x
_atom_site_fract_y
_atom_site_fract_z
Si Si1 0.644072 0.624486 0.734140
Si Si2 0.640863 0.363879 0.550485
Si Si3 0.488097 0.185210 0.574009
Si Si4 0.144045 0.898658 0.550383
Si Si5 0.529173 0.554612 0.543625
Si Si6 0.483642 0.708579 0.744000
Si Si7 0.355548 0.110446 0.735971
Si Si8 0.138877 0.486991 0.274829
O O1 0.750000 0.645733 0.714598
O O2 0.619698 0.581902 0.613001
O O3 0.578213 0.675711 0.715721
O O4 0.629251 0.592103 0.881593
O O5 0.750000 0.378384 0.594978
O O6 0.567402 0.412402 0.564374
O O7 0.604344 0.314696 0.650074
O O8 0.639198 0.352244 0.379481
O O9 0.586109 0.154092 0.593286
O O10 0.493351 0.231840 0.691623
O O11 0.463733 0.207975 0.415173
O O12 0.409591 0.140891 0.610096
O O13 0.250000 0.882008 0.589879
O O14 0.118479 0.954747 0.627569
O O15 0.500000 0.500000 0.623817
O O16 0.567688 0.541628 0.385002
O O17 0.250000 0.105042 0.678677
O O18 0.393205 0.049421 0.761537
O O19 0.250000 0.483723 0.320024
#
# Coordination Sequence:
#
# PCOD8183785 Si02
#       8
#     8   8   8   8   8   8   8   8
#     4   9  20  40  59  82 115 150 192 239 291 352
#     4  10  21  38  57  82 119 157 196 240 295 353
#     4  11  22  39  61  86 116 148 201 249 299 360
#     4   9  20  38  59  83 114 153 194 237 291 350
#     4  11  20  33  57  88 117 155 193 234 284 341
#     4  10  23  40  60  86 112 153 195 250 306 356
#     4  10  21  37  58  85 119 159 195 238 296 352
#     4  10  20  36  58  89 122 157 197 238 286 343
#
# _framework density 19.538782000000001
#
# number of rings (size 3 to 8) (size 9 to 14) (size 15 to 20)
#    0.000    2.000    1.250    1.875    0.000    3.000 
#    6.750    2.500    0.000    0.000    0.000    0.000 
#    0.000    0.000    0.000    0.000    0.000    0.000 
#
# Total GULP energy -396477.739795 kJ/mol
# GULP energy per Si atom -12389.929369 kJ/mol
# Density = 1.949431 g / cm^3
# Si number density = 19.538782 Si / 1000 Ang^3
#
#
#
# Elastic Constant Matrix: (Units=GPa)
#
#
# Indices 1 2 3 4 5 6 
#
# 1 110.4701 42.5224 46.6716 0.0000 0.0000 0.0000
# 2 42.5224 98.9681 61.3459 0.0000 0.0000 0.0000
# 3 46.6716 61.3459 100.3839 0.0000 0.0000 0.0000
# 4 0.0000 0.0000 0.0000 35.7063 0.0000 0.0000
# 5 0.0000 0.0000 0.0000 0.0000 29.9776 0.0000
# 6 0.0000 0.0000 0.0000 0.0000 0.0000 23.0405
#
#
#
# Elastic Compliance Matrix: (Units=1/GPa)
#
#
# Indices 1 2 3 4 5 6 
#
# 1 0.011685 -0.002661 -0.003806 0.000000 0.000000 0.000000
# 2 -0.002661 0.016872 -0.009073 0.000000 0.000000 0.000000
# 3 -0.003806 -0.009073 0.017276 0.000000 0.000000 0.000000
# 4 0.000000 0.000000 0.000000 0.028006 0.000000 0.000000
# 5 0.000000 0.000000 0.000000 0.000000 0.033358 0.000000
# 6 0.000000 0.000000 0.000000 0.000000 0.000000 0.043402
#
#
# Mechanical properties :
#
#
# Convention : Reuss Voigt Hill
#
# Bulk Modulus (GPa) = 67.79100 67.87797 67.83449
# Shear Modulus (GPa) = 26.79562 28.36368 27.57965
#
# Velocity S-wave (km/s) = 3.70727 3.81420 3.76111
# Velocity P-wave (km/s) = 7.28670 7.36295 7.32493
#
# Compressibility (1/GPa) = 0.01475122
#
# Stress axis : x y z
#
# Youngs Moduli (GPa) = 85.58258 59.27070 57.88271
#
# Poissons Ratio (x) = 0.15772 0.22032
# Poissons Ratio (y) = 0.22773 0.52519
# Poissons Ratio (z) = 0.32576 0.53778
#
# Static dielectric constant tensor:
#      x y z
#    x 3.811980 0.000000 0.000000 
#    y 0.000000 3.496560 0.000000 
#    z 0.000000 0.000000 3.619530 
# 
# 
# High freq. dielectric constant tensor:
#      x y z
#    x 1.777240 0.000000 0.000000 
#    y 0.000000 1.753550 0.000000 
#    z 0.000000 0.000000 1.753870 
# 
# From -- ./inp_files/6916.got.cif
#   From: 2010.03.12/outbox.cif.g09.slc.cpg/sg40_4_cif.got.tgz:6916.got - 2010.04.14 01:38:03.
