data_PCOD8183913
_publ_section_title
;
Structure prediction by ZEFSAII (Michael W. Deem and Ramdas Pophale) SiO2 
 PCOD8183913
Probable space group: A M A 2
;
_chemical_formula_sum "Si O2"
_cell_formula_units_Z 40
_cell_length_a 18.223026
_cell_length_b 14.498761
_cell_length_c 6.827670
_cell_angle_alpha 90.000000
_cell_angle_beta 90.000000
_cell_angle_gamma 90.000000
_cell_volume 1803.947558
_symmetry_space_group_name_H-M "A M A 2"
_symmetry_group_IT_number 40
_symmetry_cell_setting 'orthorhombic'
loop_
_space_group_symop_operation_xyz
x,y,z
-x,-y,z
1/2-x,y,z
1/2+x,-y,z
x,1/2+y,1/2+z
-x,1/2-y,1/2+z
1/2-x,1/2+y,1/2+z
1/2+x,1/2-y,1/2+z
loop_
_atom_site_type_symbol
_atom_site_label
_atom_site_fract_x
_atom_site_fract_y
_atom_site_fract_z
Si Si1 0.043988 0.821448 0.053680
Si Si2 0.665319 0.231799 0.758730
Si Si3 0.400186 0.897191 0.450476
Si Si4 0.970594 0.877676 0.694300
Si Si5 0.167429 0.084181 0.459335
O O1 0.058519 0.873100 0.252990
O O2 0.009156 0.723003 0.105702
O O3 0.119231 0.816977 0.930188
O O4 0.982163 0.877077 0.928861
O O5 0.750000 0.207367 0.794894
O O6 0.642050 0.190697 0.546850
O O7 0.652194 0.343084 0.781234
O O8 0.463526 0.938422 0.596395
O O9 0.343837 0.978804 0.392750
O O10 0.886787 0.900019 0.643323
O O11 0.250000 0.097553 0.538025
#
# Coordination Sequence:
#
# PCOD8183913 Si02
#       5
#     8   8   8   8   8
#     4  10  20  37  69  91 125 166 218 269 327 398
#     4   9  21  40  61  91 129 170 218 269 325 399
#     4  11  21  39  67  95 130 176 216 276 333 393
#     4  10  20  39  64  95 124 164 221 276 323 392
#     4  10  22  41  65  96 137 175 217 273 343 410
#
# _framework density 22.173593
#
# number of rings (size 3 to 8) (size 9 to 14) (size 15 to 20)
#    0.000    2.000    2.000    1.200    0.000    1.600 
#    0.000   18.000    0.000   15.600    0.000    0.000 
#    0.000    0.000    0.000    0.000    0.000    0.000 
#
# Total GULP energy -247848.004985 kJ/mol
# GULP energy per Si atom -12392.400249 kJ/mol
# Density = 2.212313 g / cm^3
# Si number density = 22.173593 Si / 1000 Ang^3
#
#
#
# Elastic Constant Matrix: (Units=GPa)
#
#
# Indices 1 2 3 4 5 6 
#
# 1 121.9722 43.4724 33.5863 0.0000 0.0000 0.0000
# 2 43.4724 96.5262 31.2988 0.0000 0.0000 0.0000
# 3 33.5863 31.2988 110.7428 0.0000 0.0000 0.0000
# 4 0.0000 0.0000 0.0000 19.2108 0.0000 0.0000
# 5 0.0000 0.0000 0.0000 0.0000 34.7821 0.0000
# 6 0.0000 0.0000 0.0000 0.0000 0.0000 32.9310
#
#
#
# Elastic Compliance Matrix: (Units=1/GPa)
#
#
# Indices 1 2 3 4 5 6 
#
# 1 0.010140 -0.003930 -0.001965 0.000000 0.000000 0.000000
# 2 -0.003930 0.012928 -0.002462 0.000000 0.000000 0.000000
# 3 -0.001965 -0.002462 0.010322 0.000000 0.000000 0.000000
# 4 0.000000 0.000000 0.000000 0.052054 0.000000 0.000000
# 5 0.000000 0.000000 0.000000 0.000000 0.028750 0.000000
# 6 0.000000 0.000000 0.000000 0.000000 0.000000 0.030366
#
#
# Mechanical properties :
#
#
# Convention : Reuss Voigt Hill
#
# Bulk Modulus (GPa) = 59.96291 60.66180 60.31235
# Shear Modulus (GPa) = 29.97014 32.11036 31.04025
#
# Velocity S-wave (km/s) = 3.68042 3.80957 3.74555
# Velocity P-wave (km/s) = 6.72026 6.83867 6.77972
#
# Compressibility (1/GPa) = 0.01667698
#
# Stress axis : x y z
#
# Youngs Moduli (GPa) = 98.61723 77.35128 96.88421
#
# Poissons Ratio (x) = 0.30397 0.19035
# Poissons Ratio (y) = 0.38755 0.23853
# Poissons Ratio (z) = 0.19375 0.19044
#
# Static dielectric constant tensor:
#      x y z
#    x 4.123230 0.000000 0.000000 
#    y 0.000000 4.333690 0.000000 
#    z 0.000000 0.000000 3.821040 
# 
# 
# High freq. dielectric constant tensor:
#      x y z
#    x 1.884100 0.000000 0.000000 
#    y 0.000000 1.876740 0.000000 
#    z 0.000000 0.000000 1.845480 
# 
# From -- ./inp_files/1745.got.cif
#   From: 2010.03.12/outbox.cif.g09.slc.cpg/sg40_1_cif.got.tgz:1745.got - 2010.04.14 01:38:03.
