data_PCOD8183821
_publ_section_title
;
Structure prediction by ZEFSAII (Michael W. Deem and Ramdas Pophale) SiO2 
 PCOD8183821
Probable space group: A M A 2
;
_chemical_formula_sum "Si O2"
_cell_formula_units_Z 64
_cell_length_a 15.803539
_cell_length_b 13.443758
_cell_length_c 14.661173
_cell_angle_alpha 90.000000
_cell_angle_beta 90.000000
_cell_angle_gamma 90.000000
_cell_volume 3114.897478
_symmetry_space_group_name_H-M "A M A 2"
_symmetry_group_IT_number 40
_symmetry_cell_setting 'orthorhombic'
loop_
_space_group_symop_operation_xyz
x,y,z
-x,-y,z
1/2-x,y,z
1/2+x,-y,z
x,1/2+y,1/2+z
-x,1/2-y,1/2+z
1/2-x,1/2+y,1/2+z
1/2+x,1/2-y,1/2+z
loop_
_atom_site_type_symbol
_atom_site_label
_atom_site_fract_x
_atom_site_fract_y
_atom_site_fract_z
Si Si1 0.655700 0.639812 0.506760
Si Si2 0.905900 0.958364 0.098497
Si Si3 0.153416 0.031345 0.301350
Si Si4 0.152085 0.760059 0.558143
Si Si5 0.005874 0.615686 0.098152
Si Si6 0.616169 0.679899 0.858519
Si Si7 0.157265 0.724956 0.176523
Si Si8 0.437672 0.198637 0.406830
O O1 0.750000 0.653780 0.471940
O O2 0.635201 0.523454 0.517384
O O3 0.639373 0.686462 0.606041
O O4 0.600199 0.693861 0.430384
O O5 0.856792 0.968566 0.193028
O O6 0.896564 0.845299 0.064917
O O7 0.000000 0.000000 0.113248
O O8 0.250000 0.016466 0.326941
O O9 0.124152 0.135727 0.343090
O O10 0.105605 0.939194 0.348144
O O11 0.250000 0.758694 0.597274
O O12 0.160620 0.792437 0.453232
O O13 0.088064 0.835242 0.611653
O O14 0.077442 0.651232 0.170312
O O15 0.000000 0.500000 0.115555
O O16 0.040500 0.636482 0.997262
O O17 0.667864 0.727635 0.776175
O O18 0.521974 0.723466 0.851598
O O19 0.250000 0.675143 0.154507
#
# Coordination Sequence:
#
# PCOD8183821 Si02
#       8
#     8   8   8   8   8   8   8   8
#     4  10  20  38  60  86 121 159 204 251 308 377
#     4  12  23  39  62  92 125 169 211 260 317 382
#     4  12  23  35  60  95 125 160 209 263 319 375
#     4  11  24  40  62  92 130 166 208 267 328 382
#     4  10  22  40  60  87 121 163 207 252 325 389
#     4  11  21  38  59  88 118 158 206 259 311 373
#     4  10  20  36  61  88 113 153 209 262 301 368
#     4  10  21  36  58  88 123 158 197 257 318 369
#
# _framework density 20.546422
#
# number of rings (size 3 to 8) (size 9 to 14) (size 15 to 20)
#    0.000    1.250    1.250    7.500    1.750    1.000 
#    0.000    1.875    0.000    0.000    0.000    0.000 
#    0.000    0.000    0.000    0.000    0.000    0.000 
#
# Total GULP energy -396688.955570 kJ/mol
# GULP energy per Si atom -12396.529862 kJ/mol
# Density = 2.049966 g / cm^3
# Si number density = 20.546422 Si / 1000 Ang^3
#
#
#
# Elastic Constant Matrix: (Units=GPa)
#
#
# Indices 1 2 3 4 5 6 
#
# 1 118.3435 49.1219 35.6502 0.0000 0.0000 0.0000
# 2 49.1219 134.8120 21.5972 0.0000 0.0000 0.0000
# 3 35.6502 21.5972 38.0081 0.0000 0.0000 0.0000
# 4 0.0000 0.0000 0.0000 26.1811 0.0000 0.0000
# 5 0.0000 0.0000 0.0000 0.0000 23.8975 0.0000
# 6 0.0000 0.0000 0.0000 0.0000 0.0000 8.0267
#
#
#
# Elastic Compliance Matrix: (Units=1/GPa)
#
#
# Indices 1 2 3 4 5 6 
#
# 1 0.012803 -0.003016 -0.010295 0.000000 0.000000 0.000000
# 2 -0.003016 0.008871 -0.002212 0.000000 0.000000 0.000000
# 3 -0.010295 -0.002212 0.037224 0.000000 0.000000 0.000000
# 4 0.000000 0.000000 0.000000 0.038196 0.000000 0.000000
# 5 0.000000 0.000000 0.000000 0.000000 0.041845 0.000000
# 6 0.000000 0.000000 0.000000 0.000000 0.000000 0.124584
#
#
# Mechanical properties :
#
#
# Convention : Reuss Voigt Hill
#
# Bulk Modulus (GPa) = 35.90447 55.98916 45.94682
# Shear Modulus (GPa) = 16.45533 23.94067 20.19800
#
# Velocity S-wave (km/s) = 2.83306 3.41720 3.13875
# Velocity P-wave (km/s) = 5.31172 6.54820 5.96210
#
# Compressibility (1/GPa) = 0.02785168
#
# Stress axis : x y z
#
# Youngs Moduli (GPa) = 78.10574 112.72704 26.86463
#
# Poissons Ratio (x) = 0.33996 0.27658
# Poissons Ratio (y) = 0.23555 0.05943
# Poissons Ratio (z) = 0.80412 0.24935
#
# Static dielectric constant tensor:
#      x y z
#    x 3.980850 0.000000 0.000000 
#    y 0.000000 3.710330 0.000000 
#    z 0.000000 0.000000 3.508220 
# 
# 
# High freq. dielectric constant tensor:
#      x y z
#    x 1.826960 0.000000 0.000000 
#    y 0.000000 1.792600 0.000000 
#    z 0.000000 0.000000 1.779530 
# 
# From -- ./inp_files/20809.got.cif
#   From: 2010.03.12/outbox.cif.g09.slc.cpg/sg40_11_cif.got.tgz:20809.got - 2010.04.14 01:38:03.
