data_PCOD8183553
_publ_section_title
;
Structure prediction by ZEFSAII (Michael W. Deem and Ramdas Pophale) SiO2 
 PCOD8183553
Probable space group: A M A 2
;
_chemical_formula_sum "Si O2"
_cell_formula_units_Z 64
_cell_length_a 17.815360
_cell_length_b 20.516417
_cell_length_c 9.574890
_cell_angle_alpha 90.000000
_cell_angle_beta 90.000000
_cell_angle_gamma 90.000000
_cell_volume 3499.692716
_symmetry_space_group_name_H-M "A M A 2"
_symmetry_group_IT_number 40
_symmetry_cell_setting 'orthorhombic'
loop_
_space_group_symop_operation_xyz
x,y,z
-x,-y,z
1/2-x,y,z
1/2+x,-y,z
x,1/2+y,1/2+z
-x,1/2-y,1/2+z
1/2-x,1/2+y,1/2+z
1/2+x,1/2-y,1/2+z
loop_
_atom_site_type_symbol
_atom_site_label
_atom_site_fract_x
_atom_site_fract_y
_atom_site_fract_z
Si Si1 0.661839 0.482587 0.569970
Si Si2 0.430223 0.257705 0.860405
Si Si3 0.333476 0.878698 0.367654
Si Si4 0.421875 0.752648 0.033809
Si Si5 0.835657 0.868250 0.862144
Si Si6 0.336415 0.621439 0.042323
Si Si7 0.332599 0.376077 0.535783
Si Si8 0.088400 0.011301 0.363432
O O1 0.750000 0.483540 0.611017
O O2 0.640929 0.426615 0.462517
O O3 0.639902 0.551175 0.495234
O O4 0.612907 0.470467 0.707194
O O5 0.381238 0.317357 0.919933
O O6 0.445325 0.260746 0.695045
O O7 0.388488 0.191593 0.901310
O O8 0.508142 0.263525 0.938774
O O9 0.250000 0.875229 0.432592
O O10 0.329145 0.874487 0.202147
O O11 0.371112 0.945943 0.417642
O O12 0.360770 0.695815 0.013835
O O13 0.387578 0.820673 0.977514
O O14 0.750000 0.845755 0.885719
O O15 0.846647 0.893677 0.705463
O O16 0.250000 0.613406 0.994674
O O17 0.389313 0.571459 0.961137
O O18 0.250000 0.362340 0.473605
O O19 0.000000 0.000000 0.368748
#
# Coordination Sequence:
#
# PCOD8183553 Si02
#       8
#     8   8   8   8   8   8   8   8
#     4   9  18  34  55  78 103 135 177 216 252 301
#     4  10  20  34  53  76 104 133 167 211 259 305
#     4   9  17  32  53  73  95 131 176 210 240 290
#     4  10  20  34  52  76 102 132 167 211 260 307
#     4   9  19  35  55  78 104 138 177 215 258 311
#     4  10  20  36  56  77 104 139 176 213 258 313
#     4   8  15  30  52  74  95 127 172 212 243 290
#     4  11  21  33  52  80 109 135 168 214 262 307
#
# _framework density 18.287320000000001
#
# number of rings (size 3 to 8) (size 9 to 14) (size 15 to 20)
#    0.000    2.500    0.000    3.375    0.000    7.000 
#    0.000    4.375    0.000    3.750    0.000    0.000 
#    0.000    0.000    0.000    0.000    0.000    0.000 
#
# Total GULP energy -396787.942594 kJ/mol
# GULP energy per Si atom -12399.623206 kJ/mol
# Density = 1.824570 g / cm^3
# Si number density = 18.287320 Si / 1000 Ang^3
#
#
#
# Elastic Constant Matrix: (Units=GPa)
#
#
# Indices 1 2 3 4 5 6 
#
# 1 100.2345 39.6294 38.6160 0.0000 0.0000 0.0000
# 2 39.6294 116.5523 44.5669 0.0000 0.0000 0.0000
# 3 38.6160 44.5669 50.0024 0.0000 0.0000 0.0000
# 4 0.0000 0.0000 0.0000 28.9641 0.0000 0.0000
# 5 0.0000 0.0000 0.0000 0.0000 22.3278 0.0000
# 6 0.0000 0.0000 0.0000 0.0000 0.0000 30.3291
#
#
#
# Elastic Compliance Matrix: (Units=1/GPa)
#
#
# Indices 1 2 3 4 5 6 
#
# 1 0.014274 -0.000968 -0.010160 0.000000 0.000000 0.000000
# 2 -0.000968 0.013081 -0.010912 0.000000 0.000000 0.000000
# 3 -0.010160 -0.010912 0.037571 0.000000 0.000000 0.000000
# 4 0.000000 0.000000 0.000000 0.034525 0.000000 0.000000
# 5 0.000000 0.000000 0.000000 0.000000 0.044787 0.000000
# 6 0.000000 0.000000 0.000000 0.000000 0.000000 0.032972
#
#
# Mechanical properties :
#
#
# Convention : Reuss Voigt Hill
#
# Bulk Modulus (GPa) = 47.97118 56.93485 52.45302
# Shear Modulus (GPa) = 21.90676 25.92267 23.91471
#
# Velocity S-wave (km/s) = 3.46485 3.76908 3.62017
# Velocity P-wave (km/s) = 6.50352 7.08113 6.79846
#
# Compressibility (1/GPa) = 0.02084585
#
# Stress axis : x y z
#
# Youngs Moduli (GPa) = 70.05853 76.44445 26.61605
#
# Poissons Ratio (x) = 0.07401 0.27043
# Poissons Ratio (y) = 0.06783 0.29043
# Poissons Ratio (z) = 0.71183 0.83414
#
# Static dielectric constant tensor:
#      x y z
#    x 3.413830 0.000000 0.000000 
#    y 0.000000 3.690790 0.000000 
#    z 0.000000 0.000000 3.040130 
# 
# 
# High freq. dielectric constant tensor:
#      x y z
#    x 1.713290 0.000000 0.000000 
#    y 0.000000 1.727680 0.000000 
#    z 0.000000 0.000000 1.672440 
# 
# From -- ./inp_files/7820.got.cif
#   From: 2010.03.12/outbox.cif.g09.slc.cpg/sg40_4_cif.got.tgz:7820.got - 2010.04.14 01:38:03.
