data_PCOD8183138
_publ_section_title
;
Structure prediction by ZEFSAII (Michael W. Deem and Ramdas Pophale) SiO2 
 PCOD8183138
Probable space group: A M A 2
;
_chemical_formula_sum "Si O2"
_cell_formula_units_Z 64
_cell_length_a 8.611042
_cell_length_b 18.463939
_cell_length_c 20.753545
_cell_angle_alpha 90.000000
_cell_angle_beta 90.000000
_cell_angle_gamma 90.000000
_cell_volume 3299.684033
_symmetry_space_group_name_H-M "A M A 2"
_symmetry_group_IT_number 40
_symmetry_cell_setting 'orthorhombic'
loop_
_space_group_symop_operation_xyz
x,y,z
-x,-y,z
1/2-x,y,z
1/2+x,-y,z
x,1/2+y,1/2+z
-x,1/2-y,1/2+z
1/2-x,1/2+y,1/2+z
1/2+x,1/2-y,1/2+z
loop_
_atom_site_type_symbol
_atom_site_label
_atom_site_fract_x
_atom_site_fract_y
_atom_site_fract_z
Si Si1 0.566832 0.314069 0.180630
Si Si2 0.080410 0.642924 0.545449
Si Si3 0.064140 0.649686 0.406952
Si Si4 0.922389 0.185470 0.546967
Si Si5 0.936296 0.844194 0.182311
Si Si6 0.066496 0.193093 0.413485
Si Si7 0.566575 0.576941 0.283804
Si Si8 0.932712 0.422649 0.809519
O O1 0.750000 0.321852 0.187783
O O2 0.515673 0.341154 0.109807
O O3 0.516162 0.232403 0.195266
O O4 0.484088 0.363238 0.233175
O O5 0.250000 0.606694 0.543888
O O6 0.996944 0.623129 0.477602
O O7 0.094121 0.728997 0.548326
O O8 0.000920 0.621268 0.613892
O O9 0.250000 0.648562 0.407614
O O10 0.010755 0.731301 0.393425
O O11 0.998846 0.595367 0.354323
O O12 0.750000 0.150334 0.546774
O O13 0.014559 0.162537 0.482878
O O14 0.750000 0.832512 0.179572
O O15 0.988068 0.898548 0.238422
O O16 0.250000 0.203887 0.412482
O O17 0.007453 0.135347 0.361242
O O18 0.500000 0.500000 0.261522
O O19 0.750000 0.573252 0.287474
O O20 0.750000 0.427777 0.812225
O O21 0.000000 0.500000 0.827483
#
# Coordination Sequence:
#
# PCOD8183138 Si02
#       8
#     8   8   8   8   8   8   8   8
#     4  11  21  35  58  87 112 139 176 222 271 329
#     4   7  13  27  51  79 108 136 169 213 264 317
#     4  10  19  34  57  85 111 142 180 221 272 331
#     4   9  17  32  54  81 110 142 177 223 274 321
#     4   9  17  34  57  82 110 144 181 222 271 322
#     4  10  19  33  54  83 112 143 183 229 276 327
#     4  12  25  41  57  77 108 146 184 227 274 326
#     4  10  22  36  52  74 107 146 185 227 272 319
#
# _framework density 19.395797000000002
#
# number of rings (size 3 to 8) (size 9 to 14) (size 15 to 20)
#    0.000    2.250    0.000    5.625    0.000    2.500 
#    0.000    1.875    0.000    3.000    0.000    0.000 
#    0.000    0.000    0.000    0.000    0.000    0.000 
#
# Total GULP energy -396613.669591 kJ/mol
# GULP energy per Si atom -12394.177175 kJ/mol
# Density = 1.935165 g / cm^3
# Si number density = 19.395797 Si / 1000 Ang^3
#
#
#
# Elastic Constant Matrix: (Units=GPa)
#
#
# Indices 1 2 3 4 5 6 
#
# 1 75.5648 17.9317 24.2370 0.0000 0.0000 0.0000
# 2 17.9317 37.2786 6.7704 0.0000 0.0000 0.0000
# 3 24.2370 6.7704 104.1725 0.0000 0.0000 0.0000
# 4 0.0000 0.0000 0.0000 7.9337 0.0000 0.0000
# 5 0.0000 0.0000 0.0000 0.0000 23.9833 0.0000
# 6 0.0000 0.0000 0.0000 0.0000 0.0000 26.5141
#
#
#
# Elastic Compliance Matrix: (Units=1/GPa)
#
#
# Indices 1 2 3 4 5 6 
#
# 1 0.015958 -0.007086 -0.003252 0.000000 0.000000 0.000000
# 2 -0.007086 0.030291 -0.000320 0.000000 0.000000 0.000000
# 3 -0.003252 -0.000320 0.010377 0.000000 0.000000 0.000000
# 4 0.000000 0.000000 0.000000 0.126045 0.000000 0.000000
# 5 0.000000 0.000000 0.000000 0.000000 0.041696 0.000000
# 6 0.000000 0.000000 0.000000 0.000000 0.000000 0.037716
#
#
# Mechanical properties :
#
#
# Convention : Reuss Voigt Hill
#
# Bulk Modulus (GPa) = 28.32016 34.98823 31.65419
# Shear Modulus (GPa) = 16.93943 22.89134 19.91538
#
# Velocity S-wave (km/s) = 2.95847 3.43916 3.20783
# Velocity P-wave (km/s) = 5.12864 5.81796 5.48414
#
# Compressibility (1/GPa) = 0.03531054
#
# Stress axis : x y z
#
# Youngs Moduli (GPa) = 62.66351 33.01260 96.36715
#
# Poissons Ratio (x) = 0.23391 0.31342
# Poissons Ratio (y) = 0.44400 0.03086
# Poissons Ratio (z) = 0.20381 0.01057
#
# Static dielectric constant tensor:
#      x y z
#    x 3.487350 0.000000 0.000000 
#    y 0.000000 3.408670 0.000000 
#    z 0.000000 0.000000 4.186970 
# 
# 
# High freq. dielectric constant tensor:
#      x y z
#    x 1.748500 0.000000 0.000000 
#    y 0.000000 1.716570 0.000000 
#    z 0.000000 0.000000 1.782220 
# 
# From -- ./inp_files/22402.got.cif
#   From: 2010.03.12/outbox.cif.g09.slc.cpg/sg40_12_cif.got.tgz:22402.got - 2010.04.14 01:38:03.
