data_PCOD8183891
_publ_section_title
;
Structure prediction by ZEFSAII (Michael W. Deem and Ramdas Pophale) SiO2 
 PCOD8183891
Probable space group: A M A 2
;
_chemical_formula_sum "Si O2"
_cell_formula_units_Z 48
_cell_length_a 18.673463
_cell_length_b 14.349922
_cell_length_c 8.513397
_cell_angle_alpha 90.000000
_cell_angle_beta 90.000000
_cell_angle_gamma 90.000000
_cell_volume 2281.273166
_symmetry_space_group_name_H-M "A M A 2"
_symmetry_group_IT_number 40
_symmetry_cell_setting 'orthorhombic'
loop_
_space_group_symop_operation_xyz
x,y,z
-x,-y,z
1/2-x,y,z
1/2+x,-y,z
x,1/2+y,1/2+z
-x,1/2-y,1/2+z
1/2-x,1/2+y,1/2+z
1/2+x,1/2-y,1/2+z
loop_
_atom_site_type_symbol
_atom_site_label
_atom_site_fract_x
_atom_site_fract_y
_atom_site_fract_z
Si Si1 0.085368 0.501034 0.436900
Si Si2 0.575630 0.676728 0.624595
Si Si3 0.328440 0.840623 0.395026
Si Si4 0.056519 0.239879 0.293083
Si Si5 0.566687 0.566626 0.119433
Si Si6 0.328937 0.160612 0.098332
O O1 0.104307 0.421836 0.561341
O O2 0.113266 0.481750 0.259466
O O3 0.120229 0.596395 0.492743
O O4 0.000000 0.500000 0.423340
O O5 0.641732 0.706302 0.734736
O O6 0.556459 0.744832 0.480148
O O7 0.507022 0.670065 0.740599
O O8 0.250000 0.885928 0.364808
O O9 0.382582 0.918288 0.467567
O O10 0.319123 0.758146 0.515605
O O11 0.041757 0.334592 0.195072
O O12 0.130931 0.186214 0.259843
O O13 0.500000 0.500000 0.069548
O O14 0.250000 0.116099 0.129613
#
# Coordination Sequence:
#
# PCOD8183891 Si02
#       6
#     8   8   8   8   8   8
#     4  10  20  37  61  96 123 156 209 256 309 370
#     4  11  22  37  64  86 126 159 209 264 312 365
#     4  10  23  41  60  89 127 165 208 260 318 375
#     4  10  20  38  61  93 119 162 211 258 305 377
#     4   9  20  36  64  90 121 162 208 254 307 374
#     4  10  21  40  63  89 126 167 205 250 316 382
#
# _framework density 21.040883000000001
#
# number of rings (size 3 to 8) (size 9 to 14) (size 15 to 20)
#    0.000    2.000    1.667    2.000    4.667    2.667 
#    3.000    3.333    0.000    0.000    0.000    0.000 
#    0.000    0.000    0.000    0.000    0.000    0.000 
#
# Total GULP energy -297352.953365 kJ/mol
# GULP energy per Si atom -12389.706390 kJ/mol
# Density = 2.099299 g / cm^3
# Si number density = 21.040883 Si / 1000 Ang^3
#
#
#
# Elastic Constant Matrix: (Units=GPa)
#
#
# Indices 1 2 3 4 5 6 
#
# 1 152.2239 36.2920 68.4246 0.0000 0.0000 0.0000
# 2 36.2920 54.9429 17.1855 0.0000 0.0000 0.0000
# 3 68.4246 17.1855 123.5630 0.0000 0.0000 0.0000
# 4 0.0000 0.0000 0.0000 17.3948 0.0000 0.0000
# 5 0.0000 0.0000 0.0000 0.0000 22.3975 0.0000
# 6 0.0000 0.0000 0.0000 0.0000 0.0000 28.2879
#
#
#
# Elastic Compliance Matrix: (Units=1/GPa)
#
#
# Indices 1 2 3 4 5 6 
#
# 1 0.009931 -0.005060 -0.004796 0.000000 0.000000 0.000000
# 2 -0.005060 0.021607 -0.000203 0.000000 0.000000 0.000000
# 3 -0.004796 -0.000203 0.010777 0.000000 0.000000 0.000000
# 4 0.000000 0.000000 0.000000 0.057489 0.000000 0.000000
# 5 0.000000 0.000000 0.000000 0.000000 0.044648 0.000000
# 6 0.000000 0.000000 0.000000 0.000000 0.000000 0.035351
#
#
# Mechanical properties :
#
#
# Convention : Reuss Voigt Hill
#
# Bulk Modulus (GPa) = 45.05087 63.83713 54.44400
# Shear Modulus (GPa) = 24.11741 27.53787 25.82764
#
# Velocity S-wave (km/s) = 3.38926 3.62163 3.50737
# Velocity P-wave (km/s) = 6.06413 6.92053 6.50643
#
# Compressibility (1/GPa) = 0.02219713
#
# Stress axis : x y z
#
# Youngs Moduli (GPa) = 100.69104 46.28227 92.78968
#
# Poissons Ratio (x) = 0.23419 0.44501
# Poissons Ratio (y) = 0.50949 0.01884
# Poissons Ratio (z) = 0.48290 0.00940
#
# Static dielectric constant tensor:
#      x y z
#    x 4.150700 0.000000 0.000000 
#    y 0.000000 3.781690 0.000000 
#    z 0.000000 0.000000 3.988610 
# 
# 
# High freq. dielectric constant tensor:
#      x y z
#    x 1.812350 0.000000 0.000000 
#    y 0.000000 1.808560 0.000000 
#    z 0.000000 0.000000 1.830360 
# 
# From -- ./inp_files/7441.got.cif
#   From: 2010.03.12/outbox.cif.g09.slc.cpg/sg40_4_cif.got.tgz:7441.got - 2010.04.14 01:38:03.
