data_PCOD8183719
_publ_section_title
;
Structure prediction by ZEFSAII (Michael W. Deem and Ramdas Pophale) SiO2 
 PCOD8183719
Probable space group: A M A 2
;
_chemical_formula_sum "Si O2"
_cell_formula_units_Z 48
_cell_length_a 8.401095
_cell_length_b 27.809451
_cell_length_c 10.040294
_cell_angle_alpha 90.000000
_cell_angle_beta 90.000000
_cell_angle_gamma 90.000000
_cell_volume 2345.712278
_symmetry_space_group_name_H-M "A M A 2"
_symmetry_group_IT_number 40
_symmetry_cell_setting 'orthorhombic'
loop_
_space_group_symop_operation_xyz
x,y,z
-x,-y,z
1/2-x,y,z
1/2+x,-y,z
x,1/2+y,1/2+z
-x,1/2-y,1/2+z
1/2-x,1/2+y,1/2+z
1/2+x,1/2-y,1/2+z
loop_
_atom_site_type_symbol
_atom_site_label
_atom_site_fract_x
_atom_site_fract_y
_atom_site_fract_z
Si Si1 0.435613 0.450464 0.186940
Si Si2 0.433822 0.698348 0.805141
Si Si3 0.933663 0.302010 0.307457
Si Si4 0.067409 0.351991 0.557172
Si Si5 0.064089 0.351448 0.053500
Si Si6 0.064117 0.051313 0.977934
O O1 0.500000 0.500000 0.121459
O O2 0.250000 0.455156 0.222620
O O3 0.469338 0.407276 0.085429
O O4 0.530473 0.440490 0.322278
O O5 0.250000 0.711279 0.825386
O O6 0.537045 0.745802 0.829307
O O7 0.458757 0.678231 0.657318
O O8 0.489738 0.658005 0.909317
O O9 0.750000 0.313788 0.334150
O O10 0.039540 0.333148 0.407951
O O11 0.980197 0.316168 0.158024
O O12 0.250000 0.344897 0.597822
O O13 0.023714 0.408139 0.564568
O O14 0.250000 0.339763 0.054056
O O15 0.250000 0.055047 0.004952
O O16 0.000000 0.000000 0.027090
#
# Coordination Sequence:
#
# PCOD8183719 Si02
#       6
#     8   8   8   8   8   8
#     4  10  20  35  60  90 123 157 199 250 301 355
#     4  12  26  43  62  88 124 164 205 254 310 368
#     4  12  24  41  65  92 121 161 208 254 304 363
#     4  12  24  42  64  91 125 162 206 256 308 364
#     4  11  23  41  63  91 125 162 204 252 305 360
#     4  11  21  36  61  92 124 158 202 251 305 361
#
# _framework density 20.462869000000001
#
# number of rings (size 3 to 8) (size 9 to 14) (size 15 to 20)
#    0.000    0.667    1.667    9.000    0.000    2.000 
#    0.000    0.833    0.000    2.000    0.000    0.000 
#    0.000    0.000    0.000    0.000    0.000    0.000 
#
# Total GULP energy -297809.670678 kJ/mol
# GULP energy per Si atom -12408.736278 kJ/mol
# Density = 2.041630 g / cm^3
# Si number density = 20.462869 Si / 1000 Ang^3
#
#
#
# Elastic Constant Matrix: (Units=GPa)
#
#
# Indices 1 2 3 4 5 6 
#
# 1 106.8087 28.3341 20.2944 0.0000 0.0000 0.0000
# 2 28.3341 114.9685 24.5740 0.0000 0.0000 0.0000
# 3 20.2944 24.5740 55.7789 0.0000 0.0000 0.0000
# 4 0.0000 0.0000 0.0000 18.7161 0.0000 0.0000
# 5 0.0000 0.0000 0.0000 0.0000 32.5383 0.0000
# 6 0.0000 0.0000 0.0000 0.0000 0.0000 30.5710
#
#
#
# Elastic Compliance Matrix: (Units=1/GPa)
#
#
# Indices 1 2 3 4 5 6 
#
# 1 0.010437 -0.001944 -0.002941 0.000000 0.000000 0.000000
# 2 -0.001944 0.009964 -0.003683 0.000000 0.000000 0.000000
# 3 -0.002941 -0.003683 0.020620 0.000000 0.000000 0.000000
# 4 0.000000 0.000000 0.000000 0.053430 0.000000 0.000000
# 5 0.000000 0.000000 0.000000 0.000000 0.030733 0.000000
# 6 0.000000 0.000000 0.000000 0.000000 0.000000 0.032711
#
#
# Mechanical properties :
#
#
# Convention : Reuss Voigt Hill
#
# Bulk Modulus (GPa) = 41.86390 47.10678 44.48534
# Shear Modulus (GPa) = 27.32358 29.98867 28.65612
#
# Velocity S-wave (km/s) = 3.65811 3.83236 3.74625
# Velocity P-wave (km/s) = 6.19235 6.53094 6.36390
#
# Compressibility (1/GPa) = 0.02388693
#
# Stress axis : x y z
#
# Youngs Moduli (GPa) = 95.81352 100.35949 48.49551
#
# Poissons Ratio (x) = 0.19505 0.14263
# Poissons Ratio (y) = 0.18622 0.17859
# Poissons Ratio (z) = 0.28180 0.36959
#
# Static dielectric constant tensor:
#      x y z
#    x 3.807770 0.000000 0.000000 
#    y 0.000000 4.006250 0.000000 
#    z 0.000000 0.000000 3.453190 
# 
# 
# High freq. dielectric constant tensor:
#      x y z
#    x 1.817660 0.000000 0.000000 
#    y 0.000000 1.816470 0.000000 
#    z 0.000000 0.000000 1.775660 
# 
# From -- ./inp_files/4610.got.cif
#   From: 2010.03.12/outbox.cif.g09.slc.cpg/sg40_3_cif.got.tgz:4610.got - 2010.04.14 01:38:03.
