data_PCOD8183741
_publ_section_title
;
Structure prediction by ZEFSAII (Michael W. Deem and Ramdas Pophale) SiO2 
 PCOD8183741
Probable space group: A M A 2
;
_chemical_formula_sum "Si O2"
_cell_formula_units_Z 64
_cell_length_a 14.903058
_cell_length_b 8.642930
_cell_length_c 24.409965
_cell_angle_alpha 90.000000
_cell_angle_beta 90.000000
_cell_angle_gamma 90.000000
_cell_volume 3144.152077
_symmetry_space_group_name_H-M "A M A 2"
_symmetry_group_IT_number 40
_symmetry_cell_setting 'orthorhombic'
loop_
_space_group_symop_operation_xyz
x,y,z
-x,-y,z
1/2-x,y,z
1/2+x,-y,z
x,1/2+y,1/2+z
-x,1/2-y,1/2+z
1/2-x,1/2+y,1/2+z
1/2+x,1/2-y,1/2+z
loop_
_atom_site_type_symbol
_atom_site_label
_atom_site_fract_x
_atom_site_fract_y
_atom_site_fract_z
Si Si1 0.492159 0.815871 0.868720
Si Si2 0.847742 0.775007 0.061680
Si Si3 0.994369 0.817937 0.250238
Si Si4 0.353594 0.209955 0.676932
Si Si5 0.649644 0.158927 0.957186
Si Si6 0.592957 0.094926 0.072452
Si Si7 0.354690 0.845754 0.672142
Si Si8 0.350326 0.205315 0.943158
O O1 0.476861 0.728752 0.812391
O O2 0.410592 0.768652 0.908885
O O3 0.583448 0.745678 0.894726
O O4 0.500000 0.000000 0.859602
O O5 0.750000 0.697940 0.060340
O O6 0.899033 0.700974 0.113345
O O7 0.833494 0.959123 0.071938
O O8 0.891148 0.738432 0.002155
O O9 0.911393 0.744214 0.217434
O O10 0.090778 0.757683 0.230305
O O11 0.000000 0.000000 0.242662
O O12 0.250000 0.258323 0.684163
O O13 0.394826 0.289748 0.623101
O O14 0.365261 0.027508 0.675115
O O15 0.750000 0.231409 0.955463
O O16 0.654371 0.978042 0.946379
O O17 0.603249 0.193009 0.016202
O O18 0.500000 0.000000 0.075020
O O19 0.250000 0.795159 0.677800
O O20 0.250000 0.271571 0.932211
#
# Coordination Sequence:
#
# PCOD8183741 Si02
#       8
#     8   8   8   8   8   8   8   8
#     4  10  20  36  56  78 107 145 195 245 286 339
#     4   9  16  30  53  82 113 144 180 225 276 337
#     4  12  26  42  59  81 113 154 201 252 303 360
#     4  11  23  39  60  88 120 156 197 245 301 363
#     4   9  17  31  54  85 117 151 190 235 286 347
#     4  11  19  31  56  89 123 158 195 236 287 346
#     4  10  22  40  62  87 117 152 193 243 302 362
#     4   8  15  29  53  82 111 144 183 227 281 344
#
# _framework density 20.355250000000002
#
# number of rings (size 3 to 8) (size 9 to 14) (size 15 to 20)
#    0.000    2.000    0.000    6.750    0.000    2.500 
#    0.000    3.750    0.000    1.500    0.000    0.000 
#    0.000    0.000    0.000    0.000    0.000    0.000 
#
# Total GULP energy -396516.752173 kJ/mol
# GULP energy per Si atom -12391.148505 kJ/mol
# Density = 2.030892 g / cm^3
# Si number density = 20.355250 Si / 1000 Ang^3
#
#
#
# Elastic Constant Matrix: (Units=GPa)
#
#
# Indices 1 2 3 4 5 6 
#
# 1 142.5404 35.7390 73.7096 0.0000 0.0000 0.0000
# 2 35.7390 63.9844 39.6945 0.0000 0.0000 0.0000
# 3 73.7096 39.6945 156.3391 0.0000 0.0000 0.0000
# 4 0.0000 0.0000 0.0000 31.7185 0.0000 0.0000
# 5 0.0000 0.0000 0.0000 0.0000 31.0536 0.0000
# 6 0.0000 0.0000 0.0000 0.0000 0.0000 16.6176
#
#
#
# Elastic Compliance Matrix: (Units=1/GPa)
#
#
# Indices 1 2 3 4 5 6 
#
# 1 0.009764 -0.003084 -0.003821 0.000000 0.000000 0.000000
# 2 -0.003084 0.019525 -0.003503 0.000000 0.000000 0.000000
# 3 -0.003821 -0.003503 0.009087 0.000000 0.000000 0.000000
# 4 0.000000 0.000000 0.000000 0.031527 0.000000 0.000000
# 5 0.000000 0.000000 0.000000 0.000000 0.032202 0.000000
# 6 0.000000 0.000000 0.000000 0.000000 0.000000 0.060177
#
#
# Mechanical properties :
#
#
# Convention : Reuss Voigt Hill
#
# Bulk Modulus (GPa) = 56.94550 73.46113 65.20332
# Shear Modulus (GPa) = 26.46169 30.12601 28.29385
#
# Velocity S-wave (km/s) = 3.60945 3.85127 3.73232
# Velocity P-wave (km/s) = 6.73850 7.47959 7.11870
#
# Compressibility (1/GPa) = 0.01756065
#
# Stress axis : x y z
#
# Youngs Moduli (GPa) = 102.41189 51.21718 110.04443
#
# Poissons Ratio (x) = 0.15794 0.42045
# Poissons Ratio (y) = 0.31581 0.38553
# Poissons Ratio (z) = 0.39129 0.17943
#
# Static dielectric constant tensor:
#      x y z
#    x 4.132570 0.000000 0.000000 
#    y 0.000000 3.410240 0.000000 
#    z 0.000000 0.000000 3.820870 
# 
# 
# High freq. dielectric constant tensor:
#      x y z
#    x 1.807560 0.000000 0.000000 
#    y 0.000000 1.757650 0.000000 
#    z 0.000000 0.000000 1.800570 
# 
# From -- ./inp_files/24831.got.cif
#   From: 2010.03.12/outbox.cif.g09.slc.cpg/sg40_13_cif.got.tgz:24831.got - 2010.04.14 01:38:03.
