data_PCOD8183436
_publ_section_title
;
Structure prediction by ZEFSAII (Michael W. Deem and Ramdas Pophale) SiO2 
 PCOD8183436
Probable space group: A M A 2
;
_chemical_formula_sum "Si O2"
_cell_formula_units_Z 56
_cell_length_a 18.665471
_cell_length_b 14.189797
_cell_length_c 9.697167
_cell_angle_alpha 90.000000
_cell_angle_beta 90.000000
_cell_angle_gamma 90.000000
_cell_volume 2568.384324
_symmetry_space_group_name_H-M "A M A 2"
_symmetry_group_IT_number 40
_symmetry_cell_setting 'orthorhombic'
loop_
_space_group_symop_operation_xyz
x,y,z
-x,-y,z
1/2-x,y,z
1/2+x,-y,z
x,1/2+y,1/2+z
-x,1/2-y,1/2+z
1/2-x,1/2+y,1/2+z
1/2+x,1/2-y,1/2+z
loop_
_atom_site_type_symbol
_atom_site_label
_atom_site_fract_x
_atom_site_fract_y
_atom_site_fract_z
Si Si1 0.401433 0.808805 0.244040
Si Si2 0.028050 0.138466 0.849065
Si Si3 0.665416 0.609465 0.001159
Si Si4 0.829661 0.286899 0.687015
Si Si5 0.935462 0.946476 0.565049
Si Si6 0.390607 0.253447 0.453795
Si Si7 0.036781 0.093402 0.146451
O O1 0.406500 0.712806 0.331110
O O2 0.363192 0.884763 0.342444
O O3 0.483310 0.824482 0.193435
O O4 0.360010 0.797879 0.097174
O O5 0.030844 0.073021 0.715548
O O6 0.951967 0.187413 0.876673
O O7 0.045300 0.076653 0.983033
O O8 0.750000 0.596921 0.999438
O O9 0.643144 0.703304 0.085810
O O10 0.633119 0.515763 0.071601
O O11 0.750000 0.320150 0.643407
O O12 0.825876 0.248803 0.844388
O O13 0.883478 0.376621 0.693327
O O14 0.919992 0.851517 0.483145
O O15 0.000000 0.000000 0.484152
O O16 0.000000 0.000000 0.211264
#
# Coordination Sequence:
#
# PCOD8183436 Si02
#       7
#     8   8   8   8   8   8   8
#     4  10  21  39  67  94 127 170 218 279 331 399
#     4  10  19  40  64  97 129 167 219 274 325 399
#     4  11  25  45  67  96 137 180 226 278 342 412
#     4  11  24  42  64  90 134 181 218 270 348 421
#     4  11  23  36  68 100 130 168 223 276 331 394
#     4  10  22  38  63  97 130 171 215 273 333 397
#     4  11  23  38  65  97 128 168 226 278 335 392
#
# _framework density 21.80359
#
# number of rings (size 3 to 8) (size 9 to 14) (size 15 to 20)
#    0.000    1.429    2.857    2.143    4.000    2.286 
#    0.000    2.857    0.000    0.857    0.000    0.000 
#    0.000    0.000    0.000    0.000    0.000    0.000 
#
# Total GULP energy -346888.249296 kJ/mol
# GULP energy per Si atom -12388.866046 kJ/mol
# Density = 2.175396 g / cm^3
# Si number density = 21.803590 Si / 1000 Ang^3
#
#
#
# Elastic Constant Matrix: (Units=GPa)
#
#
# Indices 1 2 3 4 5 6 
#
# 1 100.6678 46.9868 40.1859 0.0000 0.0000 0.0000
# 2 46.9868 100.3454 42.8050 0.0000 0.0000 0.0000
# 3 40.1859 42.8050 134.0139 0.0000 0.0000 0.0000
# 4 0.0000 0.0000 0.0000 7.1311 0.0000 0.0000
# 5 0.0000 0.0000 0.0000 0.0000 23.9009 0.0000
# 6 0.0000 0.0000 0.0000 0.0000 0.0000 33.7558
#
#
#
# Elastic Compliance Matrix: (Units=1/GPa)
#
#
# Indices 1 2 3 4 5 6 
#
# 1 0.013305 -0.005242 -0.002315 0.000000 0.000000 0.000000
# 2 -0.005242 0.013603 -0.002773 0.000000 0.000000 0.000000
# 3 -0.002315 -0.002773 0.009042 0.000000 0.000000 0.000000
# 4 0.000000 0.000000 0.000000 0.140231 0.000000 0.000000
# 5 0.000000 0.000000 0.000000 0.000000 0.041839 0.000000
# 6 0.000000 0.000000 0.000000 0.000000 0.000000 0.029625
#
#
# Mechanical properties :
#
#
# Convention : Reuss Voigt Hill
#
# Bulk Modulus (GPa) = 65.40727 66.10914 65.75821
# Shear Modulus (GPa) = 18.28807 26.62752 22.45780
#
# Velocity S-wave (km/s) = 2.89928 3.49842 3.21285
# Velocity P-wave (km/s) = 6.42428 6.83409 6.63235
#
# Compressibility (1/GPa) = 0.01528882
#
# Stress axis : x y z
#
# Youngs Moduli (GPa) = 75.16125 73.51210 110.59685
#
# Poissons Ratio (x) = 0.38538 0.25605
# Poissons Ratio (y) = 0.39402 0.30668
# Poissons Ratio (z) = 0.17401 0.20385
#
# Static dielectric constant tensor:
#      x y z
#    x 3.528650 0.000000 0.000000 
#    y 0.000000 3.836150 0.000000 
#    z 0.000000 0.000000 4.332050 
# 
# 
# High freq. dielectric constant tensor:
#      x y z
#    x 1.822320 0.000000 0.000000 
#    y 0.000000 1.850570 0.000000 
#    z 0.000000 0.000000 1.881490 
# 
# From -- ./inp_files/8342.got.cif
#   From: 2010.03.12/outbox.cif.g09.slc.cpg/sg40_5_cif.got.tgz:8342.got - 2010.04.14 01:38:03.
