data_PCOD8183792
_publ_section_title
;
Structure prediction by ZEFSAII (Michael W. Deem and Ramdas Pophale) SiO2 
 PCOD8183792
Probable space group: A M A 2
;
_chemical_formula_sum "Si O2"
_cell_formula_units_Z 40
_cell_length_a 16.381166
_cell_length_b 4.948931
_cell_length_c 22.137408
_cell_angle_alpha 90.000000
_cell_angle_beta 90.000000
_cell_angle_gamma 90.000000
_cell_volume 1794.663290
_symmetry_space_group_name_H-M "A M A 2"
_symmetry_group_IT_number 40
_symmetry_cell_setting 'orthorhombic'
loop_
_space_group_symop_operation_xyz
x,y,z
-x,-y,z
1/2-x,y,z
1/2+x,-y,z
x,1/2+y,1/2+z
-x,1/2-y,1/2+z
1/2-x,1/2+y,1/2+z
1/2+x,1/2-y,1/2+z
loop_
_atom_site_type_symbol
_atom_site_label
_atom_site_fract_x
_atom_site_fract_y
_atom_site_fract_z
Si Si1 0.157787 0.384527 0.988140
Si Si2 0.657095 0.098074 0.910112
Si Si3 0.842905 0.401933 0.687407
Si Si4 0.657787 0.384533 0.109379
Si Si5 0.551637 0.750000 0.298760
O O1 0.250000 0.307550 0.007471
O O2 0.155017 0.604383 0.936256
O O3 0.118338 0.113462 0.959048
O O4 0.112878 0.499998 0.048760
O O5 0.750000 0.008755 0.894597
O O6 0.605321 0.101265 0.849355
O O7 0.750000 0.491251 0.702923
O O8 0.881662 0.613469 0.638472
O O9 0.894680 0.398738 0.748164
O O10 0.844983 0.104390 0.661263
O O11 0.750000 0.307556 0.090048
O O12 0.500000 0.500000 0.270762
O O13 0.500000 0.000000 0.326757
#
# Coordination Sequence:
#
# PCOD8183792 Si02
#       5
#     8   8   8   8   8
#     4   9  17  31  56  89 117 141 180 237 292 343
#     4  10  20  36  59  85 114 150 193 237 286 349
#     4  10  20  36  59  85 114 150 193 237 286 349
#     4   9  17  31  56  89 117 141 180 237 292 343
#     4  12  25  40  57  80 116 158 200 246 293 342
#
# _framework density 22.288304
#
# number of rings (size 3 to 8) (size 9 to 14) (size 15 to 20)
#    0.000    2.000    0.000    4.200    0.000    4.800 
#    0.000    8.000    0.000   18.000    0.000    0.000 
#    0.000    0.000    0.000    0.000    0.000    0.000 
#
# Total GULP energy -247891.800743 kJ/mol
# GULP energy per Si atom -12394.590037 kJ/mol
# Density = 2.223757 g / cm^3
# Si number density = 22.288304 Si / 1000 Ang^3
#
#
#
# Elastic Constant Matrix: (Units=GPa)
#
#
# Indices 1 2 3 4 5 6 
#
# 1 48.4916 24.1101 38.5903 0.0000 0.0000 0.0000
# 2 24.1101 122.7232 28.5078 0.0000 0.0000 0.0000
# 3 38.5903 28.5078 122.4467 0.0000 0.0000 0.0000
# 4 0.0000 0.0000 0.0000 51.8064 0.0000 0.0000
# 5 0.0000 0.0000 0.0000 0.0000 -8.2087 0.0000
# 6 0.0000 0.0000 0.0000 0.0000 0.0000 12.8610
#
#
#
# Elastic Compliance Matrix: (Units=1/GPa)
#
#
# Indices 1 2 3 4 5 6 
#
# 1 0.029105 -0.003792 -0.008290 0.000000 0.000000 0.000000
# 2 -0.003792 0.009108 -0.000925 0.000000 0.000000 0.000000
# 3 -0.008290 -0.000925 0.010995 0.000000 0.000000 0.000000
# 4 0.000000 0.000000 0.000000 0.019303 0.000000 0.000000
# 5 0.000000 0.000000 0.000000 0.000000 -0.121822 0.000000
# 6 0.000000 0.000000 0.000000 0.000000 0.000000 0.077754
#
#
# Mechanical properties :
#
#
# Convention : Reuss Voigt Hill
#
# Bulk Modulus (GPa) = 43.11616 52.89753 48.00684
# Shear Modulus (GPa) = 85.92762 24.78865 55.35813
#
# Velocity S-wave (km/s) = 6.21583 3.33856 4.98911
# Velocity P-wave (km/s) = 8.42034 6.21660 7.40095
#
# Compressibility (1/GPa) = 0.02319316
#
# Stress axis : x y z
#
# Youngs Moduli (GPa) = 34.35875 109.78867 90.95156
#
# Poissons Ratio (x) = 0.41634 0.75396
# Poissons Ratio (y) = 0.13030 0.08417
# Poissons Ratio (z) = 0.28482 0.10160
#
# Static dielectric constant tensor:
#      x y z
#    x 3.706300 0.000000 0.000000 
#    y 0.000000 4.144640 0.000000 
#    z 0.000000 0.000000 3.944600 
# 
# 
# High freq. dielectric constant tensor:
#      x y z
#    x 1.822020 0.000000 0.000000 
#    y 0.000000 1.900920 0.000000 
#    z 0.000000 0.000000 1.878270 
# 
# From -- ./inp_files/1817.got.cif
#   From: 2010.03.12/outbox.cif.g09.slc.cpg/sg40_1_cif.got.tgz:1817.got - 2010.04.14 01:38:03.
