data_PCOD8183445
_publ_section_title
;
Structure prediction by ZEFSAII (Michael W. Deem and Ramdas Pophale) SiO2 
 PCOD8183445
Probable space group: A M A 2
;
_chemical_formula_sum "Si O2"
_cell_formula_units_Z 64
_cell_length_a 9.237405
_cell_length_b 20.267615
_cell_length_c 22.098663
_cell_angle_alpha 90.000000
_cell_angle_beta 90.000000
_cell_angle_gamma 90.000000
_cell_volume 4137.315403
_symmetry_space_group_name_H-M "A M A 2"
_symmetry_group_IT_number 40
_symmetry_cell_setting 'orthorhombic'
loop_
_space_group_symop_operation_xyz
x,y,z
-x,-y,z
1/2-x,y,z
1/2+x,-y,z
x,1/2+y,1/2+z
-x,1/2-y,1/2+z
1/2-x,1/2+y,1/2+z
1/2+x,1/2-y,1/2+z
loop_
_atom_site_type_symbol
_atom_site_label
_atom_site_fract_x
_atom_site_fract_y
_atom_site_fract_z
Si Si1 0.419548 0.566794 0.552220
Si Si2 0.581166 0.188171 0.265348
Si Si3 0.411273 0.155181 0.945749
Si Si4 0.911820 0.231240 0.857477
Si Si5 0.580607 0.315392 0.640269
Si Si6 0.910612 0.221781 0.535216
Si Si7 0.919943 0.566263 0.851934
Si Si8 0.912558 0.354444 0.946525
O O1 0.500000 0.500000 0.567980
O O2 0.250000 0.553351 0.552145
O O3 0.467772 0.593911 0.486147
O O4 0.460858 0.619180 0.603516
O O5 0.750000 0.203840 0.262249
O O6 0.505285 0.248964 0.299343
O O7 0.517312 0.183838 0.198968
O O8 0.551035 0.119712 0.299794
O O9 0.250000 0.141134 0.920683
O O10 0.517678 0.167069 0.889227
O O11 0.405151 0.218768 0.988120
O O12 0.750000 0.212853 0.836559
O O13 0.909356 0.290780 0.904429
O O14 0.750000 0.315151 0.657499
O O15 0.541410 0.250631 0.600372
O O16 0.750000 0.190659 0.539958
O O17 0.020260 0.165352 0.511760
O O18 0.750000 0.553467 0.861548
O O19 0.000000 0.500000 0.830487
O O20 0.988599 0.589768 0.915507
O O21 0.750000 0.381741 0.956441
#
# Coordination Sequence:
#
# PCOD8183445 Si02
#       8
#     8   8   8   8   8   8   8   8
#     4   9  18  30  43  60  84 115 147 179 213 248
#     4  10  20  31  43  60  83 113 146 179 214 251
#     4   8  14  26  42  59  80 105 134 170 213 255
#     4   9  16  26  42  62  81 103 133 171 214 256
#     4   9  18  31  44  59  83 115 148 180 212 247
#     4   8  14  26  43  60  79 105 135 169 212 255
#     4  10  20  32  44  59  82 113 147 180 213 250
#     4   9  16  26  42  63  83 103 131 170 214 256
#
# _framework density 15.468969
#
# number of rings (size 3 to 8) (size 9 to 14) (size 15 to 20)
#    0.000    3.000    0.000    3.000    0.000    6.500 
#    0.000    5.000    0.000    0.000    0.000    0.000 
#    0.000    1.000    0.000    7.000    0.000    5.375 
#
# Total GULP energy -396676.448739 kJ/mol
# GULP energy per Si atom -12396.139023 kJ/mol
# Density = 1.543376 g / cm^3
# Si number density = 15.468969 Si / 1000 Ang^3
#
#
#
# Elastic Constant Matrix: (Units=GPa)
#
#
# Indices 1 2 3 4 5 6 
#
# 1 110.2972 34.0021 69.1976 0.0000 0.0000 0.0000
# 2 34.0021 24.5034 48.3950 0.0000 0.0000 0.0000
# 3 69.1976 48.3950 93.5677 0.0000 0.0000 0.0000
# 4 0.0000 0.0000 0.0000 13.6337 0.0000 0.0000
# 5 0.0000 0.0000 0.0000 0.0000 29.1936 0.0000
# 6 0.0000 0.0000 0.0000 0.0000 0.0000 21.8019
#
#
#
# Elastic Compliance Matrix: (Units=1/GPa)
#
#
# Indices 1 2 3 4 5 6 
#
# 1 0.015341 -0.052013 0.015557 0.000000 0.000000 0.000000
# 2 -0.052013 -1.719695 0.927924 0.000000 0.000000 0.000000
# 3 0.015557 0.927924 -0.480757 0.000000 0.000000 0.000000
# 4 0.000000 0.000000 0.000000 0.073348 0.000000 0.000000
# 5 0.000000 0.000000 0.000000 0.000000 0.034254 0.000000
# 6 0.000000 0.000000 0.000000 0.000000 0.000000 0.045868
#
#
# Mechanical properties :
#
#
# Convention : Reuss Voigt Hill
#
# Bulk Modulus (GPa) = -2.48648 59.06196 28.28774
# Shear Modulus (GPa) = -1.26626 18.04409 8.38891
#
# Velocity S-wave (km/s) = -0.90574 3.41907 2.33127
# Velocity P-wave (km/s) = 1.64460 7.33829 5.05697
#
# Compressibility (1/GPa) = -0.40217480
#
# Stress axis : x y z
#
# Youngs Moduli (GPa) = 65.18520 -0.58150 -2.08005
#
# Poissons Ratio (x) = -0.03025 0.03236
# Poissons Ratio (y) = 3.39045 1.93013
# Poissons Ratio (z) = -1.01406 0.53959
#
# Static dielectric constant tensor:
#      x y z
#    x 3.137330 0.000000 0.000000 
#    y 0.000000 2.775120 0.000000 
#    z 0.000000 0.000000 2.871200 
# 
# 
# High freq. dielectric constant tensor:
#      x y z
#    x 1.604920 0.000000 0.000000 
#    y 0.000000 1.555150 0.000000 
#    z 0.000000 0.000000 1.573150 
# 
# From -- ./inp_files/15613.got.cif
#   From: 2010.03.12/outbox.cif.g09.slc.cpg/sg40_8_cif.got.tgz:15613.got - 2010.04.14 01:38:03.
