data_PCOD8183549
_publ_section_title
;
Structure prediction by ZEFSAII (Michael W. Deem and Ramdas Pophale) SiO2 
 PCOD8183549
Probable space group: A M A 2
;
_chemical_formula_sum "Si O2"
_cell_formula_units_Z 64
_cell_length_a 8.865844
_cell_length_b 20.323900
_cell_length_c 19.754438
_cell_angle_alpha 90.000000
_cell_angle_beta 90.000000
_cell_angle_gamma 90.000000
_cell_volume 3559.523082
_symmetry_space_group_name_H-M "A M A 2"
_symmetry_group_IT_number 40
_symmetry_cell_setting 'orthorhombic'
loop_
_space_group_symop_operation_xyz
x,y,z
-x,-y,z
1/2-x,y,z
1/2+x,-y,z
x,1/2+y,1/2+z
-x,1/2-y,1/2+z
1/2-x,1/2+y,1/2+z
1/2+x,1/2-y,1/2+z
loop_
_atom_site_type_symbol
_atom_site_label
_atom_site_fract_x
_atom_site_fract_y
_atom_site_fract_z
Si Si1 0.428080 0.183370 0.234120
Si Si2 0.070409 0.326142 0.083256
Si Si3 0.571079 0.932125 0.983017
Si Si4 0.572251 0.431806 0.986214
Si Si5 0.573204 0.432868 0.329387
Si Si6 0.073618 0.567286 0.830423
Si Si7 0.573085 0.821447 0.081562
Si Si8 0.928590 0.821167 0.725841
O O1 0.250000 0.196758 0.240994
O O2 0.486637 0.127967 0.285842
O O3 0.469788 0.159603 0.158445
O O4 0.514892 0.250360 0.251217
O O5 0.250000 0.332961 0.083799
O O6 0.016253 0.252197 0.065003
O O7 0.008473 0.344489 0.157085
O O8 0.999495 0.372892 0.027622
O O9 0.750000 0.937192 0.989970
O O10 0.520694 0.917628 0.906050
O O11 0.500000 0.000000 0.009077
O O12 0.501702 0.873957 0.029656
O O13 0.500000 0.500000 0.011407
O O14 0.750000 0.434726 0.998476
O O15 0.530295 0.419054 0.908097
O O16 0.500000 0.500000 0.302165
O O17 0.750000 0.443094 0.325878
O O18 0.520957 0.372653 0.283003
O O19 0.250000 0.559048 0.820478
O O20 0.000000 0.500000 0.804068
O O21 0.750000 0.822961 0.071529
O O22 0.750000 0.819694 0.714819
#
# Coordination Sequence:
#
# PCOD8183549 Si02
#       8
#     8   8   8   8   8   8   8   8
#     4   9  18  34  52  73 102 137 171 206 250 299
#     4  10  20  35  54  75  99 132 167 205 254 307
#     4   9  17  32  50  71  98 128 162 201 241 288
#     4  10  20  35  53  75 102 133 168 210 255 304
#     4   9  19  33  50  71  97 127 161 200 244 289
#     4   9  19  34  52  74 103 135 170 211 255 302
#     4   8  16  31  51  71  97 131 164 197 241 294
#     4  10  20  34  51  74 101 131 168 212 253 297
#
# _framework density 17.979935999999999
#
# number of rings (size 3 to 8) (size 9 to 14) (size 15 to 20)
#    0.000    2.750    0.000    1.875    0.000    4.000 
#    0.000    5.625    0.000    0.000    0.000    0.000 
#    0.000    0.000    0.000    0.000    0.000    0.000 
#
# Total GULP energy -396801.044839 kJ/mol
# GULP energy per Si atom -12400.032651 kJ/mol
# Density = 1.793901 g / cm^3
# Si number density = 17.979936 Si / 1000 Ang^3
#
#
#
# Elastic Constant Matrix: (Units=GPa)
#
#
# Indices 1 2 3 4 5 6 
#
# 1 48.5172 44.7728 36.8332 0.0000 0.0000 0.0000
# 2 44.7728 151.5817 98.8052 0.0000 0.0000 0.0000
# 3 36.8332 98.8052 107.0577 0.0000 0.0000 0.0000
# 4 0.0000 0.0000 0.0000 37.9129 0.0000 0.0000
# 5 0.0000 0.0000 0.0000 0.0000 19.0614 0.0000
# 6 0.0000 0.0000 0.0000 0.0000 0.0000 32.7606
#
#
#
# Elastic Compliance Matrix: (Units=1/GPa)
#
#
# Indices 1 2 3 4 5 6 
#
# 1 0.029480 -0.005262 -0.005287 0.000000 0.000000 0.000000
# 2 -0.005262 0.017497 -0.014338 0.000000 0.000000 0.000000
# 3 -0.005287 -0.014338 0.024393 0.000000 0.000000 0.000000
# 4 0.000000 0.000000 0.000000 0.026376 0.000000 0.000000
# 5 0.000000 0.000000 0.000000 0.000000 0.052462 0.000000
# 6 0.000000 0.000000 0.000000 0.000000 0.000000 0.030525
#
#
# Mechanical properties :
#
#
# Convention : Reuss Voigt Hill
#
# Bulk Modulus (GPa) = 46.30241 74.21989 60.26115
# Shear Modulus (GPa) = 21.03444 26.39666 23.71555
#
# Velocity S-wave (km/s) = 3.42407 3.83576 3.63575
# Velocity P-wave (km/s) = 6.43743 7.80937 7.15635
#
# Compressibility (1/GPa) = 0.02159715
#
# Stress axis : x y z
#
# Youngs Moduli (GPa) = 33.92092 57.15152 40.99589
#
# Poissons Ratio (x) = 0.30071 0.21673
# Poissons Ratio (y) = 0.17848 0.58781
# Poissons Ratio (z) = 0.17933 0.81946
#
# Static dielectric constant tensor:
#      x y z
#    x 3.208590 0.000000 0.000000 
#    y 0.000000 3.516700 0.000000 
#    z 0.000000 0.000000 3.474480 
# 
# 
# High freq. dielectric constant tensor:
#      x y z
#    x 1.685840 0.000000 0.000000 
#    y 0.000000 1.703070 0.000000 
#    z 0.000000 0.000000 1.696350 
# 
# From -- ./inp_files/19578.got.cif
#   From: 2010.03.12/outbox.cif.g09.slc.cpg/sg40_10_cif.got.tgz:19578.got - 2010.04.14 01:38:03.
