data_PCOD8183873
_publ_section_title
;
Structure prediction by ZEFSAII (Michael W. Deem and Ramdas Pophale) SiO2 
 PCOD8183873
Probable space group: A M A 2
;
_chemical_formula_sum "Si O2"
_cell_formula_units_Z 48
_cell_length_a 8.436755
_cell_length_b 20.336870
_cell_length_c 14.276387
_cell_angle_alpha 90.000000
_cell_angle_beta 90.000000
_cell_angle_gamma 90.000000
_cell_volume 2449.502360
_symmetry_space_group_name_H-M "A M A 2"
_symmetry_group_IT_number 40
_symmetry_cell_setting 'orthorhombic'
loop_
_space_group_symop_operation_xyz
x,y,z
-x,-y,z
1/2-x,y,z
1/2+x,-y,z
x,1/2+y,1/2+z
-x,1/2-y,1/2+z
1/2-x,1/2+y,1/2+z
1/2+x,1/2-y,1/2+z
loop_
_atom_site_type_symbol
_atom_site_label
_atom_site_fract_x
_atom_site_fract_y
_atom_site_fract_z
Si Si1 0.565179 0.312568 0.133610
Si Si2 0.567591 0.803776 0.250678
Si Si3 0.564805 0.570627 0.655305
Si Si4 0.063638 0.617629 0.464267
Si Si5 0.067125 0.769586 0.444689
Si Si6 0.437330 0.070220 0.763211
O O1 0.750000 0.319092 0.110566
O O2 0.540593 0.247291 0.194543
O O3 0.499359 0.374845 0.191543
O O4 0.468333 0.311410 0.037302
O O5 0.750000 0.788893 0.227128
O O6 0.526644 0.876916 0.218500
O O7 0.538481 0.797760 0.361092
O O8 0.500000 0.500000 0.685955
O O9 0.750000 0.575221 0.675934
O O10 0.532959 0.582140 0.545633
O O11 0.250000 0.605954 0.480023
O O12 0.021770 0.694416 0.464992
O O13 0.001208 0.586638 0.367338
O O14 0.250000 0.776204 0.416016
O O15 0.250000 0.071458 0.763352
O O16 0.500000 0.000000 0.729481
#
# Coordination Sequence:
#
# PCOD8183873 Si02
#       6
#     8   8   8   8   8   8
#     4  11  22  40  62  89 123 161 204 255 307 360
#     4  12  24  40  63  91 123 162 207 253 305 368
#     4  12  25  41  62  90 126 165 206 254 311 372
#     4  10  20  37  60  91 127 160 198 252 308 364
#     4  11  22  39  63  93 125 157 203 256 305 363
#     4  10  22  39  59  86 124 161 199 247 299 358
#
# _framework density 19.595817
#
# number of rings (size 3 to 8) (size 9 to 14) (size 15 to 20)
#    0.000    1.000    3.333    4.500    0.000    4.000 
#    0.000    0.833    0.000    2.000    0.000    0.000 
#    0.000    0.000    0.000    0.000    0.000    0.000 
#
# Total GULP energy -297780.263044 kJ/mol
# GULP energy per Si atom -12407.510960 kJ/mol
# Density = 1.955122 g / cm^3
# Si number density = 19.595817 Si / 1000 Ang^3
#
#
#
# Elastic Constant Matrix: (Units=GPa)
#
#
# Indices 1 2 3 4 5 6 
#
# 1 56.4998 18.1304 8.9507 0.0000 0.0000 0.0000
# 2 18.1304 116.2694 30.9406 0.0000 0.0000 0.0000
# 3 8.9507 30.9406 90.4719 0.0000 0.0000 0.0000
# 4 0.0000 0.0000 0.0000 19.9079 0.0000 0.0000
# 5 0.0000 0.0000 0.0000 0.0000 33.7372 0.0000
# 6 0.0000 0.0000 0.0000 0.0000 0.0000 29.8775
#
#
#
# Elastic Compliance Matrix: (Units=1/GPa)
#
#
# Indices 1 2 3 4 5 6 
#
# 1 0.018704 -0.002667 -0.000938 0.000000 0.000000 0.000000
# 2 -0.002667 0.009842 -0.003102 0.000000 0.000000 0.000000
# 3 -0.000938 -0.003102 0.012207 0.000000 0.000000 0.000000
# 4 0.000000 0.000000 0.000000 0.050231 0.000000 0.000000
# 5 0.000000 0.000000 0.000000 0.000000 0.029641 0.000000
# 6 0.000000 0.000000 0.000000 0.000000 0.000000 0.033470
#
#
# Mechanical properties :
#
#
# Convention : Reuss Voigt Hill
#
# Bulk Modulus (GPa) = 36.57912 42.14273 39.36093
# Shear Modulus (GPa) = 28.30906 30.38581 29.34743
#
# Velocity S-wave (km/s) = 3.80498 3.94207 3.87413
# Velocity P-wave (km/s) = 6.16532 6.50174 6.33576
#
# Compressibility (1/GPa) = 0.02733800
#
# Stress axis : x y z
#
# Youngs Moduli (GPa) = 53.46565 101.60485 81.92111
#
# Poissons Ratio (x) = 0.27096 0.07687
# Poissons Ratio (y) = 0.14258 0.25412
# Poissons Ratio (z) = 0.05017 0.31518
#
# Static dielectric constant tensor:
#      x y z
#    x 3.499150 0.000000 0.000000 
#    y 0.000000 7.685140 0.000000 
#    z 0.000000 0.000000 3.641720 
# 
# 
# High freq. dielectric constant tensor:
#      x y z
#    x 1.765260 0.000000 0.000000 
#    y 0.000000 1.763570 0.000000 
#    z 0.000000 0.000000 1.764570 
# 
# From -- ./inp_files/15032.got.cif
#   From: 2010.03.12/outbox.cif.g09.slc.cpg/sg40_8_cif.got.tgz:15032.got - 2010.04.14 01:38:03.
