data_PCOD8183899
_publ_section_title
;
Structure prediction by ZEFSAII (Michael W. Deem and Ramdas Pophale) SiO2 
 PCOD8183899
Probable space group: A M A 2
;
_chemical_formula_sum "Si O2"
_cell_formula_units_Z 56
_cell_length_a 14.073132
_cell_length_b 19.616981
_cell_length_c 10.136453
_cell_angle_alpha 90.000000
_cell_angle_beta 90.000000
_cell_angle_gamma 90.000000
_cell_volume 2798.394533
_symmetry_space_group_name_H-M "A M A 2"
_symmetry_group_IT_number 40
_symmetry_cell_setting 'orthorhombic'
loop_
_space_group_symop_operation_xyz
x,y,z
-x,-y,z
1/2-x,y,z
1/2+x,-y,z
x,1/2+y,1/2+z
-x,1/2-y,1/2+z
1/2-x,1/2+y,1/2+z
1/2+x,1/2-y,1/2+z
loop_
_atom_site_type_symbol
_atom_site_label
_atom_site_fract_x
_atom_site_fract_y
_atom_site_fract_z
Si Si1 0.857819 0.938863 0.176450
Si Si2 0.857264 0.647883 0.275958
Si Si3 0.027668 0.738931 0.884873
Si Si4 0.500044 0.675778 0.625443
Si Si5 0.640323 0.493438 0.969264
Si Si6 0.142186 0.431089 0.531208
Si Si7 0.491922 0.892233 0.543268
O O1 0.750000 0.922453 0.144024
O O2 0.908342 0.866943 0.164432
O O3 0.871947 0.967677 0.321819
O O4 0.898312 0.994116 0.070138
O O5 0.750000 0.649620 0.215470
O O6 0.874195 0.719824 0.353121
O O7 0.865434 0.583371 0.375095
O O8 0.943571 0.639136 0.173505
O O9 0.974510 0.728144 0.744588
O O10 0.971119 0.785511 0.990158
O O11 0.040812 0.665609 0.953029
O O12 0.589679 0.627179 0.612327
O O13 0.750000 0.495672 0.015887
O O14 0.579488 0.444854 0.069099
O O15 0.594871 0.568897 0.970358
O O16 0.250000 0.427684 0.581803
#
# Coordination Sequence:
#
# PCOD8183899 Si02
#       7
#     8   8   8   8   8   8   8
#     4  10  20  37  62  90 118 154 203 258 317 376
#     4  10  22  41  63  90 125 170 212 255 320 392
#     4  11  22  38  60  88 121 165 210 249 308 373
#     4  11  21  38  60  85 126 160 204 255 305 374
#     4  10  22  38  63  93 121 161 210 264 323 380
#     4   9  20  38  63  89 115 156 207 258 318 376
#     4  11  21  39  63  88 127 164 213 259 316 380
#
# _framework density 20.011474
#
# number of rings (size 3 to 8) (size 9 to 14) (size 15 to 20)
#    0.000    1.714    2.857    1.714    2.000    1.143 
#   10.286    1.429    0.000    1.714    0.000    0.000 
#    0.000    0.000    0.000    0.000    0.000    0.000 
#
# Total GULP energy -346914.764427 kJ/mol
# GULP energy per Si atom -12389.813015 kJ/mol
# Density = 1.996593 g / cm^3
# Si number density = 20.011474 Si / 1000 Ang^3
#
#
#
# Elastic Constant Matrix: (Units=GPa)
#
#
# Indices 1 2 3 4 5 6 
#
# 1 97.2666 41.4567 38.3746 0.0000 0.0000 0.0000
# 2 41.4567 101.4174 44.5209 0.0000 0.0000 0.0000
# 3 38.3746 44.5209 99.9673 0.0000 0.0000 0.0000
# 4 0.0000 0.0000 0.0000 37.2345 0.0000 0.0000
# 5 0.0000 0.0000 0.0000 0.0000 27.4672 0.0000
# 6 0.0000 0.0000 0.0000 0.0000 0.0000 15.9254
#
#
#
# Elastic Compliance Matrix: (Units=1/GPa)
#
#
# Indices 1 2 3 4 5 6 
#
# 1 0.013287 -0.003968 -0.003333 0.000000 0.000000 0.000000
# 2 -0.003968 0.013442 -0.004463 0.000000 0.000000 0.000000
# 3 -0.003333 -0.004463 0.013270 0.000000 0.000000 0.000000
# 4 0.000000 0.000000 0.000000 0.026857 0.000000 0.000000
# 5 0.000000 0.000000 0.000000 0.000000 0.036407 0.000000
# 6 0.000000 0.000000 0.000000 0.000000 0.000000 0.062793
#
#
# Mechanical properties :
#
#
# Convention : Reuss Voigt Hill
#
# Bulk Modulus (GPa) = 60.71545 60.81729 60.76637
# Shear Modulus (GPa) = 25.63109 27.74535 26.68822
#
# Velocity S-wave (km/s) = 3.58274 3.72758 3.65587
# Velocity P-wave (km/s) = 6.89354 6.99883 6.94638
#
# Compressibility (1/GPa) = 0.01647027
#
# Stress axis : x y z
#
# Youngs Moduli (GPa) = 75.25878 74.39622 75.35524
#
# Poissons Ratio (x) = 0.29522 0.25119
# Poissons Ratio (y) = 0.29865 0.33631
# Poissons Ratio (z) = 0.25087 0.33203
#
# Static dielectric constant tensor:
#      x y z
#    x 3.577690 0.000000 0.000000 
#    y 0.000000 3.904480 0.000000 
#    z 0.000000 0.000000 3.699900 
# 
# 
# High freq. dielectric constant tensor:
#      x y z
#    x 1.765140 0.000000 0.000000 
#    y 0.000000 1.793510 0.000000 
#    z 0.000000 0.000000 1.774060 
# 
# From -- ./inp_files/6712.got.cif
#   From: 2010.03.12/outbox.cif.g09.slc.cpg/sg40_4_cif.got.tgz:6712.got - 2010.04.14 01:38:03.
