data_PCOD8183126
_publ_section_title
;
Structure prediction by ZEFSAII (Michael W. Deem and Ramdas Pophale) SiO2 
 PCOD8183126
Probable space group: A M A 2
;
_chemical_formula_sum "Si O2"
_cell_formula_units_Z 64
_cell_length_a 8.962894
_cell_length_b 28.936213
_cell_length_c 12.487570
_cell_angle_alpha 90.000000
_cell_angle_beta 90.000000
_cell_angle_gamma 90.000000
_cell_volume 3238.678876
_symmetry_space_group_name_H-M "A M A 2"
_symmetry_group_IT_number 40
_symmetry_cell_setting 'orthorhombic'
loop_
_space_group_symop_operation_xyz
x,y,z
-x,-y,z
1/2-x,y,z
1/2+x,-y,z
x,1/2+y,1/2+z
-x,1/2-y,1/2+z
1/2-x,1/2+y,1/2+z
1/2+x,1/2-y,1/2+z
loop_
_atom_site_type_symbol
_atom_site_label
_atom_site_fract_x
_atom_site_fract_y
_atom_site_fract_z
Si Si1 0.923372 0.923775 0.722680
Si Si2 0.426477 0.550031 0.779440
Si Si3 0.417180 0.304575 0.049023
Si Si4 0.078265 0.108841 0.073762
Si Si5 0.425730 0.103051 0.490004
Si Si6 0.076650 0.204551 0.980879
Si Si7 0.075854 0.956213 0.917651
Si Si8 0.581246 0.165509 0.783835
O O1 0.750000 0.935633 0.738203
O O2 0.971461 0.925031 0.597745
O O3 0.023645 0.958349 0.793094
O O4 0.957736 0.873836 0.771470
O O5 0.500000 0.500000 0.762382
O O6 0.250000 0.542757 0.783250
O O7 0.473547 0.585581 0.685152
O O8 0.485395 0.573458 0.889395
O O9 0.250000 0.311017 0.005738
O O10 0.420850 0.304809 0.176689
O O11 0.509950 0.345198 0.992008
O O12 0.479423 0.253851 0.023192
O O13 0.250000 0.096042 0.051368
O O14 0.054186 0.164400 0.071575
O O15 0.978769 0.090013 0.976014
O O16 0.250000 0.109136 0.483563
O O17 0.250000 0.205727 0.946287
O O18 0.969658 0.197384 0.880384
O O19 0.250000 0.961252 0.926568
O O20 0.000000 0.000000 0.977060
O O21 0.750000 0.145657 0.803758
#
# Coordination Sequence:
#
# PCOD8183126 Si02
#       8
#     8   8   8   8   8   8   8   8
#     4  10  19  35  57  81 111 146 184 231 289 345
#     4  10  22  40  61  86 116 156 202 245 299 356
#     4   9  20  36  55  84 117 153 196 241 296 350
#     4  10  21  38  59  82 114 154 195 239 292 351
#     4   9  20  38  60  85 116 153 195 240 291 352
#     4  10  20  35  56  81 114 155 195 238 294 355
#     4  12  24  37  56  83 114 145 186 234 287 346
#     4  10  19  33  54  80 111 146 187 237 286 343
#
# _framework density 19.761144000000002
#
# number of rings (size 3 to 8) (size 9 to 14) (size 15 to 20)
#    0.000    2.000    1.250    2.250    0.000    5.000 
#    0.000    3.750    0.000    0.000    0.000    0.000 
#    0.000    0.000    0.000    0.000    0.000    0.000 
#
# Total GULP energy -396679.942558 kJ/mol
# GULP energy per Si atom -12396.248205 kJ/mol
# Density = 1.971617 g / cm^3
# Si number density = 19.761144 Si / 1000 Ang^3
#
#
#
# Elastic Constant Matrix: (Units=GPa)
#
#
# Indices 1 2 3 4 5 6 
#
# 1 68.4108 26.9463 33.2452 0.0000 0.0000 0.0000
# 2 26.9463 99.4782 36.8431 0.0000 0.0000 0.0000
# 3 33.2452 36.8431 105.9179 0.0000 0.0000 0.0000
# 4 0.0000 0.0000 0.0000 28.3290 0.0000 0.0000
# 5 0.0000 0.0000 0.0000 0.0000 23.3017 0.0000
# 6 0.0000 0.0000 0.0000 0.0000 0.0000 29.5267
#
#
#
# Elastic Compliance Matrix: (Units=1/GPa)
#
#
# Indices 1 2 3 4 5 6 
#
# 1 0.018101 -0.003213 -0.004564 0.000000 0.000000 0.000000
# 2 -0.003213 0.012109 -0.003204 0.000000 0.000000 0.000000
# 3 -0.004564 -0.003204 0.011988 0.000000 0.000000 0.000000
# 4 0.000000 0.000000 0.000000 0.035299 0.000000 0.000000
# 5 0.000000 0.000000 0.000000 0.000000 0.042915 0.000000
# 6 0.000000 0.000000 0.000000 0.000000 0.000000 0.033868
#
#
# Mechanical properties :
#
#
# Convention : Reuss Voigt Hill
#
# Bulk Modulus (GPa) = 49.41319 51.98621 50.69970
# Shear Modulus (GPa) = 27.32425 28.01631 27.67028
#
# Velocity S-wave (km/s) = 3.72254 3.76938 3.74603
# Velocity P-wave (km/s) = 6.59817 6.73118 6.66501
#
# Compressibility (1/GPa) = 0.02023751
#
# Stress axis : x y z
#
# Youngs Moduli (GPa) = 55.24569 82.58134 83.41544
#
# Poissons Ratio (x) = 0.26532 0.38070
# Poissons Ratio (y) = 0.17749 0.26724
# Poissons Ratio (z) = 0.25214 0.26457
#
# Static dielectric constant tensor:
#      x y z
#    x 3.497640 0.000000 0.000000 
#    y 0.000000 3.638620 0.000000 
#    z 0.000000 0.000000 3.816190 
# 
# 
# High freq. dielectric constant tensor:
#      x y z
#    x 1.763870 0.000000 0.000000 
#    y 0.000000 1.772400 0.000000 
#    z 0.000000 0.000000 1.769100 
# 
# From -- ./inp_files/10546.got.cif
#   From: 2010.03.12/outbox.cif.g09.slc.cpg/sg40_6_cif.got.tgz:10546.got - 2010.04.14 01:38:03.
