data_PCOD8183822
_publ_section_title
;
Structure prediction by ZEFSAII (Michael W. Deem and Ramdas Pophale) SiO2 
 PCOD8183822
Probable space group: A M A 2
;
_chemical_formula_sum "Si O2"
_cell_formula_units_Z 48
_cell_length_a 15.406269
_cell_length_b 8.727215
_cell_length_c 18.553149
_cell_angle_alpha 90.000000
_cell_angle_beta 90.000000
_cell_angle_gamma 90.000000
_cell_volume 2494.541792
_symmetry_space_group_name_H-M "A M A 2"
_symmetry_group_IT_number 40
_symmetry_cell_setting 'orthorhombic'
loop_
_space_group_symop_operation_xyz
x,y,z
-x,-y,z
1/2-x,y,z
1/2+x,-y,z
x,1/2+y,1/2+z
-x,1/2-y,1/2+z
1/2-x,1/2+y,1/2+z
1/2+x,1/2-y,1/2+z
loop_
_atom_site_type_symbol
_atom_site_label
_atom_site_fract_x
_atom_site_fract_y
_atom_site_fract_z
Si Si1 0.487967 0.678633 0.373370
Si Si2 0.008123 0.321130 0.026409
Si Si3 0.345244 0.795643 0.272912
Si Si4 0.849220 0.173504 0.107036
Si Si5 0.349898 0.680485 0.624525
Si Si6 0.415388 0.603207 0.775380
O O1 0.500000 0.500000 0.382815
O O2 0.466986 0.747241 0.450644
O O3 0.407420 0.692036 0.319872
O O4 0.568709 0.772673 0.338586
O O5 0.088464 0.290860 0.079126
O O6 0.000000 0.500000 0.015122
O O7 0.916465 0.256379 0.054552
O O8 0.250000 0.728606 0.284778
O O9 0.372261 0.783156 0.189101
O O10 0.344996 0.974785 0.298216
O O11 0.750000 0.222071 0.088342
O O12 0.859998 0.992122 0.096048
O O13 0.250000 0.735535 0.618349
O O14 0.381676 0.696165 0.706620
O O15 0.500000 0.500000 0.756811
#
# Coordination Sequence:
#
# PCOD8183822 Si02
#       6
#     8   8   8   8   8   8
#     4  11  23  38  56  79 111 151 188 227 278 330
#     4  12  24  38  56  80 115 153 188 231 279 329
#     4   9  18  36  61  85 111 142 181 228 275 329
#     4   9  19  38  63  87 111 145 186 228 277 331
#     4  10  20  36  61  88 114 146 183 225 276 335
#     4   9  17  34  59  85 111 145 184 223 274 332
#
# _framework density 19.242011000000002
#
# number of rings (size 3 to 8) (size 9 to 14) (size 15 to 20)
#    0.000    2.000    0.000    7.500    0.000    4.000 
#    0.000    7.500    0.000    0.000    0.000    0.000 
#    0.000    0.000    0.000    0.000    0.000    0.000 
#
# Total GULP energy -297531.599314 kJ/mol
# GULP energy per Si atom -12397.149971 kJ/mol
# Density = 1.919822 g / cm^3
# Si number density = 19.242011 Si / 1000 Ang^3
#
#
#
# Elastic Constant Matrix: (Units=GPa)
#
#
# Indices 1 2 3 4 5 6 
#
# 1 78.5532 12.0057 19.9397 0.0000 0.0000 0.0000
# 2 12.0057 84.2528 22.3629 0.0000 0.0000 0.0000
# 3 19.9397 22.3629 54.7600 0.0000 0.0000 0.0000
# 4 0.0000 0.0000 0.0000 35.7106 0.0000 0.0000
# 5 0.0000 0.0000 0.0000 0.0000 9.8815 0.0000
# 6 0.0000 0.0000 0.0000 0.0000 0.0000 21.7694
#
#
#
# Elastic Compliance Matrix: (Units=1/GPa)
#
#
# Indices 1 2 3 4 5 6 
#
# 1 0.014066 -0.000723 -0.004826 0.000000 0.000000 0.000000
# 2 -0.000723 0.013349 -0.005188 0.000000 0.000000 0.000000
# 3 -0.004826 -0.005188 0.022138 0.000000 0.000000 0.000000
# 4 0.000000 0.000000 0.000000 0.028003 0.000000 0.000000
# 5 0.000000 0.000000 0.000000 0.000000 0.101200 0.000000
# 6 0.000000 0.000000 0.000000 0.000000 0.000000 0.045936
#
#
# Mechanical properties :
#
#
# Convention : Reuss Voigt Hill
#
# Bulk Modulus (GPa) = 35.61631 36.24250 35.92941
# Shear Modulus (GPa) = 19.56747 24.35614 21.96181
#
# Velocity S-wave (km/s) = 3.19237 3.56164 3.38205
# Velocity P-wave (km/s) = 5.66905 5.98245 5.82786
#
# Compressibility (1/GPa) = 0.02807702
#
# Stress axis : x y z
#
# Youngs Moduli (GPa) = 71.09390 74.91095 45.17178
#
# Poissons Ratio (x) = 0.05418 0.21802
# Poissons Ratio (y) = 0.05142 0.23436
# Poissons Ratio (z) = 0.34313 0.38865
#
# Static dielectric constant tensor:
#      x y z
#    x 3.902120 0.000000 0.000000 
#    y 0.000000 3.403580 0.000000 
#    z 0.000000 0.000000 3.471480 
# 
# 
# High freq. dielectric constant tensor:
#      x y z
#    x 1.754360 0.000000 0.000000 
#    y 0.000000 1.736840 0.000000 
#    z 0.000000 0.000000 1.743310 
# 
# From -- ./inp_files/20585.got.cif
#   From: 2010.03.12/outbox.cif.g09.slc.cpg/sg40_11_cif.got.tgz:20585.got - 2010.04.14 01:38:03.
