data_PCOD8183987
_publ_section_title
;
Structure prediction by ZEFSAII (Michael W. Deem and Ramdas Pophale) SiO2 
 PCOD8183987
Probable space group: A M A 2
;
_chemical_formula_sum "Si O2"
_cell_formula_units_Z 48
_cell_length_a 14.881138
_cell_length_b 8.198848
_cell_length_c 18.173847
_cell_angle_alpha 90.000000
_cell_angle_beta 90.000000
_cell_angle_gamma 90.000000
_cell_volume 2217.358151
_symmetry_space_group_name_H-M "A M A 2"
_symmetry_group_IT_number 40
_symmetry_cell_setting 'orthorhombic'
loop_
_space_group_symop_operation_xyz
x,y,z
-x,-y,z
1/2-x,y,z
1/2+x,-y,z
x,1/2+y,1/2+z
-x,1/2-y,1/2+z
1/2-x,1/2+y,1/2+z
1/2+x,1/2-y,1/2+z
loop_
_atom_site_type_symbol
_atom_site_label
_atom_site_fract_x
_atom_site_fract_y
_atom_site_fract_z
Si Si1 0.647814 0.327672 0.768920
Si Si2 0.651667 0.135974 0.551779
Si Si3 0.149133 0.003858 0.705621
Si Si4 0.524347 0.669413 0.540291
Si Si5 0.091327 0.079259 0.424969
Si Si6 0.858051 0.644486 0.683317
O O1 0.750000 0.317542 0.741900
O O2 0.600260 0.155658 0.742917
O O3 0.645826 0.350050 0.856528
O O4 0.606781 0.489379 0.730472
O O5 0.750000 0.223325 0.557293
O O6 0.643752 0.002170 0.616545
O O7 0.570206 0.256886 0.567659
O O8 0.646738 0.054552 0.471169
O O9 0.250000 0.998334 0.735519
O O10 0.111128 0.185368 0.724641
O O11 0.500000 0.500000 0.501221
O O12 0.572694 0.774914 0.479758
O O13 0.592246 0.634017 0.606127
O O14 0.000000 0.000000 0.394658
O O15 0.750000 0.646021 0.672152
#
# Coordination Sequence:
#
# PCOD8183987 Si02
#       6
#     8   8   8   8   8   8
#     4  10  21  38  61  91 126 164 210 262 318 378
#     4  10  20  39  64  88 120 165 213 261 316 379
#     4   9  18  35  61  89 117 158 210 255 307 374
#     4  11  23  39  63  93 128 161 217 263 317 386
#     4  10  22  40  59  84 123 168 208 257 322 383
#     4  10  21  39  65  95 127 166 212 262 315 382
#
# _framework density 21.647380999999999
#
# number of rings (size 3 to 8) (size 9 to 14) (size 15 to 20)
#    0.000    2.000    1.667    1.500    0.000    4.667 
#    6.000    0.000    0.000    0.000    0.000    0.000 
#    0.000    0.000    0.000    0.000    0.000    0.000 
#
# Total GULP energy -297339.231888 kJ/mol
# GULP energy per Si atom -12389.134662 kJ/mol
# Density = 2.159811 g / cm^3
# Si number density = 21.647381 Si / 1000 Ang^3
#
#
#
# Elastic Constant Matrix: (Units=GPa)
#
#
# Indices 1 2 3 4 5 6 
#
# 1 65.8086 12.0477 13.3278 0.0000 0.0000 0.0000
# 2 12.0477 155.4819 35.1057 0.0000 0.0000 0.0000
# 3 13.3278 35.1057 93.3990 0.0000 0.0000 0.0000
# 4 0.0000 0.0000 0.0000 19.2640 0.0000 0.0000
# 5 0.0000 0.0000 0.0000 0.0000 18.5150 0.0000
# 6 0.0000 0.0000 0.0000 0.0000 0.0000 8.9698
#
#
#
# Elastic Compliance Matrix: (Units=1/GPa)
#
#
# Indices 1 2 3 4 5 6 
#
# 1 0.015734 -0.000778 -0.001953 0.000000 0.000000 0.000000
# 2 -0.000778 0.007067 -0.002545 0.000000 0.000000 0.000000
# 3 -0.001953 -0.002545 0.011942 0.000000 0.000000 0.000000
# 4 0.000000 0.000000 0.000000 0.051910 0.000000 0.000000
# 5 0.000000 0.000000 0.000000 0.000000 0.054010 0.000000
# 6 0.000000 0.000000 0.000000 0.000000 0.000000 0.111485
#
#
# Mechanical properties :
#
#
# Convention : Reuss Voigt Hill
#
# Bulk Modulus (GPa) = 41.33899 48.40577 44.87238
# Shear Modulus (GPa) = 18.46638 26.29699 22.38168
#
# Velocity S-wave (km/s) = 2.92388 3.48916 3.21895
# Velocity P-wave (km/s) = 5.52600 6.21626 5.88127
#
# Compressibility (1/GPa) = 0.02419024
#
# Stress axis : x y z
#
# Youngs Moduli (GPa) = 63.55862 141.51164 83.73815
#
# Poissons Ratio (x) = 0.11013 0.16351
# Poissons Ratio (y) = 0.04946 0.21312
# Poissons Ratio (z) = 0.12411 0.36015
#
# Static dielectric constant tensor:
#      x y z
#    x 3.858840 0.000000 0.000000 
#    y 0.000000 4.380430 0.000000 
#    z 0.000000 0.000000 3.608970 
# 
# 
# High freq. dielectric constant tensor:
#      x y z
#    x 1.843810 0.000000 0.000000 
#    y 0.000000 1.863840 0.000000 
#    z 0.000000 0.000000 1.825720 
# 
# From -- ./inp_files/20550.got.cif
#   From: 2010.03.12/outbox.cif.g09.slc.cpg/sg40_11_cif.got.tgz:20550.got - 2010.04.14 01:38:03.
