data_PCOD8183320
_publ_section_title
;
Structure prediction by ZEFSAII (Michael W. Deem and Ramdas Pophale) SiO2 
 PCOD8183320
Probable space group: A M A 2
;
_chemical_formula_sum "Si O2"
_cell_formula_units_Z 64
_cell_length_a 8.668140
_cell_length_b 24.818101
_cell_length_c 14.987846
_cell_angle_alpha 90.000000
_cell_angle_beta 90.000000
_cell_angle_gamma 90.000000
_cell_volume 3224.286959
_symmetry_space_group_name_H-M "A M A 2"
_symmetry_group_IT_number 40
_symmetry_cell_setting 'orthorhombic'
loop_
_space_group_symop_operation_xyz
x,y,z
-x,-y,z
1/2-x,y,z
1/2+x,-y,z
x,1/2+y,1/2+z
-x,1/2-y,1/2+z
1/2-x,1/2+y,1/2+z
1/2+x,1/2-y,1/2+z
loop_
_atom_site_type_symbol
_atom_site_label
_atom_site_fract_x
_atom_site_fract_y
_atom_site_fract_z
Si Si1 0.069977 0.355400 0.671950
Si Si2 0.931662 0.443369 0.549593
Si Si3 0.067857 0.057733 0.690380
Si Si4 0.428757 0.333131 0.873829
Si Si5 0.426342 0.276511 0.341337
Si Si6 0.068292 0.896819 0.870870
Si Si7 0.573183 0.745156 0.138576
Si Si8 0.069366 0.145642 0.548830
O O1 0.250000 0.367239 0.656976
O O2 0.024167 0.354211 0.776126
O O3 0.968123 0.401363 0.627448
O O4 0.029973 0.298368 0.626816
O O5 0.750000 0.447156 0.533934
O O6 0.000000 0.500000 0.581742
O O7 0.014099 0.427507 0.458137
O O8 0.250000 0.053605 0.690804
O O9 0.009282 0.098650 0.613881
O O10 0.013917 0.077152 0.786573
O O11 0.000000 0.000000 0.666065
O O12 0.250000 0.342009 0.892463
O O13 0.466406 0.269590 0.882606
O O14 0.525171 0.367782 0.946257
O O15 0.250000 0.262269 0.365281
O O16 0.476430 0.333987 0.381666
O O17 0.449908 0.280785 0.235553
O O18 0.250000 0.903711 0.857616
O O19 0.750000 0.760684 0.120373
O O20 0.517563 0.701325 0.068230
O O21 0.250000 0.154142 0.560787
#
# Coordination Sequence:
#
# PCOD8183320 Si02
#       8
#     8   8   8   8   8   8   8   8
#     4  10  22  42  64  90 122 158 201 253 309 362
#     4  12  26  44  65  90 120 159 206 257 305 364
#     4  11  24  41  62  88 121 163 207 254 305 362
#     4  10  22  38  61  89 123 161 201 250 303 363
#     4   9  19  35  57  86 122 161 198 240 296 355
#     4  11  22  39  62  90 124 163 202 249 303 362
#     4  10  19  35  59  89 121 158 200 244 297 358
#     4  11  23  38  59  88 124 163 204 251 303 360
#
# _framework density 19.849350000000001
#
# number of rings (size 3 to 8) (size 9 to 14) (size 15 to 20)
#    0.000    1.500    1.250    3.750    1.750    4.500 
#    0.000    0.625    0.000    1.500    0.000    0.000 
#    0.000    0.000    0.000    0.000    0.000    0.000 
#
# Total GULP energy -396967.600633 kJ/mol
# GULP energy per Si atom -12405.237520 kJ/mol
# Density = 1.980417 g / cm^3
# Si number density = 19.849350 Si / 1000 Ang^3
#
#
#
# Elastic Constant Matrix: (Units=GPa)
#
#
# Indices 1 2 3 4 5 6 
#
# 1 47.2301 23.2614 20.1653 0.0000 0.0000 0.0000
# 2 23.2614 108.9539 51.4084 0.0000 0.0000 0.0000
# 3 20.1653 51.4084 99.0466 0.0000 0.0000 0.0000
# 4 0.0000 0.0000 0.0000 26.0667 0.0000 0.0000
# 5 0.0000 0.0000 0.0000 0.0000 34.6650 0.0000
# 6 0.0000 0.0000 0.0000 0.0000 0.0000 32.7397
#
#
#
# Elastic Compliance Matrix: (Units=1/GPa)
#
#
# Indices 1 2 3 4 5 6 
#
# 1 0.024310 -0.003781 -0.002987 0.000000 0.000000 0.000000
# 2 -0.003781 0.012743 -0.005844 0.000000 0.000000 0.000000
# 3 -0.002987 -0.005844 0.013738 0.000000 0.000000 0.000000
# 4 0.000000 0.000000 0.000000 0.038363 0.000000 0.000000
# 5 0.000000 0.000000 0.000000 0.000000 0.028848 0.000000
# 6 0.000000 0.000000 0.000000 0.000000 0.000000 0.030544
#
#
# Mechanical properties :
#
#
# Convention : Reuss Voigt Hill
#
# Bulk Modulus (GPa) = 39.11319 49.43342 44.27331
# Shear Modulus (GPa) = 27.42849 29.38732 28.40790
#
# Velocity S-wave (km/s) = 3.72133 3.85192 3.78719
# Velocity P-wave (km/s) = 6.18161 6.68891 6.44025
#
# Compressibility (1/GPa) = 0.02556682
#
# Stress axis : x y z
#
# Youngs Moduli (GPa) = 41.13466 78.47503 72.79202
#
# Poissons Ratio (x) = 0.29670 0.21744
# Poissons Ratio (y) = 0.15552 0.42541
# Poissons Ratio (z) = 0.12287 0.45863
#
# Static dielectric constant tensor:
#      x y z
#    x 3.623430 0.000000 0.000000 
#    y 0.000000 3.616140 0.000000 
#    z 0.000000 0.000000 3.671780 
# 
# 
# High freq. dielectric constant tensor:
#      x y z
#    x 1.783180 0.000000 0.000000 
#    y 0.000000 1.766660 0.000000 
#    z 0.000000 0.000000 1.779730 
# 
# From -- ./inp_files/15610.got.cif
#   From: 2010.03.12/outbox.cif.g09.slc.cpg/sg40_8_cif.got.tgz:15610.got - 2010.04.14 01:38:03.
