data_PCOD8183480
_publ_section_title
;
Structure prediction by ZEFSAII (Michael W. Deem and Ramdas Pophale) SiO2 
 PCOD8183480
Probable space group: A M A 2
;
_chemical_formula_sum "Si O2"
_cell_formula_units_Z 64
_cell_length_a 9.024372
_cell_length_b 23.350774
_cell_length_c 18.760432
_cell_angle_alpha 90.000000
_cell_angle_beta 90.000000
_cell_angle_gamma 90.000000
_cell_volume 3953.312127
_symmetry_space_group_name_H-M "A M A 2"
_symmetry_group_IT_number 40
_symmetry_cell_setting 'orthorhombic'
loop_
_space_group_symop_operation_xyz
x,y,z
-x,-y,z
1/2-x,y,z
1/2+x,-y,z
x,1/2+y,1/2+z
-x,1/2-y,1/2+z
1/2-x,1/2+y,1/2+z
1/2+x,1/2-y,1/2+z
loop_
_atom_site_type_symbol
_atom_site_label
_atom_site_fract_x
_atom_site_fract_y
_atom_site_fract_z
Si Si1 0.577622 0.058818 0.159340
Si Si2 0.576283 0.747423 0.519744
Si Si3 0.920719 0.669481 0.740134
Si Si4 0.919311 0.731566 0.879865
Si Si5 0.924088 0.614660 0.511334
Si Si6 0.923122 0.940798 0.876359
Si Si7 0.074770 0.771744 0.662036
Si Si8 0.920992 0.335935 0.280235
O O1 0.750000 0.046359 0.157328
O O2 0.536383 0.104583 0.220806
O O3 0.500000 0.000000 0.179165
O O4 0.525024 0.083073 0.083286
O O5 0.750000 0.755514 0.530398
O O6 0.526276 0.777940 0.446732
O O7 0.530530 0.680850 0.517664
O O8 0.492224 0.779135 0.583566
O O9 0.750000 0.682176 0.718055
O O10 0.943489 0.679228 0.824512
O O11 0.022206 0.711872 0.695000
O O12 0.750000 0.734098 0.906583
O O13 0.963979 0.790744 0.841549
O O14 0.750000 0.608087 0.496950
O O15 0.012271 0.585331 0.448145
O O16 0.750000 0.950739 0.888653
O O17 0.953676 0.899026 0.809758
O O18 0.000000 0.000000 0.856520
O O19 0.250000 0.772955 0.657637
O O20 0.019609 0.824835 0.710398
O O21 0.750000 0.327284 0.258936
#
# Coordination Sequence:
#
# PCOD8183480 Si02
#       8
#     8   8   8   8   8   8   8   8
#     4  10  20  34  49  68  95 133 171 203 240 283
#     4  11  20  32  50  72 102 134 162 199 248 300
#     4   9  18  35  51  67  98 133 162 199 253 298
#     4   9  17  31  51  72  95 125 164 203 243 297
#     4  10  20  33  48  68  99 137 173 204 240 289
#     4  11  22  35  51  71  99 135 173 209 246 290
#     4  11  21  31  50  75  98 125 165 208 246 295
#     4   9  19  35  51  69  98 133 164 202 252 296
#
# _framework density 16.188956000000001
#
# number of rings (size 3 to 8) (size 9 to 14) (size 15 to 20)
#    0.000    2.000    2.500    3.000    0.000    5.500 
#    0.000    0.000    0.000    0.000    0.000    0.875 
#    0.000    4.000    0.000    0.000    0.000    0.000 
#
# Total GULP energy -396870.969045 kJ/mol
# GULP energy per Si atom -12402.217783 kJ/mol
# Density = 1.615211 g / cm^3
# Si number density = 16.188956 Si / 1000 Ang^3
#
#
#
# Elastic Constant Matrix: (Units=GPa)
#
#
# Indices 1 2 3 4 5 6 
#
# 1 82.4088 44.4094 60.7909 0.0000 0.0000 0.0000
# 2 44.4094 86.6723 55.5544 0.0000 0.0000 0.0000
# 3 60.7909 55.5544 113.1427 0.0000 0.0000 0.0000
# 4 0.0000 0.0000 0.0000 22.0033 0.0000 0.0000
# 5 0.0000 0.0000 0.0000 0.0000 28.1223 0.0000
# 6 0.0000 0.0000 0.0000 0.0000 0.0000 16.2358
#
#
#
# Elastic Compliance Matrix: (Units=1/GPa)
#
#
# Indices 1 2 3 4 5 6 
#
# 1 0.021656 -0.005309 -0.009029 0.000000 0.000000 0.000000
# 2 -0.005309 0.018138 -0.006054 0.000000 0.000000 0.000000
# 3 -0.009029 -0.006054 0.016662 0.000000 0.000000 0.000000
# 4 0.000000 0.000000 0.000000 0.045448 0.000000 0.000000
# 5 0.000000 0.000000 0.000000 0.000000 0.035559 0.000000
# 6 0.000000 0.000000 0.000000 0.000000 0.000000 0.061592
#
#
# Mechanical properties :
#
#
# Convention : Reuss Voigt Hill
#
# Bulk Modulus (GPa) = 63.80293 67.08146 65.44220
# Shear Modulus (GPa) = 20.40302 21.37023 20.88663
#
# Velocity S-wave (km/s) = 3.55393 3.63719 3.59580
# Velocity P-wave (km/s) = 7.50583 7.69190 7.59944
#
# Compressibility (1/GPa) = 0.01567326
#
# Stress axis : x y z
#
# Youngs Moduli (GPa) = 46.17677 55.13274 60.01704
#
# Poissons Ratio (x) = 0.29269 0.54189
# Poissons Ratio (y) = 0.24515 0.36332
# Poissons Ratio (z) = 0.41692 0.33375
#
# Static dielectric constant tensor:
#      x y z
#    x 3.035930 0.000000 0.000000 
#    y 0.000000 3.055140 0.000000 
#    z 0.000000 0.000000 3.086220 
# 
# 
# High freq. dielectric constant tensor:
#      x y z
#    x 1.626810 0.000000 0.000000 
#    y 0.000000 1.598420 0.000000 
#    z 0.000000 0.000000 1.617940 
# 
# From -- ./inp_files/19694.got.cif
#   From: 2010.03.12/outbox.cif.g09.slc.cpg/sg40_10_cif.got.tgz:19694.got - 2010.04.14 01:38:03.
