data_PCOD8183299
_publ_section_title
;
Structure prediction by ZEFSAII (Michael W. Deem and Ramdas Pophale) SiO2 
 PCOD8183299
Probable space group: A M A 2
;
_chemical_formula_sum "Si O2"
_cell_formula_units_Z 64
_cell_length_a 8.994872
_cell_length_b 20.711489
_cell_length_c 19.388729
_cell_angle_alpha 90.000000
_cell_angle_beta 90.000000
_cell_angle_gamma 90.000000
_cell_volume 3612.065779
_symmetry_space_group_name_H-M "A M A 2"
_symmetry_group_IT_number 40
_symmetry_cell_setting 'orthorhombic'
loop_
_space_group_symop_operation_xyz
x,y,z
-x,-y,z
1/2-x,y,z
1/2+x,-y,z
x,1/2+y,1/2+z
-x,1/2-y,1/2+z
1/2-x,1/2+y,1/2+z
1/2+x,1/2-y,1/2+z
loop_
_atom_site_type_symbol
_atom_site_label
_atom_site_fract_x
_atom_site_fract_y
_atom_site_fract_z
Si Si1 0.423942 0.270512 0.430070
Si Si2 0.424728 0.311000 0.155929
Si Si3 0.577752 0.935139 0.148800
Si Si4 0.575808 0.065148 0.567754
Si Si5 0.573807 0.764959 0.788705
Si Si6 0.919534 0.379366 0.940581
Si Si7 0.574725 0.311022 0.564087
Si Si8 0.921573 0.369768 0.786989
O O1 0.250000 0.283649 0.421578
O O2 0.504625 0.291409 0.359724
O O3 0.458026 0.196015 0.446576
O O4 0.489498 0.312930 0.491746
O O5 0.250000 0.308159 0.171870
O O6 0.471352 0.376548 0.117466
O O7 0.514978 0.309905 0.227047
O O8 0.473490 0.251123 0.108289
O O9 0.750000 0.945399 0.136622
O O10 0.521495 0.874471 0.104600
O O11 0.540955 0.922710 0.229274
O O12 0.500000 0.000000 0.123158
O O13 0.750000 0.054537 0.567085
O O14 0.525755 0.079809 0.489657
O O15 0.500000 0.000000 0.595426
O O16 0.750000 0.769013 0.793016
O O17 0.524728 0.691751 0.774465
O O18 0.750000 0.392788 0.962464
O O19 0.949390 0.401539 0.861755
O O20 0.750000 0.310012 0.550201
O O21 0.750000 0.345844 0.780807
#
# Coordination Sequence:
#
# PCOD8183299 Si02
#       8
#     8   8   8   8   8   8   8   8
#     4  10  20  34  55  82 113 143 176 225 276 323
#     4  10  20  37  58  79 108 145 182 223 275 323
#     4  10  21  36  54  76 110 148 182 226 272 321
#     4  11  23  37  55  77 108 146 182 224 272 326
#     4  11  21  32  54  85 112 140 180 227 270 323
#     4   9  18  32  52  77 108 143 182 221 263 318
#     4  10  19  35  58  81 108 142 184 228 271 320
#     4   9  18  35  53  75 109 149 184 222 272 316
#
# _framework density 17.718392000000001
#
# number of rings (size 3 to 8) (size 9 to 14) (size 15 to 20)
#    0.000    2.000    2.500    2.625    0.000    5.000 
#    0.000    1.250    0.000    0.750    0.000    5.250 
#    0.000    0.000    0.000    0.000    0.000    0.000 
#
# Total GULP energy -396892.314057 kJ/mol
# GULP energy per Si atom -12402.884814 kJ/mol
# Density = 1.767806 g / cm^3
# Si number density = 17.718392 Si / 1000 Ang^3
#
#
#
# Elastic Constant Matrix: (Units=GPa)
#
#
# Indices 1 2 3 4 5 6 
#
# 1 79.5009 49.3281 57.7282 0.0000 0.0000 0.0000
# 2 49.3281 116.9322 64.4388 0.0000 0.0000 0.0000
# 3 57.7282 64.4388 122.6684 0.0000 0.0000 0.0000
# 4 0.0000 0.0000 0.0000 21.1804 0.0000 0.0000
# 5 0.0000 0.0000 0.0000 0.0000 32.8381 0.0000
# 6 0.0000 0.0000 0.0000 0.0000 0.0000 27.7213
#
#
#
# Elastic Compliance Matrix: (Units=1/GPa)
#
#
# Indices 1 2 3 4 5 6 
#
# 1 0.020839 -0.004766 -0.007303 0.000000 0.000000 0.000000
# 2 -0.004766 0.013127 -0.004652 0.000000 0.000000 0.000000
# 3 -0.007303 -0.004652 0.014033 0.000000 0.000000 0.000000
# 4 0.000000 0.000000 0.000000 0.047213 0.000000 0.000000
# 5 0.000000 0.000000 0.000000 0.000000 0.030452 0.000000
# 6 0.000000 0.000000 0.000000 0.000000 0.000000 0.036073
#
#
# Mechanical properties :
#
#
# Convention : Reuss Voigt Hill
#
# Bulk Modulus (GPa) = 68.70678 73.56572 71.13625
# Shear Modulus (GPa) = 24.99594 26.18839 25.59217
#
# Velocity S-wave (km/s) = 3.76005 3.84869 3.80463
# Velocity P-wave (km/s) = 7.59683 7.83323 7.71594
#
# Compressibility (1/GPa) = 0.01455461
#
# Stress axis : x y z
#
# Youngs Moduli (GPa) = 47.98730 76.18176 71.26144
#
# Poissons Ratio (x) = 0.36311 0.52042
# Poissons Ratio (y) = 0.22873 0.33154
# Poissons Ratio (z) = 0.35045 0.35443
#
# Static dielectric constant tensor:
#      x y z
#    x 3.197460 0.000000 0.000000 
#    y 0.000000 3.108300 0.000000 
#    z 0.000000 0.000000 3.398670 
# 
# 
# High freq. dielectric constant tensor:
#      x y z
#    x 1.685150 0.000000 0.000000 
#    y 0.000000 1.659410 0.000000 
#    z 0.000000 0.000000 1.690270 
# 
# From -- ./inp_files/19582.got.cif
#   From: 2010.03.12/outbox.cif.g09.slc.cpg/sg40_10_cif.got.tgz:19582.got - 2010.04.14 01:38:03.
