data_PCOD8183781
_publ_section_title
;
Structure prediction by ZEFSAII (Michael W. Deem and Ramdas Pophale) SiO2 
 PCOD8183781
Probable space group: A M A 2
;
_chemical_formula_sum "Si O2"
_cell_formula_units_Z 64
_cell_length_a 27.453968
_cell_length_b 13.699968
_cell_length_c 8.092742
_cell_angle_alpha 90.000000
_cell_angle_beta 90.000000
_cell_angle_gamma 90.000000
_cell_volume 3043.829845
_symmetry_space_group_name_H-M "A M A 2"
_symmetry_group_IT_number 40
_symmetry_cell_setting 'orthorhombic'
loop_
_space_group_symop_operation_xyz
x,y,z
-x,-y,z
1/2-x,y,z
1/2+x,-y,z
x,1/2+y,1/2+z
-x,1/2-y,1/2+z
1/2-x,1/2+y,1/2+z
1/2+x,1/2-y,1/2+z
loop_
_atom_site_type_symbol
_atom_site_label
_atom_site_fract_x
_atom_site_fract_y
_atom_site_fract_z
Si Si1 0.869049 0.341931 0.010720
Si Si2 0.116563 0.636175 0.639684
Si Si3 0.862605 0.184495 0.445987
Si Si4 0.696072 0.698377 0.639951
Si Si5 0.012959 0.612808 0.489036
Si Si6 0.803296 0.497120 0.491948
Si Si7 0.693297 0.015728 0.619943
Si Si8 0.448153 0.755063 0.224530
O O1 0.839427 0.240415 0.997640
O O2 0.830437 0.409325 0.107199
O O3 0.918436 0.322256 0.112070
O O4 0.881036 0.386176 0.832957
O O5 0.128001 0.749298 0.606290
O O6 0.064396 0.604264 0.577210
O O7 0.155618 0.579297 0.532085
O O8 0.822719 0.230261 0.321420
O O9 0.842324 0.082213 0.510091
O O10 0.913606 0.179802 0.344285
O O11 0.750000 0.740107 0.614477
O O12 0.693959 0.581886 0.628030
O O13 0.015589 0.684122 0.328575
O O14 0.000000 0.500000 0.441979
O O15 0.975636 0.664292 0.615140
O O16 0.750000 0.446240 0.502570
O O17 0.809621 0.545612 0.311548
O O18 0.750000 0.018823 0.558239
#
# Coordination Sequence:
#
# PCOD8183781 Si02
#       8
#     8   8   8   8   8   8   8   8
#     4  11  23  39  64  89 131 169 212 278 325 403
#     4  11  24  42  63  94 126 169 219 268 338 400
#     4  10  22  39  62  90 127 166 213 273 327 397
#     4  10  20  36  58  87 123 168 211 262 324 387
#     4  11  25  46  74  98 136 180 223 290 350 409
#     4  10  22  38  61  91 129 171 219 267 325 401
#     4  11  22  38  60  95 133 177 226 269 331 406
#     4  10  24  48  64 103 130 167 232 277 347 421
#
# _framework density 21.026142
#
# number of rings (size 3 to 8) (size 9 to 14) (size 15 to 20)
#    0.000    1.500    0.000    5.250    5.250    4.000 
#   11.250    0.625    0.000    0.000    0.000    0.000 
#    0.000    0.000    0.000    0.000    0.000    0.000 
#
# Total GULP energy -396626.142348 kJ/mol
# GULP energy per Si atom -12394.566948 kJ/mol
# Density = 2.097829 g / cm^3
# Si number density = 21.026142 Si / 1000 Ang^3
#
#
#
# Elastic Constant Matrix: (Units=GPa)
#
#
# Indices 1 2 3 4 5 6 
#
# 1 124.0515 54.2570 42.7845 0.0000 0.0000 0.0000
# 2 54.2570 87.8774 29.2906 0.0000 0.0000 0.0000
# 3 42.7845 29.2906 93.9034 0.0000 0.0000 0.0000
# 4 0.0000 0.0000 0.0000 30.9237 0.0000 0.0000
# 5 0.0000 0.0000 0.0000 0.0000 29.9365 0.0000
# 6 0.0000 0.0000 0.0000 0.0000 0.0000 42.2595
#
#
#
# Elastic Compliance Matrix: (Units=1/GPa)
#
#
# Indices 1 2 3 4 5 6 
#
# 1 0.012005 -0.006237 -0.003524 0.000000 0.000000 0.000000
# 2 -0.006237 0.015941 -0.002130 0.000000 0.000000 0.000000
# 3 -0.003524 -0.002130 0.012919 0.000000 0.000000 0.000000
# 4 0.000000 0.000000 0.000000 0.032338 0.000000 0.000000
# 5 0.000000 0.000000 0.000000 0.000000 0.033404 0.000000
# 6 0.000000 0.000000 0.000000 0.000000 0.000000 0.023663
#
#
# Mechanical properties :
#
#
# Convention : Reuss Voigt Hill
#
# Bulk Modulus (GPa) = 58.54384 62.05515 60.29949
# Shear Modulus (GPa) = 31.29960 32.59064 31.94512
#
# Velocity S-wave (km/s) = 3.86243 3.94128 3.90205
# Velocity P-wave (km/s) = 6.91339 7.09147 7.00300
#
# Compressibility (1/GPa) = 0.01708122
#
# Stress axis : x y z
#
# Youngs Moduli (GPa) = 83.30151 62.73309 77.40307
#
# Poissons Ratio (x) = 0.39128 0.27277
# Poissons Ratio (y) = 0.51957 0.16490
# Poissons Ratio (z) = 0.29356 0.13365
#
# Static dielectric constant tensor:
#      x y z
#    x 3.998520 0.000000 0.000000 
#    y 0.000000 3.678820 0.000000 
#    z 0.000000 0.000000 3.763040 
# 
# 
# High freq. dielectric constant tensor:
#      x y z
#    x 1.833300 0.000000 0.000000 
#    y 0.000000 1.818120 0.000000 
#    z 0.000000 0.000000 1.826970 
# 
# From -- ./inp_files/8936.got.cif
#   From: 2010.03.12/outbox.cif.g09.slc.cpg/sg40_5_cif.got.tgz:8936.got - 2010.04.14 01:38:03.
