data_PCOD8183083
_publ_section_title
;
Structure prediction by ZEFSAII (Michael W. Deem and Ramdas Pophale) SiO2 
 PCOD8183083
Probable space group: A M A 2
;
_chemical_formula_sum "Si O2"
_cell_formula_units_Z 64
_cell_length_a 17.085168
_cell_length_b 8.814659
_cell_length_c 23.724746
_cell_angle_alpha 90.000000
_cell_angle_beta 90.000000
_cell_angle_gamma 90.000000
_cell_volume 3572.945084
_symmetry_space_group_name_H-M "A M A 2"
_symmetry_group_IT_number 40
_symmetry_cell_setting 'orthorhombic'
loop_
_space_group_symop_operation_xyz
x,y,z
-x,-y,z
1/2-x,y,z
1/2+x,-y,z
x,1/2+y,1/2+z
-x,1/2-y,1/2+z
1/2-x,1/2+y,1/2+z
1/2+x,1/2-y,1/2+z
loop_
_atom_site_type_symbol
_atom_site_label
_atom_site_fract_x
_atom_site_fract_y
_atom_site_fract_z
Si Si1 0.841308 0.352003 0.903260
Si Si2 0.659739 0.697586 0.900133
Si Si3 0.591987 0.165826 0.287660
Si Si4 0.014097 0.678597 0.073358
Si Si5 0.081251 0.164811 0.292843
Si Si6 0.572719 0.397432 0.489673
Si Si7 0.999932 0.176864 0.700998
Si Si8 0.841892 0.186684 0.017125
O O1 0.750000 0.361330 0.898703
O O2 0.872451 0.525491 0.909071
O O3 0.870689 0.269526 0.845936
O O4 0.866886 0.251444 0.956061
O O5 0.750000 0.714236 0.917849
O O6 0.649739 0.741276 0.833755
O O7 0.609114 0.813339 0.936406
O O8 0.506815 0.149870 0.316833
O O9 0.581036 0.262058 0.229914
O O10 0.619943 0.994914 0.273292
O O11 0.995563 0.732206 0.136885
O O12 0.000000 0.500000 0.064311
O O13 0.105038 0.720250 0.061495
O O14 0.954720 0.772428 0.034589
O O15 0.077043 0.267826 0.236148
O O16 0.500000 0.500000 0.469377
O O17 0.637589 0.507737 0.518167
O O18 0.000000 0.000000 0.703717
O O19 0.750000 0.211698 0.030813
#
# Coordination Sequence:
#
# PCOD8183083 Si02
#       8
#     8   8   8   8   8   8   8   8
#     4   9  18  32  52  76 107 141 172 207 257 312
#     4  10  19  33  51  76 107 138 171 210 257 313
#     4   8  17  29  48  73  97 132 165 203 253 302
#     4  10  21  37  57  79 101 138 187 223 257 314
#     4   8  16  30  49  72 100 131 167 205 250 303
#     4  10  22  33  51  78 105 136 176 217 262 313
#     4   9  18  32  52  75  97 126 173 222 256 296
#     4  10  21  36  53  79 112 141 171 218 274 316
#
# _framework density 17.912393999999999
#
# number of rings (size 3 to 8) (size 9 to 14) (size 15 to 20)
#    0.750    2.000    0.000    1.125    3.500    4.500 
#    0.000    1.250    0.000    7.500    0.000    0.000 
#    0.000    0.000    0.000    0.000    0.000    0.000 
#
# Total GULP energy -396420.931415 kJ/mol
# GULP energy per Si atom -12388.154107 kJ/mol
# Density = 1.787162 g / cm^3
# Si number density = 17.912394 Si / 1000 Ang^3
#
#
#
# Elastic Constant Matrix: (Units=GPa)
#
#
# Indices 1 2 3 4 5 6 
#
# 1 45.8477 34.3917 38.4544 0.0000 0.0000 0.0000
# 2 34.3917 77.0437 57.6656 0.0000 0.0000 0.0000
# 3 38.4544 57.6656 117.2919 0.0000 0.0000 0.0000
# 4 0.0000 0.0000 0.0000 30.8772 0.0000 0.0000
# 5 0.0000 0.0000 0.0000 0.0000 19.1163 0.0000
# 6 0.0000 0.0000 0.0000 0.0000 0.0000 21.2246
#
#
#
# Elastic Compliance Matrix: (Units=1/GPa)
#
#
# Indices 1 2 3 4 5 6 
#
# 1 0.035317 -0.011232 -0.006057 0.000000 0.000000 0.000000
# 2 -0.011232 0.024109 -0.008171 0.000000 0.000000 0.000000
# 3 -0.006057 -0.008171 0.014528 0.000000 0.000000 0.000000
# 4 0.000000 0.000000 0.000000 0.032386 0.000000 0.000000
# 5 0.000000 0.000000 0.000000 0.000000 0.052312 0.000000
# 6 0.000000 0.000000 0.000000 0.000000 0.000000 0.047115
#
#
# Mechanical properties :
#
#
# Convention : Reuss Voigt Hill
#
# Bulk Modulus (GPa) = 43.41040 55.68964 49.55002
# Shear Modulus (GPa) = 18.91334 21.55504 20.23419
#
# Velocity S-wave (km/s) = 3.25296 3.47271 3.36463
# Velocity P-wave (km/s) = 6.19648 6.87293 6.54345
#
# Compressibility (1/GPa) = 0.02303596
#
# Stress axis : x y z
#
# Youngs Moduli (GPa) = 28.31528 41.47841 68.83061
#
# Poissons Ratio (x) = 0.46588 0.41688
# Poissons Ratio (y) = 0.31803 0.56239
# Poissons Ratio (z) = 0.17149 0.33890
#
# Static dielectric constant tensor:
#      x y z
#    x 3.153460 0.000000 0.000000 
#    y 0.000000 3.457750 0.000000 
#    z 0.000000 0.000000 3.411350 
# 
# 
# High freq. dielectric constant tensor:
#      x y z
#    x 1.671840 0.000000 0.000000 
#    y 0.000000 1.695470 0.000000 
#    z 0.000000 0.000000 1.682840 
# 
# From -- ./inp_files/24930.got.cif
#   From: 2010.03.12/outbox.cif.g09.slc.cpg/sg40_13_cif.got.tgz:24930.got - 2010.04.14 01:38:03.
