data_PCOD8183003
_publ_section_title
;
Structure prediction by ZEFSAII (Michael W. Deem and Ramdas Pophale) SiO2 
 PCOD8183003
Probable space group: A M A 2
;
_chemical_formula_sum "Si O2"
_cell_formula_units_Z 64
_cell_length_a 8.659127
_cell_length_b 23.320067
_cell_length_c 19.031559
_cell_angle_alpha 90.000000
_cell_angle_beta 90.000000
_cell_angle_gamma 90.000000
_cell_volume 3843.069768
_symmetry_space_group_name_H-M "A M A 2"
_symmetry_group_IT_number 40
_symmetry_cell_setting 'orthorhombic'
loop_
_space_group_symop_operation_xyz
x,y,z
-x,-y,z
1/2-x,y,z
1/2+x,-y,z
x,1/2+y,1/2+z
-x,1/2-y,1/2+z
1/2-x,1/2+y,1/2+z
1/2+x,1/2-y,1/2+z
loop_
_atom_site_type_symbol
_atom_site_label
_atom_site_fract_x
_atom_site_fract_y
_atom_site_fract_z
Si Si1 0.069550 0.232616 0.958210
Si Si2 0.068903 0.385839 0.814165
Si Si3 0.069796 0.778558 0.668210
Si Si4 0.068098 0.166436 0.090214
Si Si5 0.570708 0.261337 0.817502
Si Si6 0.426945 0.166755 0.544624
Si Si7 0.932753 0.938992 0.176222
Si Si8 0.071151 0.060549 0.452385
O O1 0.250000 0.232142 0.940231
O O2 0.973542 0.225689 0.886734
O O3 0.022996 0.179384 0.009151
O O4 0.031710 0.292274 0.996512
O O5 0.250000 0.393278 0.803314
O O6 0.027443 0.319048 0.812823
O O7 0.982828 0.420445 0.753545
O O8 0.020195 0.413270 0.887332
O O9 0.250000 0.786346 0.652119
O O10 0.006469 0.717708 0.639408
O O11 0.034919 0.780090 0.751343
O O12 0.979073 0.828590 0.626354
O O13 0.250000 0.164773 0.098738
O O14 0.000832 0.106347 0.118577
O O15 0.750000 0.279009 0.818910
O O16 0.250000 0.186083 0.535900
O O17 0.450011 0.101615 0.519741
O O18 0.750000 0.942417 0.174387
O O19 0.000000 0.000000 0.154926
O O20 0.250000 0.053999 0.431550
O O21 0.000000 0.000000 0.474273
#
# Coordination Sequence:
#
# PCOD8183003 Si02
#       8
#     8   8   8   8   8   8   8   8
#     4  10  19  32  51  74  98 131 168 203 250 303
#     4  12  23  34  49  72 100 136 175 209 242 293
#     4   9  18  33  52  71  97 132 165 199 250 305
#     4   8  16  32  50  68  95 131 164 200 246 293
#     4  11  20  33  51  75 104 136 165 204 254 298
#     4  10  20  33  50  73 100 129 164 210 252 290
#     4  11  21  36  52  70  99 135 172 211 249 293
#     4  11  23  37  52  71  99 135 172 209 248 292
#
# _framework density 16.653354
#
# number of rings (size 3 to 8) (size 9 to 14) (size 15 to 20)
#    0.000    1.750    2.500    4.125    0.000    2.500 
#    0.000    1.875    0.000    0.000    0.000    0.875 
#    0.000    2.000    0.000    0.000    0.000    0.000 
#
# Total GULP energy -396784.227994 kJ/mol
# GULP energy per Si atom -12399.507125 kJ/mol
# Density = 1.661545 g / cm^3
# Si number density = 16.653354 Si / 1000 Ang^3
#
#
#
# Elastic Constant Matrix: (Units=GPa)
#
#
# Indices 1 2 3 4 5 6 
#
# 1 59.2194 31.3864 31.1239 0.0000 0.0000 0.0000
# 2 31.3864 83.1884 48.7382 0.0000 0.0000 0.0000
# 3 31.1239 48.7382 108.5553 0.0000 0.0000 0.0000
# 4 0.0000 0.0000 0.0000 23.9898 0.0000 0.0000
# 5 0.0000 0.0000 0.0000 0.0000 25.8506 0.0000
# 6 0.0000 0.0000 0.0000 0.0000 0.0000 21.8357
#
#
#
# Elastic Compliance Matrix: (Units=1/GPa)
#
#
# Indices 1 2 3 4 5 6 
#
# 1 0.022051 -0.006263 -0.003510 0.000000 0.000000 0.000000
# 2 -0.006263 0.018090 -0.006326 0.000000 0.000000 0.000000
# 3 -0.003510 -0.006326 0.013059 0.000000 0.000000 0.000000
# 4 0.000000 0.000000 0.000000 0.041684 0.000000 0.000000
# 5 0.000000 0.000000 0.000000 0.000000 0.038684 0.000000
# 6 0.000000 0.000000 0.000000 0.000000 0.000000 0.045797
#
#
# Mechanical properties :
#
#
# Convention : Reuss Voigt Hill
#
# Bulk Modulus (GPa) = 47.61801 52.60669 50.11235
# Shear Modulus (GPa) = 22.87661 23.64953 23.26307
#
# Velocity S-wave (km/s) = 3.71036 3.77252 3.74157
# Velocity P-wave (km/s) = 6.85649 7.11573 6.98731
#
# Compressibility (1/GPa) = 0.02100046
#
# Stress axis : x y z
#
# Youngs Moduli (GPa) = 45.35018 55.27800 76.57737
#
# Poissons Ratio (x) = 0.34620 0.26881
# Poissons Ratio (y) = 0.28403 0.48446
# Poissons Ratio (z) = 0.15919 0.34971
#
# Static dielectric constant tensor:
#      x y z
#    x 3.175090 0.000000 0.000000 
#    y 0.000000 3.097930 0.000000 
#    z 0.000000 0.000000 3.330760 
# 
# 
# High freq. dielectric constant tensor:
#      x y z
#    x 1.647700 0.000000 0.000000 
#    y 0.000000 1.612320 0.000000 
#    z 0.000000 0.000000 1.638590 
# 
# From -- ./inp_files/19734.got.cif
#   From: 2010.03.12/outbox.cif.g09.slc.cpg/sg40_10_cif.got.tgz:19734.got - 2010.04.14 01:38:03.
