data_PCOD8183942
_publ_section_title
;
Structure prediction by ZEFSAII (Michael W. Deem and Ramdas Pophale) SiO2 
 PCOD8183942
Probable space group: A M A 2
;
_chemical_formula_sum "Si O2"
_cell_formula_units_Z 64
_cell_length_a 16.235306
_cell_length_b 11.937070
_cell_length_c 15.336253
_cell_angle_alpha 90.000000
_cell_angle_beta 90.000000
_cell_angle_gamma 90.000000
_cell_volume 2972.196261
_symmetry_space_group_name_H-M "A M A 2"
_symmetry_group_IT_number 40
_symmetry_cell_setting 'orthorhombic'
loop_
_space_group_symop_operation_xyz
x,y,z
-x,-y,z
1/2-x,y,z
1/2+x,-y,z
x,1/2+y,1/2+z
-x,1/2-y,1/2+z
1/2-x,1/2+y,1/2+z
1/2+x,1/2-y,1/2+z
loop_
_atom_site_type_symbol
_atom_site_label
_atom_site_fract_x
_atom_site_fract_y
_atom_site_fract_z
Si Si1 0.151998 0.050825 0.506270
Si Si2 0.090514 0.399170 0.610346
Si Si3 0.156612 0.147139 0.859625
Si Si4 0.909434 0.359817 0.662260
Si Si5 0.651661 0.203294 0.513584
Si Si6 0.152315 0.707901 0.847844
Si Si7 0.656759 0.820637 0.670423
Si Si8 0.918858 0.567914 0.410106
O O1 0.250000 0.053806 0.510064
O O2 0.122630 0.121448 0.422528
O O3 0.113869 0.105855 0.594340
O O4 0.119838 0.923558 0.502158
O O5 0.126853 0.522452 0.627421
O O6 0.157302 0.308971 0.640890
O O7 0.071093 0.389919 0.508368
O O8 0.008055 0.370886 0.664636
O O9 0.250000 0.187209 0.849525
O O10 0.112832 0.160338 0.764538
O O11 0.154756 0.020437 0.895713
O O12 0.114473 0.228812 0.930884
O O13 0.883434 0.255951 0.602088
O O14 0.870614 0.346254 0.756626
O O15 0.750000 0.210383 0.517703
O O16 0.250000 0.732001 0.854828
O O17 0.101128 0.823276 0.853062
O O18 0.750000 0.862223 0.679698
O O19 0.000000 0.500000 0.378475
#
# Coordination Sequence:
#
# PCOD8183942 Si02
#       8
#     8   8   8   8   8   8   8   8
#     4   9  20  39  61  91 130 166 209 264 321 382
#     4  11  23  44  65  92 131 172 226 271 338 403
#     4  10  22  38  62  94 125 169 221 267 325 394
#     4  11  24  43  62  94 131 171 215 279 331 401
#     4  10  20  38  62  90 126 166 209 264 324 387
#     4  11  25  43  67  99 133 179 230 278 334 401
#     4  10  22  39  63  91 127 170 216 271 325 392
#     4  12  23  43  67  94 132 174 218 285 336 406
#
# _framework density 21.532897999999999
#
# number of rings (size 3 to 8) (size 9 to 14) (size 15 to 20)
#    0.000    1.500    3.750    0.750    5.250    1.500 
#    0.000    0.625    0.000    0.000    0.000    0.000 
#    0.000    0.000    0.000    0.000    0.000    0.000 
#
# Total GULP energy -396743.431807 kJ/mol
# GULP energy per Si atom -12398.232244 kJ/mol
# Density = 2.148389 g / cm^3
# Si number density = 21.532898 Si / 1000 Ang^3
#
#
#
# Elastic Constant Matrix: (Units=GPa)
#
#
# Indices 1 2 3 4 5 6 
#
# 1 35.1201 16.7320 23.5502 0.0000 0.0000 0.0000
# 2 16.7320 150.0692 53.2565 0.0000 0.0000 0.0000
# 3 23.5502 53.2565 148.7891 0.0000 0.0000 0.0000
# 4 0.0000 0.0000 0.0000 32.4699 0.0000 0.0000
# 5 0.0000 0.0000 0.0000 0.0000 16.5675 0.0000
# 6 0.0000 0.0000 0.0000 0.0000 0.0000 32.9263
#
#
#
# Elastic Compliance Matrix: (Units=1/GPa)
#
#
# Indices 1 2 3 4 5 6 
#
# 1 0.032398 -0.002053 -0.004393 0.000000 0.000000 0.000000
# 2 -0.002053 0.007763 -0.002454 0.000000 0.000000 0.000000
# 3 -0.004393 -0.002454 0.008295 0.000000 0.000000 0.000000
# 4 0.000000 0.000000 0.000000 0.030798 0.000000 0.000000
# 5 0.000000 0.000000 0.000000 0.000000 0.060359 0.000000
# 6 0.000000 0.000000 0.000000 0.000000 0.000000 0.030371
#
#
# Mechanical properties :
#
#
# Convention : Reuss Voigt Hill
#
# Bulk Modulus (GPa) = 32.62048 57.89513 45.25781
# Shear Modulus (GPa) = 25.25232 32.42204 28.83718
#
# Velocity S-wave (km/s) = 3.42823 3.88454 3.66350
# Velocity P-wave (km/s) = 5.55449 6.86038 6.24168
#
# Compressibility (1/GPa) = 0.03065559
#
# Stress axis : x y z
#
# Youngs Moduli (GPa) = 30.86644 128.81110 120.56155
#
# Poissons Ratio (x) = 0.26448 0.52962
# Poissons Ratio (y) = 0.06338 0.29583
# Poissons Ratio (z) = 0.13560 0.31607
#
# Static dielectric constant tensor:
#      x y z
#    x 3.569600 0.000000 0.000000 
#    y 0.000000 4.053630 0.000000 
#    z 0.000000 0.000000 4.077010 
# 
# 
# High freq. dielectric constant tensor:
#      x y z
#    x 1.814730 0.000000 0.000000 
#    y 0.000000 1.856010 0.000000 
#    z 0.000000 0.000000 1.855570 
# 
# From -- ./inp_files/17849.got.cif
#   From: 2010.03.12/outbox.cif.g09.slc.cpg/sg40_9_cif.got.tgz:17849.got - 2010.04.14 01:38:03.
