data_PCOD8183247
_publ_section_title
;
Structure prediction by ZEFSAII (Michael W. Deem and Ramdas Pophale) SiO2 
 PCOD8183247
Probable space group: A M A 2
;
_chemical_formula_sum "Si O2"
_cell_formula_units_Z 48
_cell_length_a 8.580034
_cell_length_b 23.151174
_cell_length_c 11.771671
_cell_angle_alpha 90.000000
_cell_angle_beta 90.000000
_cell_angle_gamma 90.000000
_cell_volume 2338.299537
_symmetry_space_group_name_H-M "A M A 2"
_symmetry_group_IT_number 40
_symmetry_cell_setting 'orthorhombic'
loop_
_space_group_symop_operation_xyz
x,y,z
-x,-y,z
1/2-x,y,z
1/2+x,-y,z
x,1/2+y,1/2+z
-x,1/2-y,1/2+z
1/2-x,1/2+y,1/2+z
1/2+x,1/2-y,1/2+z
loop_
_atom_site_type_symbol
_atom_site_label
_atom_site_fract_x
_atom_site_fract_y
_atom_site_fract_z
Si Si1 0.434555 0.564448 0.272010
Si Si2 0.076292 0.843799 0.342560
Si Si3 0.064273 0.267837 0.638354
Si Si4 0.935047 0.147038 0.592112
Si Si5 0.074847 0.440342 0.672501
Si Si6 0.431377 0.637360 0.487691
O O1 0.500000 0.500000 0.291418
O O2 0.250000 0.559435 0.273596
O O3 0.492094 0.591071 0.153005
O O4 0.492449 0.609313 0.369742
O O5 0.250000 0.820353 0.364931
O O6 0.998395 0.801344 0.249670
O O7 0.992301 0.847758 0.464660
O O8 0.079173 0.907586 0.291559
O O9 0.250000 0.263318 0.639375
O O10 0.986190 0.205835 0.652712
O O11 0.016433 0.302563 0.523096
O O12 0.750000 0.139386 0.592319
O O13 0.250000 0.445287 0.621820
O O14 0.000000 0.500000 0.704482
O O15 0.963065 0.410192 0.582606
O O16 0.250000 0.651580 0.479159
#
# Coordination Sequence:
#
# PCOD8183247 Si02
#       6
#     8   8   8   8   8   8
#     4  11  25  43  62  88 124 165 208 256 307 364
#     4   8  19  38  57  80 115 153 191 241 294 351
#     4  10  21  39  62  90 122 155 197 249 307 362
#     4  11  23  40  62  88 119 160 203 246 302 365
#     4  10  19  34  57  85 116 152 192 242 297 350
#     4  10  21  38  61  89 120 157 200 250 302 356
#
# _framework density 20.527737999999999
#
# number of rings (size 3 to 8) (size 9 to 14) (size 15 to 20)
#    0.000    2.000    0.000    4.000    2.333    4.667 
#    0.000   10.833    0.000    0.000    0.000    0.000 
#    0.000    0.000    0.000    0.000    0.000    0.000 
#
# Total GULP energy -297493.750904 kJ/mol
# GULP energy per Si atom -12395.572954 kJ/mol
# Density = 2.048102 g / cm^3
# Si number density = 20.527738 Si / 1000 Ang^3
#
#
#
# Elastic Constant Matrix: (Units=GPa)
#
#
# Indices 1 2 3 4 5 6 
#
# 1 50.7311 21.9816 21.0306 0.0000 0.0000 0.0000
# 2 21.9816 91.7435 21.7811 0.0000 0.0000 0.0000
# 3 21.0306 21.7811 106.4196 0.0000 0.0000 0.0000
# 4 0.0000 0.0000 0.0000 7.1489 0.0000 0.0000
# 5 0.0000 0.0000 0.0000 0.0000 23.0850 0.0000
# 6 0.0000 0.0000 0.0000 0.0000 0.0000 33.9790
#
#
#
# Elastic Compliance Matrix: (Units=1/GPa)
#
#
# Indices 1 2 3 4 5 6 
#
# 1 0.023258 -0.004710 -0.003632 0.000000 0.000000 0.000000
# 2 -0.004710 0.012411 -0.001609 0.000000 0.000000 0.000000
# 3 -0.003632 -0.001609 0.010444 0.000000 0.000000 0.000000
# 4 0.000000 0.000000 0.000000 0.139881 0.000000 0.000000
# 5 0.000000 0.000000 0.000000 0.000000 0.043318 0.000000
# 6 0.000000 0.000000 0.000000 0.000000 0.000000 0.029430
#
#
# Mechanical properties :
#
#
# Convention : Reuss Voigt Hill
#
# Bulk Modulus (GPa) = 38.15436 42.05342 40.10389
# Shear Modulus (GPa) = 17.39844 25.11598 21.25721
#
# Velocity S-wave (km/s) = 2.91444 3.50167 3.22147
# Velocity P-wave (km/s) = 5.47288 6.07285 5.78066
#
# Compressibility (1/GPa) = 0.02620932
#
# Stress axis : x y z
#
# Youngs Moduli (GPa) = 42.99504 80.57623 95.74926
#
# Poissons Ratio (x) = 0.37954 0.34779
# Poissons Ratio (y) = 0.20252 0.15408
# Poissons Ratio (z) = 0.15617 0.12967
#
# Static dielectric constant tensor:
#      x y z
#    x 3.596370 0.000000 0.000000 
#    y 0.000000 3.740290 0.000000 
#    z 0.000000 0.000000 3.946350 
# 
# 
# High freq. dielectric constant tensor:
#      x y z
#    x 1.791610 0.000000 0.000000 
#    y 0.000000 1.808270 0.000000 
#    z 0.000000 0.000000 1.803960 
# 
# From -- ./inp_files/10243.got.cif
#   From: 2010.03.12/outbox.cif.g09.slc.cpg/sg40_6_cif.got.tgz:10243.got - 2010.04.14 01:38:03.
