data_PCOD8183555
_publ_section_title
;
Structure prediction by ZEFSAII (Michael W. Deem and Ramdas Pophale) SiO2 
 PCOD8183555
Probable space group: A M A 2
;
_chemical_formula_sum "Si O2"
_cell_formula_units_Z 40
_cell_length_a 8.450753
_cell_length_b 20.882633
_cell_length_c 12.491547
_cell_angle_alpha 90.000000
_cell_angle_beta 90.000000
_cell_angle_gamma 90.000000
_cell_volume 2204.432934
_symmetry_space_group_name_H-M "A M A 2"
_symmetry_group_IT_number 40
_symmetry_cell_setting 'orthorhombic'
loop_
_space_group_symop_operation_xyz
x,y,z
-x,-y,z
1/2-x,y,z
1/2+x,-y,z
x,1/2+y,1/2+z
-x,1/2-y,1/2+z
1/2-x,1/2+y,1/2+z
1/2+x,1/2-y,1/2+z
loop_
_atom_site_type_symbol
_atom_site_label
_atom_site_fract_x
_atom_site_fract_y
_atom_site_fract_z
Si Si1 0.067374 0.827863 0.704530
Si Si2 0.565958 0.194829 0.261148
Si Si3 0.933712 0.333068 0.541649
Si Si4 0.065867 0.429893 0.380199
Si Si5 0.934765 0.301739 0.985729
O O1 0.250000 0.806937 0.714537
O O2 0.031530 0.891711 0.770782
O O3 0.960457 0.770930 0.751020
O O4 0.023406 0.839778 0.580671
O O5 0.750000 0.179221 0.253557
O O6 0.475891 0.157323 0.166442
O O7 0.498570 0.170288 0.374100
O O8 0.750000 0.316509 0.528846
O O9 0.975889 0.397682 0.479472
O O10 0.033749 0.274350 0.493056
O O11 0.250000 0.431869 0.407921
O O12 0.000000 0.500000 0.361706
O O13 0.750000 0.314642 0.995068
#
# Coordination Sequence:
#
# PCOD8183555 Si02
#       5
#     8   8   8   8   8
#     4  10  20  34  52  77 108 141 180 222 269 322
#     4  11  20  32  53  79 110 143 176 220 275 326
#     4  11  21  34  53  78 109 142 181 223 273 324
#     4  11  23  38  57  79 110 146 186 226 266 320
#     4  11  20  32  52  79 111 142 176 221 274 326
#
# _framework density 18.145256
#
# number of rings (size 3 to 8) (size 9 to 14) (size 15 to 20)
#    0.000    1.200    2.000    9.000    0.000    2.400 
#    0.000    0.000    0.000    1.200    0.000    5.600 
#    0.000    0.000    0.000    0.000    0.000    0.000 
#
# Total GULP energy -248094.073551 kJ/mol
# GULP energy per Si atom -12404.703678 kJ/mol
# Density = 1.810396 g / cm^3
# Si number density = 18.145256 Si / 1000 Ang^3
#
#
#
# Elastic Constant Matrix: (Units=GPa)
#
#
# Indices 1 2 3 4 5 6 
#
# 1 90.5339 19.3407 26.8237 0.0000 0.0000 0.0000
# 2 19.3407 78.2119 41.5022 0.0000 0.0000 0.0000
# 3 26.8237 41.5022 143.7979 0.0000 0.0000 0.0000
# 4 0.0000 0.0000 0.0000 14.2986 0.0000 0.0000
# 5 0.0000 0.0000 0.0000 0.0000 28.4184 0.0000
# 6 0.0000 0.0000 0.0000 0.0000 0.0000 21.5557
#
#
#
# Elastic Compliance Matrix: (Units=1/GPa)
#
#
# Indices 1 2 3 4 5 6 
#
# 1 0.011976 -0.002097 -0.001629 0.000000 0.000000 0.000000
# 2 -0.002097 0.015465 -0.004072 0.000000 0.000000 0.000000
# 3 -0.001629 -0.004072 0.008433 0.000000 0.000000 0.000000
# 4 0.000000 0.000000 0.000000 0.069937 0.000000 0.000000
# 5 0.000000 0.000000 0.000000 0.000000 0.035188 0.000000
# 6 0.000000 0.000000 0.000000 0.000000 0.000000 0.046391
#
#
# Mechanical properties :
#
#
# Convention : Reuss Voigt Hill
#
# Bulk Modulus (GPa) = 49.31387 54.20857 51.76122
# Shear Modulus (GPa) = 23.83817 27.84635 25.84226
#
# Velocity S-wave (km/s) = 3.62849 3.92169 3.77794
# Velocity P-wave (km/s) = 6.69260 7.10253 6.90061
#
# Compressibility (1/GPa) = 0.02027827
#
# Stress axis : x y z
#
# Youngs Moduli (GPa) = 83.49904 64.66077 118.57695
#
# Poissons Ratio (x) = 0.13561 0.19313
# Poissons Ratio (y) = 0.17512 0.48288
# Poissons Ratio (z) = 0.13599 0.26332
#
# Static dielectric constant tensor:
#      x y z
#    x 3.494750 0.000000 0.000000 
#    y 0.000000 2.949150 0.000000 
#    z 0.000000 0.000000 3.741930 
# 
# 
# High freq. dielectric constant tensor:
#      x y z
#    x 1.724340 0.000000 0.000000 
#    y 0.000000 1.645020 0.000000 
#    z 0.000000 0.000000 1.723440 
# 
# From -- ./inp_files/10018.got.cif
#   From: 2010.03.12/outbox.cif.g09.slc.cpg/sg40_6_cif.got.tgz:10018.got - 2010.04.14 01:38:03.
