data_PCOD8183050
_publ_section_title
;
Structure prediction by ZEFSAII (Michael W. Deem and Ramdas Pophale) SiO2 
 PCOD8183050
Probable space group: A M A 2
;
_chemical_formula_sum "Si O2"
_cell_formula_units_Z 48
_cell_length_a 13.985460
_cell_length_b 34.770498
_cell_length_c 4.980214
_cell_angle_alpha 90.000000
_cell_angle_beta 90.000000
_cell_angle_gamma 90.000000
_cell_volume 2421.785481
_symmetry_space_group_name_H-M "A M A 2"
_symmetry_group_IT_number 40
_symmetry_cell_setting 'orthorhombic'
loop_
_space_group_symop_operation_xyz
x,y,z
-x,-y,z
1/2-x,y,z
1/2+x,-y,z
x,1/2+y,1/2+z
-x,1/2-y,1/2+z
1/2-x,1/2+y,1/2+z
1/2+x,1/2-y,1/2+z
loop_
_atom_site_type_symbol
_atom_site_label
_atom_site_fract_x
_atom_site_fract_y
_atom_site_fract_z
Si Si1 0.750000 0.545141 0.728570
Si Si2 0.955423 0.460276 0.276502
Si Si3 0.946028 0.262262 0.924397
Si Si4 0.750000 0.991080 0.730421
Si Si5 0.034873 0.835335 0.306213
Si Si6 0.645012 0.689906 0.305998
Si Si7 0.041447 0.422397 0.771365
O O1 0.750000 0.526666 0.434547
O O2 0.843904 0.571773 0.759181
O O3 0.750000 0.509932 0.936693
O O4 0.840922 0.463367 0.268790
O O5 0.000000 0.500000 0.380717
O O6 0.990807 0.428081 0.484313
O O7 0.996020 0.451845 0.981924
O O8 0.940468 0.308113 0.854736
O O9 0.030230 0.243769 0.737612
O O10 0.853355 0.236482 0.853263
O O11 0.117119 0.819310 0.501359
O O12 0.013878 0.879645 0.367744
O O13 0.070983 0.831559 0.001496
O O14 0.750000 0.673452 0.359272
#
# Coordination Sequence:
#
# PCOD8183050 Si02
#       7
#     4   8   8   4   8   8   8
#     4  12  22  36  58  92 116 149 184 247 296 352
#     4  12  23  43  61  86 113 155 197 239 286 354
#     4   8  16  32  52  72 103 144 181 206 256 324
#     4  12  24  40  66  82 110 149 206 241 282 346
#     4  10  21  36  53  83 115 148 179 230 287 343
#     4  10  19  32  54  83 112 146 187 229 272 333
#     4  12  24  38  60  88 123 150 190 239 304 344
#
# _framework density 19.820084999999999
#
# number of rings (size 3 to 8) (size 9 to 14) (size 15 to 20)
#    0.000    1.333    3.333    3.000    2.333    0.000 
#    0.000    0.000    3.667    0.000    0.000    0.000 
#    0.000    0.000    0.000    0.000    0.000    0.000 
#
# Total GULP energy -297511.765919 kJ/mol
# GULP energy per Si atom -12396.323580 kJ/mol
# Density = 1.977497 g / cm^3
# Si number density = 19.820085 Si / 1000 Ang^3
#
#
#
# Elastic Constant Matrix: (Units=GPa)
#
#
# Indices 1 2 3 4 5 6 
#
# 1 89.4221 26.9001 15.0498 0.0000 0.0000 0.0000
# 2 26.9001 100.0446 6.2844 0.0000 0.0000 0.0000
# 3 15.0498 6.2844 81.3318 0.0000 0.0000 0.0000
# 4 0.0000 0.0000 0.0000 26.9869 0.0000 0.0000
# 5 0.0000 0.0000 0.0000 0.0000 21.8446 0.0000
# 6 0.0000 0.0000 0.0000 0.0000 0.0000 15.4819
#
#
#
# Elastic Compliance Matrix: (Units=1/GPa)
#
#
# Indices 1 2 3 4 5 6 
#
# 1 0.012503 -0.003232 -0.002064 0.000000 0.000000 0.000000
# 2 -0.003232 0.010880 -0.000243 0.000000 0.000000 0.000000
# 3 -0.002064 -0.000243 0.012696 0.000000 0.000000 0.000000
# 4 0.000000 0.000000 0.000000 0.037055 0.000000 0.000000
# 5 0.000000 0.000000 0.000000 0.000000 0.045778 0.000000
# 6 0.000000 0.000000 0.000000 0.000000 0.000000 0.064592
#
#
# Mechanical properties :
#
#
# Convention : Reuss Voigt Hill
#
# Bulk Modulus (GPa) = 39.99767 40.80745 40.40256
# Shear Modulus (GPa) = 24.64106 27.70029 26.17067
#
# Velocity S-wave (km/s) = 3.52978 3.74249 3.63769
# Velocity P-wave (km/s) = 6.06932 6.26966 6.17030
#
# Compressibility (1/GPa) = 0.02500146
#
# Stress axis : x y z
#
# Youngs Moduli (GPa) = 79.98387 91.91328 78.76529
#
# Poissons Ratio (x) = 0.29707 0.16255
# Poissons Ratio (y) = 0.25851 0.01911
# Poissons Ratio (z) = 0.16507 0.02230
#
# Static dielectric constant tensor:
#      x y z
#    x 3.449690 0.000000 0.000000 
#    y 0.000000 3.586190 0.000000 
#    z 0.000000 0.000000 3.660500 
# 
# 
# High freq. dielectric constant tensor:
#      x y z
#    x 1.737040 0.000000 0.000000 
#    y 0.000000 1.765670 0.000000 
#    z 0.000000 0.000000 1.796060 
# 
# From -- ./inp_files/1435.got.cif
#   From: 2010.03.12/outbox.cif.g09.slc.cpg/sg40_1_cif.got.tgz:1435.got - 2010.04.14 01:38:03.
