data_PCOD8183265
_publ_section_title
;
Structure prediction by ZEFSAII (Michael W. Deem and Ramdas Pophale) SiO2 
 PCOD8183265
Probable space group: A M A 2
;
_chemical_formula_sum "Si O2"
_cell_formula_units_Z 64
_cell_length_a 17.569535
_cell_length_b 15.651307
_cell_length_c 12.185364
_cell_angle_alpha 90.000000
_cell_angle_beta 90.000000
_cell_angle_gamma 90.000000
_cell_volume 3350.806773
_symmetry_space_group_name_H-M "A M A 2"
_symmetry_group_IT_number 40
_symmetry_cell_setting 'orthorhombic'
loop_
_space_group_symop_operation_xyz
x,y,z
-x,-y,z
1/2-x,y,z
1/2+x,-y,z
x,1/2+y,1/2+z
-x,1/2-y,1/2+z
1/2-x,1/2+y,1/2+z
1/2+x,1/2-y,1/2+z
loop_
_atom_site_type_symbol
_atom_site_label
_atom_site_fract_x
_atom_site_fract_y
_atom_site_fract_z
Si Si1 0.159587 0.199390 0.887060
Si Si2 0.410657 0.990155 0.109838
Si Si3 0.912907 0.364470 0.777534
Si Si4 0.164106 0.451856 0.164269
Si Si5 0.588163 0.979911 0.871891
Si Si6 0.407897 0.368021 0.793634
Si Si7 0.339376 0.017389 0.436121
Si Si8 0.663220 0.242014 0.627329
O O1 0.250000 0.184372 0.873216
O O2 0.111115 0.117969 0.846589
O O3 0.134752 0.278920 0.811516
O O4 0.136305 0.216582 0.012842
O O5 0.384245 0.068768 0.185095
O O6 0.500000 0.000000 0.096834
O O7 0.388233 0.901615 0.170555
O O8 0.372775 0.993384 0.988596
O O9 0.869881 0.392369 0.889220
O O10 0.886197 0.273191 0.731353
O O11 0.001545 0.359328 0.804000
O O12 0.250000 0.467036 0.202210
O O13 0.114430 0.462011 0.272022
O O14 0.151724 0.358422 0.114359
O O15 0.142599 0.517265 0.066395
O O16 0.500000 0.000000 0.881618
O O17 0.382726 0.438114 0.881570
O O18 0.250000 0.005980 0.414196
O O19 0.750000 0.266412 0.651280
#
# Coordination Sequence:
#
# PCOD8183265 Si02
#       8
#     8   8   8   8   8   8   8   8
#     4  11  22  40  62  87 116 156 204 243 285 354
#     4   8  17  35  55  84 117 149 183 243 297 344
#     4  10  19  34  59  88 119 147 196 247 299 347
#     4  10  22  40  57  79 119 158 196 246 294 354
#     4  11  23  39  60  87 120 158 198 239 304 362
#     4  10  20  35  61  89 120 149 192 255 298 337
#     4  10  19  36  59  86 118 155 199 247 295 351
#     4  10  20  37  60  85 115 157 202 239 286 355
#
# _framework density 19.099875999999998
#
# number of rings (size 3 to 8) (size 9 to 14) (size 15 to 20)
#    0.000    2.000    2.500    2.250    1.750    1.000 
#    0.000    3.125    0.000    1.500    0.000    0.000 
#    0.000    0.000    0.000    0.000    0.000    0.000 
#
# Total GULP energy -396690.284779 kJ/mol
# GULP energy per Si atom -12396.571399 kJ/mol
# Density = 1.905640 g / cm^3
# Si number density = 19.099876 Si / 1000 Ang^3
#
#
#
# Elastic Constant Matrix: (Units=GPa)
#
#
# Indices 1 2 3 4 5 6 
#
# 1 70.0425 24.7349 42.5381 0.0000 0.0000 0.0000
# 2 24.7349 62.5430 29.8612 0.0000 0.0000 0.0000
# 3 42.5381 29.8612 100.5771 0.0000 0.0000 0.0000
# 4 0.0000 0.0000 0.0000 35.0916 0.0000 0.0000
# 5 0.0000 0.0000 0.0000 0.0000 22.0514 0.0000
# 6 0.0000 0.0000 0.0000 0.0000 0.0000 29.6078
#
#
#
# Elastic Compliance Matrix: (Units=1/GPa)
#
#
# Indices 1 2 3 4 5 6 
#
# 1 0.020275 -0.004572 -0.007218 0.000000 0.000000 0.000000
# 2 -0.004572 0.019661 -0.003903 0.000000 0.000000 0.000000
# 3 -0.007218 -0.003903 0.014154 0.000000 0.000000 0.000000
# 4 0.000000 0.000000 0.000000 0.028497 0.000000 0.000000
# 5 0.000000 0.000000 0.000000 0.000000 0.045349 0.000000
# 6 0.000000 0.000000 0.000000 0.000000 0.000000 0.033775
#
#
# Mechanical properties :
#
#
# Convention : Reuss Voigt Hill
#
# Bulk Modulus (GPa) = 44.04651 47.49235 45.76943
# Shear Modulus (GPa) = 24.91707 26.41872 25.66789
#
# Velocity S-wave (km/s) = 3.61580 3.72316 3.66987
# Velocity P-wave (km/s) = 6.36735 6.58800 6.47862
#
# Compressibility (1/GPa) = 0.02270328
#
# Stress axis : x y z
#
# Youngs Moduli (GPa) = 49.32140 50.86193 70.65058
#
# Poissons Ratio (x) = 0.23257 0.50993
# Poissons Ratio (y) = 0.22552 0.27578
# Poissons Ratio (z) = 0.35598 0.19854
#
# Static dielectric constant tensor:
#      x y z
#    x 3.401310 0.000000 0.000000 
#    y 0.000000 3.403850 0.000000 
#    z 0.000000 0.000000 3.694240 
# 
# 
# High freq. dielectric constant tensor:
#      x y z
#    x 1.734710 0.000000 0.000000 
#    y 0.000000 1.729760 0.000000 
#    z 0.000000 0.000000 1.745730 
# 
# From -- ./inp_files/13234.got.cif
#   From: 2010.03.12/outbox.cif.g09.slc.cpg/sg40_7_cif.got.tgz:13234.got - 2010.04.14 01:38:03.
