data_PCOD8183501
_publ_section_title
;
Structure prediction by ZEFSAII (Michael W. Deem and Ramdas Pophale) SiO2 
 PCOD8183501
Probable space group: A M A 2
;
_chemical_formula_sum "Si O2"
_cell_formula_units_Z 64
_cell_length_a 8.574445
_cell_length_b 28.029825
_cell_length_c 14.388405
_cell_angle_alpha 90.000000
_cell_angle_beta 90.000000
_cell_angle_gamma 90.000000
_cell_volume 3458.112032
_symmetry_space_group_name_H-M "A M A 2"
_symmetry_group_IT_number 40
_symmetry_cell_setting 'orthorhombic'
loop_
_space_group_symop_operation_xyz
x,y,z
-x,-y,z
1/2-x,y,z
1/2+x,-y,z
x,1/2+y,1/2+z
-x,1/2-y,1/2+z
1/2-x,1/2+y,1/2+z
1/2+x,1/2-y,1/2+z
loop_
_atom_site_type_symbol
_atom_site_label
_atom_site_fract_x
_atom_site_fract_y
_atom_site_fract_z
Si Si1 0.566849 0.679079 0.361350
Si Si2 0.566571 0.050971 0.153616
Si Si3 0.065381 0.551113 0.852726
Si Si4 0.070808 0.282672 0.646078
Si Si5 0.068088 0.136248 0.482039
Si Si6 0.431825 0.633337 0.532387
Si Si7 0.430559 0.781528 0.362001
Si Si8 0.930696 0.681734 0.150558
O O1 0.750000 0.683327 0.379559
O O2 0.492398 0.638677 0.426784
O O3 0.487031 0.728890 0.387772
O O4 0.528867 0.665060 0.254986
O O5 0.750000 0.046765 0.164051
O O6 0.498366 0.067221 0.252675
O O7 0.524029 0.089468 0.076502
O O8 0.500000 0.000000 0.122437
O O9 0.250000 0.548889 0.845847
O O10 0.008525 0.589049 0.929235
O O11 0.000000 0.500000 0.883135
O O12 0.250000 0.291540 0.618650
O O13 0.041113 0.292506 0.754182
O O14 0.963219 0.318228 0.588507
O O15 0.027056 0.228530 0.621441
O O16 0.250000 0.133165 0.502831
O O17 0.033756 0.181914 0.419258
O O18 0.978002 0.139533 0.580287
O O19 0.250000 0.621644 0.533174
O O20 0.250000 0.786837 0.389752
O O21 0.750000 0.694537 0.141762
#
# Coordination Sequence:
#
# PCOD8183501 Si02
#       8
#     8   8   8   8   8   8   8   8
#     4  10  21  37  54  74 103 139 178 221 265 308
#     4  11  22  38  59  83 111 140 171 211 260 313
#     4  10  21  37  57  82 110 140 172 211 261 313
#     4  10  20  34  52  76 108 143 178 218 262 311
#     4  11  22  34  52  77 106 139 175 216 261 312
#     4  12  23  35  54  79 107 140 178 218 261 313
#     4  10  20  33  51  76 106 141 178 215 258 309
#     4  10  21  36  54  75 103 140 180 222 264 309
#
# _framework density 18.507207999999999
#
# number of rings (size 3 to 8) (size 9 to 14) (size 15 to 20)
#    0.000    1.500    0.000    6.750    0.000    7.000 
#    0.000    0.000    0.000    0.750    0.000    1.750 
#    0.000    0.000    0.000    0.000    0.000    0.000 
#
# Total GULP energy -396969.003130 kJ/mol
# GULP energy per Si atom -12405.281348 kJ/mol
# Density = 1.846508 g / cm^3
# Si number density = 18.507208 Si / 1000 Ang^3
#
#
#
# Elastic Constant Matrix: (Units=GPa)
#
#
# Indices 1 2 3 4 5 6 
#
# 1 67.3634 19.1920 30.7877 0.0000 0.0000 0.0000
# 2 19.1920 83.8039 72.8799 0.0000 0.0000 0.0000
# 3 30.7877 72.8799 109.4359 0.0000 0.0000 0.0000
# 4 0.0000 0.0000 0.0000 31.7501 0.0000 0.0000
# 5 0.0000 0.0000 0.0000 0.0000 28.5858 0.0000
# 6 0.0000 0.0000 0.0000 0.0000 0.0000 30.4433
#
#
#
# Elastic Compliance Matrix: (Units=1/GPa)
#
#
# Indices 1 2 3 4 5 6 
#
# 1 0.017049 0.000634 -0.005219 0.000000 0.000000 0.000000
# 2 0.000634 0.028377 -0.019076 0.000000 0.000000 0.000000
# 3 -0.005219 -0.019076 0.023310 0.000000 0.000000 0.000000
# 4 0.000000 0.000000 0.000000 0.031496 0.000000 0.000000
# 5 0.000000 0.000000 0.000000 0.000000 0.034982 0.000000
# 6 0.000000 0.000000 0.000000 0.000000 0.000000 0.032848
#
#
# Mechanical properties :
#
#
# Convention : Reuss Voigt Hill
#
# Bulk Modulus (GPa) = 46.69777 56.25806 51.47791
# Shear Modulus (GPa) = 22.46954 27.33874 24.90414
#
# Velocity S-wave (km/s) = 3.48817 3.84760 3.67228
# Velocity P-wave (km/s) = 6.44283 7.08538 6.77173
#
# Compressibility (1/GPa) = 0.02141430
#
# Stress axis : x y z
#
# Youngs Moduli (GPa) = 58.65312 35.23956 42.89989
#
# Poissons Ratio (x) = -0.02234 0.22388
# Poissons Ratio (y) = -0.03718 0.81838
# Poissons Ratio (z) = 0.30609 0.67224
#
# Static dielectric constant tensor:
#      x y z
#    x 3.529450 0.000000 0.000000 
#    y 0.000000 3.324310 0.000000 
#    z 0.000000 0.000000 3.608330 
# 
# 
# High freq. dielectric constant tensor:
#      x y z
#    x 1.735990 0.000000 0.000000 
#    y 0.000000 1.696260 0.000000 
#    z 0.000000 0.000000 1.722670 
# 
# From -- ./inp_files/15627.got.cif
#   From: 2010.03.12/outbox.cif.g09.slc.cpg/sg40_8_cif.got.tgz:15627.got - 2010.04.14 01:38:03.
