data_PCOD8183192
_publ_section_title
;
Structure prediction by ZEFSAII (Michael W. Deem and Ramdas Pophale) SiO2 
 PCOD8183192
Probable space group: A M A 2
;
_chemical_formula_sum "Si O2"
_cell_formula_units_Z 48
_cell_length_a 8.695519
_cell_length_b 29.815848
_cell_length_c 10.066231
_cell_angle_alpha 90.000000
_cell_angle_beta 90.000000
_cell_angle_gamma 90.000000
_cell_volume 2609.814060
_symmetry_space_group_name_H-M "A M A 2"
_symmetry_group_IT_number 40
_symmetry_cell_setting 'orthorhombic'
loop_
_space_group_symop_operation_xyz
x,y,z
-x,-y,z
1/2-x,y,z
1/2+x,-y,z
x,1/2+y,1/2+z
-x,1/2-y,1/2+z
1/2-x,1/2+y,1/2+z
1/2+x,1/2-y,1/2+z
loop_
_atom_site_type_symbol
_atom_site_label
_atom_site_fract_x
_atom_site_fract_y
_atom_site_fract_z
Si Si1 0.066755 0.951819 0.605440
Si Si2 0.073489 0.387719 0.591676
Si Si3 0.567746 0.118741 0.391718
Si Si4 0.568568 0.217405 0.375558
Si Si5 0.069507 0.547327 0.386549
Si Si6 0.073762 0.283443 0.580590
O O1 0.250000 0.953995 0.605596
O O2 0.001164 0.916152 0.498807
O O3 0.008554 0.936605 0.749795
O O4 0.000000 0.000000 0.565724
O O5 0.250000 0.402973 0.571902
O O6 0.019467 0.395846 0.743200
O O7 0.054652 0.335955 0.552011
O O8 0.962186 0.416270 0.499074
O O9 0.750000 0.119355 0.401043
O O10 0.503359 0.168855 0.422640
O O11 0.750000 0.213082 0.365156
O O12 0.524383 0.256624 0.474104
O O13 0.508325 0.228328 0.226978
O O14 0.250000 0.541847 0.363257
O O15 0.000000 0.500000 0.433048
O O16 0.250000 0.268562 0.565688
#
# Coordination Sequence:
#
# PCOD8183192 Si02
#       6
#     8   8   8   8   8   8
#     4  10  19  34  54  76 102 133 169 208 254 302
#     4   9  18  36  56  74 101 135 170 208 252 301
#     4   8  17  34  55  75  99 134 171 209 254 302
#     4   9  18  34  53  74 102 135 172 210 249 299
#     4  11  22  36  53  76 104 134 169 207 250 298
#     4   9  19  34  52  75 103 135 169 208 254 300
#
# _framework density 18.392116000000001
#
# number of rings (size 3 to 8) (size 9 to 14) (size 15 to 20)
#    0.000    2.667    0.000    5.000    0.000    3.333 
#    0.000   12.500    0.000    0.000    0.000    0.000 
#    0.000    0.000    0.000    0.000    0.000    0.000 
#
# Total GULP energy -297560.575938 kJ/mol
# GULP energy per Si atom -12398.357331 kJ/mol
# Density = 1.835025 g / cm^3
# Si number density = 18.392116 Si / 1000 Ang^3
#
#
#
# Elastic Constant Matrix: (Units=GPa)
#
#
# Indices 1 2 3 4 5 6 
#
# 1 51.0599 21.4248 21.9095 0.0000 0.0000 0.0000
# 2 21.4248 86.2601 72.0666 0.0000 0.0000 0.0000
# 3 21.9095 72.0666 112.4869 0.0000 0.0000 0.0000
# 4 0.0000 0.0000 0.0000 39.3696 0.0000 0.0000
# 5 0.0000 0.0000 0.0000 0.0000 24.5757 0.0000
# 6 0.0000 0.0000 0.0000 0.0000 0.0000 29.8230
#
#
#
# Elastic Compliance Matrix: (Units=1/GPa)
#
#
# Indices 1 2 3 4 5 6 
#
# 1 0.022011 -0.004056 -0.001688 0.000000 0.000000 0.000000
# 2 -0.004056 0.025692 -0.015670 0.000000 0.000000 0.000000
# 3 -0.001688 -0.015670 0.019258 0.000000 0.000000 0.000000
# 4 0.000000 0.000000 0.000000 0.025400 0.000000 0.000000
# 5 0.000000 0.000000 0.000000 0.000000 0.040691 0.000000
# 6 0.000000 0.000000 0.000000 0.000000 0.000000 0.033531
#
#
# Mechanical properties :
#
#
# Convention : Reuss Voigt Hill
#
# Bulk Modulus (GPa) = 41.43914 53.40095 47.42005
# Shear Modulus (GPa) = 22.99313 27.71408 25.35361
#
# Velocity S-wave (km/s) = 3.53960 3.88602 3.71685
# Velocity P-wave (km/s) = 6.26776 7.01660 6.65272
#
# Compressibility (1/GPa) = 0.02413177
#
# Stress axis : x y z
#
# Youngs Moduli (GPa) = 45.43099 38.92294 51.92681
#
# Poissons Ratio (x) = 0.15789 0.08767
# Poissons Ratio (y) = 0.18429 0.81368
# Poissons Ratio (z) = 0.07671 0.60991
#
# Static dielectric constant tensor:
#      x y z
#    x 3.142010 0.000000 0.000000 
#    y 0.000000 3.512030 0.000000 
#    z 0.000000 0.000000 3.505560 
# 
# 
# High freq. dielectric constant tensor:
#      x y z
#    x 1.694860 0.000000 0.000000 
#    y 0.000000 1.715380 0.000000 
#    z 0.000000 0.000000 1.718840 
# 
# From -- ./inp_files/4642.got.cif
#   From: 2010.03.12/outbox.cif.g09.slc.cpg/sg40_3_cif.got.tgz:4642.got - 2010.04.14 01:38:03.
