data_PCOD8183610
_publ_section_title
;
Structure prediction by ZEFSAII (Michael W. Deem and Ramdas Pophale) SiO2 
 PCOD8183610
Probable space group: A M A 2
;
_chemical_formula_sum "Si O2"
_cell_formula_units_Z 64
_cell_length_a 18.287776
_cell_length_b 17.892784
_cell_length_c 9.715026
_cell_angle_alpha 90.000000
_cell_angle_beta 90.000000
_cell_angle_gamma 90.000000
_cell_volume 3178.943286
_symmetry_space_group_name_H-M "A M A 2"
_symmetry_group_IT_number 40
_symmetry_cell_setting 'orthorhombic'
loop_
_space_group_symop_operation_xyz
x,y,z
-x,-y,z
1/2-x,y,z
1/2+x,-y,z
x,1/2+y,1/2+z
-x,1/2-y,1/2+z
1/2-x,1/2+y,1/2+z
1/2+x,1/2-y,1/2+z
loop_
_atom_site_type_symbol
_atom_site_label
_atom_site_fract_x
_atom_site_fract_y
_atom_site_fract_z
Si Si1 0.903071 0.291296 0.449760
Si Si2 0.515789 0.919301 0.264010
Si Si3 0.052467 0.364220 0.497030
Si Si4 0.919043 0.024191 0.760552
Si Si5 0.543963 0.133409 0.548272
Si Si6 0.832154 0.354729 0.710510
Si Si7 0.330136 0.737559 0.967242
Si Si8 0.391586 0.637747 0.184030
O O1 0.915057 0.206658 0.494839
O O2 0.848803 0.330528 0.555844
O O3 0.866999 0.301676 0.299999
O O4 0.978956 0.336135 0.424227
O O5 0.469966 0.869760 0.157109
O O6 0.485214 0.911389 0.416953
O O7 0.603546 0.909415 0.261656
O O8 0.500000 0.000000 0.206115
O O9 0.083413 0.437926 0.414322
O O10 0.113352 0.301617 0.500169
O O11 0.898672 0.084426 0.640349
O O12 0.872889 0.947060 0.740065
O O13 0.000000 0.000000 0.723852
O O14 0.476248 0.152968 0.646248
O O15 0.750000 0.390850 0.717712
O O16 0.835491 0.281408 0.805951
O O17 0.250000 0.768393 0.003385
O O18 0.344331 0.660134 0.050472
#
# Coordination Sequence:
#
# PCOD8183610 Si02
#       8
#     8   8   8   8   8   8   8   8
#     4  11  21  34  62  88 116 154 197 251 300 352
#     4  11  22  35  62  91 117 155 202 250 297 358
#     4  11  20  36  59  88 118 150 205 249 297 356
#     4  10  20  34  56  88 123 148 185 259 310 349
#     4  11  20  33  57  92 121 148 198 256 300 355
#     4  10  23  39  58  84 121 158 196 243 307 372
#     4  11  23  40  61  84 119 164 204 249 305 372
#     4  11  21  36  59  89 121 153 197 256 305 359
#
# _framework density 20.132476
#
# number of rings (size 3 to 8) (size 9 to 14) (size 15 to 20)
#    0.000    1.250    5.000    3.000    3.500    0.500 
#    0.000    1.250    0.000    1.500    0.000    0.000 
#    0.000    0.000    0.000    0.000    0.000    0.000 
#
# Total GULP energy -396474.313801 kJ/mol
# GULP energy per Si atom -12389.822306 kJ/mol
# Density = 2.008665 g / cm^3
# Si number density = 20.132476 Si / 1000 Ang^3
#
#
#
# Elastic Constant Matrix: (Units=GPa)
#
#
# Indices 1 2 3 4 5 6 
#
# 1 88.7307 26.1872 28.4495 0.0000 0.0000 0.0000
# 2 26.1872 85.3109 26.6228 0.0000 0.0000 0.0000
# 3 28.4495 26.6228 116.8859 0.0000 0.0000 0.0000
# 4 0.0000 0.0000 0.0000 19.6827 0.0000 0.0000
# 5 0.0000 0.0000 0.0000 0.0000 -4.3207 0.0000
# 6 0.0000 0.0000 0.0000 0.0000 0.0000 7.7186
#
#
#
# Elastic Compliance Matrix: (Units=1/GPa)
#
#
# Indices 1 2 3 4 5 6 
#
# 1 0.013003 -0.003234 -0.002428 0.000000 0.000000 0.000000
# 2 -0.003234 0.013423 -0.002270 0.000000 0.000000 0.000000
# 3 -0.002428 -0.002270 0.009663 0.000000 0.000000 0.000000
# 4 0.000000 0.000000 0.000000 0.050806 0.000000 0.000000
# 5 0.000000 0.000000 0.000000 0.000000 -0.231443 0.000000
# 6 0.000000 0.000000 0.000000 0.000000 0.000000 0.129556
#
#
# Mechanical properties :
#
#
# Convention : Reuss Voigt Hill
#
# Bulk Modulus (GPa) = 49.44390 50.38295 49.91343
# Shear Modulus (GPa) = 656.62446 18.59400 337.60923
#
# Velocity S-wave (km/s) = 18.07927 3.04235 12.96371
# Velocity P-wave (km/s) = 21.45753 6.11729 15.77731
#
# Compressibility (1/GPa) = 0.02022494
#
# Stress axis : x y z
#
# Youngs Moduli (GPa) = 76.90538 74.49950 103.48227
#
# Poissons Ratio (x) = 0.24090 0.25129
# Poissons Ratio (y) = 0.24868 0.23493
# Poissons Ratio (z) = 0.18675 0.16913
#
# Static dielectric constant tensor:
#      x y z
#    x 3.482320 0.000000 0.000000 
#    y 0.000000 3.847090 0.000000 
#    z 0.000000 0.000000 3.896590 
# 
# 
# High freq. dielectric constant tensor:
#      x y z
#    x 1.739850 0.000000 0.000000 
#    y 0.000000 1.776990 0.000000 
#    z 0.000000 0.000000 1.812420 
# 
# From -- ./inp_files/7846.got.cif
#   From: 2010.03.12/outbox.cif.g09.slc.cpg/sg40_4_cif.got.tgz:7846.got - 2010.04.14 01:38:03.
