data_PCOD8183776
_publ_section_title
;
Structure prediction by ZEFSAII (Michael W. Deem and Ramdas Pophale) SiO2 
 PCOD8183776
Probable space group: A M A 2
;
_chemical_formula_sum "Si O2"
_cell_formula_units_Z 52
_cell_length_a 24.627200
_cell_length_b 11.754490
_cell_length_c 8.421863
_cell_angle_alpha 90.000000
_cell_angle_beta 90.000000
_cell_angle_gamma 90.000000
_cell_volume 2437.962385
_symmetry_space_group_name_H-M "A M A 2"
_symmetry_group_IT_number 40
_symmetry_cell_setting 'orthorhombic'
loop_
_space_group_symop_operation_xyz
x,y,z
-x,-y,z
1/2-x,y,z
1/2+x,-y,z
x,1/2+y,1/2+z
-x,1/2-y,1/2+z
1/2-x,1/2+y,1/2+z
1/2+x,1/2-y,1/2+z
loop_
_atom_site_type_symbol
_atom_site_label
_atom_site_fract_x
_atom_site_fract_y
_atom_site_fract_z
Si Si1 0.835828 0.263536 0.710640
Si Si2 0.750000 0.145403 0.490780
Si Si3 0.944222 0.742454 0.733772
Si Si4 0.250000 0.114060 0.392459
Si Si5 0.444290 0.787566 0.593024
Si Si6 0.939459 0.495452 0.312795
Si Si7 0.360987 0.382263 0.514826
Si Si8 0.250000 0.828234 0.130118
O O1 0.802607 0.184601 0.588082
O O2 0.801967 0.372175 0.774248
O O3 0.892787 0.296107 0.626567
O O4 0.851508 0.194696 0.864554
O O5 0.750000 0.203064 0.316668
O O6 0.750000 0.008313 0.474723
O O7 0.896011 0.681498 0.644983
O O8 0.001760 0.722320 0.648250
O O9 0.928879 0.875199 0.731455
O O10 0.949196 0.688941 0.907282
O O11 0.250000 0.211082 0.529473
O O12 0.435206 0.908149 0.678240
O O13 0.894698 0.508608 0.452745
O O14 0.000000 0.500000 0.388838
O O15 0.302032 0.408215 0.590744
#
# Coordination Sequence:
#
# PCOD8183776 Si02
#       8
#     8   4   8   4   8   8   8   4
#     4   9  20  38  56  84 117 145 192 244 279 339
#     4  11  21  39  60  80 116 155 189 237 290 334
#     4  11  21  38  60  82 114 153 187 233 290 340
#     4   9  21  39  60  82 114 157 193 233 290 338
#     4  10  20  36  58  84 115 148 189 239 286 337
#     4   9  20  38  58  84 115 150 190 233 286 340
#     4  10  21  40  60  84 119 150 190 240 282 336
#     4  10  22  38  58  88 116 148 196 238 278 342
#
# _framework density 21.329286
#
# number of rings (size 3 to 8) (size 9 to 14) (size 15 to 20)
#    0.000    2.154    0.000    4.154    0.000    6.154 
#    0.000   18.462    0.000    0.000    0.000    0.000 
#    0.000    0.000    0.000    0.000    0.000    0.000 
#
# Total GULP energy -322231.668477 kJ/mol
# GULP energy per Si atom -12393.525711 kJ/mol
# Density = 2.128074 g / cm^3
# Si number density = 21.329286 Si / 1000 Ang^3
#
#
#
# Elastic Constant Matrix: (Units=GPa)
#
#
# Indices 1 2 3 4 5 6 
#
# 1 183.0191 21.4626 75.5162 0.0000 0.0000 0.0000
# 2 21.4626 61.5392 27.4046 0.0000 0.0000 0.0000
# 3 75.5162 27.4046 144.7828 0.0000 0.0000 0.0000
# 4 0.0000 0.0000 0.0000 27.0997 0.0000 0.0000
# 5 0.0000 0.0000 0.0000 0.0000 22.8975 0.0000
# 6 0.0000 0.0000 0.0000 0.0000 0.0000 0.7963
#
#
#
# Elastic Compliance Matrix: (Units=1/GPa)
#
#
# Indices 1 2 3 4 5 6 
#
# 1 0.007007 -0.000891 -0.003486 0.000000 0.000000 0.000000
# 2 -0.000891 0.017859 -0.002915 0.000000 0.000000 0.000000
# 3 -0.003486 -0.002915 0.009277 0.000000 0.000000 0.000000
# 4 0.000000 0.000000 0.000000 0.036901 0.000000 0.000000
# 5 0.000000 0.000000 0.000000 0.000000 0.043673 0.000000
# 6 0.000000 0.000000 0.000000 0.000000 0.000000 1.255755
#
#
# Mechanical properties :
#
#
# Convention : Reuss Voigt Hill
#
# Bulk Modulus (GPa) = 51.13187 70.90088 61.01637
# Shear Modulus (GPa) = 3.59305 27.82254 15.70780
#
# Velocity S-wave (km/s) = 1.29931 3.61561 2.71669
# Velocity P-wave (km/s) = 5.12597 7.12344 6.20560
#
# Compressibility (1/GPa) = 0.01955728
#
# Stress axis : x y z
#
# Youngs Moduli (GPa) = 142.71920 55.99419 107.79441
#
# Poissons Ratio (x) = 0.04991 0.37576
# Poissons Ratio (y) = 0.12721 0.31427
# Poissons Ratio (z) = 0.49750 0.16325
#
# Static dielectric constant tensor:
#      x y z
#    x 4.881950 0.000000 0.000000 
#    y 0.000000 3.463780 0.000000 
#    z 0.000000 0.000000 4.005380 
# 
# 
# High freq. dielectric constant tensor:
#      x y z
#    x 1.860820 0.000000 0.000000 
#    y 0.000000 1.805500 0.000000 
#    z 0.000000 0.000000 1.849650 
# 
# From -- ./inp_files/9147.got.cif
#   From: 2010.03.12/outbox.cif.g09.slc.cpg/sg40_5_cif.got.tgz:9147.got - 2010.04.14 01:38:03.
