data_PCOD8183717
_publ_section_title
;
Structure prediction by ZEFSAII (Michael W. Deem and Ramdas Pophale) SiO2 
 PCOD8183717
Probable space group: A M A 2
;
_chemical_formula_sum "Si O2"
_cell_formula_units_Z 48
_cell_length_a 8.649414
_cell_length_b 22.762903
_cell_length_c 11.675376
_cell_angle_alpha 90.000000
_cell_angle_beta 90.000000
_cell_angle_gamma 90.000000
_cell_volume 2298.715416
_symmetry_space_group_name_H-M "A M A 2"
_symmetry_group_IT_number 40
_symmetry_cell_setting 'orthorhombic'
loop_
_space_group_symop_operation_xyz
x,y,z
-x,-y,z
1/2-x,y,z
1/2+x,-y,z
x,1/2+y,1/2+z
-x,1/2-y,1/2+z
1/2-x,1/2+y,1/2+z
1/2+x,1/2-y,1/2+z
loop_
_atom_site_type_symbol
_atom_site_label
_atom_site_fract_x
_atom_site_fract_y
_atom_site_fract_z
Si Si1 0.569986 0.629382 0.780780
Si Si2 0.922717 0.340232 0.144692
Si Si3 0.432919 0.267446 0.947778
Si Si4 0.921189 0.442752 0.971079
Si Si5 0.068332 0.355501 0.386566
Si Si6 0.932073 0.935366 0.071244
O O1 0.750000 0.630337 0.751474
O O2 0.517510 0.691361 0.839230
O O3 0.534285 0.578683 0.871375
O O4 0.479443 0.613940 0.664948
O O5 0.750000 0.316891 0.177245
O O6 0.021950 0.355352 0.254880
O O7 0.907373 0.399629 0.076059
O O8 0.011792 0.292766 0.068759
O O9 0.250000 0.260106 0.950165
O O10 0.514617 0.205351 0.940979
O O11 0.750000 0.454261 0.919612
O O12 0.000000 0.500000 0.023327
O O13 0.250000 0.362355 0.399995
O O14 0.989569 0.411011 0.449126
O O15 0.750000 0.941706 0.069631
O O16 0.000000 0.000000 0.097597
#
# Coordination Sequence:
#
# PCOD8183717 Si02
#       6
#     8   8   8   8   8   8
#     4  10  21  39  64  94 128 165 210 262 317 375
#     4  10  22  41  62  89 124 161 208 260 314 377
#     4  10  22  41  66  95 127 164 211 265 323 383
#     4  10  20  35  59  89 122 161 204 254 309 366
#     4  12  26  43  65  92 127 169 213 261 322 387
#     4  12  26  45  67  93 130 172 221 268 324 388
#
# _framework density 20.881228
#
# number of rings (size 3 to 8) (size 9 to 14) (size 15 to 20)
#    0.000    1.333    0.000    5.500    2.333    4.667 
#    0.000    1.667    0.000    0.000    0.000    0.000 
#    0.000    0.000    0.000    0.000    0.000    0.000 
#
# Total GULP energy -297630.571558 kJ/mol
# GULP energy per Si atom -12401.273815 kJ/mol
# Density = 2.083370 g / cm^3
# Si number density = 20.881228 Si / 1000 Ang^3
#
#
#
# Elastic Constant Matrix: (Units=GPa)
#
#
# Indices 1 2 3 4 5 6 
#
# 1 139.0203 37.9653 34.9585 0.0000 0.0000 0.0000
# 2 37.9653 98.7131 -10.5478 0.0000 0.0000 0.0000
# 3 34.9585 -10.5478 137.3209 0.0000 0.0000 0.0000
# 4 0.0000 0.0000 0.0000 -4.6883 0.0000 0.0000
# 5 0.0000 0.0000 0.0000 0.0000 37.8365 0.0000
# 6 0.0000 0.0000 0.0000 0.0000 0.0000 31.9018
#
#
#
# Elastic Compliance Matrix: (Units=1/GPa)
#
#
# Indices 1 2 3 4 5 6 
#
# 1 0.008831 -0.003667 -0.002530 0.000000 0.000000 0.000000
# 2 -0.003667 0.011737 0.001835 0.000000 0.000000 0.000000
# 3 -0.002530 0.001835 0.008067 0.000000 0.000000 0.000000
# 4 0.000000 0.000000 0.000000 -0.213297 0.000000 0.000000
# 5 0.000000 0.000000 0.000000 0.000000 0.026429 0.000000
# 6 0.000000 0.000000 0.000000 0.000000 0.000000 0.031346
#
#
# Mechanical properties :
#
#
# Convention : Reuss Voigt Hill
#
# Bulk Modulus (GPa) = 50.22174 55.53402 52.87788
# Shear Modulus (GPa) = -44.83216 33.85521 -5.48848
#
# Velocity S-wave (km/s) = -4.63861 4.03093 -1.62300
# Velocity P-wave (km/s) = 2.14139 6.95108 4.67611
#
# Compressibility (1/GPa) = 0.01991170
#
# Stress axis : x y z
#
# Youngs Moduli (GPa) = 113.24211 85.20341 123.95941
#
# Poissons Ratio (x) = 0.31241 0.31358
# Poissons Ratio (y) = 0.41521 -0.22746
# Poissons Ratio (z) = 0.28647 -0.15634
#
# Static dielectric constant tensor:
#      x y z
#    x 4.071640 0.000000 0.000000 
#    y 0.000000 3.862340 0.000000 
#    z 0.000000 0.000000 3.845240 
# 
# 
# High freq. dielectric constant tensor:
#      x y z
#    x 1.834170 0.000000 0.000000 
#    y 0.000000 1.821590 0.000000 
#    z 0.000000 0.000000 1.818840 
# 
# From -- ./inp_files/10239.got.cif
#   From: 2010.03.12/outbox.cif.g09.slc.cpg/sg40_6_cif.got.tgz:10239.got - 2010.04.14 01:38:03.
