data_PCOD8183441
_publ_section_title
;
Structure prediction by ZEFSAII (Michael W. Deem and Ramdas Pophale) SiO2 
 PCOD8183441
Probable space group: A M A 2
;
_chemical_formula_sum "Si O2"
_cell_formula_units_Z 44
_cell_length_a 14.165811
_cell_length_b 9.109674
_cell_length_c 16.629559
_cell_angle_alpha 90.000000
_cell_angle_beta 90.000000
_cell_angle_gamma 90.000000
_cell_volume 2145.976743
_symmetry_space_group_name_H-M "A M A 2"
_symmetry_group_IT_number 40
_symmetry_cell_setting 'orthorhombic'
loop_
_space_group_symop_operation_xyz
x,y,z
-x,-y,z
1/2-x,y,z
1/2+x,-y,z
x,1/2+y,1/2+z
-x,1/2-y,1/2+z
1/2-x,1/2+y,1/2+z
1/2+x,1/2-y,1/2+z
loop_
_atom_site_type_symbol
_atom_site_label
_atom_site_fract_x
_atom_site_fract_y
_atom_site_fract_z
Si Si1 0.250000 0.173071 0.752171
Si Si2 0.750000 0.826454 0.143571
Si Si3 0.092003 0.914747 0.415890
Si Si4 0.587921 0.402033 0.364214
Si Si5 0.250000 0.922374 0.534562
Si Si6 0.750000 0.493038 0.804272
Si Si7 0.111223 0.495693 0.539181
Si Si8 0.250000 0.741705 0.072109
O O1 0.338908 0.090964 0.791268
O O2 0.250000 0.346962 0.765504
O O3 0.250000 0.158450 0.657345
O O4 0.750000 0.862516 0.238366
O O5 0.842652 0.894445 0.102660
O O6 0.750000 0.650606 0.124359
O O7 0.055513 0.766454 0.373768
O O8 0.155954 0.862677 0.490714
O O9 0.154577 0.018168 0.356982
O O10 0.000000 0.000000 0.446161
O O11 0.500000 0.500000 0.337833
O O12 0.633968 0.462064 0.447118
O O13 0.250000 0.096730 0.518258
O O14 0.155080 0.334425 0.555926
O O15 0.000000 0.500000 0.555252
#
# Coordination Sequence:
#
# PCOD8183441 Si02
#       8
#     4   4   8   8   4   4   8   4
#     4  10  19  42  61  88 131 157 199 263 313 369
#     4  11  19  41  59  90 126 159 203 252 317 374
#     4  10  22  41  62  90 124 161 213 262 306 367
#     4  10  21  39  66  92 117 165 216 258 306 371
#     4  11  24  38  61  90 128 163 201 269 319 365
#     4   9  20  39  64  85 121 167 204 247 312 375
#     4  10  21  38  65  92 115 164 220 254 299 382
#     4  11  24  40  61  93 128 166 199 257 335 373
#
# _framework density 20.503482999999999
#
# number of rings (size 3 to 8) (size 9 to 14) (size 15 to 20)
#    0.000    1.818    3.636    1.636    5.091    0.727 
#    3.273    0.909    0.000    0.000    0.000    0.000 
#    0.000    0.000    0.000    0.000    0.000    0.000 
#
# Total GULP energy -272673.657814 kJ/mol
# GULP energy per Si atom -12394.257173 kJ/mol
# Density = 2.045682 g / cm^3
# Si number density = 20.503483 Si / 1000 Ang^3
#
#
#
# Elastic Constant Matrix: (Units=GPa)
#
#
# Indices 1 2 3 4 5 6 
#
# 1 143.3345 54.4777 34.8581 0.0000 0.0000 0.0000
# 2 54.4777 110.3529 26.2330 0.0000 0.0000 0.0000
# 3 34.8581 26.2330 101.3438 0.0000 0.0000 0.0000
# 4 0.0000 0.0000 0.0000 38.0715 0.0000 0.0000
# 5 0.0000 0.0000 0.0000 0.0000 -4.9216 0.0000
# 6 0.0000 0.0000 0.0000 0.0000 0.0000 24.5753
#
#
#
# Elastic Compliance Matrix: (Units=1/GPa)
#
#
# Indices 1 2 3 4 5 6 
#
# 1 0.008977 -0.003940 -0.002068 0.000000 0.000000 0.000000
# 2 -0.003940 0.011385 -0.001592 0.000000 0.000000 0.000000
# 3 -0.002068 -0.001592 0.010991 0.000000 0.000000 0.000000
# 4 0.000000 0.000000 0.000000 0.026266 0.000000 0.000000
# 5 0.000000 0.000000 0.000000 0.000000 -0.203187 0.000000
# 6 0.000000 0.000000 0.000000 0.000000 0.000000 0.040691
#
#
# Mechanical properties :
#
#
# Convention : Reuss Voigt Hill
#
# Bulk Modulus (GPa) = 61.90620 65.12989 63.51804
# Shear Modulus (GPa) = -59.31798 27.50921 -15.90438
#
# Velocity S-wave (km/s) = -5.38456 3.66688 -2.78815
# Velocity P-wave (km/s) = 2.89818 7.05423 4.54768
#
# Compressibility (1/GPa) = 0.01615347
#
# Stress axis : x y z
#
# Youngs Moduli (GPa) = 111.39426 87.83193 90.98590
#
# Poissons Ratio (x) = 0.34607 0.18815
# Poissons Ratio (y) = 0.43891 0.14484
# Poissons Ratio (z) = 0.23035 0.13982
#
# Static dielectric constant tensor:
#      x y z
#    x 3.799070 0.000000 0.000000 
#    y 0.000000 3.617370 0.000000 
#    z 0.000000 0.000000 3.666520 
# 
# 
# High freq. dielectric constant tensor:
#      x y z
#    x 1.799360 0.000000 0.000000 
#    y 0.000000 1.801860 0.000000 
#    z 0.000000 0.000000 1.788380 
# 
# From -- ./inp_files/20518.got.cif
#   From: 2010.03.12/outbox.cif.g09.slc.cpg/sg40_11_cif.got.tgz:20518.got - 2010.04.14 01:38:03.
