data_PCOD8183928
_publ_section_title
;
Structure prediction by ZEFSAII (Michael W. Deem and Ramdas Pophale) SiO2 
 PCOD8183928
Probable space group: A M A 2
;
_chemical_formula_sum "Si O2"
_cell_formula_units_Z 64
_cell_length_a 18.068951
_cell_length_b 11.984419
_cell_length_c 15.714219
_cell_angle_alpha 90.000000
_cell_angle_beta 90.000000
_cell_angle_gamma 90.000000
_cell_volume 3402.849377
_symmetry_space_group_name_H-M "A M A 2"
_symmetry_group_IT_number 40
_symmetry_cell_setting 'orthorhombic'
loop_
_space_group_symop_operation_xyz
x,y,z
-x,-y,z
1/2-x,y,z
1/2+x,-y,z
x,1/2+y,1/2+z
-x,1/2-y,1/2+z
1/2-x,1/2+y,1/2+z
1/2+x,1/2-y,1/2+z
loop_
_atom_site_type_symbol
_atom_site_label
_atom_site_fract_x
_atom_site_fract_y
_atom_site_fract_z
Si Si1 0.420494 0.458821 0.994550
Si Si2 0.834363 0.832483 0.550395
Si Si3 0.396726 0.215028 0.720576
Si Si4 0.561977 0.187928 0.653837
Si Si5 0.665431 0.685546 0.398222
Si Si6 0.665841 0.846182 0.240806
Si Si7 0.337309 0.418519 0.821240
Si Si8 0.583854 0.013912 0.796696
O O1 0.500000 0.500000 0.960230
O O2 0.367075 0.431208 0.916653
O O3 0.383544 0.556682 0.049668
O O4 0.431980 0.351521 0.055918
O O5 0.750000 0.862268 0.525611
O O6 0.837710 0.780361 0.644252
O O7 0.865740 0.740229 0.484627
O O8 0.478407 0.215427 0.680205
O O9 0.384519 0.320475 0.779902
O O10 0.380901 0.106238 0.777847
O O11 0.611947 0.298856 0.667171
O O12 0.593040 0.088251 0.712188
O O13 0.750000 0.651676 0.408943
O O14 0.652475 0.776966 0.326076
O O15 0.623425 0.571203 0.376940
O O16 0.750000 0.834233 0.208331
O O17 0.646962 0.973323 0.263550
O O18 0.250000 0.392227 0.825596
O O19 0.500000 0.000000 0.824851
#
# Coordination Sequence:
#
# PCOD8183928 Si02
#       8
#     8   8   8   8   8   8   8   8
#     4  12  22  38  63  94 123 154 201 264 311 362
#     4  11  21  37  61  86 119 158 201 251 301 362
#     4  11  22  39  60  89 126 160 202 250 305 370
#     4  10  20  38  60  91 122 152 205 254 305 365
#     4   9  18  33  57  87 113 147 199 246 289 354
#     4   9  19  36  58  86 121 161 201 246 302 366
#     4  11  25  41  60  92 129 165 206 252 312 375
#     4   9  18  35  58  83 118 153 192 244 296 354
#
# _framework density 18.807766999999998
#
# number of rings (size 3 to 8) (size 9 to 14) (size 15 to 20)
#    0.000    1.750    3.750    1.125    1.750    3.000 
#    0.000    1.250    0.000    0.000    0.000    0.000 
#    0.000    0.000    0.000    0.000    0.000    0.000 
#
# Total GULP energy -396842.643665 kJ/mol
# GULP energy per Si atom -12401.332615 kJ/mol
# Density = 1.876496 g / cm^3
# Si number density = 18.807767 Si / 1000 Ang^3
#
#
#
# Elastic Constant Matrix: (Units=GPa)
#
#
# Indices 1 2 3 4 5 6 
#
# 1 74.4094 46.5918 33.1908 0.0000 0.0000 0.0000
# 2 46.5918 115.4991 45.7864 0.0000 0.0000 0.0000
# 3 33.1908 45.7864 77.1940 0.0000 0.0000 0.0000
# 4 0.0000 0.0000 0.0000 29.1703 0.0000 0.0000
# 5 0.0000 0.0000 0.0000 0.0000 29.0681 0.0000
# 6 0.0000 0.0000 0.0000 0.0000 0.0000 32.8680
#
#
#
# Elastic Compliance Matrix: (Units=1/GPa)
#
#
# Indices 1 2 3 4 5 6 
#
# 1 0.019251 -0.005863 -0.004800 0.000000 0.000000 0.000000
# 2 -0.005863 0.013105 -0.005252 0.000000 0.000000 0.000000
# 3 -0.004800 -0.005252 0.018133 0.000000 0.000000 0.000000
# 4 0.000000 0.000000 0.000000 0.034281 0.000000 0.000000
# 5 0.000000 0.000000 0.000000 0.000000 0.034402 0.000000
# 6 0.000000 0.000000 0.000000 0.000000 0.000000 0.030425
#
#
# Mechanical properties :
#
#
# Convention : Reuss Voigt Hill
#
# Bulk Modulus (GPa) = 53.59143 57.58227 55.58685
# Shear Modulus (GPa) = 26.64554 27.65687 27.15120
#
# Velocity S-wave (km/s) = 3.76803 3.83887 3.80362
# Velocity P-wave (km/s) = 6.89108 7.09450 6.99353
#
# Compressibility (1/GPa) = 0.01865970
#
# Stress axis : x y z
#
# Youngs Moduli (GPa) = 51.94433 76.30458 55.14679
#
# Poissons Ratio (x) = 0.44739 0.26469
# Poissons Ratio (y) = 0.30456 0.28965
# Poissons Ratio (z) = 0.24932 0.40077
#
# Static dielectric constant tensor:
#      x y z
#    x 3.492690 0.000000 0.000000 
#    y 0.000000 3.493530 0.000000 
#    z 0.000000 0.000000 3.301770 
# 
# 
# High freq. dielectric constant tensor:
#      x y z
#    x 1.736450 0.000000 0.000000 
#    y 0.000000 1.723920 0.000000 
#    z 0.000000 0.000000 1.715870 
# 
# From -- ./inp_files/17825.got.cif
#   From: 2010.03.12/outbox.cif.g09.slc.cpg/sg40_9_cif.got.tgz:17825.got - 2010.04.14 01:38:03.
