data_PCOD8183000
_publ_section_title
;
Structure prediction by ZEFSAII (Michael W. Deem and Ramdas Pophale) SiO2 
 PCOD8183000
Probable space group: A M A 2
;
_chemical_formula_sum "Si O2"
_cell_formula_units_Z 64
_cell_length_a 8.984322
_cell_length_b 14.758218
_cell_length_c 27.090480
_cell_angle_alpha 90.000000
_cell_angle_beta 90.000000
_cell_angle_gamma 90.000000
_cell_volume 3591.996709
_symmetry_space_group_name_H-M "A M A 2"
_symmetry_group_IT_number 40
_symmetry_cell_setting 'orthorhombic'
loop_
_space_group_symop_operation_xyz
x,y,z
-x,-y,z
1/2-x,y,z
1/2+x,-y,z
x,1/2+y,1/2+z
-x,1/2-y,1/2+z
1/2-x,1/2+y,1/2+z
1/2+x,1/2-y,1/2+z
loop_
_atom_site_type_symbol
_atom_site_label
_atom_site_fract_x
_atom_site_fract_y
_atom_site_fract_z
Si Si1 0.926572 0.594542 0.127070
Si Si2 0.925319 0.406300 0.735958
Si Si3 0.423518 0.592240 0.850399
Si Si4 0.923267 0.410908 0.396696
Si Si5 0.575819 0.217231 0.426892
Si Si6 0.422888 0.909031 0.514175
Si Si7 0.923825 0.910171 0.784963
Si Si8 0.073401 0.728365 0.201915
O O1 0.750000 0.590220 0.136359
O O2 0.967485 0.614092 0.070088
O O3 0.000000 0.500000 0.144183
O O4 0.000321 0.676688 0.156183
O O5 0.750000 0.409734 0.725174
O O6 0.959880 0.388647 0.793375
O O7 0.000000 0.500000 0.718802
O O8 0.001279 0.327395 0.704179
O O9 0.500000 0.500000 0.868599
O O10 0.250000 0.581958 0.860204
O O11 0.486960 0.675086 0.881496
O O12 0.750000 0.430466 0.396866
O O13 0.964457 0.323720 0.429688
O O14 0.979485 0.392568 0.340749
O O15 0.000000 0.500000 0.419481
O O16 0.750000 0.203692 0.415790
O O17 0.527596 0.173559 0.478935
O O18 0.250000 0.927799 0.509783
O O19 0.500000 0.000000 0.494955
O O20 0.750000 0.927642 0.782595
O O21 0.968971 0.824206 0.752137
O O22 0.000000 0.000000 0.762812
O O23 0.250000 0.735911 0.194311
#
# Coordination Sequence:
#
# PCOD8183000 Si02
#       8
#     8   8   8   8   8   8   8   8
#     4  10  20  35  53  75 103 132 164 204 253 306
#     4  10  21  36  52  72 101 136 171 208 249 294
#     4  10  20  32  48  73 104 136 168 203 245 295
#     4   9  18  32  48  67  95 129 163 200 241 284
#     4  10  19  32  51  73  98 131 170 210 253 299
#     4   9  19  34  52  74 100 130 162 201 251 304
#     4   9  18  30  45  68  98 130 161 196 238 287
#     4  11  21  33  52  76 100 130 169 208 250 301
#
# _framework density 17.817388999999999
#
# number of rings (size 3 to 8) (size 9 to 14) (size 15 to 20)
#    0.000    2.250    0.000    3.000    0.000    7.000 
#    0.000    2.500    0.000    0.750    0.000    1.750 
#    0.000    0.000    0.000    0.000    0.000    0.000 
#
# Total GULP energy -396873.686238 kJ/mol
# GULP energy per Si atom -12402.302695 kJ/mol
# Density = 1.777684 g / cm^3
# Si number density = 17.817389 Si / 1000 Ang^3
#
#
#
# Elastic Constant Matrix: (Units=GPa)
#
#
# Indices 1 2 3 4 5 6 
#
# 1 69.5501 62.0924 38.7535 0.0000 0.0000 0.0000
# 2 62.0924 164.7226 68.2281 0.0000 0.0000 0.0000
# 3 38.7535 68.2281 72.5217 0.0000 0.0000 0.0000
# 4 0.0000 0.0000 0.0000 28.8526 0.0000 0.0000
# 5 0.0000 0.0000 0.0000 0.0000 -5.4095 0.0000
# 6 0.0000 0.0000 0.0000 0.0000 0.0000 34.9946
#
#
#
# Elastic Compliance Matrix: (Units=1/GPa)
#
#
# Indices 1 2 3 4 5 6 
#
# 1 0.023638 -0.006027 -0.006961 0.000000 0.000000 0.000000
# 2 -0.006027 0.011484 -0.007583 0.000000 0.000000 0.000000
# 3 -0.006961 -0.007583 0.024643 0.000000 0.000000 0.000000
# 4 0.000000 0.000000 0.000000 0.034659 0.000000 0.000000
# 5 0.000000 0.000000 0.000000 0.000000 -0.184859 0.000000
# 6 0.000000 0.000000 0.000000 0.000000 0.000000 0.028576
#
#
# Mechanical properties :
#
#
# Convention : Reuss Voigt Hill
#
# Bulk Modulus (GPa) = 53.70052 71.66026 62.68039
# Shear Modulus (GPa) = -344.58876 20.86888 -161.85994
#
# Velocity S-wave (km/s) = -13.92193 3.42609 -9.54154
# Velocity P-wave (km/s) = 15.10702 7.48046 9.28075
#
# Compressibility (1/GPa) = 0.01862179
#
# Stress axis : x y z
#
# Youngs Moduli (GPa) = 42.30555 87.08088 40.57949
#
# Poissons Ratio (x) = 0.52483 0.28248
# Poissons Ratio (y) = 0.25497 0.30772
# Poissons Ratio (z) = 0.29450 0.66034
#
# Static dielectric constant tensor:
#      x y z
#    x 3.313090 0.000000 0.000000 
#    y 0.000000 3.365390 0.000000 
#    z 0.000000 0.000000 3.254460 
# 
# 
# High freq. dielectric constant tensor:
#      x y z
#    x 1.694880 0.000000 0.000000 
#    y 0.000000 1.691120 0.000000 
#    z 0.000000 0.000000 1.666540 
# 
# From -- ./inp_files/24287.got.cif
#   From: 2010.03.12/outbox.cif.g09.slc.cpg/sg40_13_cif.got.tgz:24287.got - 2010.04.14 01:38:03.
