data_PCOD8183204
_publ_section_title
;
Structure prediction by ZEFSAII (Michael W. Deem and Ramdas Pophale) SiO2 
 PCOD8183204
Probable space group: A M A 2
;
_chemical_formula_sum "Si O2"
_cell_formula_units_Z 56
_cell_length_a 8.488100
_cell_length_b 19.134855
_cell_length_c 17.887348
_cell_angle_alpha 90.000000
_cell_angle_beta 90.000000
_cell_angle_gamma 90.000000
_cell_volume 2905.237353
_symmetry_space_group_name_H-M "A M A 2"
_symmetry_group_IT_number 40
_symmetry_cell_setting 'orthorhombic'
loop_
_space_group_symop_operation_xyz
x,y,z
-x,-y,z
1/2-x,y,z
1/2+x,-y,z
x,1/2+y,1/2+z
-x,1/2-y,1/2+z
1/2-x,1/2+y,1/2+z
1/2+x,1/2-y,1/2+z
loop_
_atom_site_type_symbol
_atom_site_label
_atom_site_fract_x
_atom_site_fract_y
_atom_site_fract_z
Si Si1 0.435899 0.077099 0.490070
Si Si2 0.067684 0.662283 0.849837
Si Si3 0.067125 0.212553 0.933828
Si Si4 0.930170 0.196154 0.192495
Si Si5 0.930093 0.203116 0.580571
Si Si6 0.437065 0.432072 0.451492
Si Si7 0.933093 0.929621 0.112775
O O1 0.250000 0.073472 0.487768
O O2 0.499890 0.104286 0.408807
O O3 0.481942 0.132255 0.555073
O O4 0.500000 0.000000 0.507871
O O5 0.250000 0.648604 0.836760
O O6 0.037459 0.737413 0.883955
O O7 0.987194 0.662182 0.769697
O O8 0.250000 0.215012 0.910110
O O9 0.046469 0.234353 0.020487
O O10 0.989599 0.138881 0.912014
O O11 0.750000 0.216335 0.199607
O O12 0.013020 0.266969 0.161130
O O13 0.958438 0.135035 0.134016
O O14 0.750000 0.181497 0.588249
O O15 0.500000 0.500000 0.404472
O O16 0.250000 0.433556 0.466535
O O17 0.546375 0.436544 0.524750
O O18 0.750000 0.917427 0.133764
O O19 0.000000 0.000000 0.152390
#
# Coordination Sequence:
#
# PCOD8183204 Si02
#       7
#     8   8   8   8   8   8   8
#     4  10  21  38  61  87 116 150 193 241 291 346
#     4  10  22  38  56  80 112 149 189 233 284 340
#     4  10  19  34  55  79 107 140 182 230 277 329
#     4  12  23  36  55  81 114 151 191 233 283 340
#     4  10  20  35  58  83 111 146 188 236 285 335
#     4  11  20  31  50  76 106 139 176 219 266 316
#     4  11  21  34  50  74 107 143 180 220 266 318
#
# _framework density 19.275534
#
# number of rings (size 3 to 8) (size 9 to 14) (size 15 to 20)
#    0.000    1.429    1.429    6.429    0.000    3.429 
#    0.000    1.429    0.000    0.857    0.000    6.000 
#    0.000    0.000    0.000    0.000    0.000    0.000 
#
# Total GULP energy -347002.500486 kJ/mol
# GULP energy per Si atom -12392.946446 kJ/mol
# Density = 1.923166 g / cm^3
# Si number density = 19.275534 Si / 1000 Ang^3
#
#
#
# Elastic Constant Matrix: (Units=GPa)
#
#
# Indices 1 2 3 4 5 6 
#
# 1 84.3475 19.7243 13.1751 0.0000 0.0000 0.0000
# 2 19.7243 123.3731 20.0066 0.0000 0.0000 0.0000
# 3 13.1751 20.0066 34.6983 0.0000 0.0000 0.0000
# 4 0.0000 0.0000 0.0000 15.4323 0.0000 0.0000
# 5 0.0000 0.0000 0.0000 0.0000 22.0943 0.0000
# 6 0.0000 0.0000 0.0000 0.0000 0.0000 34.6328
#
#
#
# Elastic Compliance Matrix: (Units=1/GPa)
#
#
# Indices 1 2 3 4 5 6 
#
# 1 0.012816 -0.001390 -0.004065 0.000000 0.000000 0.000000
# 2 -0.001390 0.009092 -0.004715 0.000000 0.000000 0.000000
# 3 -0.004065 -0.004715 0.033082 0.000000 0.000000 0.000000
# 4 0.000000 0.000000 0.000000 0.064799 0.000000 0.000000
# 5 0.000000 0.000000 0.000000 0.000000 0.045261 0.000000
# 6 0.000000 0.000000 0.000000 0.000000 0.000000 0.028874
#
#
# Mechanical properties :
#
#
# Convention : Reuss Voigt Hill
#
# Bulk Modulus (GPa) = 28.85924 38.69232 33.77578
# Shear Modulus (GPa) = 22.14224 27.06608 24.60416
#
# Velocity S-wave (km/s) = 3.39296 3.75129 3.57661
# Velocity P-wave (km/s) = 5.50945 6.23536 5.88361
#
# Compressibility (1/GPa) = 0.03465095
#
# Stress axis : x y z
#
# Youngs Moduli (GPa) = 78.02969 109.98379 30.22807
#
# Poissons Ratio (x) = 0.15285 0.12287
# Poissons Ratio (y) = 0.10844 0.14252
# Poissons Ratio (z) = 0.31718 0.51855
#
# Static dielectric constant tensor:
#      x y z
#    x 3.540770 0.000000 0.000000 
#    y 0.000000 3.005020 0.000000 
#    z 0.000000 0.000000 3.432880 
# 
# 
# High freq. dielectric constant tensor:
#      x y z
#    x 1.763790 0.000000 0.000000 
#    y 0.000000 1.760520 0.000000 
#    z 0.000000 0.000000 1.706860 
# 
# From -- ./inp_files/22296.got.cif
#   From: 2010.03.12/outbox.cif.g09.slc.cpg/sg40_12_cif.got.tgz:22296.got - 2010.04.14 01:38:03.
