data_PCOD8183679
_publ_section_title
;
Structure prediction by ZEFSAII (Michael W. Deem and Ramdas Pophale) SiO2 
 PCOD8183679
Probable space group: A M A 2
;
_chemical_formula_sum "Si O2"
_cell_formula_units_Z 48
_cell_length_a 17.664075
_cell_length_b 17.543813
_cell_length_c 9.114340
_cell_angle_alpha 90.000000
_cell_angle_beta 90.000000
_cell_angle_gamma 90.000000
_cell_volume 2824.490478
_symmetry_space_group_name_H-M "A M A 2"
_symmetry_group_IT_number 40
_symmetry_cell_setting 'orthorhombic'
loop_
_space_group_symop_operation_xyz
x,y,z
-x,-y,z
1/2-x,y,z
1/2+x,-y,z
x,1/2+y,1/2+z
-x,1/2-y,1/2+z
1/2-x,1/2+y,1/2+z
1/2+x,1/2-y,1/2+z
loop_
_atom_site_type_symbol
_atom_site_label
_atom_site_fract_x
_atom_site_fract_y
_atom_site_fract_z
Si Si1 0.960254 0.666950 0.658480
Si Si2 0.163195 0.580591 0.928560
Si Si3 0.936240 0.437615 0.489416
Si Si4 0.836882 0.036683 0.172532
Si Si5 0.459695 0.695269 0.947791
Si Si6 0.052535 0.072649 0.667197
O O1 0.888320 0.611903 0.676736
O O2 0.940064 0.725806 0.528699
O O3 0.036323 0.622930 0.610028
O O4 0.979292 0.705585 0.816276
O O5 0.250000 0.604453 0.938919
O O6 0.149883 0.509676 0.821406
O O7 0.116819 0.656888 0.880874
O O8 0.131747 0.552667 0.086362
O O9 0.859400 0.479367 0.540566
O O10 0.925471 0.398617 0.330381
O O11 0.000000 0.500000 0.472583
O O12 0.750000 0.061687 0.151863
O O13 0.491660 0.638658 0.075652
O O14 0.000000 0.000000 0.671557
#
# Coordination Sequence:
#
# PCOD8183679 Si02
#       6
#     8   8   8   8   8   8
#     4  11  20  35  55  81 112 146 187 235 279 333
#     4   9  19  34  52  78 106 145 184 224 275 330
#     4   9  17  31  53  79 108 138 187 229 264 321
#     4  10  20  35  57  81 108 149 189 227 278 335
#     4  10  21  32  56  78 112 144 183 234 279 323
#     4   9  17  31  53  81 106 142 182 230 265 326
#
# _framework density 16.994216000000002
#
# number of rings (size 3 to 8) (size 9 to 14) (size 15 to 20)
#    1.000    1.333    1.667    2.000    0.000    1.333 
#    0.000    0.000    0.000    1.000    0.000    0.000 
#    0.000    0.000    0.000    0.000    0.000    0.000 
#
# Total GULP energy -297323.450064 kJ/mol
# GULP energy per Si atom -12388.477086 kJ/mol
# Density = 1.695554 g / cm^3
# Si number density = 16.994216 Si / 1000 Ang^3
#
#
#
# Elastic Constant Matrix: (Units=GPa)
#
#
# Indices 1 2 3 4 5 6 
#
# 1 96.8016 47.9371 44.9441 0.0000 0.0000 0.0000
# 2 47.9371 85.1342 32.5530 0.0000 0.0000 0.0000
# 3 44.9441 32.5530 115.2217 0.0000 0.0000 0.0000
# 4 0.0000 0.0000 0.0000 32.4849 0.0000 0.0000
# 5 0.0000 0.0000 0.0000 0.0000 9.9024 0.0000
# 6 0.0000 0.0000 0.0000 0.0000 0.0000 17.5934
#
#
#
# Elastic Compliance Matrix: (Units=1/GPa)
#
#
# Indices 1 2 3 4 5 6 
#
# 1 0.015894 -0.007376 -0.004116 0.000000 0.000000 0.000000
# 2 -0.007376 0.016592 -0.001811 0.000000 0.000000 0.000000
# 3 -0.004116 -0.001811 0.010796 0.000000 0.000000 0.000000
# 4 0.000000 0.000000 0.000000 0.030784 0.000000 0.000000
# 5 0.000000 0.000000 0.000000 0.000000 0.100986 0.000000
# 6 0.000000 0.000000 0.000000 0.000000 0.000000 0.056840
#
#
# Mechanical properties :
#
#
# Convention : Reuss Voigt Hill
#
# Bulk Modulus (GPa) = 59.96211 60.89176 60.42694
# Shear Modulus (GPa) = 18.93556 23.44435 21.18995
#
# Velocity S-wave (km/s) = 3.34164 3.71826 3.53497
# Velocity P-wave (km/s) = 7.08866 7.37174 7.23159
#
# Compressibility (1/GPa) = 0.01667720
#
# Stress axis : x y z
#
# Youngs Moduli (GPa) = 62.91740 60.27176 92.62789
#
# Poissons Ratio (x) = 0.44454 0.38124
# Poissons Ratio (y) = 0.46406 0.16770
# Poissons Ratio (z) = 0.25896 0.10912
#
# Static dielectric constant tensor:
#      x y z
#    x 2.993830 0.000000 0.000000 
#    y 0.000000 3.061740 0.000000 
#    z 0.000000 0.000000 3.501580 
# 
# 
# High freq. dielectric constant tensor:
#      x y z
#    x 1.629400 0.000000 0.000000 
#    y 0.000000 1.645040 0.000000 
#    z 0.000000 0.000000 1.668020 
# 
# From -- ./inp_files/7466.got.cif
#   From: 2010.03.12/outbox.cif.g09.slc.cpg/sg40_4_cif.got.tgz:7466.got - 2010.04.14 01:38:03.
