data_PCOD8183726
_publ_section_title
;
Structure prediction by ZEFSAII (Michael W. Deem and Ramdas Pophale) SiO2 
 PCOD8183726
Probable space group: A M A 2
;
_chemical_formula_sum "Si O2"
_cell_formula_units_Z 48
_cell_length_a 22.233516
_cell_length_b 7.597092
_cell_length_c 13.034788
_cell_angle_alpha 90.000000
_cell_angle_beta 90.000000
_cell_angle_gamma 90.000000
_cell_volume 2201.706908
_symmetry_space_group_name_H-M "A M A 2"
_symmetry_group_IT_number 40
_symmetry_cell_setting 'orthorhombic'
loop_
_space_group_symop_operation_xyz
x,y,z
-x,-y,z
1/2-x,y,z
1/2+x,-y,z
x,1/2+y,1/2+z
-x,1/2-y,1/2+z
1/2-x,1/2+y,1/2+z
1/2+x,1/2-y,1/2+z
loop_
_atom_site_type_symbol
_atom_site_label
_atom_site_fract_x
_atom_site_fract_y
_atom_site_fract_z
Si Si1 0.750000 0.502418 0.843421
Si Si2 0.250000 0.893039 0.910811
Si Si3 0.500000 0.500000 0.345920
Si Si4 0.623572 0.991526 0.412164
Si Si5 0.374852 0.101934 0.640582
Si Si6 0.123547 0.406115 0.345056
Si Si7 0.959953 0.160286 0.249674
Si Si8 0.250000 0.284062 0.639487
O O1 0.750000 0.291136 0.849836
O O2 0.690194 0.576628 0.899648
O O3 0.750000 0.566179 0.725927
O O4 0.187494 0.992598 0.880763
O O5 0.250000 0.882852 0.032242
O O6 0.435282 0.488843 0.406259
O O7 0.497330 0.323954 0.276559
O O8 0.606137 0.978312 0.531330
O O9 0.625621 0.801162 0.359561
O O10 0.574569 0.108485 0.354570
O O11 0.413159 0.280075 0.661825
O O12 0.305673 0.153166 0.643983
O O13 0.387794 0.954997 0.726249
O O14 0.000000 0.000000 0.207132
#
# Coordination Sequence:
#
# PCOD8183726 Si02
#       8
#     4   4   4   8   8   8   8   4
#     4  10  20  35  68  93 127 172 214 278 342 404
#     4  10  21  40  65  89 131 180 221 281 340 409
#     4  10  22  42  68 100 136 180 228 278 344 406
#     4  11  21  44  67  95 132 178 224 279 348 401
#     4  11  23  40  68  98 129 176 228 279 340 415
#     4  10  21  41  66  92 133 174 223 284 333 402
#     4  11  23  44  68  94 141 181 224 289 340 403
#     4  12  19  37  67  94 130 174 221 273 354 403
#
# _framework density 21.801266999999999
#
# number of rings (size 3 to 8) (size 9 to 14) (size 15 to 20)
#    0.000    1.333    6.667    0.500    0.000    0.000 
#    7.500   10.000    0.000    0.000    0.000    0.000 
#    0.000    0.000    0.000    0.000    0.000    0.000 
#
# Total GULP energy -297387.841039 kJ/mol
# GULP energy per Si atom -12391.160043 kJ/mol
# Density = 2.175165 g / cm^3
# Si number density = 21.801267 Si / 1000 Ang^3
#
#
#
# Elastic Constant Matrix: (Units=GPa)
#
#
# Indices 1 2 3 4 5 6 
#
# 1 172.6209 22.2395 30.8127 0.0000 0.0000 0.0000
# 2 22.2395 69.7747 32.8389 0.0000 0.0000 0.0000
# 3 30.8127 32.8389 140.8936 0.0000 0.0000 0.0000
# 4 0.0000 0.0000 0.0000 33.2391 0.0000 0.0000
# 5 0.0000 0.0000 0.0000 0.0000 13.6773 0.0000
# 6 0.0000 0.0000 0.0000 0.0000 0.0000 31.6427
#
#
#
# Elastic Compliance Matrix: (Units=1/GPa)
#
#
# Indices 1 2 3 4 5 6 
#
# 1 0.006164 -0.001494 -0.001000 0.000000 0.000000 0.000000
# 2 -0.001494 0.016460 -0.003510 0.000000 0.000000 0.000000
# 3 -0.001000 -0.003510 0.008134 0.000000 0.000000 0.000000
# 4 0.000000 0.000000 0.000000 0.030085 0.000000 0.000000
# 5 0.000000 0.000000 0.000000 0.000000 0.073114 0.000000
# 6 0.000000 0.000000 0.000000 0.000000 0.000000 0.031603
#
#
# Mechanical properties :
#
#
# Convention : Reuss Voigt Hill
#
# Bulk Modulus (GPa) = 53.33059 61.67458 57.50258
# Shear Modulus (GPa) = 27.20091 35.53835 31.36963
#
# Velocity S-wave (km/s) = 3.53608 4.04184 3.79739
# Velocity P-wave (km/s) = 6.41771 7.08045 6.75721
#
# Compressibility (1/GPa) = 0.01875097
#
# Stress axis : x y z
#
# Youngs Moduli (GPa) = 162.23237 60.75387 122.93752
#
# Poissons Ratio (x) = 0.09077 0.12291
# Poissons Ratio (y) = 0.24240 0.43147
# Poissons Ratio (z) = 0.16220 0.21322
#
# Static dielectric constant tensor:
#      x y z
#    x 4.883190 0.000000 0.000000 
#    y 0.000000 3.722210 0.000000 
#    z 0.000000 0.000000 3.756070 
# 
# 
# High freq. dielectric constant tensor:
#      x y z
#    x 1.896440 0.000000 0.000000 
#    y 0.000000 1.841480 0.000000 
#    z 0.000000 0.000000 1.822740 
# 
# From -- ./inp_files/13960.got.cif
#   From: 2010.03.12/outbox.cif.g09.slc.cpg/sg40_7_cif.got.tgz:13960.got - 2010.04.14 01:38:03.
