data_PCOD8183369
_publ_section_title
;
Structure prediction by ZEFSAII (Michael W. Deem and Ramdas Pophale) SiO2 
 PCOD8183369
Probable space group: A M A 2
;
_chemical_formula_sum "Si O2"
_cell_formula_units_Z 36
_cell_length_a 21.336837
_cell_length_b 12.151100
_cell_length_c 7.687197
_cell_angle_alpha 90.000000
_cell_angle_beta 90.000000
_cell_angle_gamma 90.000000
_cell_volume 1993.029125
_symmetry_space_group_name_H-M "A M A 2"
_symmetry_group_IT_number 40
_symmetry_cell_setting 'orthorhombic'
loop_
_space_group_symop_operation_xyz
x,y,z
-x,-y,z
1/2-x,y,z
1/2+x,-y,z
x,1/2+y,1/2+z
-x,1/2-y,1/2+z
1/2-x,1/2+y,1/2+z
1/2+x,1/2-y,1/2+z
loop_
_atom_site_type_symbol
_atom_site_label
_atom_site_fract_x
_atom_site_fract_y
_atom_site_fract_z
Si Si1 0.500000 0.500000 0.640031
Si Si2 0.178961 0.201009 0.689811
Si Si3 0.678769 0.429972 0.845235
Si Si4 0.402925 0.867321 0.344338
Si Si5 0.392207 0.644923 0.507290
O O1 0.468228 0.408973 0.764609
O O2 0.451291 0.563144 0.515951
O O3 0.250000 0.222880 0.749082
O O4 0.175970 0.159078 0.495631
O O5 0.139958 0.315012 0.690805
O O6 0.147639 0.117748 0.832419
O O7 0.750000 0.468187 0.809974
O O8 0.636924 0.530395 0.916227
O O9 0.650923 0.372584 0.674761
O O10 0.414426 0.774183 0.494053
#
# Coordination Sequence:
#
# PCOD8183369 Si02
#       5
#     4   8   8   8   8
#     4  10  20  40  56  82 114 158 198 230 282 342
#     4   9  19  38  59  88 116 142 189 239 287 343
#     4  10  19  36  61  84 114 147 182 233 294 344
#     4   9  21  38  57  82 115 150 190 238 278 337
#     4   9  21  39  57  81 118 150 190 234 285 333
#
# _framework density 18.062957999999998
#
# number of rings (size 3 to 8) (size 9 to 14) (size 15 to 20)
#    1.333    1.333    0.000    1.333    0.000    3.556 
#   12.000    1.111    0.000    0.000    0.000    0.000 
#    0.000    0.000    0.000    0.000    0.000    0.000 
#
# Total GULP energy -223014.298360 kJ/mol
# GULP energy per Si atom -12389.683242 kJ/mol
# Density = 1.802185 g / cm^3
# Si number density = 18.062958 Si / 1000 Ang^3
#
#
#
# Elastic Constant Matrix: (Units=GPa)
#
#
# Indices 1 2 3 4 5 6 
#
# 1 117.7268 30.5329 38.6925 0.0000 0.0000 0.0000
# 2 30.5329 73.9872 18.7015 0.0000 0.0000 0.0000
# 3 38.6925 18.7015 77.1312 0.0000 0.0000 0.0000
# 4 0.0000 0.0000 0.0000 30.0317 0.0000 0.0000
# 5 0.0000 0.0000 0.0000 0.0000 12.6489 0.0000
# 6 0.0000 0.0000 0.0000 0.0000 0.0000 35.0678
#
#
#
# Elastic Compliance Matrix: (Units=1/GPa)
#
#
# Indices 1 2 3 4 5 6 
#
# 1 0.010884 -0.003315 -0.004656 0.000000 0.000000 0.000000
# 2 -0.003315 0.015408 -0.002073 0.000000 0.000000 0.000000
# 3 -0.004656 -0.002073 0.015803 0.000000 0.000000 0.000000
# 4 0.000000 0.000000 0.000000 0.033298 0.000000 0.000000
# 5 0.000000 0.000000 0.000000 0.000000 0.079058 0.000000
# 6 0.000000 0.000000 0.000000 0.000000 0.000000 0.028516
#
#
# Mechanical properties :
#
#
# Convention : Reuss Voigt Hill
#
# Bulk Modulus (GPa) = 45.43954 49.41099 47.42527
# Shear Modulus (GPa) = 23.76514 27.61088 25.68801
#
# Velocity S-wave (km/s) = 3.63117 3.91396 3.77522
# Velocity P-wave (km/s) = 6.54151 6.91663 6.73168
#
# Compressibility (1/GPa) = 0.02200727
#
# Stress axis : x y z
#
# Youngs Moduli (GPa) = 91.87534 64.90235 63.27751
#
# Poissons Ratio (x) = 0.21513 0.29464
# Poissons Ratio (y) = 0.30454 0.13117
# Poissons Ratio (z) = 0.42781 0.13454
#
# Static dielectric constant tensor:
#      x y z
#    x 3.492100 0.000000 0.000000 
#    y 0.000000 3.247010 0.000000 
#    z 0.000000 0.000000 3.005350 
# 
# 
# High freq. dielectric constant tensor:
#      x y z
#    x 1.713970 0.000000 0.000000 
#    y 0.000000 1.694340 0.000000 
#    z 0.000000 0.000000 1.679870 
# 
# From -- ./inp_files/2585.got.cif
#   From: 2010.03.12/outbox.cif.g09.slc.cpg/sg40_2_cif.got.tgz:2585.got - 2010.04.14 01:38:03.
