data_PCOD8183337
_publ_section_title
;
Structure prediction by ZEFSAII (Michael W. Deem and Ramdas Pophale) SiO2 
 PCOD8183337
Probable space group: A M A 2
;
_chemical_formula_sum "Si O2"
_cell_formula_units_Z 48
_cell_length_a 13.797059
_cell_length_b 11.188646
_cell_length_c 16.239120
_cell_angle_alpha 90.000000
_cell_angle_beta 90.000000
_cell_angle_gamma 90.000000
_cell_volume 2506.839596
_symmetry_space_group_name_H-M "A M A 2"
_symmetry_group_IT_number 40
_symmetry_cell_setting 'orthorhombic'
loop_
_space_group_symop_operation_xyz
x,y,z
-x,-y,z
1/2-x,y,z
1/2+x,-y,z
x,1/2+y,1/2+z
-x,1/2-y,1/2+z
1/2-x,1/2+y,1/2+z
1/2+x,1/2-y,1/2+z
loop_
_atom_site_type_symbol
_atom_site_label
_atom_site_fract_x
_atom_site_fract_y
_atom_site_fract_z
Si Si1 0.608953 0.459108 0.369810
Si Si2 0.861535 0.750407 0.758055
Si Si3 0.643588 0.186696 0.952170
Si Si4 0.860160 0.272939 0.517116
Si Si5 0.474446 0.867511 0.113108
Si Si6 0.478272 0.363998 0.903599
O O1 0.500000 0.500000 0.369195
O O2 0.635328 0.391653 0.283877
O O3 0.665916 0.582354 0.384991
O O4 0.631932 0.369191 0.444144
O O5 0.750000 0.708608 0.751714
O O6 0.915351 0.720352 0.673039
O O7 0.918732 0.675226 0.824745
O O8 0.750000 0.237969 0.977426
O O9 0.578463 0.290655 0.912631
O O10 0.588301 0.125814 0.029301
O O11 0.750000 0.249941 0.543434
O O12 0.909989 0.151767 0.483656
O O13 0.919438 0.311858 0.597529
O O14 0.500000 0.000000 0.147520
O O15 0.500000 0.500000 0.891599
#
# Coordination Sequence:
#
# PCOD8183337 Si02
#       6
#     8   8   8   8   8   8
#     4  11  17  37  63  90 116 151 202 252 294 357
#     4  11  23  37  57  85 122 159 191 243 312 361
#     4  11  20  35  64  94 116 154 210 258 298 354
#     4  10  19  35  63  88 112 152 200 249 300 351
#     4  11  21  37  57  91 125 155 198 254 300 355
#     4  10  21  38  57  84 120 157 201 249 293 359
#
# _framework density 19.147615999999999
#
# number of rings (size 3 to 8) (size 9 to 14) (size 15 to 20)
#    0.000    1.333    6.667    4.000    0.000    2.000 
#    0.000    4.167    0.000    4.000    0.000    0.000 
#    0.000    0.000    0.000    0.000    0.000    0.000 
#
# Total GULP energy -297360.830348 kJ/mol
# GULP energy per Si atom -12390.034598 kJ/mol
# Density = 1.910403 g / cm^3
# Si number density = 19.147616 Si / 1000 Ang^3
#
#
#
# Elastic Constant Matrix: (Units=GPa)
#
#
# Indices 1 2 3 4 5 6 
#
# 1 174.3350 34.6869 35.5746 0.0000 0.0000 0.0000
# 2 34.6869 100.2804 36.9657 0.0000 0.0000 0.0000
# 3 35.5746 36.9657 67.7280 0.0000 0.0000 0.0000
# 4 0.0000 0.0000 0.0000 16.9172 0.0000 0.0000
# 5 0.0000 0.0000 0.0000 0.0000 19.1490 0.0000
# 6 0.0000 0.0000 0.0000 0.0000 0.0000 11.8517
#
#
#
# Elastic Compliance Matrix: (Units=1/GPa)
#
#
# Indices 1 2 3 4 5 6 
#
# 1 0.006547 -0.001248 -0.002758 0.000000 0.000000 0.000000
# 2 -0.001248 0.012722 -0.006288 0.000000 0.000000 0.000000
# 3 -0.002758 -0.006288 0.019645 0.000000 0.000000 0.000000
# 4 0.000000 0.000000 0.000000 0.059111 0.000000 0.000000
# 5 0.000000 0.000000 0.000000 0.000000 0.052222 0.000000
# 6 0.000000 0.000000 0.000000 0.000000 0.000000 0.084376
#
#
# Mechanical properties :
#
#
# Convention : Reuss Voigt Hill
#
# Bulk Modulus (GPa) = 54.56500 61.86642 58.21571
# Shear Modulus (GPa) = 19.13365 25.25800 22.19583
#
# Velocity S-wave (km/s) = 3.16455 3.63591 3.40839
# Velocity P-wave (km/s) = 6.47390 7.07155 6.77932
#
# Compressibility (1/GPa) = 0.01832677
#
# Stress axis : x y z
#
# Youngs Moduli (GPa) = 152.73815 78.60649 50.90266
#
# Poissons Ratio (x) = 0.09811 0.14038
# Poissons Ratio (y) = 0.19063 0.32007
# Poissons Ratio (z) = 0.42121 0.49426
#
# Static dielectric constant tensor:
#      x y z
#    x 3.823350 0.000000 0.000000 
#    y 0.000000 3.674300 0.000000 
#    z 0.000000 0.000000 3.503100 
# 
# 
# High freq. dielectric constant tensor:
#      x y z
#    x 1.768690 0.000000 0.000000 
#    y 0.000000 1.731040 0.000000 
#    z 0.000000 0.000000 1.712250 
# 
# From -- ./inp_files/16968.got.cif
#   From: 2010.03.12/outbox.cif.g09.slc.cpg/sg40_9_cif.got.tgz:16968.got - 2010.04.14 01:38:03.
