data_PCOD8183806
_publ_section_title
;
Structure prediction by ZEFSAII (Michael W. Deem and Ramdas Pophale) SiO2 
 PCOD8183806
Probable space group: A M A 2
;
_chemical_formula_sum "Si O2"
_cell_formula_units_Z 64
_cell_length_a 8.553533
_cell_length_b 24.695210
_cell_length_c 15.046321
_cell_angle_alpha 90.000000
_cell_angle_beta 90.000000
_cell_angle_gamma 90.000000
_cell_volume 3178.253850
_symmetry_space_group_name_H-M "A M A 2"
_symmetry_group_IT_number 40
_symmetry_cell_setting 'orthorhombic'
loop_
_space_group_symop_operation_xyz
x,y,z
-x,-y,z
1/2-x,y,z
1/2+x,-y,z
x,1/2+y,1/2+z
-x,1/2-y,1/2+z
1/2-x,1/2+y,1/2+z
1/2+x,1/2-y,1/2+z
loop_
_atom_site_type_symbol
_atom_site_label
_atom_site_fract_x
_atom_site_fract_y
_atom_site_fract_z
Si Si1 0.934910 0.559676 0.283170
Si Si2 0.931686 0.356073 0.145931
Si Si3 0.068960 0.257928 0.240913
Si Si4 0.931743 0.144110 0.267430
Si Si5 0.430053 0.337135 0.968707
Si Si6 0.930784 0.282732 0.422831
Si Si7 0.933478 0.109775 0.970629
Si Si8 0.432686 0.056663 0.141377
O O1 0.750000 0.559433 0.274313
O O2 0.988160 0.583198 0.378167
O O3 0.000000 0.500000 0.272363
O O4 0.005718 0.594890 0.204261
O O5 0.750000 0.348511 0.164548
O O6 0.022746 0.300402 0.165376
O O7 0.964895 0.367970 0.041731
O O8 0.250000 0.242787 0.232005
O O9 0.967455 0.203794 0.230099
O O10 0.036253 0.286919 0.334815
O O11 0.750000 0.131740 0.250998
O O12 0.976190 0.141037 0.371361
O O13 0.036336 0.100807 0.216881
O O14 0.250000 0.349708 0.988735
O O15 0.464134 0.272849 0.974360
O O16 0.750000 0.285751 0.394117
O O17 0.977793 0.333062 0.485103
O O18 0.750000 0.120342 0.972988
O O19 0.980805 0.070321 0.049768
O O20 0.250000 0.052288 0.122762
O O21 0.500000 0.000000 0.176653
#
# Coordination Sequence:
#
# PCOD8183806 Si02
#       8
#     8   8   8   8   8   8   8   8
#     4  11  24  42  64  90 124 165 209 258 310 369
#     4  12  24  38  61  91 126 166 210 258 308 370
#     4  11  21  36  59  89 126 164 205 252 307 369
#     4  10  22  43  67  92 123 161 208 261 317 375
#     4   9  21  40  62  89 126 164 204 257 313 371
#     4  10  20  36  59  89 126 165 207 251 305 369
#     4  11  23  39  62  92 127 167 209 255 309 373
#     4  12  26  44  66  92 125 164 210 264 314 374
#
# _framework density 20.136842999999999
#
# number of rings (size 3 to 8) (size 9 to 14) (size 15 to 20)
#    0.000    1.250    1.250    6.000    1.750    5.500 
#    0.000    0.625    0.000    3.000    0.000    0.000 
#    0.000    0.000    0.000    0.000    0.000    0.000 
#
# Total GULP energy -396995.281760 kJ/mol
# GULP energy per Si atom -12406.102555 kJ/mol
# Density = 2.009101 g / cm^3
# Si number density = 20.136843 Si / 1000 Ang^3
#
#
#
# Elastic Constant Matrix: (Units=GPa)
#
#
# Indices 1 2 3 4 5 6 
#
# 1 83.1705 23.5598 37.6832 0.0000 0.0000 0.0000
# 2 23.5598 103.5638 53.5030 0.0000 0.0000 0.0000
# 3 37.6832 53.5030 108.7827 0.0000 0.0000 0.0000
# 4 0.0000 0.0000 0.0000 16.9994 0.0000 0.0000
# 5 0.0000 0.0000 0.0000 0.0000 29.1122 0.0000
# 6 0.0000 0.0000 0.0000 0.0000 0.0000 34.9250
#
#
#
# Elastic Compliance Matrix: (Units=1/GPa)
#
#
# Indices 1 2 3 4 5 6 
#
# 1 0.014329 -0.000932 -0.004505 0.000000 0.000000 0.000000
# 2 -0.000932 0.013006 -0.006074 0.000000 0.000000 0.000000
# 3 -0.004505 -0.006074 0.013741 0.000000 0.000000 0.000000
# 4 0.000000 0.000000 0.000000 0.058826 0.000000 0.000000
# 5 0.000000 0.000000 0.000000 0.000000 0.034350 0.000000
# 6 0.000000 0.000000 0.000000 0.000000 0.000000 0.028633
#
#
# Mechanical properties :
#
#
# Convention : Reuss Voigt Hill
#
# Bulk Modulus (GPa) = 55.39279 58.33433 56.86356
# Shear Modulus (GPa) = 26.05211 28.25873 27.15542
#
# Velocity S-wave (km/s) = 3.60078 3.75018 3.67624
# Velocity P-wave (km/s) = 6.69742 6.91257 6.80584
#
# Compressibility (1/GPa) = 0.01805289
#
# Stress axis : x y z
#
# Youngs Moduli (GPa) = 69.78975 76.88897 72.77748
#
# Poissons Ratio (x) = 0.07168 0.32787
# Poissons Ratio (y) = 0.06506 0.44203
# Poissons Ratio (z) = 0.31441 0.46700
#
# Static dielectric constant tensor:
#      x y z
#    x 3.641300 0.000000 0.000000 
#    y 0.000000 3.608900 0.000000 
#    z 0.000000 0.000000 3.658930 
# 
# 
# High freq. dielectric constant tensor:
#      x y z
#    x 1.795960 0.000000 0.000000 
#    y 0.000000 1.779620 0.000000 
#    z 0.000000 0.000000 1.787050 
# 
# From -- ./inp_files/15636.got.cif
#   From: 2010.03.12/outbox.cif.g09.slc.cpg/sg40_8_cif.got.tgz:15636.got - 2010.04.14 01:38:03.
