data_PCOD8183221
_publ_section_title
;
Structure prediction by ZEFSAII (Michael W. Deem and Ramdas Pophale) SiO2 
 PCOD8183221
Probable space group: A M A 2
;
_chemical_formula_sum "Si O2"
_cell_formula_units_Z 64
_cell_length_a 8.934644
_cell_length_b 18.324231
_cell_length_c 20.636933
_cell_angle_alpha 90.000000
_cell_angle_beta 90.000000
_cell_angle_gamma 90.000000
_cell_volume 3378.688588
_symmetry_space_group_name_H-M "A M A 2"
_symmetry_group_IT_number 40
_symmetry_cell_setting 'orthorhombic'
loop_
_space_group_symop_operation_xyz
x,y,z
-x,-y,z
1/2-x,y,z
1/2+x,-y,z
x,1/2+y,1/2+z
-x,1/2-y,1/2+z
1/2-x,1/2+y,1/2+z
1/2+x,1/2-y,1/2+z
loop_
_atom_site_type_symbol
_atom_site_label
_atom_site_fract_x
_atom_site_fract_y
_atom_site_fract_z
Si Si1 0.072687 0.182375 0.941990
Si Si2 0.917235 0.644709 0.088469
Si Si3 0.427862 0.923932 0.320308
Si Si4 0.426770 0.646537 0.217056
Si Si5 0.925733 0.687001 0.712427
Si Si6 0.428061 0.923457 0.839664
Si Si7 0.914623 0.318067 0.585839
Si Si8 0.427747 0.347412 0.948291
O O1 0.250000 0.175619 0.927297
O O2 0.015168 0.265474 0.934258
O O3 0.978390 0.135820 0.891750
O O4 0.034630 0.154004 0.014806
O O5 0.750000 0.613598 0.101390
O O6 0.910249 0.731346 0.084143
O O7 0.027395 0.617989 0.145437
O O8 0.981995 0.620067 0.017908
O O9 0.250000 0.930492 0.317845
O O10 0.487611 0.863863 0.269570
O O11 0.485031 0.900403 0.391492
O O12 0.500000 0.000000 0.300716
O O13 0.250000 0.637596 0.226793
O O14 0.481256 0.730369 0.224846
O O15 0.513384 0.598205 0.268855
O O16 0.750000 0.686560 0.711579
O O17 0.977822 0.654838 0.643172
O O18 0.250000 0.929962 0.838433
O O19 0.500000 0.000000 0.860168
O O20 0.750000 0.348931 0.601328
O O21 0.250000 0.343223 0.950419
#
# Coordination Sequence:
#
# PCOD8183221 Si02
#       8
#     8   8   8   8   8   8   8   8
#     4   9  17  34  58  81 103 132 168 209 258 312
#     4   8  14  28  51  79 105 132 166 207 252 303
#     4  10  20  34  49  70 100 138 177 212 251 296
#     4  10  19  34  56  80 104 133 168 211 258 307
#     4   9  18  32  53  77 104 137 173 211 255 305
#     4  12  25  39  54  75 104 138 173 213 257 309
#     4   8  15  28  51  80 106 129 162 208 256 303
#     4   8  15  31  56  78 102 137 174 209 254 309
#
# _framework density 18.942260000000001
#
# number of rings (size 3 to 8) (size 9 to 14) (size 15 to 20)
#    0.000    2.750    0.000    3.750    0.000    3.500 
#    0.000    5.625    0.000    3.000    0.000    0.000 
#    0.000    0.000    0.000    0.000    0.000    0.000 
#
# Total GULP energy -396661.589697 kJ/mol
# GULP energy per Si atom -12395.674678 kJ/mol
# Density = 1.889915 g / cm^3
# Si number density = 18.942260 Si / 1000 Ang^3
#
#
#
# Elastic Constant Matrix: (Units=GPa)
#
#
# Indices 1 2 3 4 5 6 
#
# 1 52.6473 13.1851 19.8608 0.0000 0.0000 0.0000
# 2 13.1851 35.7773 5.4125 0.0000 0.0000 0.0000
# 3 19.8608 5.4125 95.4364 0.0000 0.0000 0.0000
# 4 0.0000 0.0000 0.0000 4.0500 0.0000 0.0000
# 5 0.0000 0.0000 0.0000 0.0000 34.2655 0.0000
# 6 0.0000 0.0000 0.0000 0.0000 0.0000 22.2247
#
#
#
# Elastic Compliance Matrix: (Units=1/GPa)
#
#
# Indices 1 2 3 4 5 6 
#
# 1 0.022515 -0.007654 -0.004251 0.000000 0.000000 0.000000
# 2 -0.007654 0.030795 -0.000154 0.000000 0.000000 0.000000
# 3 -0.004251 -0.000154 0.011372 0.000000 0.000000 0.000000
# 4 0.000000 0.000000 0.000000 0.246914 0.000000 0.000000
# 5 0.000000 0.000000 0.000000 0.000000 0.029184 0.000000
# 6 0.000000 0.000000 0.000000 0.000000 0.000000 0.044995
#
#
# Mechanical properties :
#
#
# Convention : Reuss Voigt Hill
#
# Bulk Modulus (GPa) = 24.65310 28.97531 26.81420
# Shear Modulus (GPa) = 11.80876 21.80155 16.80515
#
# Velocity S-wave (km/s) = 2.49952 3.39624 2.98178
# Velocity P-wave (km/s) = 4.62312 5.54158 5.10306
#
# Compressibility (1/GPa) = 0.04056285
#
# Stress axis : x y z
#
# Youngs Moduli (GPa) = 44.41457 32.47300 87.93813
#
# Poissons Ratio (x) = 0.24856 0.37386
# Poissons Ratio (y) = 0.33997 0.01350
# Poissons Ratio (z) = 0.18882 0.00499
#
# Static dielectric constant tensor:
#      x y z
#    x 3.282470 0.000000 0.000000 
#    y 0.000000 3.261710 0.000000 
#    z 0.000000 0.000000 3.971980 
# 
# 
# High freq. dielectric constant tensor:
#      x y z
#    x 1.714460 0.000000 0.000000 
#    y 0.000000 1.702840 0.000000 
#    z 0.000000 0.000000 1.756680 
# 
# From -- ./inp_files/22391.got.cif
#   From: 2010.03.12/outbox.cif.g09.slc.cpg/sg40_12_cif.got.tgz:22391.got - 2010.04.14 01:38:03.
