data_PCOD8183497
_publ_section_title
;
Structure prediction by ZEFSAII (Michael W. Deem and Ramdas Pophale) SiO2 
 PCOD8183497
Probable space group: A M A 2
;
_chemical_formula_sum "Si O2"
_cell_formula_units_Z 64
_cell_length_a 8.604970
_cell_length_b 30.097943
_cell_length_c 14.317888
_cell_angle_alpha 90.000000
_cell_angle_beta 90.000000
_cell_angle_gamma 90.000000
_cell_volume 3708.216968
_symmetry_space_group_name_H-M "A M A 2"
_symmetry_group_IT_number 40
_symmetry_cell_setting 'orthorhombic'
loop_
_space_group_symop_operation_xyz
x,y,z
-x,-y,z
1/2-x,y,z
1/2+x,-y,z
x,1/2+y,1/2+z
-x,1/2-y,1/2+z
1/2-x,1/2+y,1/2+z
1/2+x,1/2-y,1/2+z
loop_
_atom_site_type_symbol
_atom_site_label
_atom_site_fract_x
_atom_site_fract_y
_atom_site_fract_z
Si Si1 0.071795 0.302553 0.016500
Si Si2 0.572472 0.233264 0.321730
Si Si3 0.068905 0.545473 0.242629
Si Si4 0.927444 0.675538 0.330581
Si Si5 0.430537 0.634376 0.503379
Si Si6 0.930955 0.715663 0.611422
Si Si7 0.428543 0.136445 0.654412
Si Si8 0.933783 0.047306 0.945120
O O1 0.250000 0.309766 0.043515
O O2 0.020221 0.256131 0.062939
O O3 0.974238 0.345206 0.052476
O O4 0.049276 0.302456 0.904410
O O5 0.750000 0.251244 0.322029
O O6 0.454880 0.272602 0.346505
O O7 0.530911 0.212550 0.221569
O O8 0.250000 0.539277 0.265566
O O9 0.039461 0.583877 0.165857
O O10 0.000000 0.500000 0.200022
O O11 0.982638 0.557775 0.338541
O O12 0.750000 0.663678 0.355280
O O13 0.041950 0.647540 0.395862
O O14 0.965057 0.664561 0.224093
O O15 0.250000 0.635035 0.527861
O O16 0.518785 0.668472 0.570216
O O17 0.497616 0.584578 0.515050
O O18 0.750000 0.723190 0.592510
O O19 0.250000 0.147399 0.675464
O O20 0.750000 0.047065 0.952254
O O21 0.000000 0.000000 0.977873
#
# Coordination Sequence:
#
# PCOD8183497 Si02
#       8
#     8   8   8   8   8   8   8   8
#     4  11  22  35  53  77 104 139 180 220 261 313
#     4  10  22  38  53  71 105 141 175 222 268 306
#     4  10  20  33  51  74 105 139 173 214 263 311
#     4  12  22  31  51  76 102 140 182 218 259 311
#     4  12  23  36  52  75 108 142 179 219 263 313
#     4  11  22  36  54  76 103 139 179 219 265 314
#     4  11  22  35  51  74 107 143 176 217 264 312
#     4  11  21  34  53  77 106 139 176 214 261 313
#
# _framework density 17.258967999999999
#
# number of rings (size 3 to 8) (size 9 to 14) (size 15 to 20)
#    0.000    1.000    3.750    5.625    0.000    2.500 
#    0.000    0.000    0.000    0.000    0.000    0.875 
#    0.000    2.000    0.000    0.000    0.000    0.000 
#
# Total GULP energy -396857.064986 kJ/mol
# GULP energy per Si atom -12401.783281 kJ/mol
# Density = 1.721969 g / cm^3
# Si number density = 17.258968 Si / 1000 Ang^3
#
#
#
# Elastic Constant Matrix: (Units=GPa)
#
#
# Indices 1 2 3 4 5 6 
#
# 1 75.3934 21.5900 13.1583 0.0000 0.0000 0.0000
# 2 21.5900 101.1030 25.5177 0.0000 0.0000 0.0000
# 3 13.1583 25.5177 67.7972 0.0000 0.0000 0.0000
# 4 0.0000 0.0000 0.0000 26.5962 0.0000 0.0000
# 5 0.0000 0.0000 0.0000 0.0000 19.4905 0.0000
# 6 0.0000 0.0000 0.0000 0.0000 0.0000 27.9217
#
#
#
# Elastic Compliance Matrix: (Units=1/GPa)
#
#
# Indices 1 2 3 4 5 6 
#
# 1 0.014324 -0.002605 -0.001800 0.000000 0.000000 0.000000
# 2 -0.002605 0.011403 -0.003786 0.000000 0.000000 0.000000
# 3 -0.001800 -0.003786 0.016524 0.000000 0.000000 0.000000
# 4 0.000000 0.000000 0.000000 0.037599 0.000000 0.000000
# 5 0.000000 0.000000 0.000000 0.000000 0.051307 0.000000
# 6 0.000000 0.000000 0.000000 0.000000 0.000000 0.035814
#
#
# Mechanical properties :
#
#
# Convention : Reuss Voigt Hill
#
# Bulk Modulus (GPa) = 38.65533 40.53619 39.59576
# Shear Modulus (GPa) = 26.04496 27.07019 26.55757
#
# Velocity S-wave (km/s) = 3.88889 3.96469 3.92697
# Velocity P-wave (km/s) = 6.52767 6.67056 6.59950
#
# Compressibility (1/GPa) = 0.02586966
#
# Stress axis : x y z
#
# Youngs Moduli (GPa) = 69.81433 87.69831 60.51709
#
# Poissons Ratio (x) = 0.22841 0.10891
# Poissons Ratio (y) = 0.18183 0.22914
# Poissons Ratio (z) = 0.12564 0.33205
#
# Static dielectric constant tensor:
#      x y z
#    x 3.365850 0.000000 0.000000 
#    y 0.000000 3.372060 0.000000 
#    z 0.000000 0.000000 3.084390 
# 
# 
# High freq. dielectric constant tensor:
#      x y z
#    x 1.685190 0.000000 0.000000 
#    y 0.000000 1.659720 0.000000 
#    z 0.000000 0.000000 1.634120 
# 
# From -- ./inp_files/15892.got.cif
#   From: 2010.03.12/outbox.cif.g09.slc.cpg/sg40_8_cif.got.tgz:15892.got - 2010.04.14 01:38:03.
