data_PCOD8183438
_publ_section_title
;
Structure prediction by ZEFSAII (Michael W. Deem and Ramdas Pophale) SiO2 
 PCOD8183438
Probable space group: A M A 2
;
_chemical_formula_sum "Si O2"
_cell_formula_units_Z 32
_cell_length_a 15.293534
_cell_length_b 9.194540
_cell_length_c 11.121751
_cell_angle_alpha 90.000000
_cell_angle_beta 90.000000
_cell_angle_gamma 90.000000
_cell_volume 1563.907373
_symmetry_space_group_name_H-M "A M A 2"
_symmetry_group_IT_number 40
_symmetry_cell_setting 'orthorhombic'
loop_
_space_group_symop_operation_xyz
x,y,z
-x,-y,z
1/2-x,y,z
1/2+x,-y,z
x,1/2+y,1/2+z
-x,1/2-y,1/2+z
1/2-x,1/2+y,1/2+z
1/2+x,1/2-y,1/2+z
loop_
_atom_site_type_symbol
_atom_site_label
_atom_site_fract_x
_atom_site_fract_y
_atom_site_fract_z
Si Si1 0.250000 0.945820 0.087750
Si Si2 0.250000 0.185924 0.416311
Si Si3 0.381863 0.184055 0.001707
Si Si4 0.750000 0.128900 0.366091
Si Si5 0.151606 0.350683 0.235809
Si Si6 0.000000 0.000000 0.865230
O O1 0.250000 0.929533 0.230589
O O2 0.250000 0.783147 0.036079
O O3 0.333191 0.035605 0.040500
O O4 0.163660 0.224646 0.336377
O O5 0.250000 0.016043 0.450085
O O6 0.333866 0.273756 0.896618
O O7 0.476206 0.138288 0.949289
O O8 0.392415 0.285734 0.117105
O O9 0.250000 0.415731 0.209256
O O10 0.085708 0.472607 0.284191
#
# Coordination Sequence:
#
# PCOD8183438 Si02
#       6
#     4   4   8   4   8   4
#     4  11  19  41  74  92 128 187 217 271 348 408
#     4  10  19  40  71  93 132 182 219 275 346 405
#     4  11  23  44  67 100 136 176 229 285 337 415
#     4  11  22  39  71 103 126 181 232 272 348 411
#     4  10  21  46  69  93 142 179 222 292 340 405
#     4  12  26  42  70 108 134 188 234 284 354 412
#
# _framework density 20.461569999999998
#
# number of rings (size 3 to 8) (size 9 to 14) (size 15 to 20)
#    0.750    0.500    7.500    0.000    1.750    4.000 
#    4.500    0.000    0.000    0.000    0.000    0.000 
#    0.000    0.000    0.000    0.000    0.000    0.000 
#
# Total GULP energy -198270.594750 kJ/mol
# GULP energy per Si atom -12391.912172 kJ/mol
# Density = 2.041500 g / cm^3
# Si number density = 20.461570 Si / 1000 Ang^3
#
#
#
# Elastic Constant Matrix: (Units=GPa)
#
#
# Indices 1 2 3 4 5 6 
#
# 1 89.5207 42.7497 36.0985 0.0000 0.0000 0.0000
# 2 42.7497 101.5686 51.5582 0.0000 0.0000 0.0000
# 3 36.0985 51.5582 97.9966 0.0000 0.0000 0.0000
# 4 0.0000 0.0000 0.0000 27.8270 0.0000 0.0000
# 5 0.0000 0.0000 0.0000 0.0000 13.5638 0.0000
# 6 0.0000 0.0000 0.0000 0.0000 0.0000 21.3077
#
#
#
# Elastic Compliance Matrix: (Units=1/GPa)
#
#
# Indices 1 2 3 4 5 6 
#
# 1 0.014568 -0.004649 -0.002920 0.000000 0.000000 0.000000
# 2 -0.004649 0.014917 -0.006135 0.000000 0.000000 0.000000
# 3 -0.002920 -0.006135 0.014508 0.000000 0.000000 0.000000
# 4 0.000000 0.000000 0.000000 0.035936 0.000000 0.000000
# 5 0.000000 0.000000 0.000000 0.000000 0.073726 0.000000
# 6 0.000000 0.000000 0.000000 0.000000 0.000000 0.046931
#
#
# Mechanical properties :
#
#
# Convention : Reuss Voigt Hill
#
# Bulk Modulus (GPa) = 60.30199 61.09985 60.70092
# Shear Modulus (GPa) = 21.41095 23.11832 22.26464
#
# Velocity S-wave (km/s) = 3.23832 3.36496 3.30224
# Velocity P-wave (km/s) = 6.59675 6.70991 6.65357
#
# Compressibility (1/GPa) = 0.01658320
#
# Stress axis : x y z
#
# Youngs Moduli (GPa) = 68.64131 67.03783 68.92643
#
# Poissons Ratio (x) = 0.31168 0.20129
# Poissons Ratio (y) = 0.31914 0.42290
# Poissons Ratio (z) = 0.20046 0.41131
#
# Static dielectric constant tensor:
#      x y z
#    x 3.524650 0.000000 0.000000 
#    y 0.000000 3.548860 0.000000 
#    z 0.000000 0.000000 3.707260 
# 
# 
# High freq. dielectric constant tensor:
#      x y z
#    x 1.771790 0.000000 0.000000 
#    y 0.000000 1.792020 0.000000 
#    z 0.000000 0.000000 1.809310 
# 
# From -- ./inp_files/11756.got.cif
#   From: 2010.03.12/outbox.cif.g09.slc.cpg/sg40_6_cif.got.tgz:11756.got - 2010.04.14 01:38:03.
