data_PCOD8183492
_publ_section_title
;
Structure prediction by ZEFSAII (Michael W. Deem and Ramdas Pophale) SiO2 
 PCOD8183492
Probable space group: A M A 2
;
_chemical_formula_sum "Si O2"
_cell_formula_units_Z 64
_cell_length_a 8.725220
_cell_length_b 14.707741
_cell_length_c 27.269872
_cell_angle_alpha 90.000000
_cell_angle_beta 90.000000
_cell_angle_gamma 90.000000
_cell_volume 3499.495659
_symmetry_space_group_name_H-M "A M A 2"
_symmetry_group_IT_number 40
_symmetry_cell_setting 'orthorhombic'
loop_
_space_group_symop_operation_xyz
x,y,z
-x,-y,z
1/2-x,y,z
1/2+x,-y,z
x,1/2+y,1/2+z
-x,1/2-y,1/2+z
1/2-x,1/2+y,1/2+z
1/2+x,1/2-y,1/2+z
loop_
_atom_site_type_symbol
_atom_site_label
_atom_site_fract_x
_atom_site_fract_y
_atom_site_fract_z
Si Si1 0.930895 0.904894 0.548770
Si Si2 0.068622 0.227877 0.743884
Si Si3 0.070095 0.593626 0.160034
Si Si4 0.069975 0.404616 0.320904
Si Si5 0.070382 0.774455 0.471085
Si Si6 0.570500 0.595021 0.434682
Si Si7 0.069397 0.905847 0.383036
Si Si8 0.931656 0.904189 0.278033
O O1 0.750000 0.911071 0.543802
O O2 0.984527 0.886546 0.604632
O O3 0.992178 0.821616 0.517310
O O4 0.000000 0.000000 0.529530
O O5 0.250000 0.239259 0.746895
O O6 0.015146 0.175151 0.695012
O O7 0.011343 0.176045 0.792057
O O8 0.990066 0.326564 0.741120
O O9 0.250000 0.582190 0.162643
O O10 0.000000 0.500000 0.180032
O O11 0.250000 0.404531 0.310161
O O12 0.032038 0.388324 0.377775
O O13 0.000000 0.500000 0.302995
O O14 0.250000 0.771788 0.480321
O O15 0.028563 0.828220 0.421690
O O16 0.006203 0.673135 0.467102
O O17 0.500000 0.500000 0.452469
O O18 0.750000 0.593933 0.444615
O O19 0.250000 0.917198 0.374537
O O20 0.990048 0.879020 0.332228
O O21 0.000000 0.000000 0.403275
O O22 0.750000 0.909676 0.277886
O O23 0.000000 0.000000 0.260217
#
# Coordination Sequence:
#
# PCOD8183492 Si02
#       8
#     8   8   8   8   8   8   8   8
#     4  10  20  36  56  79 107 137 169 208 257 308
#     4  11  21  34  53  77 105 137 174 214 257 305
#     4   9  20  36  55  79 107 137 168 207 254 306
#     4  10  20  33  50  76 108 141 176 212 254 303
#     4  11  22  34  52  78 105 136 174 213 256 307
#     4  10  21  36  53  73 102 139 176 216 257 300
#     4  10  20  33  50  74 106 140 173 211 254 302
#     4  11  22  36  53  74 102 137 176 215 257 303
#
# _framework density 18.288350999999999
#
# number of rings (size 3 to 8) (size 9 to 14) (size 15 to 20)
#    0.000    1.750    0.000    5.625    0.000    9.000 
#    0.000    0.000    0.000    0.750    0.000    3.500 
#    0.000    0.000    0.000    0.000    0.000    0.000 
#
# Total GULP energy -396957.172168 kJ/mol
# GULP energy per Si atom -12404.911630 kJ/mol
# Density = 1.824673 g / cm^3
# Si number density = 18.288351 Si / 1000 Ang^3
#
#
#
# Elastic Constant Matrix: (Units=GPa)
#
#
# Indices 1 2 3 4 5 6 
#
# 1 94.3961 55.9489 40.8557 0.0000 0.0000 0.0000
# 2 55.9489 158.2305 68.1329 0.0000 0.0000 0.0000
# 3 40.8557 68.1329 73.7700 0.0000 0.0000 0.0000
# 4 0.0000 0.0000 0.0000 29.4926 0.0000 0.0000
# 5 0.0000 0.0000 0.0000 0.0000 14.4408 0.0000
# 6 0.0000 0.0000 0.0000 0.0000 0.0000 36.9912
#
#
#
# Elastic Compliance Matrix: (Units=1/GPa)
#
#
# Indices 1 2 3 4 5 6 
#
# 1 0.014644 -0.002799 -0.005525 0.000000 0.000000 0.000000
# 2 -0.002799 0.011028 -0.008635 0.000000 0.000000 0.000000
# 3 -0.005525 -0.008635 0.024591 0.000000 0.000000 0.000000
# 4 0.000000 0.000000 0.000000 0.033907 0.000000 0.000000
# 5 0.000000 0.000000 0.000000 0.000000 0.069248 0.000000
# 6 0.000000 0.000000 0.000000 0.000000 0.000000 0.027033
#
#
# Mechanical properties :
#
#
# Convention : Reuss Voigt Hill
#
# Bulk Modulus (GPa) = 61.18311 72.91906 67.05109
# Shear Modulus (GPa) = 22.74622 26.94887 24.84754
#
# Velocity S-wave (km/s) = 3.53052 3.84285 3.68999
# Velocity P-wave (km/s) = 7.08143 7.72324 7.40929
#
# Compressibility (1/GPa) = 0.01634438
#
# Stress axis : x y z
#
# Youngs Moduli (GPa) = 68.28779 90.68090 40.66581
#
# Poissons Ratio (x) = 0.25380 0.22469
# Poissons Ratio (y) = 0.19113 0.35115
# Poissons Ratio (z) = 0.37730 0.78302
#
# Static dielectric constant tensor:
#      x y z
#    x 3.456780 0.000000 0.000000 
#    y 0.000000 3.373250 0.000000 
#    z 0.000000 0.000000 3.307610 
# 
# 
# High freq. dielectric constant tensor:
#      x y z
#    x 1.724860 0.000000 0.000000 
#    y 0.000000 1.714140 0.000000 
#    z 0.000000 0.000000 1.685250 
# 
# From -- ./inp_files/24340.got.cif
#   From: 2010.03.12/outbox.cif.g09.slc.cpg/sg40_13_cif.got.tgz:24340.got - 2010.04.14 01:38:03.
