data_PCOD8183574
_publ_section_title
;
Structure prediction by ZEFSAII (Michael W. Deem and Ramdas Pophale) SiO2 
 PCOD8183574
Probable space group: A M A 2
;
_chemical_formula_sum "Si O2"
_cell_formula_units_Z 48
_cell_length_a 8.849738
_cell_length_b 9.569450
_cell_length_c 30.312143
_cell_angle_alpha 90.000000
_cell_angle_beta 90.000000
_cell_angle_gamma 90.000000
_cell_volume 2567.048252
_symmetry_space_group_name_H-M "A M A 2"
_symmetry_group_IT_number 40
_symmetry_cell_setting 'orthorhombic'
loop_
_space_group_symop_operation_xyz
x,y,z
-x,-y,z
1/2-x,y,z
1/2+x,-y,z
x,1/2+y,1/2+z
-x,1/2-y,1/2+z
1/2-x,1/2+y,1/2+z
1/2+x,1/2-y,1/2+z
loop_
_atom_site_type_symbol
_atom_site_label
_atom_site_fract_x
_atom_site_fract_y
_atom_site_fract_z
Si Si1 0.574250 0.350050 0.348250
Si Si2 0.425110 0.642767 0.781971
Si Si3 0.926516 0.354127 0.679379
Si Si4 0.428507 0.651468 0.112088
Si Si5 0.574251 0.849718 0.944772
Si Si6 0.572115 0.152258 0.030909
O O1 0.500000 0.500000 0.348321
O O2 0.750000 0.365653 0.337586
O O3 0.497011 0.265150 0.309805
O O4 0.550331 0.277387 0.396737
O O5 0.500000 0.500000 0.797683
O O6 0.250000 0.633048 0.792604
O O7 0.457191 0.671692 0.730812
O O8 0.750000 0.360443 0.668073
O O9 0.000000 0.500000 0.663680
O O10 0.003722 0.224168 0.655346
O O11 0.500000 0.500000 0.105798
O O12 0.250000 0.636426 0.117730
O O13 0.473622 0.745816 0.070424
O O14 0.750000 0.864101 0.955991
O O15 0.500000 0.000000 0.941920
O O16 0.491948 0.773989 0.986002
O O17 0.750000 0.133849 0.027020
O O18 0.500000 0.000000 0.039144
#
# Coordination Sequence:
#
# PCOD8183574 Si02
#       6
#     8   8   8   8   8   8
#     4  10  20  34  54  81 111 144 182 223 268 317
#     4  10  21  37  57  81 109 142 179 221 268 318
#     4  10  21  38  60  83 107 139 180 222 265 317
#     4  11  24  39  56  80 110 143 178 220 271 322
#     4   9  17  30  51  78 106 138 177 220 263 309
#     4  10  20  34  55  81 106 138 179 220 264 315
#
# _framework density 18.698519999999998
#
# number of rings (size 3 to 8) (size 9 to 14) (size 15 to 20)
#    0.000    2.000    0.000    4.500    0.000    8.667 
#    0.000    0.833    0.000    2.000    0.000    0.000 
#    0.000    0.000    0.000    0.000    0.000    0.000 
#
# Total GULP energy -297549.917010 kJ/mol
# GULP energy per Si atom -12397.913209 kJ/mol
# Density = 1.865596 g / cm^3
# Si number density = 18.698520 Si / 1000 Ang^3
#
#
#
# Elastic Constant Matrix: (Units=GPa)
#
#
# Indices 1 2 3 4 5 6 
#
# 1 120.9900 56.8364 68.0566 0.0000 0.0000 0.0000
# 2 56.8364 102.0723 63.2340 0.0000 0.0000 0.0000
# 3 68.0566 63.2340 104.5151 0.0000 0.0000 0.0000
# 4 0.0000 0.0000 0.0000 24.3101 0.0000 0.0000
# 5 0.0000 0.0000 0.0000 0.0000 28.8064 0.0000
# 6 0.0000 0.0000 0.0000 0.0000 0.0000 33.1389
#
#
#
# Elastic Compliance Matrix: (Units=1/GPa)
#
#
# Indices 1 2 3 4 5 6 
#
# 1 0.013730 -0.003370 -0.006902 0.000000 0.000000 0.000000
# 2 -0.003370 0.016497 -0.007787 0.000000 0.000000 0.000000
# 3 -0.006902 -0.007787 0.018774 0.000000 0.000000 0.000000
# 4 0.000000 0.000000 0.000000 0.041135 0.000000 0.000000
# 5 0.000000 0.000000 0.000000 0.000000 0.034714 0.000000
# 6 0.000000 0.000000 0.000000 0.000000 0.000000 0.030176
#
#
# Mechanical properties :
#
#
# Convention : Reuss Voigt Hill
#
# Bulk Modulus (GPa) = 77.61581 78.20349 77.90965
# Shear Modulus (GPa) = 25.58333 26.54779 26.06556
#
# Velocity S-wave (km/s) = 3.70293 3.77208 3.73767
# Velocity P-wave (km/s) = 7.73831 7.80293 7.77069
#
# Compressibility (1/GPa) = 0.01288397
#
# Stress axis : x y z
#
# Youngs Moduli (GPa) = 72.83073 60.61565 53.26568
#
# Poissons Ratio (x) = 0.20425 0.36765
# Poissons Ratio (y) = 0.24541 0.41479
# Poissons Ratio (z) = 0.50269 0.47202
#
# Static dielectric constant tensor:
#      x y z
#    x 3.622890 0.000000 0.000000 
#    y 0.000000 3.184270 0.000000 
#    z 0.000000 0.000000 3.957600 
# 
# 
# High freq. dielectric constant tensor:
#      x y z
#    x 1.747390 0.000000 0.000000 
#    y 0.000000 1.696690 0.000000 
#    z 0.000000 0.000000 1.744580 
# 
# From -- ./inp_files/26133.got.cif
#   From: 2010.03.12/outbox.cif.g09.slc.cpg/sg40_14_cif.got.tgz:26133.got - 2010.04.14 01:38:03.
