data_PCOD8183213
_publ_section_title
;
Structure prediction by ZEFSAII (Michael W. Deem and Ramdas Pophale) SiO2 
 PCOD8183213
Probable space group: A M A 2
;
_chemical_formula_sum "Si O2"
_cell_formula_units_Z 64
_cell_length_a 8.735442
_cell_length_b 19.528328
_cell_length_c 20.611549
_cell_angle_alpha 90.000000
_cell_angle_beta 90.000000
_cell_angle_gamma 90.000000
_cell_volume 3516.094805
_symmetry_space_group_name_H-M "A M A 2"
_symmetry_group_IT_number 40
_symmetry_cell_setting 'orthorhombic'
loop_
_space_group_symop_operation_xyz
x,y,z
-x,-y,z
1/2-x,y,z
1/2+x,-y,z
x,1/2+y,1/2+z
-x,1/2-y,1/2+z
1/2-x,1/2+y,1/2+z
1/2+x,1/2-y,1/2+z
loop_
_atom_site_type_symbol
_atom_site_label
_atom_site_fract_x
_atom_site_fract_y
_atom_site_fract_z
Si Si1 0.425582 0.699988 0.408040
Si Si2 0.574857 0.799208 0.762413
Si Si3 0.930572 0.070291 0.709620
Si Si4 0.427132 0.714084 0.652630
Si Si5 0.428544 0.069101 0.100121
Si Si6 0.929993 0.204046 0.524018
Si Si7 0.431027 0.570689 0.069080
Si Si8 0.570135 0.570077 0.460611
O O1 0.250000 0.680728 0.423427
O O2 0.445165 0.729427 0.335400
O O3 0.482362 0.756596 0.459174
O O4 0.525872 0.631673 0.413286
O O5 0.750000 0.818913 0.748051
O O6 0.472655 0.867227 0.756243
O O7 0.524451 0.740284 0.713085
O O8 0.750000 0.062604 0.703417
O O9 0.999738 0.086650 0.639425
O O10 0.000000 0.000000 0.738115
O O11 0.250000 0.729957 0.666181
O O12 0.458101 0.632908 0.647602
O O13 0.478729 0.751230 0.586415
O O14 0.250000 0.057705 0.087621
O O15 0.500000 0.000000 0.131214
O O16 0.505769 0.085733 0.031773
O O17 0.750000 0.188882 0.524273
O O18 0.021205 0.132695 0.522358
O O19 0.500000 0.500000 0.041148
O O20 0.250000 0.564066 0.074005
O O21 0.500000 0.500000 0.432279
O O22 0.750000 0.561943 0.464268
#
# Coordination Sequence:
#
# PCOD8183213 Si02
#       8
#     8   8   8   8   8   8   8   8
#     4  10  22  40  57  77 110 148 184 225 273 324
#     4  11  23  37  56  81 110 145 185 227 271 324
#     4  11  21  35  54  77 110 148 185 224 268 321
#     4  10  20  35  58  81 110 146 180 225 276 323
#     4  10  19  34  55  82 112 144 180 225 275 322
#     4  10  19  36  59  81 109 145 182 224 275 322
#     4  11  21  34  55  84 113 141 180 226 273 324
#     4  11  21  33  53  79 110 147 185 226 267 320
#
# _framework density 18.202012
#
# number of rings (size 3 to 8) (size 9 to 14) (size 15 to 20)
#    0.000    1.500    2.500    5.625    0.000    3.000 
#    0.000    0.000    0.000    0.750    0.000    1.750 
#    0.000    0.000    0.000    0.000    0.000    0.000 
#
# Total GULP energy -396902.472775 kJ/mol
# GULP energy per Si atom -12403.202274 kJ/mol
# Density = 1.816058 g / cm^3
# Si number density = 18.202012 Si / 1000 Ang^3
#
#
#
# Elastic Constant Matrix: (Units=GPa)
#
#
# Indices 1 2 3 4 5 6 
#
# 1 124.9108 54.5714 43.6904 0.0000 0.0000 0.0000
# 2 54.5714 123.6291 58.1876 0.0000 0.0000 0.0000
# 3 43.6904 58.1876 97.1650 0.0000 0.0000 0.0000
# 4 0.0000 0.0000 0.0000 24.7620 0.0000 0.0000
# 5 0.0000 0.0000 0.0000 0.0000 20.0371 0.0000
# 6 0.0000 0.0000 0.0000 0.0000 0.0000 33.3711
#
#
#
# Elastic Compliance Matrix: (Units=1/GPa)
#
#
# Indices 1 2 3 4 5 6 
#
# 1 0.010398 -0.003327 -0.002683 0.000000 0.000000 0.000000
# 2 -0.003327 0.012328 -0.005887 0.000000 0.000000 0.000000
# 3 -0.002683 -0.005887 0.015023 0.000000 0.000000 0.000000
# 4 0.000000 0.000000 0.000000 0.040385 0.000000 0.000000
# 5 0.000000 0.000000 0.000000 0.000000 0.049907 0.000000
# 6 0.000000 0.000000 0.000000 0.000000 0.000000 0.029966
#
#
# Mechanical properties :
#
#
# Convention : Reuss Voigt Hill
#
# Bulk Modulus (GPa) = 71.65441 73.17819 72.41630
# Shear Modulus (GPa) = 26.81658 28.25107 27.53383
#
# Velocity S-wave (km/s) = 3.84249 3.94393 3.89354
# Velocity P-wave (km/s) = 7.69012 7.81217 7.75139
#
# Compressibility (1/GPa) = 0.01395588
#
# Stress axis : x y z
#
# Youngs Moduli (GPa) = 96.17611 81.11721 66.56266
#
# Poissons Ratio (x) = 0.26986 0.17859
# Poissons Ratio (y) = 0.31996 0.39183
# Poissons Ratio (z) = 0.25804 0.47751
#
# Static dielectric constant tensor:
#      x y z
#    x 3.407380 0.000000 0.000000 
#    y 0.000000 3.503150 0.000000 
#    z 0.000000 0.000000 3.120820 
# 
# 
# High freq. dielectric constant tensor:
#      x y z
#    x 1.715080 0.000000 0.000000 
#    y 0.000000 1.710260 0.000000 
#    z 0.000000 0.000000 1.674490 
# 
# From -- ./inp_files/19612.got.cif
#   From: 2010.03.12/outbox.cif.g09.slc.cpg/sg40_10_cif.got.tgz:19612.got - 2010.04.14 01:38:03.
