data_PCOD8183819
_publ_section_title
;
Structure prediction by ZEFSAII (Michael W. Deem and Ramdas Pophale) SiO2 
 PCOD8183819
Probable space group: A M A 2
;
_chemical_formula_sum "Si O2"
_cell_formula_units_Z 48
_cell_length_a 15.409452
_cell_length_b 17.975616
_cell_length_c 8.883933
_cell_angle_alpha 90.000000
_cell_angle_beta 90.000000
_cell_angle_gamma 90.000000
_cell_volume 2460.799619
_symmetry_space_group_name_H-M "A M A 2"
_symmetry_group_IT_number 40
_symmetry_cell_setting 'orthorhombic'
loop_
_space_group_symop_operation_xyz
x,y,z
-x,-y,z
1/2-x,y,z
1/2+x,-y,z
x,1/2+y,1/2+z
-x,1/2-y,1/2+z
1/2-x,1/2+y,1/2+z
1/2+x,1/2-y,1/2+z
loop_
_atom_site_type_symbol
_atom_site_label
_atom_site_fract_x
_atom_site_fract_y
_atom_site_fract_z
Si Si1 0.998352 0.673045 0.983910
Si Si2 0.651762 0.918138 0.974917
Si Si3 0.003421 0.672669 0.336345
Si Si4 0.915106 0.047118 0.310056
Si Si5 0.345932 0.102598 0.320798
Si Si6 0.349123 0.909108 0.999008
O O1 0.934166 0.605443 0.942285
O O2 0.968858 0.749657 0.909582
O O3 0.093935 0.654083 0.922570
O O4 0.994221 0.684116 0.160215
O O5 0.750000 0.891888 0.938361
O O6 0.583262 0.882691 0.862037
O O7 0.626805 0.894641 0.145031
O O8 0.643939 0.005849 0.947578
O O9 0.912522 0.642420 0.401198
O O10 0.877783 0.095383 0.172807
O O11 0.847809 0.984778 0.369951
O O12 0.000000 0.000000 0.259324
O O13 0.250000 0.133921 0.345176
O O14 0.250000 0.880171 0.981638
#
# Coordination Sequence:
#
# PCOD8183819 Si02
#       6
#     8   8   8   8   8   8
#     4  11  24  37  56  80 111 153 189 227 282 330
#     4   9  19  37  62  88 112 145 185 226 277 333
#     4  12  23  39  56  79 116 152 187 233 278 329
#     4   9  17  35  59  84 111 145 184 224 276 333
#     4   9  18  36  61  86 113 143 181 228 276 333
#     4  10  20  36  61  87 112 146 185 226 276 334
#
# _framework density 19.505856000000001
#
# number of rings (size 3 to 8) (size 9 to 14) (size 15 to 20)
#    0.000    2.000    0.000    7.000    0.000    5.333 
#    0.000    7.500    0.000    0.000    0.000    0.000 
#    0.000    0.000    0.000    0.000    0.000    0.000 
#
# Total GULP energy -297563.611886 kJ/mol
# GULP energy per Si atom -12398.483829 kJ/mol
# Density = 1.946146 g / cm^3
# Si number density = 19.505856 Si / 1000 Ang^3
#
#
#
# Elastic Constant Matrix: (Units=GPa)
#
#
# Indices 1 2 3 4 5 6 
#
# 1 73.3175 16.3646 21.0622 0.0000 0.0000 0.0000
# 2 16.3646 60.2569 31.2787 0.0000 0.0000 0.0000
# 3 21.0622 31.2787 95.2453 0.0000 0.0000 0.0000
# 4 0.0000 0.0000 0.0000 35.3279 0.0000 0.0000
# 5 0.0000 0.0000 0.0000 0.0000 17.5100 0.0000
# 6 0.0000 0.0000 0.0000 0.0000 0.0000 16.8469
#
#
#
# Elastic Compliance Matrix: (Units=1/GPa)
#
#
# Indices 1 2 3 4 5 6 
#
# 1 0.014953 -0.002826 -0.002379 0.000000 0.000000 0.000000
# 2 -0.002826 0.020540 -0.006120 0.000000 0.000000 0.000000
# 3 -0.002379 -0.006120 0.013035 0.000000 0.000000 0.000000
# 4 0.000000 0.000000 0.000000 0.028306 0.000000 0.000000
# 5 0.000000 0.000000 0.000000 0.000000 0.057110 0.000000
# 6 0.000000 0.000000 0.000000 0.000000 0.000000 0.059358
#
#
# Mechanical properties :
#
#
# Convention : Reuss Voigt Hill
#
# Bulk Modulus (GPa) = 38.64269 40.69228 39.66748
# Shear Modulus (GPa) = 22.26375 24.61123 23.43749
#
# Velocity S-wave (km/s) = 3.38211 3.55595 3.47012
# Velocity P-wave (km/s) = 5.92498 6.14545 6.03622
#
# Compressibility (1/GPa) = 0.02587812
#
# Stress axis : x y z
#
# Youngs Moduli (GPa) = 66.87416 48.68493 76.71564
#
# Poissons Ratio (x) = 0.13760 0.18247
# Poissons Ratio (y) = 0.18901 0.46953
# Poissons Ratio (z) = 0.15906 0.29797
#
# Static dielectric constant tensor:
#      x y z
#    x 3.718250 0.000000 0.000000 
#    y 0.000000 3.534960 0.000000 
#    z 0.000000 0.000000 3.324210 
# 
# 
# High freq. dielectric constant tensor:
#      x y z
#    x 1.765510 0.000000 0.000000 
#    y 0.000000 1.756520 0.000000 
#    z 0.000000 0.000000 1.741660 
# 
# From -- ./inp_files/6466.got.cif
#   From: 2010.03.12/outbox.cif.g09.slc.cpg/sg40_4_cif.got.tgz:6466.got - 2010.04.14 01:38:03.
