data_PCOD8183684
_publ_section_title
;
Structure prediction by ZEFSAII (Michael W. Deem and Ramdas Pophale) SiO2 
 PCOD8183684
Probable space group: A M A 2
;
_chemical_formula_sum "Si O2"
_cell_formula_units_Z 48
_cell_length_a 8.753202
_cell_length_b 9.581915
_cell_length_c 30.516023
_cell_angle_alpha 90.000000
_cell_angle_beta 90.000000
_cell_angle_gamma 90.000000
_cell_volume 2559.453233
_symmetry_space_group_name_H-M "A M A 2"
_symmetry_group_IT_number 40
_symmetry_cell_setting 'orthorhombic'
loop_
_space_group_symop_operation_xyz
x,y,z
-x,-y,z
1/2-x,y,z
1/2+x,-y,z
x,1/2+y,1/2+z
-x,1/2-y,1/2+z
1/2-x,1/2+y,1/2+z
1/2+x,1/2-y,1/2+z
loop_
_atom_site_type_symbol
_atom_site_label
_atom_site_fract_x
_atom_site_fract_y
_atom_site_fract_z
Si Si1 0.930878 0.846002 0.618260
Si Si2 0.072487 0.847231 0.435559
Si Si3 0.428957 0.644118 0.788117
Si Si4 0.569185 0.853691 0.188399
Si Si5 0.426447 0.850218 0.532724
Si Si6 0.069435 0.847535 0.863493
O O1 0.750000 0.849919 0.620773
O O2 0.995872 0.767087 0.659936
O O3 0.985604 0.771144 0.572600
O O4 0.000000 0.000000 0.619117
O O5 0.250000 0.859883 0.423000
O O6 0.053731 0.782079 0.484691
O O7 0.988794 0.737852 0.404924
O O8 0.000000 0.000000 0.430385
O O9 0.500000 0.500000 0.805344
O O10 0.250000 0.623864 0.791092
O O11 0.480006 0.676906 0.738480
O O12 0.484297 0.769837 0.819077
O O13 0.750000 0.856343 0.182224
O O14 0.500000 0.000000 0.172551
O O15 0.250000 0.863092 0.546079
O O16 0.500000 0.000000 0.527877
O O17 0.250000 0.859640 0.866272
O O18 0.000000 0.000000 0.863272
#
# Coordination Sequence:
#
# PCOD8183684 Si02
#       6
#     8   8   8   8   8   8
#     4  11  21  34  54  81 111 144 181 222 269 317
#     4  10  20  35  57  83 109 141 181 222 265 316
#     4   9  20  37  58  81 105 138 179 221 264 316
#     4  10  20  37  57  80 110 142 179 221 267 318
#     4   9  17  31  52  78 107 139 178 222 265 312
#     4  11  23  38  55  79 111 144 178 220 271 321
#
# _framework density 18.754004999999999
#
# number of rings (size 3 to 8) (size 9 to 14) (size 15 to 20)
#    0.000    2.000    0.000    5.000    0.000    6.000 
#    0.000    2.500    0.000    4.000    0.000    0.000 
#    0.000    0.000    0.000    0.000    0.000    0.000 
#
# Total GULP energy -297539.457197 kJ/mol
# GULP energy per Si atom -12397.477383 kJ/mol
# Density = 1.871132 g / cm^3
# Si number density = 18.754005 Si / 1000 Ang^3
#
#
#
# Elastic Constant Matrix: (Units=GPa)
#
#
# Indices 1 2 3 4 5 6 
#
# 1 112.2363 47.6639 57.2991 0.0000 0.0000 0.0000
# 2 47.6639 109.2938 72.0298 0.0000 0.0000 0.0000
# 3 57.2991 72.0298 128.4998 0.0000 0.0000 0.0000
# 4 0.0000 0.0000 0.0000 31.7468 0.0000 0.0000
# 5 0.0000 0.0000 0.0000 0.0000 32.1707 0.0000
# 6 0.0000 0.0000 0.0000 0.0000 0.0000 32.9134
#
#
#
# Elastic Compliance Matrix: (Units=1/GPa)
#
#
# Indices 1 2 3 4 5 6 
#
# 1 0.012022 -0.002712 -0.003841 0.000000 0.000000 0.000000
# 2 -0.002712 0.015122 -0.007267 0.000000 0.000000 0.000000
# 3 -0.003841 -0.007267 0.013568 0.000000 0.000000 0.000000
# 4 0.000000 0.000000 0.000000 0.031499 0.000000 0.000000
# 5 0.000000 0.000000 0.000000 0.000000 0.031084 0.000000
# 6 0.000000 0.000000 0.000000 0.000000 0.000000 0.030383
#
#
# Mechanical properties :
#
#
# Convention : Reuss Voigt Hill
#
# Bulk Modulus (GPa) = 76.49446 78.22394 77.35920
# Shear Modulus (GPa) = 30.17953 30.90199 30.54076
#
# Velocity S-wave (km/s) = 4.01587 4.06366 4.03984
# Velocity P-wave (km/s) = 7.89809 7.98867 7.94351
#
# Compressibility (1/GPa) = 0.01307284
#
# Stress axis : x y z
#
# Youngs Moduli (GPa) = 83.17974 66.13027 73.70112
#
# Poissons Ratio (x) = 0.17933 0.28307
# Poissons Ratio (y) = 0.22556 0.53560
# Poissons Ratio (z) = 0.31947 0.48058
#
# Static dielectric constant tensor:
#      x y z
#    x 3.555270 0.000000 0.000000 
#    y 0.000000 3.244160 0.000000 
#    z 0.000000 0.000000 4.159250 
# 
# 
# High freq. dielectric constant tensor:
#      x y z
#    x 1.744830 0.000000 0.000000 
#    y 0.000000 1.698860 0.000000 
#    z 0.000000 0.000000 1.749270 
# 
# From -- ./inp_files/26123.got.cif
#   From: 2010.03.12/outbox.cif.g09.slc.cpg/sg40_14_cif.got.tgz:26123.got - 2010.04.14 01:38:03.
