data_PCOD8183291
_publ_section_title
;
Structure prediction by ZEFSAII (Michael W. Deem and Ramdas Pophale) SiO2 
 PCOD8183291
Probable space group: A M A 2
;
_chemical_formula_sum "Si O2"
_cell_formula_units_Z 64
_cell_length_a 8.875205
_cell_length_b 33.516063
_cell_length_c 11.658882
_cell_angle_alpha 90.000000
_cell_angle_beta 90.000000
_cell_angle_gamma 90.000000
_cell_volume 3468.073540
_symmetry_space_group_name_H-M "A M A 2"
_symmetry_group_IT_number 40
_symmetry_cell_setting 'orthorhombic'
loop_
_space_group_symop_operation_xyz
x,y,z
-x,-y,z
1/2-x,y,z
1/2+x,-y,z
x,1/2+y,1/2+z
-x,1/2-y,1/2+z
1/2-x,1/2+y,1/2+z
1/2+x,1/2-y,1/2+z
loop_
_atom_site_type_symbol
_atom_site_label
_atom_site_fract_x
_atom_site_fract_y
_atom_site_fract_z
Si Si1 0.079239 0.277009 0.947620
Si Si2 0.927535 0.310131 0.394382
Si Si3 0.928008 0.459192 0.199123
Si Si4 0.578404 0.173833 0.658613
Si Si5 0.074387 0.106903 0.525877
Si Si6 0.926181 0.376962 0.582050
Si Si7 0.571969 0.958003 0.958902
Si Si8 0.571245 0.644639 0.821188
O O1 0.250000 0.274112 0.906452
O O2 0.008746 0.233206 0.931956
O O3 0.007140 0.312541 0.868715
O O4 0.068201 0.285779 0.083578
O O5 0.750000 0.310309 0.364491
O O6 0.963232 0.343213 0.489136
O O7 0.029684 0.320076 0.287140
O O8 0.750000 0.461953 0.195843
O O9 0.988687 0.428810 0.104007
O O10 0.979968 0.447918 0.328561
O O11 0.000000 0.500000 0.159773
O O12 0.750000 0.157055 0.653261
O O13 0.456887 0.145377 0.601543
O O14 0.250000 0.102568 0.499685
O O15 0.987685 0.109451 0.404842
O O16 0.750000 0.377921 0.610770
O O17 0.980165 0.420622 0.537384
O O18 0.016220 0.364644 0.694465
O O19 0.750000 0.963266 0.965544
O O20 0.500000 0.000000 0.001075
O O21 0.750000 0.644320 0.825453
#
# Coordination Sequence:
#
# PCOD8183291 Si02
#       8
#     8   8   8   8   8   8   8   8
#     4   8  18  35  52  73 105 140 173 218 272 322
#     4  10  20  35  55  77 105 142 180 222 270 324
#     4   9  18  32  54  83 111 138 172 219 271 325
#     4  10  20  34  52  78 107 135 174 223 269 313
#     4  10  19  35  57  78 104 142 182 215 262 328
#     4  10  21  36  56  80 107 143 189 229 269 331
#     4   9  18  34  54  80 110 140 176 223 274 326
#     4  10  21  37  55  77 110 144 181 229 275 320
#
# _framework density 18.454049999999999
#
# number of rings (size 3 to 8) (size 9 to 14) (size 15 to 20)
#    0.000    2.500    0.000    2.625    1.750    4.000 
#    0.000    6.250    0.000    0.000    0.000    0.000 
#    0.000    0.000    0.000    0.000    0.000    0.000 
#
# Total GULP energy -396590.146299 kJ/mol
# GULP energy per Si atom -12393.442072 kJ/mol
# Density = 1.841205 g / cm^3
# Si number density = 18.454050 Si / 1000 Ang^3
#
#
#
# Elastic Constant Matrix: (Units=GPa)
#
#
# Indices 1 2 3 4 5 6 
#
# 1 37.3328 29.0374 37.9464 0.0000 0.0000 0.0000
# 2 29.0374 113.6249 60.9366 0.0000 0.0000 0.0000
# 3 37.9464 60.9366 121.7194 0.0000 0.0000 0.0000
# 4 0.0000 0.0000 0.0000 15.5382 0.0000 0.0000
# 5 0.0000 0.0000 0.0000 0.0000 29.0624 0.0000
# 6 0.0000 0.0000 0.0000 0.0000 0.0000 24.3821
#
#
#
# Elastic Compliance Matrix: (Units=1/GPa)
#
#
# Indices 1 2 3 4 5 6 
#
# 1 0.041169 -0.004973 -0.010345 0.000000 0.000000 0.000000
# 2 -0.004973 0.012632 -0.004774 0.000000 0.000000 0.000000
# 3 -0.010345 -0.004774 0.013830 0.000000 0.000000 0.000000
# 4 0.000000 0.000000 0.000000 0.064358 0.000000 0.000000
# 5 0.000000 0.000000 0.000000 0.000000 0.034409 0.000000
# 6 0.000000 0.000000 0.000000 0.000000 0.000000 0.041014
#
#
# Mechanical properties :
#
#
# Convention : Reuss Voigt Hill
#
# Bulk Modulus (GPa) = 36.43206 58.72422 47.57814
# Shear Modulus (GPa) = 19.47468 23.44699 21.46084
#
# Velocity S-wave (km/s) = 3.25207 3.56836 3.41388
# Velocity P-wave (km/s) = 5.82119 6.99060 6.43252
#
# Compressibility (1/GPa) = 0.02744835
#
# Stress axis : x y z
#
# Youngs Moduli (GPa) = 24.29013 79.16535 72.30414
#
# Poissons Ratio (x) = 0.39369 0.74798
# Poissons Ratio (y) = 0.12079 0.34515
# Poissons Ratio (z) = 0.25128 0.37790
#
# Static dielectric constant tensor:
#      x y z
#    x 3.276520 0.000000 0.000000 
#    y 0.000000 3.628870 0.000000 
#    z 0.000000 0.000000 3.472000 
# 
# 
# High freq. dielectric constant tensor:
#      x y z
#    x 1.702080 0.000000 0.000000 
#    y 0.000000 1.716570 0.000000 
#    z 0.000000 0.000000 1.715970 
# 
# From -- ./inp_files/10667.got.cif
#   From: 2010.03.12/outbox.cif.g09.slc.cpg/sg40_6_cif.got.tgz:10667.got - 2010.04.14 01:38:03.
