data_PCOD8183750
_publ_section_title
;
Structure prediction by ZEFSAII (Michael W. Deem and Ramdas Pophale) SiO2 
 PCOD8183750
Probable space group: A M A 2
;
_chemical_formula_sum "Si O2"
_cell_formula_units_Z 48
_cell_length_a 17.701463
_cell_length_b 15.505052
_cell_length_c 8.969081
_cell_angle_alpha 90.000000
_cell_angle_beta 90.000000
_cell_angle_gamma 90.000000
_cell_volume 2461.672845
_symmetry_space_group_name_H-M "A M A 2"
_symmetry_group_IT_number 40
_symmetry_cell_setting 'orthorhombic'
loop_
_space_group_symop_operation_xyz
x,y,z
-x,-y,z
1/2-x,y,z
1/2+x,-y,z
x,1/2+y,1/2+z
-x,1/2-y,1/2+z
1/2-x,1/2+y,1/2+z
1/2+x,1/2-y,1/2+z
loop_
_atom_site_type_symbol
_atom_site_label
_atom_site_fract_x
_atom_site_fract_y
_atom_site_fract_z
Si Si1 0.337954 0.822939 0.087710
Si Si2 0.565034 0.259373 0.342897
Si Si3 0.595295 0.322070 0.904564
Si Si4 0.666296 0.512510 0.415998
Si Si5 0.566698 0.935278 0.671474
Si Si6 0.164884 0.663789 0.589093
O O1 0.250000 0.830379 0.136300
O O2 0.389996 0.802079 0.229527
O O3 0.346413 0.748582 0.965244
O O4 0.370399 0.910516 0.013109
O O5 0.489780 0.213690 0.400110
O O6 0.543476 0.350911 0.267579
O O7 0.618312 0.270502 0.486461
O O8 0.622303 0.349943 0.743380
O O9 0.600022 0.404889 0.013198
O O10 0.750000 0.542469 0.371932
O O11 0.625784 0.493738 0.260771
O O12 0.667117 0.428974 0.516499
O O13 0.500000 0.000000 0.636387
O O14 0.250000 0.699641 0.609984
#
# Coordination Sequence:
#
# PCOD8183750 Si02
#       6
#     8   8   8   8   8   8
#     4  10  20  37  59  82 108 144 186 229 275 330
#     4  10  21  37  57  81 111 146 186 230 277 331
#     4  11  22  35  55  83 113 144 182 230 277 329
#     4   9  20  37  57  79 107 143 185 227 275 330
#     4  10  21  36  55  78 109 147 184 225 276 333
#     4  10  20  36  56  81 110 144 182 227 279 331
#
# _framework density 19.498934999999999
#
# number of rings (size 3 to 8) (size 9 to 14) (size 15 to 20)
#    0.000    2.000    0.000    4.000    0.000    7.333 
#    0.000    0.833    0.000    5.000    0.000    0.000 
#    0.000    0.000    0.000    0.000    0.000    0.000 
#
# Total GULP energy -297595.900273 kJ/mol
# GULP energy per Si atom -12399.829178 kJ/mol
# Density = 1.945455 g / cm^3
# Si number density = 19.498935 Si / 1000 Ang^3
#
#
#
# Elastic Constant Matrix: (Units=GPa)
#
#
# Indices 1 2 3 4 5 6 
#
# 1 90.0255 36.1043 44.1607 0.0000 0.0000 0.0000
# 2 36.1043 54.6011 28.2167 0.0000 0.0000 0.0000
# 3 44.1607 28.2167 123.5061 0.0000 0.0000 0.0000
# 4 0.0000 0.0000 0.0000 30.0285 0.0000 0.0000
# 5 0.0000 0.0000 0.0000 0.0000 28.7630 0.0000
# 6 0.0000 0.0000 0.0000 0.0000 0.0000 31.0744
#
#
#
# Elastic Compliance Matrix: (Units=1/GPa)
#
#
# Indices 1 2 3 4 5 6 
#
# 1 0.016617 -0.008977 -0.003890 0.000000 0.000000 0.000000
# 2 -0.008977 0.025616 -0.002643 0.000000 0.000000 0.000000
# 3 -0.003890 -0.002643 0.010092 0.000000 0.000000 0.000000
# 4 0.000000 0.000000 0.000000 0.033302 0.000000 0.000000
# 5 0.000000 0.000000 0.000000 0.000000 0.034767 0.000000
# 6 0.000000 0.000000 0.000000 0.000000 0.000000 0.032181
#
#
# Mechanical properties :
#
#
# Convention : Reuss Voigt Hill
#
# Bulk Modulus (GPa) = 46.93897 53.89956 50.41927
# Shear Modulus (GPa) = 26.21985 28.61658 27.41821
#
# Velocity S-wave (km/s) = 3.67097 3.83508 3.75392
# Velocity P-wave (km/s) = 6.48790 6.87843 6.68602
#
# Compressibility (1/GPa) = 0.02130426
#
# Stress axis : x y z
#
# Youngs Moduli (GPa) = 60.18091 39.03778 99.09258
#
# Poissons Ratio (x) = 0.35044 0.38552
# Poissons Ratio (y) = 0.54024 0.26186
# Poissons Ratio (z) = 0.23413 0.10316
#
# Static dielectric constant tensor:
#      x y z
#    x 3.754510 0.000000 0.000000 
#    y 0.000000 3.567980 0.000000 
#    z 0.000000 0.000000 3.607380 
# 
# 
# High freq. dielectric constant tensor:
#      x y z
#    x 1.763670 0.000000 0.000000 
#    y 0.000000 1.755820 0.000000 
#    z 0.000000 0.000000 1.765850 
# 
# From -- ./inp_files/6448.got.cif
#   From: 2010.03.12/outbox.cif.g09.slc.cpg/sg40_4_cif.got.tgz:6448.got - 2010.04.14 01:38:03.
