data_PCOD8183045
_publ_section_title
;
Structure prediction by ZEFSAII (Michael W. Deem and Ramdas Pophale) SiO2 
 PCOD8183045
Probable space group: A M A 2
;
_chemical_formula_sum "Si O2"
_cell_formula_units_Z 64
_cell_length_a 9.020625
_cell_length_b 24.906116
_cell_length_c 15.125723
_cell_angle_alpha 90.000000
_cell_angle_beta 90.000000
_cell_angle_gamma 90.000000
_cell_volume 3398.277017
_symmetry_space_group_name_H-M "A M A 2"
_symmetry_group_IT_number 40
_symmetry_cell_setting 'orthorhombic'
loop_
_space_group_symop_operation_xyz
x,y,z
-x,-y,z
1/2-x,y,z
1/2+x,-y,z
x,1/2+y,1/2+z
-x,1/2-y,1/2+z
1/2-x,1/2+y,1/2+z
1/2+x,1/2-y,1/2+z
loop_
_atom_site_type_symbol
_atom_site_label
_atom_site_fract_x
_atom_site_fract_y
_atom_site_fract_z
Si Si1 0.079054 0.103909 0.789230
Si Si2 0.079671 0.863422 0.114008
Si Si3 0.922891 0.353496 0.975512
Si Si4 0.574327 0.057127 0.959168
Si Si5 0.425516 0.169517 0.280595
Si Si6 0.080029 0.265487 0.494691
Si Si7 0.420523 0.223958 0.816929
Si Si8 0.425889 0.055715 0.603239
O O1 0.250000 0.092008 0.813767
O O2 0.057091 0.167005 0.768333
O O3 0.028863 0.071962 0.702327
O O4 0.976740 0.084437 0.868758
O O5 0.250000 0.873900 0.137610
O O6 0.984999 0.869408 0.203452
O O7 0.024305 0.905918 0.041347
O O8 0.054597 0.802996 0.078896
O O9 0.750000 0.364385 0.972033
O O10 0.993827 0.400416 0.034914
O O11 0.983894 0.353454 0.874749
O O12 0.956332 0.295917 0.021070
O O13 0.750000 0.050709 0.955331
O O14 0.500000 0.000000 0.973023
O O15 0.250000 0.171533 0.276946
O O16 0.485780 0.230053 0.267870
O O17 0.250000 0.270125 0.460455
O O18 0.972608 0.284858 0.417296
O O19 0.250000 0.241972 0.815552
O O20 0.250000 0.051095 0.594864
O O21 0.500000 0.000000 0.577454
#
# Coordination Sequence:
#
# PCOD8183045 Si02
#       8
#     8   8   8   8   8   8   8   8
#     4  10  21  35  56  84 114 150 189 227 276 338
#     4  10  21  36  57  84 113 148 190 236 286 335
#     4   8  17  35  58  78 104 143 185 224 275 334
#     4  11  23  39  59  82 114 152 190 234 284 342
#     4  10  21  36  56  82 114 151 189 233 283 341
#     4   9  17  33  56  80 109 145 183 224 278 338
#     4  10  19  32  53  83 117 148 184 225 273 335
#     4  10  21  38  57  79 106 142 187 230 274 327
#
# _framework density 18.833072999999999
#
# number of rings (size 3 to 8) (size 9 to 14) (size 15 to 20)
#    0.000    2.250    1.250    2.250    1.750    3.500 
#    0.000    3.750    0.000    3.000    0.000    0.000 
#    0.000    0.000    0.000    0.000    0.000    0.000 
#
# Total GULP energy -396783.868371 kJ/mol
# GULP energy per Si atom -12399.495887 kJ/mol
# Density = 1.879021 g / cm^3
# Si number density = 18.833073 Si / 1000 Ang^3
#
#
#
# Elastic Constant Matrix: (Units=GPa)
#
#
# Indices 1 2 3 4 5 6 
#
# 1 61.1255 38.3540 42.0738 0.0000 0.0000 0.0000
# 2 38.3540 121.1116 63.4870 0.0000 0.0000 0.0000
# 3 42.0738 63.4870 108.6797 0.0000 0.0000 0.0000
# 4 0.0000 0.0000 0.0000 30.6410 0.0000 0.0000
# 5 0.0000 0.0000 0.0000 0.0000 28.3530 0.0000
# 6 0.0000 0.0000 0.0000 0.0000 0.0000 26.4467
#
#
#
# Elastic Compliance Matrix: (Units=1/GPa)
#
#
# Indices 1 2 3 4 5 6 
#
# 1 0.023486 -0.003851 -0.006843 0.000000 0.000000 0.000000
# 2 -0.003851 0.012533 -0.005830 0.000000 0.000000 0.000000
# 3 -0.006843 -0.005830 0.015256 0.000000 0.000000 0.000000
# 4 0.000000 0.000000 0.000000 0.032636 0.000000 0.000000
# 5 0.000000 0.000000 0.000000 0.000000 0.035270 0.000000
# 6 0.000000 0.000000 0.000000 0.000000 0.000000 0.037812
#
#
# Mechanical properties :
#
#
# Convention : Reuss Voigt Hill
#
# Bulk Modulus (GPa) = 54.86299 64.30517 59.58408
# Shear Modulus (GPa) = 25.49513 26.88828 26.19171
#
# Velocity S-wave (km/s) = 3.68332 3.78261 3.73329
# Velocity P-wave (km/s) = 6.87630 7.30044 7.09154
#
# Compressibility (1/GPa) = 0.01822722
#
# Stress axis : x y z
#
# Youngs Moduli (GPa) = 42.57862 79.79208 65.54620
#
# Poissons Ratio (x) = 0.30724 0.44853
# Poissons Ratio (y) = 0.16395 0.38216
# Poissons Ratio (z) = 0.29136 0.46522
#
# Static dielectric constant tensor:
#      x y z
#    x 3.309830 0.000000 0.000000 
#    y 0.000000 3.570580 0.000000 
#    z 0.000000 0.000000 3.498780 
# 
# 
# High freq. dielectric constant tensor:
#      x y z
#    x 1.718120 0.000000 0.000000 
#    y 0.000000 1.729720 0.000000 
#    z 0.000000 0.000000 1.728960 
# 
# From -- ./inp_files/15561.got.cif
#   From: 2010.03.12/outbox.cif.g09.slc.cpg/sg40_8_cif.got.tgz:15561.got - 2010.04.14 01:38:03.
