data_PCOD8183818
_publ_section_title
;
Structure prediction by ZEFSAII (Michael W. Deem and Ramdas Pophale) SiO2 
 PCOD8183818
Probable space group: A M A 2
;
_chemical_formula_sum "Si O2"
_cell_formula_units_Z 64
_cell_length_a 17.222068
_cell_length_b 15.981482
_cell_length_c 12.061245
_cell_angle_alpha 90.000000
_cell_angle_beta 90.000000
_cell_angle_gamma 90.000000
_cell_volume 3319.666754
_symmetry_space_group_name_H-M "A M A 2"
_symmetry_group_IT_number 40
_symmetry_cell_setting 'orthorhombic'
loop_
_space_group_symop_operation_xyz
x,y,z
-x,-y,z
1/2-x,y,z
1/2+x,-y,z
x,1/2+y,1/2+z
-x,1/2-y,1/2+z
1/2-x,1/2+y,1/2+z
1/2+x,1/2-y,1/2+z
loop_
_atom_site_type_symbol
_atom_site_label
_atom_site_fract_x
_atom_site_fract_y
_atom_site_fract_z
Si Si1 0.159698 0.594009 0.228600
Si Si2 0.161221 0.853807 0.260518
Si Si3 0.841074 0.791197 0.920267
Si Si4 0.083991 0.458979 0.105509
Si Si5 0.900029 0.259800 0.085900
Si Si6 0.408005 0.006393 0.366268
Si Si7 0.844238 0.809122 0.347944
Si Si8 0.923481 0.738155 0.132064
O O1 0.250000 0.608454 0.209841
O O2 0.136951 0.623709 0.352967
O O3 0.135600 0.498186 0.205570
O O4 0.116504 0.649438 0.136732
O O5 0.250000 0.871374 0.285233
O O6 0.126969 0.787255 0.349053
O O7 0.151868 0.814186 0.138363
O O8 0.118326 0.941979 0.271454
O O9 0.750000 0.783806 0.936528
O O10 0.878935 0.791959 0.039896
O O11 0.083476 0.360441 0.116902
O O12 0.000000 0.500000 0.114697
O O13 0.123731 0.480075 0.987389
O O14 0.987828 0.234681 0.116401
O O15 0.880010 0.264927 0.956423
O O16 0.373382 0.096139 0.336980
O O17 0.500000 0.000000 0.368664
O O18 0.750000 0.804153 0.345653
O O19 0.884150 0.759472 0.248218
#
# Coordination Sequence:
#
# PCOD8183818 Si02
#       8
#     8   8   8   8   8   8   8   8
#     4  10  20  36  61  85 118 160 210 255 300 369
#     4  10  20  36  61  88 117 160 210 253 296 371
#     4   9  20  37  58  87 119 160 207 249 305 372
#     4  11  21  37  58  93 123 159 207 266 313 373
#     4  11  22  38  63  89 124 165 212 253 318 384
#     4  11  21  38  62  92 126 161 217 264 320 375
#     4  12  26  42  62  97 138 171 207 272 339 385
#     4  12  24  39  65  92 132 162 208 264 326 382
#
# _framework density 19.279043999999999
#
# number of rings (size 3 to 8) (size 9 to 14) (size 15 to 20)
#    0.000    1.250    3.750    4.125    3.500    1.500 
#    0.000    1.250    0.000    3.000    0.000    0.000 
#    0.000    0.000    0.000    0.000    0.000    0.000 
#
# Total GULP energy -396748.506802 kJ/mol
# GULP energy per Si atom -12398.390838 kJ/mol
# Density = 1.923516 g / cm^3
# Si number density = 19.279044 Si / 1000 Ang^3
#
#
#
# Elastic Constant Matrix: (Units=GPa)
#
#
# Indices 1 2 3 4 5 6 
#
# 1 85.0378 12.6972 32.6408 0.0000 0.0000 0.0000
# 2 12.6972 67.5322 19.4449 0.0000 0.0000 0.0000
# 3 32.6408 19.4449 103.5864 0.0000 0.0000 0.0000
# 4 0.0000 0.0000 0.0000 30.0861 0.0000 0.0000
# 5 0.0000 0.0000 0.0000 0.0000 32.0781 0.0000
# 6 0.0000 0.0000 0.0000 0.0000 0.0000 24.7785
#
#
#
# Elastic Compliance Matrix: (Units=1/GPa)
#
#
# Indices 1 2 3 4 5 6 
#
# 1 0.013500 -0.001388 -0.003993 0.000000 0.000000 0.000000
# 2 -0.001388 0.015797 -0.002528 0.000000 0.000000 0.000000
# 3 -0.003993 -0.002528 0.011387 0.000000 0.000000 0.000000
# 4 0.000000 0.000000 0.000000 0.033238 0.000000 0.000000
# 5 0.000000 0.000000 0.000000 0.000000 0.031174 0.000000
# 6 0.000000 0.000000 0.000000 0.000000 0.000000 0.040358
#
#
# Mechanical properties :
#
#
# Convention : Reuss Voigt Hill
#
# Bulk Modulus (GPa) = 40.21877 42.85803 41.53840
# Shear Modulus (GPa) = 29.48828 30.14676 29.81752
#
# Velocity S-wave (km/s) = 3.91519 3.95866 3.93699
# Velocity P-wave (km/s) = 6.43001 6.57064 6.50070
#
# Compressibility (1/GPa) = 0.02486401
#
# Stress axis : x y z
#
# Youngs Moduli (GPa) = 74.07675 63.30465 87.82278
#
# Poissons Ratio (x) = 0.08789 0.35069
# Poissons Ratio (y) = 0.10285 0.22200
# Poissons Ratio (z) = 0.29580 0.16002
#
# Static dielectric constant tensor:
#      x y z
#    x 3.605190 0.000000 0.000000 
#    y 0.000000 3.496710 0.000000 
#    z 0.000000 0.000000 3.630530 
# 
# 
# High freq. dielectric constant tensor:
#      x y z
#    x 1.759340 0.000000 0.000000 
#    y 0.000000 1.741430 0.000000 
#    z 0.000000 0.000000 1.744060 
# 
# From -- ./inp_files/12464.got.cif
#   From: 2010.03.12/outbox.cif.g09.slc.cpg/sg40_7_cif.got.tgz:12464.got - 2010.04.14 01:38:03.
