data_PCOD8183088
_publ_section_title
;
Structure prediction by ZEFSAII (Michael W. Deem and Ramdas Pophale) SiO2 
 PCOD8183088
Probable space group: A M A 2
;
_chemical_formula_sum "Si O2"
_cell_formula_units_Z 64
_cell_length_a 8.844106
_cell_length_b 23.246960
_cell_length_c 18.859151
_cell_angle_alpha 90.000000
_cell_angle_beta 90.000000
_cell_angle_gamma 90.000000
_cell_volume 3877.414636
_symmetry_space_group_name_H-M "A M A 2"
_symmetry_group_IT_number 40
_symmetry_cell_setting 'orthorhombic'
loop_
_space_group_symop_operation_xyz
x,y,z
-x,-y,z
1/2-x,y,z
1/2+x,-y,z
x,1/2+y,1/2+z
-x,1/2-y,1/2+z
1/2-x,1/2+y,1/2+z
1/2+x,1/2-y,1/2+z
loop_
_atom_site_type_symbol
_atom_site_label
_atom_site_fract_x
_atom_site_fract_y
_atom_site_fract_z
Si Si1 0.426861 0.722283 0.884870
Si Si2 0.572000 0.060073 0.882407
Si Si3 0.927466 0.659059 0.008308
Si Si4 0.926449 0.770983 0.097981
Si Si5 0.574623 0.667148 0.475484
Si Si6 0.928561 0.438353 0.096165
Si Si7 0.072049 0.114395 0.745769
Si Si8 0.928563 0.753394 0.742871
O O1 0.250000 0.709161 0.883859
O O2 0.463593 0.785040 0.916560
O O3 0.492320 0.718913 0.806042
O O4 0.509779 0.673524 0.930594
O O5 0.750000 0.053142 0.875680
O O6 0.527780 0.105997 0.942755
O O7 0.511594 0.079464 0.806495
O O8 0.500000 0.000000 0.905825
O O9 0.750000 0.648373 0.003973
O O10 0.968860 0.710651 0.061627
O O11 0.009707 0.602020 0.034238
O O12 0.750000 0.776307 0.114133
O O13 0.018808 0.776202 0.170379
O O14 0.976654 0.822660 0.046092
O O15 0.750000 0.669628 0.496553
O O16 0.750000 0.442325 0.089923
O O17 0.978891 0.413533 0.171960
O O18 0.000000 0.500000 0.084648
O O19 0.250000 0.109390 0.758392
O O20 0.018248 0.180367 0.745108
O O21 0.750000 0.748064 0.750115
#
# Coordination Sequence:
#
# PCOD8183088 Si02
#       8
#     8   8   8   8   8   8   8   8
#     4  10  19  33  52  74 101 132 168 210 255 305
#     4  11  22  35  51  72 100 137 176 214 253 297
#     4  10  20  34  51  74 100 132 170 212 257 304
#     4  10  20  32  51  75 100 130 167 209 255 304
#     4   9  19  34  50  70  98 132 168 209 255 298
#     4  11  22  36  51  72 100 138 178 216 256 299
#     4  10  21  34  49  71 101 138 177 212 247 293
#     4  11  20  32  51  76 105 136 169 207 253 305
#
# _framework density 16.505844
#
# number of rings (size 3 to 8) (size 9 to 14) (size 15 to 20)
#    0.000    1.750    2.500    2.625    0.000    5.000 
#    0.000    0.000    0.000    0.000    0.000    0.875 
#    0.000    2.000    0.000    0.000    0.000    0.000 
#
# Total GULP energy -396970.611747 kJ/mol
# GULP energy per Si atom -12405.331617 kJ/mol
# Density = 1.646828 g / cm^3
# Si number density = 16.505844 Si / 1000 Ang^3
#
#
#
# Elastic Constant Matrix: (Units=GPa)
#
#
# Indices 1 2 3 4 5 6 
#
# 1 55.0877 34.6303 33.3105 0.0000 0.0000 0.0000
# 2 34.6303 93.1940 53.1173 0.0000 0.0000 0.0000
# 3 33.3105 53.1173 101.6813 0.0000 0.0000 0.0000
# 4 0.0000 0.0000 0.0000 24.8964 0.0000 0.0000
# 5 0.0000 0.0000 0.0000 0.0000 32.0702 0.0000
# 6 0.0000 0.0000 0.0000 0.0000 0.0000 25.4970
#
#
#
# Elastic Compliance Matrix: (Units=1/GPa)
#
#
# Indices 1 2 3 4 5 6 
#
# 1 0.025227 -0.006641 -0.004795 0.000000 0.000000 0.000000
# 2 -0.006641 0.017028 -0.006720 0.000000 0.000000 0.000000
# 3 -0.004795 -0.006720 0.014916 0.000000 0.000000 0.000000
# 4 0.000000 0.000000 0.000000 0.040166 0.000000 0.000000
# 5 0.000000 0.000000 0.000000 0.000000 0.031182 0.000000
# 6 0.000000 0.000000 0.000000 0.000000 0.000000 0.039220
#
#
# Mechanical properties :
#
#
# Convention : Reuss Voigt Hill
#
# Bulk Modulus (GPa) = 47.94044 54.67547 51.30795
# Shear Modulus (GPa) = 23.69614 25.08636 24.39125
#
# Velocity S-wave (km/s) = 3.79307 3.90275 3.84830
# Velocity P-wave (km/s) = 6.94915 7.31474 7.13429
#
# Compressibility (1/GPa) = 0.02085922
#
# Stress axis : x y z
#
# Youngs Moduli (GPa) = 39.63956 58.72636 67.04308
#
# Poissons Ratio (x) = 0.39002 0.32148
# Poissons Ratio (y) = 0.26326 0.45051
# Poissons Ratio (z) = 0.19007 0.39462
#
# Static dielectric constant tensor:
#      x y z
#    x 3.151590 0.000000 0.000000 
#    y 0.000000 3.003790 0.000000 
#    z 0.000000 0.000000 3.068080 
# 
# 
# High freq. dielectric constant tensor:
#      x y z
#    x 1.649980 0.000000 0.000000 
#    y 0.000000 1.611170 0.000000 
#    z 0.000000 0.000000 1.631150 
# 
# From -- ./inp_files/15573.got.cif
#   From: 2010.03.12/outbox.cif.g09.slc.cpg/sg40_8_cif.got.tgz:15573.got - 2010.04.14 01:38:03.
