data_PCOD8183955
_publ_section_title
;
Structure prediction by ZEFSAII (Michael W. Deem and Ramdas Pophale) SiO2 
 PCOD8183955
Probable space group: A M A 2
;
_chemical_formula_sum "Si O2"
_cell_formula_units_Z 64
_cell_length_a 26.159075
_cell_length_b 11.273130
_cell_length_c 8.961016
_cell_angle_alpha 90.000000
_cell_angle_beta 90.000000
_cell_angle_gamma 90.000000
_cell_volume 2642.555705
_symmetry_space_group_name_H-M "A M A 2"
_symmetry_group_IT_number 40
_symmetry_cell_setting 'orthorhombic'
loop_
_space_group_symop_operation_xyz
x,y,z
-x,-y,z
1/2-x,y,z
1/2+x,-y,z
x,1/2+y,1/2+z
-x,1/2-y,1/2+z
1/2-x,1/2+y,1/2+z
1/2+x,1/2-y,1/2+z
loop_
_atom_site_type_symbol
_atom_site_label
_atom_site_fract_x
_atom_site_fract_y
_atom_site_fract_z
Si Si1 0.193443 0.467308 0.189570
Si Si2 0.426735 0.195742 0.623733
Si Si3 0.664054 0.800510 0.829115
Si Si4 0.894387 0.614556 0.399936
Si Si5 0.052557 0.465664 0.934006
Si Si6 0.539198 0.722250 0.171092
Si Si7 0.126397 0.103836 0.109547
Si Si8 0.338301 0.456978 0.849556
O O1 0.250000 0.408879 0.191648
O O2 0.200160 0.597932 0.262531
O O3 0.153914 0.386097 0.283460
O O4 0.175876 0.489008 0.018242
O O5 0.392738 0.174949 0.768436
O O6 0.392338 0.271984 0.508784
O O7 0.479422 0.260005 0.678374
O O8 0.438340 0.066940 0.557634
O O9 0.686041 0.668190 0.796292
O O10 0.658638 0.803828 0.009199
O O11 0.946543 0.629637 0.303871
O O12 0.894538 0.497614 0.498998
O O13 0.099851 0.449206 0.823449
O O14 0.000000 0.500000 0.847482
O O15 0.047519 0.338644 0.012349
O O16 0.577473 0.834787 0.189436
O O17 0.170805 0.059634 0.227306
#
# Coordination Sequence:
#
# PCOD8183955 Si02
#       8
#     8   8   8   8   8   8   8   8
#     4  11  26  50  76 101 138 188 245 316 388 440
#     4  11  23  40  68 104 151 197 240 287 358 437
#     4  11  23  45  68  99 141 182 230 295 361 429
#     4  11  23  46  70 105 146 193 248 302 362 443
#     4  10  20  38  63  97 143 195 230 276 349 423
#     4  11  23  40  65 104 150 197 240 283 352 435
#     4  11  24  40  70 101 144 188 238 288 355 423
#     4  12  22  43  71 103 141 182 236 304 362 435
#
# _framework density 24.218979999999998
#
# number of rings (size 3 to 8) (size 9 to 14) (size 15 to 20)
#    0.000    1.000    5.000    1.500    1.750    2.000 
#    2.250    3.125    0.000    0.000    0.000    0.000 
#    0.000    0.000    0.000    0.000    0.000    0.000 
#
# Total GULP energy -396583.142288 kJ/mol
# GULP energy per Si atom -12393.223197 kJ/mol
# Density = 2.416386 g / cm^3
# Si number density = 24.218980 Si / 1000 Ang^3
#
#
#
# Elastic Constant Matrix: (Units=GPa)
#
#
# Indices 1 2 3 4 5 6 
#
# 1 104.1583 19.3890 36.3880 0.0000 0.0000 0.0000
# 2 19.3890 62.6297 12.9217 0.0000 0.0000 0.0000
# 3 36.3880 12.9217 106.4126 0.0000 0.0000 0.0000
# 4 0.0000 0.0000 0.0000 37.0630 0.0000 0.0000
# 5 0.0000 0.0000 0.0000 0.0000 11.9689 0.0000
# 6 0.0000 0.0000 0.0000 0.0000 0.0000 20.4404
#
#
#
# Elastic Compliance Matrix: (Units=1/GPa)
#
#
# Indices 1 2 3 4 5 6 
#
# 1 0.011358 -0.002785 -0.003546 0.000000 0.000000 0.000000
# 2 -0.002785 0.017060 -0.001119 0.000000 0.000000 0.000000
# 3 -0.003546 -0.001119 0.010746 0.000000 0.000000 0.000000
# 4 0.000000 0.000000 0.000000 0.026981 0.000000 0.000000
# 5 0.000000 0.000000 0.000000 0.000000 0.083550 0.000000
# 6 0.000000 0.000000 0.000000 0.000000 0.000000 0.048923
#
#
# Mechanical properties :
#
#
# Convention : Reuss Voigt Hill
#
# Bulk Modulus (GPa) = 41.21317 45.62199 43.41758
# Shear Modulus (GPa) = 22.56272 27.52792 25.04532
#
# Velocity S-wave (km/s) = 3.05554 3.37505 3.21926
# Velocity P-wave (km/s) = 5.43160 5.83662 5.63775
#
# Compressibility (1/GPa) = 0.02426409
#
# Stress axis : x y z
#
# Youngs Moduli (GPa) = 88.04502 58.61702 93.05995
#
# Poissons Ratio (x) = 0.16323 0.32996
# Poissons Ratio (y) = 0.24517 0.10417
# Poissons Ratio (z) = 0.31218 0.06561
#
# Static dielectric constant tensor:
#      x y z
#    x 4.219770 0.000000 0.000000 
#    y 0.000000 4.516810 0.000000 
#    z 0.000000 0.000000 4.449880 
# 
# 
# High freq. dielectric constant tensor:
#      x y z
#    x 1.924430 0.000000 0.000000 
#    y 0.000000 1.969370 0.000000 
#    z 0.000000 0.000000 1.970310 
# 
# From -- ./inp_files/9428.got.cif
#   From: 2010.03.12/outbox.cif.g09.slc.cpg/sg40_5_cif.got.tgz:9428.got - 2010.04.14 01:38:03.
