data_PCOD8183072
_publ_section_title
;
Structure prediction by ZEFSAII (Michael W. Deem and Ramdas Pophale) SiO2 
 PCOD8183072
Probable space group: A M A 2
;
_chemical_formula_sum "Si O2"
_cell_formula_units_Z 64
_cell_length_a 8.840520
_cell_length_b 23.187178
_cell_length_c 18.905453
_cell_angle_alpha 90.000000
_cell_angle_beta 90.000000
_cell_angle_gamma 90.000000
_cell_volume 3875.366628
_symmetry_space_group_name_H-M "A M A 2"
_symmetry_group_IT_number 40
_symmetry_cell_setting 'orthorhombic'
loop_
_space_group_symop_operation_xyz
x,y,z
-x,-y,z
1/2-x,y,z
1/2+x,-y,z
x,1/2+y,1/2+z
-x,1/2-y,1/2+z
1/2-x,1/2+y,1/2+z
1/2+x,1/2-y,1/2+z
loop_
_atom_site_type_symbol
_atom_site_label
_atom_site_fract_x
_atom_site_fract_y
_atom_site_fract_z
Si Si1 0.075808 0.762593 0.742210
Si Si2 0.572869 0.439526 0.389000
Si Si3 0.577503 0.841359 0.522294
Si Si4 0.926156 0.334236 0.483497
Si Si5 0.922834 0.262887 0.898825
Si Si6 0.570540 0.386190 0.242269
Si Si7 0.575617 0.225087 0.108048
Si Si8 0.928313 0.560367 0.103993
O O1 0.250000 0.779730 0.730330
O O2 0.053876 0.727611 0.815404
O O3 0.976082 0.819827 0.741386
O O4 0.019202 0.720514 0.680278
O O5 0.500000 0.500000 0.407882
O O6 0.750000 0.447782 0.382182
O O7 0.530870 0.396610 0.452722
O O8 0.511111 0.414752 0.314732
O O9 0.750000 0.862519 0.530777
O O10 0.541897 0.822031 0.441459
O O11 0.546329 0.787240 0.573255
O O12 0.467085 0.893012 0.543524
O O13 0.750000 0.328824 0.500616
O O14 0.966749 0.287555 0.423818
O O15 0.019174 0.324766 0.555329
O O16 0.750000 0.244223 0.916748
O O17 0.750000 0.389597 0.233759
O O18 0.494908 0.420911 0.179000
O O19 0.750000 0.214507 0.125213
O O20 0.750000 0.553914 0.110663
O O21 0.000000 0.500000 0.080499
#
# Coordination Sequence:
#
# PCOD8183072 Si02
#       8
#     8   8   8   8   8   8   8   8
#     4  11  20  31  51  78 103 135 171 205 249 305
#     4  10  22  35  50  71  98 135 174 212 251 293
#     4   9  18  34  51  70  99 131 165 207 250 296
#     4  10  19  33  50  72  99 130 170 212 252 296
#     4   9  19  33  51  74 101 132 165 203 253 301
#     4  11  21  35  49  70 103 138 174 211 247 291
#     4  10  20  33  51  73 101 134 165 206 257 301
#     4  12  24  36  51  72  98 135 176 213 251 296
#
# _framework density 16.514567
#
# number of rings (size 3 to 8) (size 9 to 14) (size 15 to 20)
#    0.000    1.750    2.500    3.750    0.000    5.500 
#    0.000    0.000    0.000    0.000    0.000    0.875 
#    0.000    4.000    0.000    0.000    0.000    0.000 
#
# Total GULP energy -396878.586757 kJ/mol
# GULP energy per Si atom -12402.455836 kJ/mol
# Density = 1.647698 g / cm^3
# Si number density = 16.514567 Si / 1000 Ang^3
#
#
#
# Elastic Constant Matrix: (Units=GPa)
#
#
# Indices 1 2 3 4 5 6 
#
# 1 78.9384 40.2247 39.9186 0.0000 0.0000 0.0000
# 2 40.2247 83.2860 51.2691 0.0000 0.0000 0.0000
# 3 39.9186 51.2691 108.9733 0.0000 0.0000 0.0000
# 4 0.0000 0.0000 0.0000 15.4543 0.0000 0.0000
# 5 0.0000 0.0000 0.0000 0.0000 19.5966 0.0000
# 6 0.0000 0.0000 0.0000 0.0000 0.0000 26.8889
#
#
#
# Elastic Compliance Matrix: (Units=1/GPa)
#
#
# Indices 1 2 3 4 5 6 
#
# 1 0.017686 -0.006410 -0.003463 0.000000 0.000000 0.000000
# 2 -0.006410 0.019225 -0.006697 0.000000 0.000000 0.000000
# 3 -0.003463 -0.006697 0.013596 0.000000 0.000000 0.000000
# 4 0.000000 0.000000 0.000000 0.064707 0.000000 0.000000
# 5 0.000000 0.000000 0.000000 0.000000 0.051029 0.000000
# 6 0.000000 0.000000 0.000000 0.000000 0.000000 0.037190
#
#
# Mechanical properties :
#
#
# Convention : Reuss Voigt Hill
#
# Bulk Modulus (GPa) = 57.57986 59.33583 58.45785
# Shear Modulus (GPa) = 20.63041 21.70698 21.16870
#
# Velocity S-wave (km/s) = 3.53827 3.62942 3.58414
# Velocity P-wave (km/s) = 7.18570 7.31922 7.25277
#
# Compressibility (1/GPa) = 0.01736718
#
# Stress axis : x y z
#
# Youngs Moduli (GPa) = 56.54334 52.01543 73.55271
#
# Poissons Ratio (x) = 0.33342 0.25470
# Poissons Ratio (y) = 0.36244 0.49257
# Poissons Ratio (z) = 0.19580 0.34834
#
# Static dielectric constant tensor:
#      x y z
#    x 3.172960 0.000000 0.000000 
#    y 0.000000 3.143270 0.000000 
#    z 0.000000 0.000000 3.289780 
# 
# 
# High freq. dielectric constant tensor:
#      x y z
#    x 1.647790 0.000000 0.000000 
#    y 0.000000 1.605800 0.000000 
#    z 0.000000 0.000000 1.634100 
# 
# From -- ./inp_files/19742.got.cif
#   From: 2010.03.12/outbox.cif.g09.slc.cpg/sg40_10_cif.got.tgz:19742.got - 2010.04.14 01:38:03.
