data_PCOD8183775
_publ_section_title
;
Structure prediction by ZEFSAII (Michael W. Deem and Ramdas Pophale) SiO2 
 PCOD8183775
Probable space group: A M A 2
;
_chemical_formula_sum "Si O2"
_cell_formula_units_Z 64
_cell_length_a 8.858954
_cell_length_b 14.840420
_cell_length_c 24.269796
_cell_angle_alpha 90.000000
_cell_angle_beta 90.000000
_cell_angle_gamma 90.000000
_cell_volume 3190.764596
_symmetry_space_group_name_H-M "A M A 2"
_symmetry_group_IT_number 40
_symmetry_cell_setting 'orthorhombic'
loop_
_space_group_symop_operation_xyz
x,y,z
-x,-y,z
1/2-x,y,z
1/2+x,-y,z
x,1/2+y,1/2+z
-x,1/2-y,1/2+z
1/2-x,1/2+y,1/2+z
1/2+x,1/2-y,1/2+z
loop_
_atom_site_type_symbol
_atom_site_label
_atom_site_fract_x
_atom_site_fract_y
_atom_site_fract_z
Si Si1 0.428893 0.401287 0.575240
Si Si2 0.575678 0.738647 0.886013
Si Si3 0.927335 0.598026 0.333172
Si Si4 0.572146 0.597625 0.095044
Si Si5 0.073798 0.597641 0.805449
Si Si6 0.575063 0.247973 0.512476
Si Si7 0.576252 0.094257 0.714064
Si Si8 0.426421 0.096715 0.183819
O O1 0.500000 0.500000 0.567222
O O2 0.250000 0.409628 0.576571
O O3 0.480509 0.338279 0.524848
O O4 0.489888 0.354934 0.632453
O O5 0.750000 0.740796 0.869129
O O6 0.503949 0.836556 0.876839
O O7 0.493700 0.662792 0.850889
O O8 0.552443 0.716401 0.949999
O O9 0.750000 0.590291 0.345278
O O10 0.957852 0.643903 0.272229
O O11 0.000000 0.500000 0.339244
O O12 0.500000 0.500000 0.086045
O O13 0.750000 0.585898 0.088107
O O14 0.509906 0.666913 0.049874
O O15 0.528478 0.639947 0.155875
O O16 0.250000 0.585884 0.816910
O O17 0.048429 0.641582 0.744117
O O18 0.000000 0.500000 0.810925
O O19 0.750000 0.267921 0.525666
O O20 0.750000 0.072310 0.710090
O O21 0.500000 0.000000 0.719322
O O22 0.250000 0.090127 0.169630
O O23 0.500000 0.000000 0.188471
#
# Coordination Sequence:
#
# PCOD8183775 Si02
#       8
#     8   8   8   8   8   8   8   8
#     4  11  22  37  60  87 115 148 185 231 285 341
#     4  11  24  40  57  80 112 151 196 242 285 334
#     4  10  20  36  58  84 113 145 182 227 283 342
#     4   9  18  35  58  82 110 142 176 219 270 325
#     4  10  21  38  61  87 116 151 189 233 286 342
#     4  10  23  41  57  78 111 151 194 236 279 330
#     4   8  15  29  52  81 109 137 171 213 267 329
#     4   9  17  32  56  85 116 147 181 225 279 341
#
# _framework density 20.057887000000001
#
# number of rings (size 3 to 8) (size 9 to 14) (size 15 to 20)
#    0.000    2.250    0.000    3.375    0.000    5.500 
#    0.000    3.750    0.000    0.000    0.000    0.000 
#    0.000    0.000    0.000    0.000    0.000    0.000 
#
# Total GULP energy -396513.280384 kJ/mol
# GULP energy per Si atom -12391.040012 kJ/mol
# Density = 2.001223 g / cm^3
# Si number density = 20.057887 Si / 1000 Ang^3
#
#
#
# Elastic Constant Matrix: (Units=GPa)
#
#
# Indices 1 2 3 4 5 6 
#
# 1 105.2792 26.5725 37.1492 0.0000 0.0000 0.0000
# 2 26.5725 56.2386 18.8233 0.0000 0.0000 0.0000
# 3 37.1492 18.8233 79.5603 0.0000 0.0000 0.0000
# 4 0.0000 0.0000 0.0000 35.1727 0.0000 0.0000
# 5 0.0000 0.0000 0.0000 0.0000 28.4312 0.0000
# 6 0.0000 0.0000 0.0000 0.0000 0.0000 30.5478
#
#
#
# Elastic Compliance Matrix: (Units=1/GPa)
#
#
# Indices 1 2 3 4 5 6 
#
# 1 0.012221 -0.004197 -0.004713 0.000000 0.000000 0.000000
# 2 -0.004197 0.020752 -0.002950 0.000000 0.000000 0.000000
# 3 -0.004713 -0.002950 0.015468 0.000000 0.000000 0.000000
# 4 0.000000 0.000000 0.000000 0.028431 0.000000 0.000000
# 5 0.000000 0.000000 0.000000 0.000000 0.035173 0.000000
# 6 0.000000 0.000000 0.000000 0.000000 0.000000 0.032736
#
#
# Mechanical properties :
#
#
# Convention : Reuss Voigt Hill
#
# Bulk Modulus (GPa) = 40.45300 45.12980 42.79140
# Shear Modulus (GPa) = 28.29001 29.39919 28.84460
#
# Velocity S-wave (km/s) = 3.75963 3.83262 3.79630
# Velocity P-wave (km/s) = 6.24967 6.49107 6.37151
#
# Compressibility (1/GPa) = 0.02472005
#
# Stress axis : x y z
#
# Youngs Moduli (GPa) = 81.82612 48.18868 64.64992
#
# Poissons Ratio (x) = 0.20224 0.30473
# Poissons Ratio (y) = 0.34341 0.19072
# Poissons Ratio (z) = 0.38568 0.14216
#
# Static dielectric constant tensor:
#      x y z
#    x 3.666460 0.000000 0.000000 
#    y 0.000000 3.367680 0.000000 
#    z 0.000000 0.000000 4.215150 
# 
# 
# High freq. dielectric constant tensor:
#      x y z
#    x 1.787100 0.000000 0.000000 
#    y 0.000000 1.762990 0.000000 
#    z 0.000000 0.000000 1.795840 
# 
# From -- ./inp_files/24304.got.cif
#   From: 2010.03.12/outbox.cif.g09.slc.cpg/sg40_13_cif.got.tgz:24304.got - 2010.04.14 01:38:03.
