data_PCOD8183476
_publ_section_title
;
Structure prediction by ZEFSAII (Michael W. Deem and Ramdas Pophale) SiO2 
 PCOD8183476
Probable space group: A M A 2
;
_chemical_formula_sum "Si O2"
_cell_formula_units_Z 40
_cell_length_a 15.120026
_cell_length_b 24.612384
_cell_length_c 5.199001
_cell_angle_alpha 90.000000
_cell_angle_beta 90.000000
_cell_angle_gamma 90.000000
_cell_volume 1934.755639
_symmetry_space_group_name_H-M "A M A 2"
_symmetry_group_IT_number 40
_symmetry_cell_setting 'orthorhombic'
loop_
_space_group_symop_operation_xyz
x,y,z
-x,-y,z
1/2-x,y,z
1/2+x,-y,z
x,1/2+y,1/2+z
-x,1/2-y,1/2+z
1/2-x,1/2+y,1/2+z
1/2+x,1/2-y,1/2+z
loop_
_atom_site_type_symbol
_atom_site_label
_atom_site_fract_x
_atom_site_fract_y
_atom_site_fract_z
Si Si1 0.644779 0.708202 0.895600
Si Si2 0.596697 0.021347 0.876395
Si Si3 0.750000 0.435665 0.350861
Si Si4 0.848284 0.761194 0.394872
Si Si5 0.750000 0.864826 0.351749
Si Si6 0.353436 0.416200 0.880319
O O1 0.750000 0.715259 0.895039
O O2 0.602883 0.739904 0.651109
O O3 0.615036 0.645853 0.893605
O O4 0.602157 0.737741 0.144019
O O5 0.662492 0.970818 0.882490
O O6 0.500000 0.000000 0.940469
O O7 0.595669 0.049979 0.598352
O O8 0.624992 0.063505 0.095447
O O9 0.750000 0.389099 0.566074
O O10 0.750000 0.411213 0.065054
O O11 0.750000 0.734488 0.395908
O O12 0.838028 0.827042 0.384869
O O13 0.250000 0.422184 0.939042
#
# Coordination Sequence:
#
# PCOD8183476 Si02
#       6
#     8   8   4   8   4   8
#     4   9  15  26  50  80 120 136 179 244 292 343
#     4  12  25  41  60  87 125 162 204 253 303 355
#     4  12  22  40  57  84 113 162 204 244 286 352
#     4   8  15  27  44  82 115 136 184 238 280 342
#     4  10  20  32  57  82 121 152 200 246 276 362
#     4  11  20  37  60  90 121 153 197 252 305 355
#
# _framework density 20.674444000000001
#
# number of rings (size 3 to 8) (size 9 to 14) (size 15 to 20)
#    0.600    1.200    2.000    4.200    0.000    3.200 
#    0.000    0.000    0.000    0.000    0.000   28.000 
#    0.000    0.000    0.000    0.000    0.000    0.000 
#
# Total GULP energy -247930.856023 kJ/mol
# GULP energy per Si atom -12396.542801 kJ/mol
# Density = 2.062739 g / cm^3
# Si number density = 20.674444 Si / 1000 Ang^3
#
#
#
# Elastic Constant Matrix: (Units=GPa)
#
#
# Indices 1 2 3 4 5 6 
#
# 1 49.2645 31.2527 2.1933 0.0000 0.0000 0.0000
# 2 31.2527 102.2355 38.2114 0.0000 0.0000 0.0000
# 3 2.1933 38.2114 140.7007 0.0000 0.0000 0.0000
# 4 0.0000 0.0000 0.0000 73.6252 0.0000 0.0000
# 5 0.0000 0.0000 0.0000 0.0000 14.6932 0.0000
# 6 0.0000 0.0000 0.0000 0.0000 0.0000 -0.5577
#
#
#
# Elastic Compliance Matrix: (Units=1/GPa)
#
#
# Indices 1 2 3 4 5 6 
#
# 1 0.025642 -0.008558 0.001924 0.000000 0.000000 0.000000
# 2 -0.008558 0.013742 -0.003599 0.000000 0.000000 0.000000
# 3 0.001924 -0.003599 0.008055 0.000000 0.000000 0.000000
# 4 0.000000 0.000000 0.000000 0.013582 0.000000 0.000000
# 5 0.000000 0.000000 0.000000 0.000000 0.068059 0.000000
# 6 0.000000 0.000000 0.000000 0.000000 0.000000 -1.793058
#
#
# Mechanical properties :
#
#
# Convention : Reuss Voigt Hill
#
# Bulk Modulus (GPa) = 37.07188 48.39062 42.73125
# Shear Modulus (GPa) = -3.05900 32.25503 14.59802
#
# Velocity S-wave (km/s) = -1.21771 3.95415 2.66012
# Velocity P-wave (km/s) = 3.99914 6.65611 5.49076
#
# Compressibility (1/GPa) = 0.02697463
#
# Stress axis : x y z
#
# Youngs Moduli (GPa) = 38.99873 72.76709 124.15207
#
# Poissons Ratio (x) = 0.62273 -0.23892
# Poissons Ratio (y) = 0.33374 0.44679
# Poissons Ratio (z) = -0.07505 0.26187
#
# Static dielectric constant tensor:
#      x y z
#    x 3.165330 0.000000 0.000000 
#    y 0.000000 3.697150 0.000000 
#    z 0.000000 0.000000 4.119430 
# 
# 
# High freq. dielectric constant tensor:
#      x y z
#    x 1.755560 0.000000 0.000000 
#    y 0.000000 1.814170 0.000000 
#    z 0.000000 0.000000 1.835930 
# 
# From -- ./inp_files/1241.got.cif
#   From: 2010.03.12/outbox.cif.g09.slc.cpg/sg40_1_cif.got.tgz:1241.got - 2010.04.14 01:38:03.
