data_PCOD8183977
_publ_section_title
;
Structure prediction by ZEFSAII (Michael W. Deem and Ramdas Pophale) SiO2 
 PCOD8183977
Probable space group: A M A 2
;
_chemical_formula_sum "Si O2"
_cell_formula_units_Z 40
_cell_length_a 8.339122
_cell_length_b 24.610447
_cell_length_c 9.487029
_cell_angle_alpha 90.000000
_cell_angle_beta 90.000000
_cell_angle_gamma 90.000000
_cell_volume 1947.018408
_symmetry_space_group_name_H-M "A M A 2"
_symmetry_group_IT_number 40
_symmetry_cell_setting 'orthorhombic'
loop_
_space_group_symop_operation_xyz
x,y,z
-x,-y,z
1/2-x,y,z
1/2+x,-y,z
x,1/2+y,1/2+z
-x,1/2-y,1/2+z
1/2-x,1/2+y,1/2+z
1/2+x,1/2-y,1/2+z
loop_
_atom_site_type_symbol
_atom_site_label
_atom_site_fract_x
_atom_site_fract_y
_atom_site_fract_z
Si Si1 0.750000 0.383551 0.547530
Si Si2 0.250000 0.479833 0.048680
Si Si3 0.924900 0.723150 0.912255
Si Si4 0.750000 0.430966 0.835455
Si Si5 0.750000 0.413743 0.234913
Si Si6 0.936328 0.189413 0.097914
Si Si7 0.502948 0.112940 0.533081
O O1 0.750000 0.430193 0.666799
O O2 0.750000 0.416281 0.401936
O O3 0.580461 0.351644 0.558669
O O4 0.250000 0.507458 0.893601
O O5 0.401077 0.441589 0.064080
O O6 0.250000 0.525569 0.169745
O O7 0.750000 0.751958 0.914450
O O8 0.977439 0.711855 0.752574
O O9 0.900955 0.667536 0.001406
O O10 0.056136 0.761338 0.985745
O O11 0.598094 0.397764 0.892162
O O12 0.599304 0.379583 0.175752
O O13 0.750000 0.166285 0.092667
#
# Coordination Sequence:
#
# PCOD8183977 Si02
#       7
#     4   4   8   4   4   8   8
#     4  12  24  47  62  95 140 172 220 271 337 378
#     4  10  20  43  68 101 124 164 229 270 318 403
#     4  11  23  41  65  95 127 173 215 269 322 388
#     4  10  20  38  68  87 125 173 201 277 327 381
#     4  10  24  38  64  91 131 173 208 270 326 390
#     4  11  27  42  65  98 134 171 224 267 321 398
#     4  10  20  39  67  93 124 164 221 262 322 391
#
# _framework density 20.544232999999998
#
# number of rings (size 3 to 8) (size 9 to 14) (size 15 to 20)
#    0.000    1.600    4.000    2.400    7.000    0.000 
#    1.800    4.000    0.000    0.000    0.000    0.000 
#    0.000    0.000    0.000    0.000    0.000    0.000 
#
# Total GULP energy -247788.928279 kJ/mol
# GULP energy per Si atom -12389.446414 kJ/mol
# Density = 2.049747 g / cm^3
# Si number density = 20.544233 Si / 1000 Ang^3
#
#
#
# Elastic Constant Matrix: (Units=GPa)
#
#
# Indices 1 2 3 4 5 6 
#
# 1 122.4945 34.3521 47.1680 0.0000 0.0000 0.0000
# 2 34.3521 62.4675 40.8633 0.0000 0.0000 0.0000
# 3 47.1680 40.8633 172.1265 0.0000 0.0000 0.0000
# 4 0.0000 0.0000 0.0000 22.1495 0.0000 0.0000
# 5 0.0000 0.0000 0.0000 0.0000 10.7448 0.0000
# 6 0.0000 0.0000 0.0000 0.0000 0.0000 12.3777
#
#
#
# Elastic Compliance Matrix: (Units=1/GPa)
#
#
# Indices 1 2 3 4 5 6 
#
# 1 0.010059 -0.004414 -0.001709 0.000000 0.000000 0.000000
# 2 -0.004414 0.020888 -0.003749 0.000000 0.000000 0.000000
# 3 -0.001709 -0.003749 0.007168 0.000000 0.000000 0.000000
# 4 0.000000 0.000000 0.000000 0.045148 0.000000 0.000000
# 5 0.000000 0.000000 0.000000 0.000000 0.093068 0.000000
# 6 0.000000 0.000000 0.000000 0.000000 0.000000 0.080790
#
#
# Mechanical properties :
#
#
# Convention : Reuss Voigt Hill
#
# Bulk Modulus (GPa) = 54.43207 66.87282 60.65245
# Shear Modulus (GPa) = 17.66845 24.70141 21.18493
#
# Velocity S-wave (km/s) = 2.93579 3.47126 3.21469
# Velocity P-wave (km/s) = 6.16801 6.97764 6.58528
#
# Compressibility (1/GPa) = 0.01837152
#
# Stress axis : x y z
#
# Youngs Moduli (GPa) = 99.40879 47.87347 139.50858
#
# Poissons Ratio (x) = 0.21132 0.23837
# Poissons Ratio (y) = 0.43881 0.52307
# Poissons Ratio (z) = 0.16986 0.17949
#
# Static dielectric constant tensor:
#      x y z
#    x 3.853340 0.000000 0.000000 
#    y 0.000000 3.469500 0.000000 
#    z 0.000000 0.000000 3.636830 
# 
# 
# High freq. dielectric constant tensor:
#      x y z
#    x 1.820000 0.000000 0.000000 
#    y 0.000000 1.784890 0.000000 
#    z 0.000000 0.000000 1.795910 
# 
# From -- ./inp_files/4298.got.cif
#   From: 2010.03.12/outbox.cif.g09.slc.cpg/sg40_3_cif.got.tgz:4298.got - 2010.04.14 01:38:03.
