data_PCOD8183897
_publ_section_title
;
Structure prediction by ZEFSAII (Michael W. Deem and Ramdas Pophale) SiO2 
 PCOD8183897
Probable space group: A M A 2
;
_chemical_formula_sum "Si O2"
_cell_formula_units_Z 64
_cell_length_a 8.723332
_cell_length_b 30.830136
_cell_length_c 11.935826
_cell_angle_alpha 90.000000
_cell_angle_beta 90.000000
_cell_angle_gamma 90.000000
_cell_volume 3210.039091
_symmetry_space_group_name_H-M "A M A 2"
_symmetry_group_IT_number 40
_symmetry_cell_setting 'orthorhombic'
loop_
_space_group_symop_operation_xyz
x,y,z
-x,-y,z
1/2-x,y,z
1/2+x,-y,z
x,1/2+y,1/2+z
-x,1/2-y,1/2+z
1/2-x,1/2+y,1/2+z
1/2+x,1/2-y,1/2+z
loop_
_atom_site_type_symbol
_atom_site_label
_atom_site_fract_x
_atom_site_fract_y
_atom_site_fract_z
Si Si1 0.569282 0.375501 0.992780
Si Si2 0.574702 0.067484 0.887452
Si Si3 0.569344 0.955623 0.650931
Si Si4 0.432262 0.794974 0.109891
Si Si5 0.076010 0.331027 0.376072
Si Si6 0.569430 0.455875 0.615563
Si Si7 0.069778 0.699904 0.153647
Si Si8 0.568810 0.123758 0.249947
O O1 0.750000 0.373616 0.968247
O O2 0.476788 0.378261 0.878719
O O3 0.526077 0.417224 0.066494
O O4 0.509324 0.332759 0.058008
O O5 0.750000 0.051500 0.896325
O O6 0.506691 0.052876 0.770123
O O7 0.564324 0.118650 0.902310
O O8 0.476605 0.046053 0.985505
O O9 0.750000 0.959583 0.666680
O O10 0.500000 0.000000 0.600408
O O11 0.250000 0.794324 0.114513
O O12 0.502688 0.747856 0.139805
O O13 0.492821 0.830952 0.197528
O O14 0.487007 0.806097 0.984745
O O15 0.250000 0.317542 0.347139
O O16 0.967935 0.318883 0.274319
O O17 0.500000 0.500000 0.667757
O O18 0.750000 0.456759 0.628388
O O19 0.505404 0.415561 0.683774
O O20 0.250000 0.702824 0.142340
O O21 0.750000 0.119935 0.236395
#
# Coordination Sequence:
#
# PCOD8183897 Si02
#       8
#     8   8   8   8   8   8   8   8
#     4  10  23  41  60  86 121 160 204 254 305 360
#     4  11  21  38  63  91 125 161 199 246 301 360
#     4  11  23  40  61  88 121 157 201 251 303 363
#     4   9  20  39  61  88 123 161 198 249 306 357
#     4  10  20  37  62  89 122 158 199 247 303 360
#     4  12  25  42  65  92 123 159 201 248 302 362
#     4  10  21  39  62  88 123 161 202 251 303 357
#     4  11  23  42  64  88 122 162 204 250 302 361
#
# _framework density 19.937452
#
# number of rings (size 3 to 8) (size 9 to 14) (size 15 to 20)
#    0.000    1.500    2.500    2.625    1.750    2.500 
#    0.000    2.500    0.000    0.000    0.000    0.000 
#    0.000    0.000    0.000    0.000    0.000    0.000 
#
# Total GULP energy -396902.563568 kJ/mol
# GULP energy per Si atom -12403.205111 kJ/mol
# Density = 1.989207 g / cm^3
# Si number density = 19.937452 Si / 1000 Ang^3
#
#
#
# Elastic Constant Matrix: (Units=GPa)
#
#
# Indices 1 2 3 4 5 6 
#
# 1 69.4766 55.8469 37.4586 0.0000 0.0000 0.0000
# 2 55.8469 140.8776 51.2553 0.0000 0.0000 0.0000
# 3 37.4586 51.2553 113.6722 0.0000 0.0000 0.0000
# 4 0.0000 0.0000 0.0000 1.4839 0.0000 0.0000
# 5 0.0000 0.0000 0.0000 0.0000 35.0261 0.0000
# 6 0.0000 0.0000 0.0000 0.0000 0.0000 20.9446
#
#
#
# Elastic Compliance Matrix: (Units=1/GPa)
#
#
# Indices 1 2 3 4 5 6 
#
# 1 0.022601 -0.007476 -0.004077 0.000000 0.000000 0.000000
# 2 -0.007476 0.010965 -0.002480 0.000000 0.000000 0.000000
# 3 -0.004077 -0.002480 0.011259 0.000000 0.000000 0.000000
# 4 0.000000 0.000000 0.000000 0.673922 0.000000 0.000000
# 5 0.000000 0.000000 0.000000 0.000000 0.028550 0.000000
# 6 0.000000 0.000000 0.000000 0.000000 0.000000 0.047745
#
#
# Mechanical properties :
#
#
# Convention : Reuss Voigt Hill
#
# Bulk Modulus (GPa) = 59.67298 68.12757 63.90028
# Shear Modulus (GPa) = 6.03359 23.45527 14.74443
#
# Velocity S-wave (km/s) = 1.74150 3.43365 2.72239
# Velocity P-wave (km/s) = 5.83428 7.06858 6.48088
#
# Compressibility (1/GPa) = 0.01675800
#
# Stress axis : x y z
#
# Youngs Moduli (GPa) = 44.24607 91.20335 88.81804
#
# Poissons Ratio (x) = 0.68186 0.36208
# Poissons Ratio (y) = 0.33080 0.22029
# Poissons Ratio (z) = 0.18037 0.22621
#
# Static dielectric constant tensor:
#      x y z
#    x 3.550250 0.000000 0.000000 
#    y 0.000000 4.221660 0.000000 
#    z 0.000000 0.000000 3.591340 
# 
# 
# High freq. dielectric constant tensor:
#      x y z
#    x 1.765320 0.000000 0.000000 
#    y 0.000000 1.799290 0.000000 
#    z 0.000000 0.000000 1.780650 
# 
# From -- ./inp_files/10700.got.cif
#   From: 2010.03.12/outbox.cif.g09.slc.cpg/sg40_6_cif.got.tgz:10700.got - 2010.04.14 01:38:03.
