data_PCOD8183215
_publ_section_title
;
Structure prediction by ZEFSAII (Michael W. Deem and Ramdas Pophale) SiO2 
 PCOD8183215
Probable space group: A M A 2
;
_chemical_formula_sum "Si O2"
_cell_formula_units_Z 64
_cell_length_a 15.357243
_cell_length_b 8.724844
_cell_length_c 23.393956
_cell_angle_alpha 90.000000
_cell_angle_beta 90.000000
_cell_angle_gamma 90.000000
_cell_volume 3134.545624
_symmetry_space_group_name_H-M "A M A 2"
_symmetry_group_IT_number 40
_symmetry_cell_setting 'orthorhombic'
loop_
_space_group_symop_operation_xyz
x,y,z
-x,-y,z
1/2-x,y,z
1/2+x,-y,z
x,1/2+y,1/2+z
-x,1/2-y,1/2+z
1/2-x,1/2+y,1/2+z
1/2+x,1/2-y,1/2+z
loop_
_atom_site_type_symbol
_atom_site_label
_atom_site_fract_x
_atom_site_fract_y
_atom_site_fract_z
Si Si1 0.407516 0.585926 0.005070
Si Si2 0.651840 0.685064 0.861315
Si Si3 0.988804 0.673926 0.306046
Si Si4 0.585338 0.901588 0.091211
Si Si5 0.845485 0.231492 0.489017
Si Si6 0.995561 0.176277 0.674010
Si Si7 0.349530 0.668500 0.884506
Si Si8 0.152381 0.287499 0.610247
O O1 0.500000 0.500000 0.007194
O O2 0.338099 0.447812 0.006468
O O3 0.393886 0.704989 0.056367
O O4 0.394692 0.681320 0.946611
O O5 0.750000 0.740845 0.844958
O O6 0.580065 0.740343 0.816721
O O7 0.650019 0.503157 0.861700
O O8 0.624312 0.749290 0.923580
O O9 0.967427 0.691319 0.239394
O O10 0.906212 0.734532 0.340487
O O11 0.000000 0.500000 0.324506
O O12 0.589622 0.825397 0.028930
O O13 0.579363 0.766036 0.138239
O O14 0.500000 0.000000 0.093754
O O15 0.660740 0.027338 0.102421
O O16 0.750000 0.302075 0.497627
O O17 0.091784 0.248839 0.664670
O O18 0.000000 0.000000 0.653707
O O19 0.250000 0.731223 0.887094
O O20 0.250000 0.224062 0.619652
#
# Coordination Sequence:
#
# PCOD8183215 Si02
#       8
#     8   8   8   8   8   8   8   8
#     4  11  20  35  61  88 121 160 197 233 284 354
#     4   9  20  37  60  87 116 152 196 236 284 353
#     4  11  24  40  60  84 114 153 198 251 307 358
#     4  10  21  36  56  81 113 147 186 236 294 350
#     4  10  19  34  55  83 114 147 184 224 271 337
#     4  10  23  43  60  77 107 153 204 244 289 358
#     4  10  21  39  62  90 120 156 199 245 296 361
#     4  11  22  36  57  90 121 150 191 247 306 359
#
# _framework density 20.417632000000001
#
# number of rings (size 3 to 8) (size 9 to 14) (size 15 to 20)
#    0.000    1.750    0.000    6.750    0.000    5.500 
#    0.000    6.250    0.000    0.000    0.000    0.000 
#    0.000    0.000    0.000    0.000    0.000    0.000 
#
# Total GULP energy -396699.200042 kJ/mol
# GULP energy per Si atom -12396.850001 kJ/mol
# Density = 2.037116 g / cm^3
# Si number density = 20.417632 Si / 1000 Ang^3
#
#
#
# Elastic Constant Matrix: (Units=GPa)
#
#
# Indices 1 2 3 4 5 6 
#
# 1 108.2689 24.3154 31.8370 0.0000 0.0000 0.0000
# 2 24.3154 86.6107 43.0362 0.0000 0.0000 0.0000
# 3 31.8370 43.0362 76.1655 0.0000 0.0000 0.0000
# 4 0.0000 0.0000 0.0000 34.8144 0.0000 0.0000
# 5 0.0000 0.0000 0.0000 0.0000 22.1025 0.0000
# 6 0.0000 0.0000 0.0000 0.0000 0.0000 18.4157
#
#
#
# Elastic Compliance Matrix: (Units=1/GPa)
#
#
# Indices 1 2 3 4 5 6 
#
# 1 0.010602 -0.001077 -0.003823 0.000000 0.000000 0.000000
# 2 -0.001077 0.016162 -0.008682 0.000000 0.000000 0.000000
# 3 -0.003823 -0.008682 0.019633 0.000000 0.000000 0.000000
# 4 0.000000 0.000000 0.000000 0.028724 0.000000 0.000000
# 5 0.000000 0.000000 0.000000 0.000000 0.045244 0.000000
# 6 0.000000 0.000000 0.000000 0.000000 0.000000 0.054302
#
#
# Mechanical properties :
#
#
# Convention : Reuss Voigt Hill
#
# Bulk Modulus (GPa) = 51.99324 52.15804 52.07564
# Shear Modulus (GPa) = 24.01046 26.52363 25.26705
#
# Velocity S-wave (km/s) = 3.43296 3.60815 3.52164
# Velocity P-wave (km/s) = 6.42135 6.55434 6.48819
#
# Compressibility (1/GPa) = 0.01923327
#
# Stress axis : x y z
#
# Youngs Moduli (GPa) = 94.31864 61.87228 50.93410
#
# Poissons Ratio (x) = 0.06662 0.19474
# Poissons Ratio (y) = 0.10156 0.44222
# Poissons Ratio (z) = 0.36062 0.53719
#
# Static dielectric constant tensor:
#      x y z
#    x 3.998910 0.000000 0.000000 
#    y 0.000000 4.084250 0.000000 
#    z 0.000000 0.000000 3.564470 
# 
# 
# High freq. dielectric constant tensor:
#      x y z
#    x 1.802460 0.000000 0.000000 
#    y 0.000000 1.798810 0.000000 
#    z 0.000000 0.000000 1.787430 
# 
# From -- ./inp_files/24786.got.cif
#   From: 2010.03.12/outbox.cif.g09.slc.cpg/sg40_13_cif.got.tgz:24786.got - 2010.04.14 01:38:03.
