data_PCOD8183996
_publ_section_title
;
Structure prediction by ZEFSAII (Michael W. Deem and Ramdas Pophale) SiO2 
 PCOD8183996
Probable space group: A M A 2
;
_chemical_formula_sum "Si O2"
_cell_formula_units_Z 64
_cell_length_a 16.392691
_cell_length_b 16.436487
_cell_length_c 11.821216
_cell_angle_alpha 90.000000
_cell_angle_beta 90.000000
_cell_angle_gamma 90.000000
_cell_volume 3185.087782
_symmetry_space_group_name_H-M "A M A 2"
_symmetry_group_IT_number 40
_symmetry_cell_setting 'orthorhombic'
loop_
_space_group_symop_operation_xyz
x,y,z
-x,-y,z
1/2-x,y,z
1/2+x,-y,z
x,1/2+y,1/2+z
-x,1/2-y,1/2+z
1/2-x,1/2+y,1/2+z
1/2+x,1/2-y,1/2+z
loop_
_atom_site_type_symbol
_atom_site_label
_atom_site_fract_x
_atom_site_fract_y
_atom_site_fract_z
Si Si1 0.156196 0.094835 0.088580
Si Si2 0.093421 0.770083 0.978161
Si Si3 0.846062 0.590420 0.623577
Si Si4 0.343753 0.869887 0.370531
Si Si5 0.408357 0.517867 0.003914
Si Si6 0.914782 0.300394 0.398752
Si Si7 0.652504 0.352786 0.163304
Si Si8 0.341479 0.641259 0.834847
O O1 0.250000 0.101652 0.051675
O O2 0.137872 0.143492 0.203343
O O3 0.129502 0.002213 0.103914
O O4 0.100092 0.134514 0.995566
O O5 0.153615 0.733226 0.882583
O O6 0.006907 0.770068 0.914387
O O7 0.115667 0.860116 0.018924
O O8 0.103161 0.711426 0.086627
O O9 0.750000 0.605258 0.621248
O O10 0.883705 0.616978 0.745609
O O11 0.250000 0.887298 0.353453
O O12 0.358302 0.778606 0.412661
O O13 0.373193 0.931386 0.466717
O O14 0.500000 0.500000 0.041530
O O15 0.403977 0.581386 0.899326
O O16 0.359726 0.556782 0.110737
O O17 0.892525 0.346937 0.283211
O O18 0.750000 0.332993 0.171172
O O19 0.250000 0.606594 0.854140
#
# Coordination Sequence:
#
# PCOD8183996 Si02
#       8
#     8   8   8   8   8   8   8   8
#     4  10  22  41  63  91 127 166 210 261 324 390
#     4  11  23  38  64  96 127 162 216 271 321 376
#     4  10  20  39  66  92 119 159 219 266 309 385
#     4  11  20  38  66  95 119 159 221 270 306 373
#     4  11  22  38  63  97 130 161 212 274 326 374
#     4  12  26  40  63  94 134 168 212 269 329 384
#     4  11  23  45  69  92 131 183 220 255 329 416
#     4  10  20  39  66  94 128 168 211 262 331 399
#
# _framework density 20.093637999999999
#
# number of rings (size 3 to 8) (size 9 to 14) (size 15 to 20)
#    0.000    1.250    2.500    5.625    1.750    1.500 
#    2.250    0.000    0.000    3.000    0.000    0.000 
#    0.000    0.000    0.000    0.000    0.000    0.000 
#
# Total GULP energy -396722.937314 kJ/mol
# GULP energy per Si atom -12397.591791 kJ/mol
# Density = 2.004790 g / cm^3
# Si number density = 20.093638 Si / 1000 Ang^3
#
#
#
# Elastic Constant Matrix: (Units=GPa)
#
#
# Indices 1 2 3 4 5 6 
#
# 1 72.2647 17.1549 35.1866 0.0000 0.0000 0.0000
# 2 17.1549 94.9253 52.1767 0.0000 0.0000 0.0000
# 3 35.1866 52.1767 117.1752 0.0000 0.0000 0.0000
# 4 0.0000 0.0000 0.0000 38.5728 0.0000 0.0000
# 5 0.0000 0.0000 0.0000 0.0000 32.4232 0.0000
# 6 0.0000 0.0000 0.0000 0.0000 0.0000 31.7390
#
#
#
# Elastic Compliance Matrix: (Units=1/GPa)
#
#
# Indices 1 2 3 4 5 6 
#
# 1 0.016216 -0.000336 -0.004720 0.000000 0.000000 0.000000
# 2 -0.000336 0.013956 -0.006113 0.000000 0.000000 0.000000
# 3 -0.004720 -0.006113 0.012674 0.000000 0.000000 0.000000
# 4 0.000000 0.000000 0.000000 0.025925 0.000000 0.000000
# 5 0.000000 0.000000 0.000000 0.000000 0.030842 0.000000
# 6 0.000000 0.000000 0.000000 0.000000 0.000000 0.031507
#
#
# Mechanical properties :
#
#
# Convention : Reuss Voigt Hill
#
# Bulk Modulus (GPa) = 48.76474 54.82239 51.79357
# Shear Modulus (GPa) = 31.19277 32.53679 31.86478
#
# Velocity S-wave (km/s) = 3.94429 4.02837 3.98655
# Velocity P-wave (km/s) = 6.71302 6.99855 6.85727
#
# Compressibility (1/GPa) = 0.02050662
#
# Stress axis : x y z
#
# Youngs Moduli (GPa) = 61.66765 71.65584 78.90362
#
# Poissons Ratio (x) = 0.02410 0.37240
# Poissons Ratio (y) = 0.02074 0.48236
# Poissons Ratio (z) = 0.29106 0.43805
#
# Static dielectric constant tensor:
#      x y z
#    x 3.628300 0.000000 0.000000 
#    y 0.000000 3.747400 0.000000 
#    z 0.000000 0.000000 3.723020 
# 
# 
# High freq. dielectric constant tensor:
#      x y z
#    x 1.779270 0.000000 0.000000 
#    y 0.000000 1.786330 0.000000 
#    z 0.000000 0.000000 1.779800 
# 
# From -- ./inp_files/12482.got.cif
#   From: 2010.03.12/outbox.cif.g09.slc.cpg/sg40_7_cif.got.tgz:12482.got - 2010.04.14 01:38:03.
