data_PCOD8183556
_publ_section_title
;
Structure prediction by ZEFSAII (Michael W. Deem and Ramdas Pophale) SiO2 
 PCOD8183556
Probable space group: A M A 2
;
_chemical_formula_sum "Si O2"
_cell_formula_units_Z 64
_cell_length_a 15.612487
_cell_length_b 24.111117
_cell_length_c 8.935428
_cell_angle_alpha 90.000000
_cell_angle_beta 90.000000
_cell_angle_gamma 90.000000
_cell_volume 3363.603378
_symmetry_space_group_name_H-M "A M A 2"
_symmetry_group_IT_number 40
_symmetry_cell_setting 'orthorhombic'
loop_
_space_group_symop_operation_xyz
x,y,z
-x,-y,z
1/2-x,y,z
1/2+x,-y,z
x,1/2+y,1/2+z
-x,1/2-y,1/2+z
1/2-x,1/2+y,1/2+z
1/2+x,1/2-y,1/2+z
loop_
_atom_site_type_symbol
_atom_site_label
_atom_site_fract_x
_atom_site_fract_y
_atom_site_fract_z
Si Si1 0.591928 0.252329 0.351100
Si Si2 0.000645 0.062172 0.996275
Si Si3 0.499355 0.062172 0.352690
Si Si4 0.908072 0.752329 0.497866
Si Si5 0.656142 0.633750 0.851850
Si Si6 0.156142 0.366250 0.497116
Si Si7 0.653609 0.360518 0.501992
Si Si8 0.846391 0.360518 0.846973
O O1 0.500000 0.250000 0.424483
O O2 0.580994 0.255849 0.174483
O O3 0.641975 0.197149 0.400779
O O4 0.645247 0.304758 0.407170
O O5 0.996902 0.060453 0.174483
O O6 0.917987 0.094375 0.929659
O O7 0.000000 0.000000 0.930345
O O8 0.087152 0.093140 0.943056
O O9 0.582013 0.094375 0.419306
O O10 0.412848 0.093140 0.405910
O O11 0.500000 0.000000 0.418621
O O12 0.858025 0.697149 0.448187
O O13 0.854753 0.804758 0.441795
O O14 0.750000 0.614738 0.910585
O O15 0.652592 0.629327 0.674483
O O16 0.250000 0.385262 0.438380
O O17 0.750000 0.383903 0.482757
O O18 0.633471 0.346206 0.674483
O O19 0.750000 0.383903 0.866209
#
# Coordination Sequence:
#
# PCOD8183556 Si02
#       8
#     8   8   8   8   8   8   8   8
#     4  11  20  33  54  78 106 138 174 214 265 318
#     4   9  17  30  48  72 104 138 173 214 259 306
#     4   9  17  30  48  72 104 138 173 214 259 306
#     4  11  20  33  54  78 106 138 174 214 265 318
#     4   9  17  29  47  72 100 128 164 209 254 303
#     4   9  17  29  47  72 100 128 164 209 254 303
#     4  10  20  34  52  78 110 140 172 215 266 317
#     4  10  20  34  52  78 110 140 172 215 266 317
#
# _framework density 19.027214000000001
#
# number of rings (size 3 to 8) (size 9 to 14) (size 15 to 20)
#    0.000    2.250    2.500    1.500    0.000    2.500 
#    0.000    5.000    0.000    0.750    0.000    0.000 
#    0.000    0.000    0.000    0.000    0.000    0.000 
#
# Total GULP energy -396737.218049 kJ/mol
# GULP energy per Si atom -12398.038064 kJ/mol
# Density = 1.898391 g / cm^3
# Si number density = 19.027214 Si / 1000 Ang^3
#
#
#
# Elastic Constant Matrix: (Units=GPa)
#
#
# Indices 1 2 3 4 5 6 
#
# 1 182.1684 86.0933 19.6785 0.0000 0.0000 0.0000
# 2 86.0933 166.7096 23.0434 0.0000 0.0000 0.0000
# 3 19.6785 23.0434 30.3028 0.0000 0.0000 0.0000
# 4 0.0000 0.0000 0.0000 20.5541 0.0000 0.0000
# 5 0.0000 0.0000 0.0000 0.0000 16.4106 0.0000
# 6 0.0000 0.0000 0.0000 0.0000 0.0000 19.5736
#
#
#
# Elastic Compliance Matrix: (Units=1/GPa)
#
#
# Indices 1 2 3 4 5 6 
#
# 1 0.007381 -0.003519 -0.002117 0.000000 0.000000 0.000000
# 2 -0.003519 0.008381 -0.004088 0.000000 0.000000 0.000000
# 3 -0.002117 -0.004088 0.037484 0.000000 0.000000 0.000000
# 4 0.000000 0.000000 0.000000 0.048652 0.000000 0.000000
# 5 0.000000 0.000000 0.000000 0.000000 0.060936 0.000000
# 6 0.000000 0.000000 0.000000 0.000000 0.000000 0.051089
#
#
# Mechanical properties :
#
#
# Convention : Reuss Voigt Hill
#
# Bulk Modulus (GPa) = 29.58808 70.75679 50.17243
# Shear Modulus (GPa) = 20.43837 27.99870 24.21854
#
# Velocity S-wave (km/s) = 3.28100 3.84019 3.57155
# Velocity P-wave (km/s) = 5.47151 7.54524 6.59045
#
# Compressibility (1/GPa) = 0.03379740
#
# Stress axis : x y z
#
# Youngs Moduli (GPa) = 135.47649 119.31848 26.67830
#
# Poissons Ratio (x) = 0.41991 0.05648
# Poissons Ratio (y) = 0.47678 0.10905
# Poissons Ratio (z) = 0.28683 0.48775
#
# Static dielectric constant tensor:
#      x y z
#    x 3.825570 0.000000 0.000000 
#    y 0.000000 3.755990 0.000000 
#    z 0.000000 0.000000 3.058700 
# 
# 
# High freq. dielectric constant tensor:
#      x y z
#    x 1.760760 0.000000 0.000000 
#    y 0.000000 1.737600 0.000000 
#    z 0.000000 0.000000 1.682160 
# 
# From -- ./inp_files/6888.got.cif
#   From: 2010.03.12/outbox.cif.g09.slc.cpg/sg40_4_cif.got.tgz:6888.got - 2010.04.14 01:38:03.
