data_PCOD8183082
_publ_section_title
;
Structure prediction by ZEFSAII (Michael W. Deem and Ramdas Pophale) SiO2 
 PCOD8183082
Probable space group: A M A 2
;
_chemical_formula_sum "Si O2"
_cell_formula_units_Z 48
_cell_length_a 8.418756
_cell_length_b 23.952261
_cell_length_c 13.563642
_cell_angle_alpha 90.000000
_cell_angle_beta 90.000000
_cell_angle_gamma 90.000000
_cell_volume 2735.084551
_symmetry_space_group_name_H-M "A M A 2"
_symmetry_group_IT_number 40
_symmetry_cell_setting 'orthorhombic'
loop_
_space_group_symop_operation_xyz
x,y,z
-x,-y,z
1/2-x,y,z
1/2+x,-y,z
x,1/2+y,1/2+z
-x,1/2-y,1/2+z
1/2-x,1/2+y,1/2+z
1/2+x,1/2-y,1/2+z
loop_
_atom_site_type_symbol
_atom_site_label
_atom_site_fract_x
_atom_site_fract_y
_atom_site_fract_z
Si Si1 0.065794 0.227450 0.077890
Si Si2 0.563691 0.831688 0.467349
Si Si3 0.937338 0.558553 0.286136
Si Si4 0.937080 0.668361 0.393241
Si Si5 0.561596 0.559374 0.062063
Si Si6 0.435387 0.272254 0.787143
O O1 0.250000 0.225114 0.104685
O O2 0.965553 0.211578 0.174302
O O3 0.023055 0.289391 0.041610
O O4 0.026071 0.181910 0.994729
O O5 0.750000 0.820779 0.475031
O O6 0.520911 0.894500 0.494756
O O7 0.505033 0.821075 0.356082
O O8 0.750000 0.557533 0.286425
O O9 0.000262 0.608700 0.354564
O O10 0.998066 0.567659 0.174466
O O11 0.000000 0.500000 0.329269
O O12 0.750000 0.668044 0.412585
O O13 0.976879 0.714131 0.310490
O O14 0.500000 0.500000 0.022354
O O15 0.750000 0.563727 0.052495
O O16 0.250000 0.265274 0.808957
#
# Coordination Sequence:
#
# PCOD8183082 Si02
#       6
#     8   8   8   8   8   8
#     4  11  21  34  51  74 102 134 168 207 250 299
#     4  11  21  34  52  76 103 134 168 207 252 302
#     4   9  19  32  50  73 101 132 165 203 245 290
#     4  10  19  33  51  75 103 133 166 205 249 297
#     4  10  19  33  51  75 104 136 170 208 250 297
#     4  11  21  34  52  75 101 133 167 206 252 301
#
# _framework density 17.549731000000001
#
# number of rings (size 3 to 8) (size 9 to 14) (size 15 to 20)
#    0.000    1.667    0.000    8.500    0.000    3.333 
#    0.000    0.000    0.000    1.000    0.000    4.667 
#    0.000    0.000    0.000    0.000    0.000    0.000 
#
# Total GULP energy -297701.519374 kJ/mol
# GULP energy per Si atom -12404.229974 kJ/mol
# Density = 1.750979 g / cm^3
# Si number density = 17.549731 Si / 1000 Ang^3
#
#
#
# Elastic Constant Matrix: (Units=GPa)
#
#
# Indices 1 2 3 4 5 6 
#
# 1 63.0110 16.6817 11.7395 0.0000 0.0000 0.0000
# 2 16.6817 137.5405 59.4976 0.0000 0.0000 0.0000
# 3 11.7395 59.4976 98.0329 0.0000 0.0000 0.0000
# 4 0.0000 0.0000 0.0000 0.6711 0.0000 0.0000
# 5 0.0000 0.0000 0.0000 0.0000 25.1893 0.0000
# 6 0.0000 0.0000 0.0000 0.0000 0.0000 29.7473
#
#
#
# Elastic Compliance Matrix: (Units=1/GPa)
#
#
# Indices 1 2 3 4 5 6 
#
# 1 0.016473 -0.001552 -0.001031 0.000000 0.000000 0.000000
# 2 -0.001552 0.010005 -0.005886 0.000000 0.000000 0.000000
# 3 -0.001031 -0.005886 0.013897 0.000000 0.000000 0.000000
# 4 0.000000 0.000000 0.000000 1.490200 0.000000 0.000000
# 5 0.000000 0.000000 0.000000 0.000000 0.039699 0.000000
# 6 0.000000 0.000000 0.000000 0.000000 0.000000 0.033616
#
#
# Mechanical properties :
#
#
# Convention : Reuss Voigt Hill
#
# Bulk Modulus (GPa) = 42.66833 52.71357 47.69095
# Shear Modulus (GPa) = 3.07004 25.16590 14.11797
#
# Velocity S-wave (km/s) = 1.32406 3.79090 2.83937
# Velocity P-wave (km/s) = 5.16751 7.01877 6.16304
#
# Compressibility (1/GPa) = 0.02343659
#
# Stress axis : x y z
#
# Youngs Moduli (GPa) = 60.70469 99.94796 71.95981
#
# Poissons Ratio (x) = 0.15513 0.07417
# Poissons Ratio (y) = 0.09422 0.42359
# Poissons Ratio (z) = 0.06257 0.58834
#
# Static dielectric constant tensor:
#      x y z
#    x 3.329630 0.000000 0.000000 
#    y 0.000000 3.825660 0.000000 
#    z 0.000000 0.000000 3.232940 
# 
# 
# High freq. dielectric constant tensor:
#      x y z
#    x 1.694550 0.000000 0.000000 
#    y 0.000000 1.669000 0.000000 
#    z 0.000000 0.000000 1.666670 
# 
# From -- ./inp_files/10250.got.cif
#   From: 2010.03.12/outbox.cif.g09.slc.cpg/sg40_6_cif.got.tgz:10250.got - 2010.04.14 01:38:03.
