data_PCOD8183777
_publ_section_title
;
Structure prediction by ZEFSAII (Michael W. Deem and Ramdas Pophale) SiO2 
 PCOD8183777
Probable space group: A M A 2
;
_chemical_formula_sum "Si O2"
_cell_formula_units_Z 64
_cell_length_a 8.830145
_cell_length_b 14.775304
_cell_length_c 24.207780
_cell_angle_alpha 90.000000
_cell_angle_beta 90.000000
_cell_angle_gamma 90.000000
_cell_volume 3158.342499
_symmetry_space_group_name_H-M "A M A 2"
_symmetry_group_IT_number 40
_symmetry_cell_setting 'orthorhombic'
loop_
_space_group_symop_operation_xyz
x,y,z
-x,-y,z
1/2-x,y,z
1/2+x,-y,z
x,1/2+y,1/2+z
-x,1/2-y,1/2+z
1/2-x,1/2+y,1/2+z
1/2+x,1/2-y,1/2+z
loop_
_atom_site_type_symbol
_atom_site_label
_atom_site_fract_x
_atom_site_fract_y
_atom_site_fract_z
Si Si1 0.927387 0.402241 0.411900
Si Si2 0.429034 0.098105 0.504800
Si Si3 0.573818 0.902733 0.033950
Si Si4 0.074719 0.232453 0.717269
Si Si5 0.924757 0.257644 0.090963
Si Si6 0.928079 0.400912 0.765926
Si Si7 0.576190 0.905402 0.385718
Si Si8 0.929872 0.099808 0.803142
O O1 0.750000 0.408174 0.398782
O O2 0.958424 0.359870 0.472570
O O3 0.000000 0.500000 0.413805
O O4 0.010255 0.352391 0.360320
O O5 0.250000 0.088535 0.511477
O O6 0.494084 0.165356 0.551020
O O7 0.476537 0.139608 0.443888
O O8 0.500000 0.000000 0.513614
O O9 0.750000 0.916826 0.043169
O O10 0.511654 0.835709 0.080365
O O11 0.500000 0.000000 0.041861
O O12 0.250000 0.228491 0.735019
O O13 0.053023 0.208127 0.653160
O O14 0.011341 0.333791 0.724286
O O15 0.979106 0.160231 0.751595
O O16 0.750000 0.239704 0.077055
O O17 0.750000 0.407178 0.752466
O O18 0.954609 0.355155 0.827365
O O19 0.000000 0.500000 0.759622
O O20 0.750000 0.927730 0.392348
O O21 0.500000 0.000000 0.378033
O O22 0.750000 0.093283 0.804706
O O23 0.000000 0.000000 0.796235
#
# Coordination Sequence:
#
# PCOD8183777 Si02
#       8
#     8   8   8   8   8   8   8   8
#     4   9  17  32  55  86 118 147 181 225 279 341
#     4   9  18  35  57  82 110 141 175 218 270 326
#     4  10  21  37  60  87 116 149 186 230 283 339
#     4  11  24  41  57  79 112 151 196 243 285 334
#     4  10  23  40  57  79 111 150 193 236 280 330
#     4  10  20  36  58  85 113 146 184 227 283 341
#     4   8  15  29  52  81 111 138 171 214 267 329
#     4  11  22  38  61  87 115 150 188 233 287 344
#
# _framework density 20.263791999999999
#
# number of rings (size 3 to 8) (size 9 to 14) (size 15 to 20)
#    0.000    2.250    0.000    3.375    0.000    5.500 
#    0.000    2.500    0.000    0.000    0.000    0.000 
#    0.000    0.000    0.000    0.000    0.000    0.000 
#
# Total GULP energy -396522.513676 kJ/mol
# GULP energy per Si atom -12391.328552 kJ/mol
# Density = 2.021767 g / cm^3
# Si number density = 20.263792 Si / 1000 Ang^3
#
#
#
# Elastic Constant Matrix: (Units=GPa)
#
#
# Indices 1 2 3 4 5 6 
#
# 1 96.1936 20.2891 31.7162 0.0000 0.0000 0.0000
# 2 20.2891 51.8499 13.8412 0.0000 0.0000 0.0000
# 3 31.7162 13.8412 74.1613 0.0000 0.0000 0.0000
# 4 0.0000 0.0000 0.0000 33.3224 0.0000 0.0000
# 5 0.0000 0.0000 0.0000 0.0000 23.0190 0.0000
# 6 0.0000 0.0000 0.0000 0.0000 0.0000 29.9193
#
#
#
# Elastic Compliance Matrix: (Units=1/GPa)
#
#
# Indices 1 2 3 4 5 6 
#
# 1 0.012749 -0.003718 -0.004758 0.000000 0.000000 0.000000
# 2 -0.003718 0.021382 -0.002400 0.000000 0.000000 0.000000
# 3 -0.004758 -0.002400 0.015967 0.000000 0.000000 0.000000
# 4 0.000000 0.000000 0.000000 0.030010 0.000000 0.000000
# 5 0.000000 0.000000 0.000000 0.000000 0.043442 0.000000
# 6 0.000000 0.000000 0.000000 0.000000 0.000000 0.033423
#
#
# Mechanical properties :
#
#
# Convention : Reuss Voigt Hill
#
# Bulk Modulus (GPa) = 35.28101 39.32199 37.30150
# Shear Modulus (GPa) = 26.57088 27.67603 27.12346
#
# Velocity S-wave (km/s) = 3.62505 3.69967 3.66255
# Velocity P-wave (km/s) = 5.91354 6.13981 6.02773
#
# Compressibility (1/GPa) = 0.02834386
#
# Stress axis : x y z
#
# Youngs Moduli (GPa) = 78.43839 46.76770 62.62891
#
# Poissons Ratio (x) = 0.17390 0.29800
# Poissons Ratio (y) = 0.29167 0.15034
# Poissons Ratio (z) = 0.37323 0.11226
#
# Static dielectric constant tensor:
#      x y z
#    x 3.693700 0.000000 0.000000 
#    y 0.000000 3.389860 0.000000 
#    z 0.000000 0.000000 4.223400 
# 
# 
# High freq. dielectric constant tensor:
#      x y z
#    x 1.796550 0.000000 0.000000 
#    y 0.000000 1.768620 0.000000 
#    z 0.000000 0.000000 1.805110 
# 
# From -- ./inp_files/24320.got.cif
#   From: 2010.03.12/outbox.cif.g09.slc.cpg/sg40_13_cif.got.tgz:24320.got - 2010.04.14 01:38:03.
