data_PCOD8183730
_publ_section_title
;
Structure prediction by ZEFSAII (Michael W. Deem and Ramdas Pophale) SiO2 
 PCOD8183730
Probable space group: A M A 2
;
_chemical_formula_sum "Si O2"
_cell_formula_units_Z 64
_cell_length_a 8.867042
_cell_length_b 29.777235
_cell_length_c 12.735802
_cell_angle_alpha 90.000000
_cell_angle_beta 90.000000
_cell_angle_gamma 90.000000
_cell_volume 3362.710133
_symmetry_space_group_name_H-M "A M A 2"
_symmetry_group_IT_number 40
_symmetry_cell_setting 'orthorhombic'
loop_
_space_group_symop_operation_xyz
x,y,z
-x,-y,z
1/2-x,y,z
1/2+x,-y,z
x,1/2+y,1/2+z
-x,1/2-y,1/2+z
1/2-x,1/2+y,1/2+z
1/2+x,1/2-y,1/2+z
loop_
_atom_site_type_symbol
_atom_site_label
_atom_site_fract_x
_atom_site_fract_y
_atom_site_fract_z
Si Si1 0.428034 0.547785 0.989940
Si Si2 0.581153 0.263109 0.345633
Si Si3 0.572057 0.621417 0.137120
Si Si4 0.571654 0.379386 0.584766
Si Si5 0.582368 0.714471 0.042234
Si Si6 0.072552 0.547267 0.752377
Si Si7 0.072350 0.356343 0.373012
Si Si8 0.926183 0.211183 0.146959
O O1 0.500000 0.500000 0.016189
O O2 0.250000 0.543831 0.001760
O O3 0.473402 0.562845 0.870966
O O4 0.487617 0.582040 0.077014
O O5 0.750000 0.282725 0.329243
O O6 0.592020 0.217932 0.416766
O O7 0.479809 0.304880 0.382403
O O8 0.512812 0.242609 0.240437
O O9 0.750000 0.615474 0.120974
O O10 0.515256 0.667875 0.084464
O O11 0.527987 0.621773 0.260576
O O12 0.750000 0.379655 0.571626
O O13 0.515113 0.418204 0.663779
O O14 0.499937 0.384977 0.468546
O O15 0.521056 0.333861 0.640519
O O16 0.750000 0.722026 0.092034
O O17 0.467987 0.756330 0.052077
O O18 0.250000 0.541542 0.746245
O O19 0.000000 0.500000 0.724226
O O20 0.250000 0.357021 0.389334
O O21 0.750000 0.199495 0.152114
#
# Coordination Sequence:
#
# PCOD8183730 Si02
#       8
#     8   8   8   8   8   8   8   8
#     4  10  21  40  65  91 117 146 184 232 288 347
#     4  10  21  35  52  76 112 154 194 237 288 340
#     4  10  22  38  58  85 118 154 193 237 288 343
#     4  11  23  39  58  83 117 155 193 235 290 343
#     4  10  20  36  54  76 111 156 194 235 286 333
#     4   9  21  41  64  90 116 145 182 230 288 346
#     4  11  22  37  57  83 114 154 200 240 283 334
#     4  11  22  34  52  82 113 150 198 238 279 336
#
# _framework density 19.032267000000001
#
# number of rings (size 3 to 8) (size 9 to 14) (size 15 to 20)
#    0.000    1.750    2.500    1.500    1.750    3.500 
#    0.000    0.625    0.000    1.500    0.000    0.000 
#    0.000    0.000    0.000    0.000    0.000    0.000 
#
# Total GULP energy -396558.745525 kJ/mol
# GULP energy per Si atom -12392.460798 kJ/mol
# Density = 1.898895 g / cm^3
# Si number density = 19.032267 Si / 1000 Ang^3
#
#
#
# Elastic Constant Matrix: (Units=GPa)
#
#
# Indices 1 2 3 4 5 6 
#
# 1 64.4093 44.5960 47.4621 0.0000 0.0000 0.0000
# 2 44.5960 128.7856 80.9946 0.0000 0.0000 0.0000
# 3 47.4621 80.9946 122.3038 0.0000 0.0000 0.0000
# 4 0.0000 0.0000 0.0000 36.8078 0.0000 0.0000
# 5 0.0000 0.0000 0.0000 0.0000 22.4895 0.0000
# 6 0.0000 0.0000 0.0000 0.0000 0.0000 31.8789
#
#
#
# Elastic Compliance Matrix: (Units=1/GPa)
#
#
# Indices 1 2 3 4 5 6 
#
# 1 0.022891 -0.004010 -0.006228 0.000000 0.000000 0.000000
# 2 -0.004010 0.014010 -0.007722 0.000000 0.000000 0.000000
# 3 -0.006228 -0.007722 0.015707 0.000000 0.000000 0.000000
# 4 0.000000 0.000000 0.000000 0.027168 0.000000 0.000000
# 5 0.000000 0.000000 0.000000 0.000000 0.044465 0.000000
# 6 0.000000 0.000000 0.000000 0.000000 0.000000 0.031369
#
#
# Mechanical properties :
#
#
# Convention : Reuss Voigt Hill
#
# Bulk Modulus (GPa) = 59.92029 73.51156 66.71592
# Shear Modulus (GPa) = 25.36893 27.73164 26.55029
#
# Velocity S-wave (km/s) = 3.65491 3.82132 3.73904
# Velocity P-wave (km/s) = 7.02588 7.62749 7.33286
#
# Compressibility (1/GPa) = 0.01668884
#
# Stress axis : x y z
#
# Youngs Moduli (GPa) = 43.68462 71.37937 63.66736
#
# Poissons Ratio (x) = 0.28624 0.39650
# Poissons Ratio (y) = 0.17518 0.49161
# Poissons Ratio (z) = 0.27205 0.55116
#
# Static dielectric constant tensor:
#      x y z
#    x 3.482950 0.000000 0.000000 
#    y 0.000000 3.349250 0.000000 
#    z 0.000000 0.000000 3.785670 
# 
# 
# High freq. dielectric constant tensor:
#      x y z
#    x 1.741550 0.000000 0.000000 
#    y 0.000000 1.721540 0.000000 
#    z 0.000000 0.000000 1.755730 
# 
# From -- ./inp_files/10685.got.cif
#   From: 2010.03.12/outbox.cif.g09.slc.cpg/sg40_6_cif.got.tgz:10685.got - 2010.04.14 01:38:03.
