data_PCOD8183009
_publ_section_title
;
Structure prediction by ZEFSAII (Michael W. Deem and Ramdas Pophale) SiO2 
 PCOD8183009
Probable space group: A M A 2
;
_chemical_formula_sum "Si O2"
_cell_formula_units_Z 64
_cell_length_a 8.695826
_cell_length_b 30.098479
_cell_length_c 14.224984
_cell_angle_alpha 90.000000
_cell_angle_beta 90.000000
_cell_angle_gamma 90.000000
_cell_volume 3723.121225
_symmetry_space_group_name_H-M "A M A 2"
_symmetry_group_IT_number 40
_symmetry_cell_setting 'orthorhombic'
loop_
_space_group_symop_operation_xyz
x,y,z
-x,-y,z
1/2-x,y,z
1/2+x,-y,z
x,1/2+y,1/2+z
-x,1/2-y,1/2+z
1/2-x,1/2+y,1/2+z
1/2+x,1/2-y,1/2+z
loop_
_atom_site_type_symbol
_atom_site_label
_atom_site_fract_x
_atom_site_fract_y
_atom_site_fract_z
Si Si1 0.569366 0.784366 0.690250
Si Si2 0.573264 0.133882 0.793536
Si Si3 0.573806 0.362398 0.643240
Si Si4 0.570802 0.955007 0.067697
Si Si5 0.927012 0.797425 0.304401
Si Si6 0.571877 0.224781 0.488518
Si Si7 0.567727 0.453579 0.353449
Si Si8 0.576466 0.185842 0.978252
O O1 0.750000 0.777911 0.703614
O O2 0.518842 0.832153 0.728503
O O3 0.484947 0.744377 0.743680
O O4 0.527993 0.784320 0.580516
O O5 0.750000 0.132838 0.760559
O O6 0.500326 0.084943 0.786740
O O7 0.556409 0.147758 0.901774
O O8 0.750000 0.356733 0.607963
O O9 0.524601 0.414025 0.635680
O O10 0.554670 0.343794 0.748319
O O11 0.462121 0.333360 0.579646
O O12 0.750000 0.962572 0.065592
O O13 0.500000 0.000000 0.110120
O O14 0.512303 0.946098 0.961329
O O15 0.750000 0.787462 0.328032
O O16 0.019873 0.805721 0.400925
O O17 0.750000 0.217193 0.511511
O O18 0.540587 0.274795 0.452792
O O19 0.500000 0.500000 0.315920
O O20 0.750000 0.453587 0.344447
O O21 0.750000 0.204555 0.980129
#
# Coordination Sequence:
#
# PCOD8183009 Si02
#       8
#     8   8   8   8   8   8   8   8
#     4  12  24  37  55  78 105 139 180 221 266 317
#     4  11  22  35  52  77 108 143 182 220 264 317
#     4  10  20  34  52  74 105 141 178 216 263 314
#     4   9  18  31  48  73 103 138 173 212 260 311
#     4  11  22  36  54  77 105 139 179 220 264 315
#     4  12  24  38  54  73 105 142 179 223 266 310
#     4  10  19  32  51  75 107 141 179 219 266 318
#     4  11  21  31  50  75 105 139 179 219 259 308
#
# _framework density 17.189878
#
# number of rings (size 3 to 8) (size 9 to 14) (size 15 to 20)
#    0.000    1.250    3.750    3.750    0.000    2.500 
#    0.000    0.000    0.000    0.000    0.000    0.875 
#    0.000    2.000    0.000    0.000    0.000    0.000 
#
# Total GULP energy -396848.475992 kJ/mol
# GULP energy per Si atom -12401.514875 kJ/mol
# Density = 1.715075 g / cm^3
# Si number density = 17.189878 Si / 1000 Ang^3
#
#
#
# Elastic Constant Matrix: (Units=GPa)
#
#
# Indices 1 2 3 4 5 6 
#
# 1 72.1108 23.5741 13.5056 0.0000 0.0000 0.0000
# 2 23.5741 102.0688 19.7406 0.0000 0.0000 0.0000
# 3 13.5056 19.7406 59.8178 0.0000 0.0000 0.0000
# 4 0.0000 0.0000 0.0000 23.8749 0.0000 0.0000
# 5 0.0000 0.0000 0.0000 0.0000 24.4823 0.0000
# 6 0.0000 0.0000 0.0000 0.0000 0.0000 29.8653
#
#
#
# Elastic Compliance Matrix: (Units=1/GPa)
#
#
# Indices 1 2 3 4 5 6 
#
# 1 0.015329 -0.003067 -0.002449 0.000000 0.000000 0.000000
# 2 -0.003067 0.011079 -0.002964 0.000000 0.000000 0.000000
# 3 -0.002449 -0.002964 0.018248 0.000000 0.000000 0.000000
# 4 0.000000 0.000000 0.000000 0.041885 0.000000 0.000000
# 5 0.000000 0.000000 0.000000 0.000000 0.040846 0.000000
# 6 0.000000 0.000000 0.000000 0.000000 0.000000 0.033484
#
#
# Mechanical properties :
#
#
# Convention : Reuss Voigt Hill
#
# Bulk Modulus (GPa) = 36.10458 38.62643 37.36550
# Shear Modulus (GPa) = 26.72918 27.45632 27.09275
#
# Velocity S-wave (km/s) = 3.94755 4.00088 3.97430
# Velocity P-wave (km/s) = 6.46734 6.62284 6.54555
#
# Compressibility (1/GPa) = 0.02769732
#
# Stress axis : x y z
#
# Youngs Moduli (GPa) = 65.23688 90.26232 54.79935
#
# Poissons Ratio (x) = 0.27681 0.13419
# Poissons Ratio (y) = 0.20007 0.16241
# Poissons Ratio (z) = 0.15975 0.26751
#
# Static dielectric constant tensor:
#      x y z
#    x 3.330270 0.000000 0.000000 
#    y 0.000000 3.301400 0.000000 
#    z 0.000000 0.000000 3.068280 
# 
# 
# High freq. dielectric constant tensor:
#      x y z
#    x 1.677440 0.000000 0.000000 
#    y 0.000000 1.653980 0.000000 
#    z 0.000000 0.000000 1.634540 
# 
# From -- ./inp_files/10694.got.cif
#   From: 2010.03.12/outbox.cif.g09.slc.cpg/sg40_6_cif.got.tgz:10694.got - 2010.04.14 01:38:03.
