data_PCOD8183774
_publ_section_title
;
Structure prediction by ZEFSAII (Michael W. Deem and Ramdas Pophale) SiO2 
 PCOD8183774
Probable space group: A M A 2
;
_chemical_formula_sum "Si O2"
_cell_formula_units_Z 48
_cell_length_a 8.733466
_cell_length_b 18.965704
_cell_length_c 15.092352
_cell_angle_alpha 90.000000
_cell_angle_beta 90.000000
_cell_angle_gamma 90.000000
_cell_volume 2499.841812
_symmetry_space_group_name_H-M "A M A 2"
_symmetry_group_IT_number 40
_symmetry_cell_setting 'orthorhombic'
loop_
_space_group_symop_operation_xyz
x,y,z
-x,-y,z
1/2-x,y,z
1/2+x,-y,z
x,1/2+y,1/2+z
-x,1/2-y,1/2+z
1/2-x,1/2+y,1/2+z
1/2+x,1/2-y,1/2+z
loop_
_atom_site_type_symbol
_atom_site_label
_atom_site_fract_x
_atom_site_fract_y
_atom_site_fract_z
Si Si1 0.430401 0.073235 0.755230
Si Si2 0.429437 0.670770 0.611479
Si Si3 0.070333 0.573393 0.946732
Si Si4 0.070190 0.072845 0.953813
Si Si5 0.568804 0.574784 0.758311
Si Si6 0.071246 0.678645 0.104736
O O1 0.250000 0.064723 0.750945
O O2 0.488708 0.090999 0.854675
O O3 0.483874 0.135434 0.690747
O O4 0.500000 0.000000 0.721297
O O5 0.250000 0.660920 0.629122
O O6 0.481281 0.634612 0.519584
O O7 0.521653 0.636375 0.691796
O O8 0.469446 0.752138 0.602329
O O9 0.250000 0.562590 0.931758
O O10 0.000000 0.500000 0.981562
O O11 0.993311 0.596059 0.854685
O O12 0.035020 0.633868 0.017322
O O13 0.250000 0.063021 0.953312
O O14 0.000000 0.000000 0.988671
O O15 0.500000 0.500000 0.726706
O O16 0.750000 0.567998 0.761632
O O17 0.250000 0.698292 0.110511
#
# Coordination Sequence:
#
# PCOD8183774 Si02
#       6
#     8   8   8   8   8   8
#     4   9  18  35  57  81 108 139 178 221 267 319
#     4  11  23  37  54  80 113 148 186 226 273 330
#     4  10  20  36  58  84 112 144 187 233 278 330
#     4   9  19  35  56  80 105 136 175 219 265 316
#     4  11  22  38  60  83 109 143 185 233 284 334
#     4  10  22  37  54  80 115 150 182 222 272 327
#
# _framework density 19.201215000000001
#
# number of rings (size 3 to 8) (size 9 to 14) (size 15 to 20)
#    0.000    2.000    0.000    4.500    0.000    6.000 
#    0.000    1.667    0.000    0.000    0.000    0.000 
#    0.000    0.000    0.000    0.000    0.000    0.000 
#
# Total GULP energy -297676.714738 kJ/mol
# GULP energy per Si atom -12403.196447 kJ/mol
# Density = 1.915751 g / cm^3
# Si number density = 19.201215 Si / 1000 Ang^3
#
#
#
# Elastic Constant Matrix: (Units=GPa)
#
#
# Indices 1 2 3 4 5 6 
#
# 1 83.1227 47.7820 48.6493 0.0000 0.0000 0.0000
# 2 47.7820 140.7278 80.4183 0.0000 0.0000 0.0000
# 3 48.6493 80.4183 117.7904 0.0000 0.0000 0.0000
# 4 0.0000 0.0000 0.0000 18.4556 0.0000 0.0000
# 5 0.0000 0.0000 0.0000 0.0000 18.6841 0.0000
# 6 0.0000 0.0000 0.0000 0.0000 0.0000 36.1020
#
#
#
# Elastic Compliance Matrix: (Units=1/GPa)
#
#
# Indices 1 2 3 4 5 6 
#
# 1 0.016513 -0.002803 -0.004907 0.000000 0.000000 0.000000
# 2 -0.002803 0.012127 -0.007122 0.000000 0.000000 0.000000
# 3 -0.004907 -0.007122 0.015379 0.000000 0.000000 0.000000
# 4 0.000000 0.000000 0.000000 0.054184 0.000000 0.000000
# 5 0.000000 0.000000 0.000000 0.000000 0.053521 0.000000
# 6 0.000000 0.000000 0.000000 0.000000 0.000000 0.027699
#
#
# Mechanical properties :
#
#
# Convention : Reuss Voigt Hill
#
# Bulk Modulus (GPa) = 69.65674 77.25999 73.45836
# Shear Modulus (GPa) = 23.37838 25.63444 24.50641
#
# Velocity S-wave (km/s) = 3.49312 3.65779 3.57640
# Velocity P-wave (km/s) = 7.25432 7.62651 7.44274
#
# Compressibility (1/GPa) = 0.01435611
#
# Stress axis : x y z
#
# Youngs Moduli (GPa) = 60.55695 82.45729 65.02568
#
# Poissons Ratio (x) = 0.23113 0.31906
# Poissons Ratio (y) = 0.16974 0.46312
# Poissons Ratio (z) = 0.29713 0.58726
#
# Static dielectric constant tensor:
#      x y z
#    x 3.475670 0.000000 0.000000 
#    y 0.000000 3.400980 0.000000 
#    z 0.000000 0.000000 3.853050 
# 
# 
# High freq. dielectric constant tensor:
#      x y z
#    x 1.748830 0.000000 0.000000 
#    y 0.000000 1.741930 0.000000 
#    z 0.000000 0.000000 1.760940 
# 
# From -- ./inp_files/15042.got.cif
#   From: 2010.03.12/outbox.cif.g09.slc.cpg/sg40_8_cif.got.tgz:15042.got - 2010.04.14 01:38:03.
