data_PCOD8183186
_publ_section_title
;
Structure prediction by ZEFSAII (Michael W. Deem and Ramdas Pophale) SiO2 
 PCOD8183186
Probable space group: A M A 2
;
_chemical_formula_sum "Si O2"
_cell_formula_units_Z 64
_cell_length_a 8.834064
_cell_length_b 19.466946
_cell_length_c 20.613621
_cell_angle_alpha 90.000000
_cell_angle_beta 90.000000
_cell_angle_gamma 90.000000
_cell_volume 3544.970719
_symmetry_space_group_name_H-M "A M A 2"
_symmetry_group_IT_number 40
_symmetry_cell_setting 'orthorhombic'
loop_
_space_group_symop_operation_xyz
x,y,z
-x,-y,z
1/2-x,y,z
1/2+x,-y,z
x,1/2+y,1/2+z
-x,1/2-y,1/2+z
1/2-x,1/2+y,1/2+z
1/2+x,1/2-y,1/2+z
loop_
_atom_site_type_symbol
_atom_site_label
_atom_site_fract_x
_atom_site_fract_y
_atom_site_fract_z
Si Si1 0.927563 0.796274 0.484120
Si Si2 0.071842 0.570350 0.565549
Si Si3 0.075418 0.710505 0.232757
Si Si4 0.573429 0.931178 0.668669
Si Si5 0.073630 0.296999 0.363419
Si Si6 0.929570 0.571111 0.030174
Si Si7 0.927834 0.429907 0.416939
Si Si8 0.428293 0.793843 0.106192
O O1 0.750000 0.811965 0.490080
O O2 0.970340 0.758268 0.417740
O O3 0.983175 0.749684 0.544151
O O4 0.018400 0.867605 0.483116
O O5 0.250000 0.565231 0.572880
O O6 0.021184 0.582313 0.491178
O O7 0.000000 0.500000 0.592333
O O8 0.010342 0.632982 0.608121
O O9 0.250000 0.725270 0.248571
O O10 0.048789 0.629974 0.219166
O O11 0.022478 0.754032 0.170815
O O12 0.974582 0.733370 0.293814
O O13 0.750000 0.942958 0.653581
O O14 0.491250 0.912502 0.601751
O O15 0.500000 0.000000 0.699027
O O16 0.250000 0.313562 0.365518
O O17 0.983986 0.367281 0.373760
O O18 0.750000 0.565258 0.031171
O O19 0.000000 0.500000 0.003894
O O20 0.750000 0.436318 0.410052
O O21 0.000000 0.500000 0.390050
O O22 0.250000 0.805955 0.102552
#
# Coordination Sequence:
#
# PCOD8183186 Si02
#       8
#     8   8   8   8   8   8   8   8
#     4  10  20  37  58  81 110 144 184 225 274 325
#     4  10  20  33  54  84 113 142 180 228 275 325
#     4  10  22  38  55  76 110 151 185 225 274 326
#     4  10  19  34  53  77 109 148 186 224 269 319
#     4  11  23  37  56  80 111 148 183 228 275 325
#     4  11  21  33  55  84 113 143 179 227 275 324
#     4  10  20  34  53  78 111 148 187 226 268 323
#     4  10  19  36  59  80 109 146 183 227 275 322
#
# _framework density 18.053746
#
# number of rings (size 3 to 8) (size 9 to 14) (size 15 to 20)
#    0.000    1.750    2.500    3.375    0.000    4.500 
#    0.000    1.250    0.000    0.750    0.000    5.250 
#    0.000    0.000    0.000    0.000    0.000    0.000 
#
# Total GULP energy -396941.678585 kJ/mol
# GULP energy per Si atom -12404.427456 kJ/mol
# Density = 1.801266 g / cm^3
# Si number density = 18.053746 Si / 1000 Ang^3
#
#
#
# Elastic Constant Matrix: (Units=GPa)
#
#
# Indices 1 2 3 4 5 6 
#
# 1 86.6104 51.5033 41.8353 0.0000 0.0000 0.0000
# 2 51.5033 122.8005 55.4235 0.0000 0.0000 0.0000
# 3 41.8353 55.4235 99.4308 0.0000 0.0000 0.0000
# 4 0.0000 0.0000 0.0000 20.6063 0.0000 0.0000
# 5 0.0000 0.0000 0.0000 0.0000 27.4317 0.0000
# 6 0.0000 0.0000 0.0000 0.0000 0.0000 35.3906
#
#
#
# Elastic Compliance Matrix: (Units=1/GPa)
#
#
# Indices 1 2 3 4 5 6 
#
# 1 0.016566 -0.005080 -0.004138 0.000000 0.000000 0.000000
# 2 -0.005080 0.012438 -0.004796 0.000000 0.000000 0.000000
# 3 -0.004138 -0.004796 0.014472 0.000000 0.000000 0.000000
# 4 0.000000 0.000000 0.000000 0.048529 0.000000 0.000000
# 5 0.000000 0.000000 0.000000 0.000000 0.036454 0.000000
# 6 0.000000 0.000000 0.000000 0.000000 0.000000 0.028256
#
#
# Mechanical properties :
#
#
# Convention : Reuss Voigt Hill
#
# Bulk Modulus (GPa) = 64.73587 67.37398 66.05493
# Shear Modulus (GPa) = 26.33068 27.35769 26.84418
#
# Velocity S-wave (km/s) = 3.82312 3.89697 3.86022
# Velocity P-wave (km/s) = 7.44470 7.59263 7.51903
#
# Compressibility (1/GPa) = 0.01544739
#
# Stress axis : x y z
#
# Youngs Moduli (GPa) = 60.36540 80.39622 69.10037
#
# Poissons Ratio (x) = 0.40841 0.28596
# Poissons Ratio (y) = 0.30666 0.33139
# Poissons Ratio (z) = 0.24981 0.38557
#
# Static dielectric constant tensor:
#      x y z
#    x 3.309410 0.000000 0.000000 
#    y 0.000000 3.431260 0.000000 
#    z 0.000000 0.000000 3.150050 
# 
# 
# High freq. dielectric constant tensor:
#      x y z
#    x 1.705740 0.000000 0.000000 
#    y 0.000000 1.703160 0.000000 
#    z 0.000000 0.000000 1.673270 
# 
# From -- ./inp_files/19566.got.cif
#   From: 2010.03.12/outbox.cif.g09.slc.cpg/sg40_10_cif.got.tgz:19566.got - 2010.04.14 01:38:03.
