data_PCOD8183800
_publ_section_title
;
Structure prediction by ZEFSAII (Michael W. Deem and Ramdas Pophale) SiO2 
 PCOD8183800
Probable space group: A M A 2
;
_chemical_formula_sum "Si O2"
_cell_formula_units_Z 64
_cell_length_a 8.790380
_cell_length_b 33.610666
_cell_length_c 11.540130
_cell_angle_alpha 90.000000
_cell_angle_beta 90.000000
_cell_angle_gamma 90.000000
_cell_volume 3409.537481
_symmetry_space_group_name_H-M "A M A 2"
_symmetry_group_IT_number 40
_symmetry_cell_setting 'orthorhombic'
loop_
_space_group_symop_operation_xyz
x,y,z
-x,-y,z
1/2-x,y,z
1/2+x,-y,z
x,1/2+y,1/2+z
-x,1/2-y,1/2+z
1/2-x,1/2+y,1/2+z
1/2+x,1/2-y,1/2+z
loop_
_atom_site_type_symbol
_atom_site_label
_atom_site_fract_x
_atom_site_fract_y
_atom_site_fract_z
Si Si1 0.069423 0.620762 0.473470
Si Si2 0.925308 0.608183 0.009303
Si Si3 0.579426 0.276260 0.112346
Si Si4 0.425012 0.694150 0.630155
Si Si5 0.930869 0.542949 0.584199
Si Si6 0.581924 0.825810 0.389009
Si Si7 0.931723 0.651192 0.234604
Si Si8 0.930226 0.041185 0.347628
O O1 0.250000 0.615299 0.469676
O O2 0.018532 0.653752 0.567673
O O3 0.995756 0.578079 0.503482
O O4 0.010222 0.636427 0.350717
O O5 0.750000 0.600203 0.027410
O O6 0.993133 0.620744 0.134341
O O7 0.999609 0.570074 0.946611
O O8 0.950408 0.643196 0.917737
O O9 0.750000 0.275574 0.163319
O O10 0.518779 0.232167 0.092058
O O11 0.480479 0.303931 0.199221
O O12 0.577052 0.290925 0.981335
O O13 0.250000 0.701460 0.598741
O O14 0.455907 0.691790 0.765504
O O15 0.750000 0.540735 0.569030
O O16 0.979577 0.552962 0.716801
O O17 0.000000 0.500000 0.547420
O O18 0.750000 0.846152 0.389410
O O19 0.750000 0.650358 0.247101
O O20 0.750000 0.039616 0.353227
O O21 0.000000 0.000000 0.384473
#
# Coordination Sequence:
#
# PCOD8183800 Si02
#       8
#     8   8   8   8   8   8   8   8
#     4  11  23  38  57  84 115 149 195 241 283 339
#     4   9  18  34  55  78 104 138 178 222 268 326
#     4  10  21  36  55  80 107 139 182 229 278 334
#     4  10  22  37  54  79 111 144 180 228 281 335
#     4  10  20  36  59  86 117 151 186 231 287 343
#     4   9  19  35  53  75 102 134 173 218 269 325
#     4  10  21  38  58  77 108 151 190 231 284 337
#     4   9  18  32  53  83 114 140 175 220 273 333
#
# _framework density 18.770873999999999
#
# number of rings (size 3 to 8) (size 9 to 14) (size 15 to 20)
#    0.000    2.250    0.000    2.250    1.750    3.500 
#    0.000    0.625    0.000    1.500    0.000    0.000 
#    0.000    0.000    0.000    0.000    0.000    0.000 
#
# Total GULP energy -396617.413544 kJ/mol
# GULP energy per Si atom -12394.294173 kJ/mol
# Density = 1.872815 g / cm^3
# Si number density = 18.770874 Si / 1000 Ang^3
#
#
#
# Elastic Constant Matrix: (Units=GPa)
#
#
# Indices 1 2 3 4 5 6 
#
# 1 53.9018 42.8918 36.5409 0.0000 0.0000 0.0000
# 2 42.8918 133.3121 59.1572 0.0000 0.0000 0.0000
# 3 36.5409 59.1572 90.4730 0.0000 0.0000 0.0000
# 4 0.0000 0.0000 0.0000 24.2768 0.0000 0.0000
# 5 0.0000 0.0000 0.0000 0.0000 25.5600 0.0000
# 6 0.0000 0.0000 0.0000 0.0000 0.0000 34.8318
#
#
#
# Elastic Compliance Matrix: (Units=1/GPa)
#
#
# Indices 1 2 3 4 5 6 
#
# 1 0.028305 -0.005683 -0.007716 0.000000 0.000000 0.000000
# 2 -0.005683 0.011708 -0.005360 0.000000 0.000000 0.000000
# 3 -0.007716 -0.005360 0.017675 0.000000 0.000000 0.000000
# 4 0.000000 0.000000 0.000000 0.041192 0.000000 0.000000
# 5 0.000000 0.000000 0.000000 0.000000 0.039124 0.000000
# 6 0.000000 0.000000 0.000000 0.000000 0.000000 0.028709
#
#
# Mechanical properties :
#
#
# Convention : Reuss Voigt Hill
#
# Bulk Modulus (GPa) = 49.58113 61.65186 55.61649
# Shear Modulus (GPa) = 23.70173 26.20684 24.95428
#
# Velocity S-wave (km/s) = 3.55728 3.74055 3.65007
# Velocity P-wave (km/s) = 6.58358 7.18132 6.88894
#
# Compressibility (1/GPa) = 0.02016897
#
# Stress axis : x y z
#
# Youngs Moduli (GPa) = 35.32900 85.40967 56.57847
#
# Poissons Ratio (x) = 0.48537 0.43658
# Poissons Ratio (y) = 0.20077 0.30328
# Poissons Ratio (z) = 0.27261 0.45783
#
# Static dielectric constant tensor:
#      x y z
#    x 3.318810 0.000000 0.000000 
#    y 0.000000 3.487660 0.000000 
#    z 0.000000 0.000000 3.595520 
# 
# 
# High freq. dielectric constant tensor:
#      x y z
#    x 1.729300 0.000000 0.000000 
#    y 0.000000 1.729460 0.000000 
#    z 0.000000 0.000000 1.729470 
# 
# From -- ./inp_files/10549.got.cif
#   From: 2010.03.12/outbox.cif.g09.slc.cpg/sg40_6_cif.got.tgz:10549.got - 2010.04.14 01:38:03.
