data_PCOD8183743
_publ_section_title
;
Structure prediction by ZEFSAII (Michael W. Deem and Ramdas Pophale) SiO2 
 PCOD8183743
Probable space group: A M A 2
;
_chemical_formula_sum "Si O2"
_cell_formula_units_Z 48
_cell_length_a 8.522741
_cell_length_b 30.324392
_cell_length_c 9.902288
_cell_angle_alpha 90.000000
_cell_angle_beta 90.000000
_cell_angle_gamma 90.000000
_cell_volume 2559.216023
_symmetry_space_group_name_H-M "A M A 2"
_symmetry_group_IT_number 40
_symmetry_cell_setting 'orthorhombic'
loop_
_space_group_symop_operation_xyz
x,y,z
-x,-y,z
1/2-x,y,z
1/2+x,-y,z
x,1/2+y,1/2+z
-x,1/2-y,1/2+z
1/2-x,1/2+y,1/2+z
1/2+x,1/2-y,1/2+z
loop_
_atom_site_type_symbol
_atom_site_label
_atom_site_fract_x
_atom_site_fract_y
_atom_site_fract_z
Si Si1 0.565242 0.546331 0.290770
Si Si2 0.566201 0.378809 0.790667
Si Si3 0.566017 0.214833 0.300471
Si Si4 0.563954 0.547055 0.598114
Si Si5 0.066549 0.212037 0.587532
Si Si6 0.065356 0.881571 0.580354
O O1 0.500000 0.500000 0.236651
O O2 0.750000 0.543896 0.284768
O O3 0.509885 0.555378 0.443859
O O4 0.502128 0.585292 0.195136
O O5 0.750000 0.370015 0.782828
O O6 0.477211 0.333995 0.749969
O O7 0.517358 0.416033 0.686778
O O8 0.521266 0.393645 0.941538
O O9 0.750000 0.217194 0.329904
O O10 0.473865 0.227140 0.436340
O O11 0.512818 0.249300 0.187108
O O12 0.500000 0.500000 0.648114
O O13 0.750000 0.549002 0.615966
O O14 0.250000 0.202137 0.598819
O O15 0.973380 0.167919 0.627576
O O16 0.250000 0.886462 0.557184
#
# Coordination Sequence:
#
# PCOD8183743 Si02
#       6
#     8   8   8   8   8   8
#     4   9  20  36  56  80 106 138 175 216 263 314
#     4  11  22  36  55  80 108 142 181 220 264 314
#     4  10  21  37  56  79 108 141 177 220 267 316
#     4  10  20  37  57  80 109 140 177 220 266 316
#     4  10  21  36  55  80 107 138 178 220 264 316
#     4  10  20  36  56  79 108 141 176 218 267 316
#
# _framework density 18.755742999999999
#
# number of rings (size 3 to 8) (size 9 to 14) (size 15 to 20)
#    0.000    2.000    0.000    5.500    0.000    6.667 
#    0.000    6.667    0.000    0.000    0.000    0.000 
#    0.000    0.000    0.000    0.000    0.000    0.000 
#
# Total GULP energy -297679.538834 kJ/mol
# GULP energy per Si atom -12403.314118 kJ/mol
# Density = 1.871305 g / cm^3
# Si number density = 18.755743 Si / 1000 Ang^3
#
#
#
# Elastic Constant Matrix: (Units=GPa)
#
#
# Indices 1 2 3 4 5 6 
#
# 1 41.2419 11.7265 14.0870 0.0000 0.0000 0.0000
# 2 11.7265 130.4826 90.5861 0.0000 0.0000 0.0000
# 3 14.0870 90.5861 102.2181 0.0000 0.0000 0.0000
# 4 0.0000 0.0000 0.0000 57.8583 0.0000 0.0000
# 5 0.0000 0.0000 0.0000 0.0000 6.2585 0.0000
# 6 0.0000 0.0000 0.0000 0.0000 0.0000 31.4311
#
#
#
# Elastic Compliance Matrix: (Units=1/GPa)
#
#
# Indices 1 2 3 4 5 6 
#
# 1 0.025452 0.000384 -0.003848 0.000000 0.000000 0.000000
# 2 0.000384 0.019924 -0.017710 0.000000 0.000000 0.000000
# 3 -0.003848 -0.017710 0.026008 0.000000 0.000000 0.000000
# 4 0.000000 0.000000 0.000000 0.017284 0.000000 0.000000
# 5 0.000000 0.000000 0.000000 0.000000 0.159782 0.000000
# 6 0.000000 0.000000 0.000000 0.000000 0.000000 0.031816
#
#
# Mechanical properties :
#
#
# Convention : Reuss Voigt Hill
#
# Bulk Modulus (GPa) = 34.43905 56.30462 45.37183
# Shear Modulus (GPa) = 15.04701 29.61245 22.32973
#
# Velocity S-wave (km/s) = 2.83550 3.97778 3.45418
# Velocity P-wave (km/s) = 5.39646 7.15417 6.33656
#
# Compressibility (1/GPa) = 0.02903681
#
# Stress axis : x y z
#
# Youngs Moduli (GPa) = 39.28908 50.19027 38.45003
#
# Poissons Ratio (x) = -0.01927 0.14795
# Poissons Ratio (y) = -0.01509 0.68094
# Poissons Ratio (z) = 0.15118 0.88886
#
# Static dielectric constant tensor:
#      x y z
#    x 3.512190 0.000000 0.000000 
#    y 0.000000 3.551840 0.000000 
#    z 0.000000 0.000000 3.570690 
# 
# 
# High freq. dielectric constant tensor:
#      x y z
#    x 1.738900 0.000000 0.000000 
#    y 0.000000 1.734190 0.000000 
#    z 0.000000 0.000000 1.727940 
# 
# From -- ./inp_files/4577.got.cif
#   From: 2010.03.12/outbox.cif.g09.slc.cpg/sg40_3_cif.got.tgz:4577.got - 2010.04.14 01:38:03.
