data_PCOD8183118
_publ_section_title
;
Structure prediction by ZEFSAII (Michael W. Deem and Ramdas Pophale) SiO2 
 PCOD8183118
Probable space group: A M A 2
;
_chemical_formula_sum "Si O2"
_cell_formula_units_Z 40
_cell_length_a 8.870937
_cell_length_b 25.500555
_cell_length_c 9.583140
_cell_angle_alpha 90.000000
_cell_angle_beta 90.000000
_cell_angle_gamma 90.000000
_cell_volume 2167.838677
_symmetry_space_group_name_H-M "A M A 2"
_symmetry_group_IT_number 40
_symmetry_cell_setting 'orthorhombic'
loop_
_space_group_symop_operation_xyz
x,y,z
-x,-y,z
1/2-x,y,z
1/2+x,-y,z
x,1/2+y,1/2+z
-x,1/2-y,1/2+z
1/2-x,1/2+y,1/2+z
1/2+x,1/2-y,1/2+z
loop_
_atom_site_type_symbol
_atom_site_label
_atom_site_fract_x
_atom_site_fract_y
_atom_site_fract_z
Si Si1 0.073871 0.217966 0.472340
Si Si2 0.427148 0.358062 0.766937
Si Si3 0.572461 0.329662 0.494575
Si Si4 0.574204 0.055512 0.492172
Si Si5 0.076238 0.630601 0.194104
O O1 0.250000 0.218736 0.435045
O O2 0.039984 0.183465 0.609161
O O3 0.983049 0.195135 0.340861
O O4 0.016732 0.275595 0.504795
O O5 0.250000 0.353442 0.738943
O O6 0.516089 0.365701 0.622095
O O7 0.469306 0.407672 0.862119
O O8 0.750000 0.318742 0.502992
O O9 0.529284 0.360124 0.353602
O O10 0.750000 0.047218 0.505545
O O11 0.517637 0.081652 0.635534
O O12 0.500000 0.000000 0.464994
O O13 0.250000 0.615233 0.179833
#
# Coordination Sequence:
#
# PCOD8183118 Si02
#       5
#     8   8   8   8   8
#     4  10  19  33  54  78 108 147 183 219 261 311
#     4  10  21  36  53  78 109 142 181 220 259 313
#     4  11  21  33  52  80 113 146 177 217 264 311
#     4  10  21  38  61  81 100 131 173 220 269 320
#     4   9  20  36  53  77 108 140 178 218 260 311
#
# _framework density 18.451557000000001
#
# number of rings (size 3 to 8) (size 9 to 14) (size 15 to 20)
#    0.000    2.000    0.000    3.600    0.000    6.400 
#    0.000    1.000    0.000    2.400    0.000    0.000 
#    0.000    0.000    0.000    0.000    0.000    0.000 
#
# Total GULP energy -248099.460501 kJ/mol
# GULP energy per Si atom -12404.973025 kJ/mol
# Density = 1.840956 g / cm^3
# Si number density = 18.451557 Si / 1000 Ang^3
#
#
#
# Elastic Constant Matrix: (Units=GPa)
#
#
# Indices 1 2 3 4 5 6 
#
# 1 64.0097 40.5897 43.7731 0.0000 0.0000 0.0000
# 2 40.5897 100.5386 42.5644 0.0000 0.0000 0.0000
# 3 43.7731 42.5644 138.1240 0.0000 0.0000 0.0000
# 4 0.0000 0.0000 0.0000 10.4802 0.0000 0.0000
# 5 0.0000 0.0000 0.0000 0.0000 33.9508 0.0000
# 6 0.0000 0.0000 0.0000 0.0000 0.0000 33.4591
#
#
#
# Elastic Compliance Matrix: (Units=1/GPa)
#
#
# Indices 1 2 3 4 5 6 
#
# 1 0.023960 -0.007428 -0.005304 0.000000 0.000000 0.000000
# 2 -0.007428 0.013741 -0.001881 0.000000 0.000000 0.000000
# 3 -0.005304 -0.001881 0.009500 0.000000 0.000000 0.000000
# 4 0.000000 0.000000 0.000000 0.095418 0.000000 0.000000
# 5 0.000000 0.000000 0.000000 0.000000 0.029454 0.000000
# 6 0.000000 0.000000 0.000000 0.000000 0.000000 0.029887
#
#
# Mechanical properties :
#
#
# Convention : Reuss Voigt Hill
#
# Bulk Modulus (GPa) = 55.62769 61.83632 58.73201
# Shear Modulus (GPa) = 21.08119 27.29435 24.18777
#
# Velocity S-wave (km/s) = 3.38378 3.85027 3.62454
# Velocity P-wave (km/s) = 6.74389 7.30422 7.02964
#
# Compressibility (1/GPa) = 0.01797666
#
# Stress axis : x y z
#
# Youngs Moduli (GPa) = 41.73636 72.77342 105.25854
#
# Poissons Ratio (x) = 0.54052 0.55832
# Poissons Ratio (y) = 0.31000 0.19796
# Poissons Ratio (z) = 0.22138 0.13686
#
# Static dielectric constant tensor:
#      x y z
#    x 3.504840 0.000000 0.000000 
#    y 0.000000 3.199070 0.000000 
#    z 0.000000 0.000000 3.571300 
# 
# 
# High freq. dielectric constant tensor:
#      x y z
#    x 1.728730 0.000000 0.000000 
#    y 0.000000 1.697690 0.000000 
#    z 0.000000 0.000000 1.721970 
# 
# From -- ./inp_files/4218.got.cif
#   From: 2010.03.12/outbox.cif.g09.slc.cpg/sg40_3_cif.got.tgz:4218.got - 2010.04.14 01:38:03.
