data_PCOD8183541
_publ_section_title
;
Structure prediction by ZEFSAII (Michael W. Deem and Ramdas Pophale) SiO2 
 PCOD8183541
Probable space group: A M A 2
;
_chemical_formula_sum "Si O2"
_cell_formula_units_Z 52
_cell_length_a 24.257895
_cell_length_b 12.306255
_cell_length_c 8.660704
_cell_angle_alpha 90.000000
_cell_angle_beta 90.000000
_cell_angle_gamma 90.000000
_cell_volume 2585.426629
_symmetry_space_group_name_H-M "A M A 2"
_symmetry_group_IT_number 40
_symmetry_cell_setting 'orthorhombic'
loop_
_space_group_symop_operation_xyz
x,y,z
-x,-y,z
1/2-x,y,z
1/2+x,-y,z
x,1/2+y,1/2+z
-x,1/2-y,1/2+z
1/2-x,1/2+y,1/2+z
1/2+x,1/2-y,1/2+z
loop_
_atom_site_type_symbol
_atom_site_label
_atom_site_fract_x
_atom_site_fract_y
_atom_site_fract_z
Si Si1 0.133431 0.190886 0.445700
Si Si2 0.135320 0.874913 0.171810
Si Si3 0.865765 0.374984 0.603240
Si Si4 0.945874 0.755662 0.877007
Si Si5 0.250000 0.706932 0.576490
Si Si6 0.250000 0.382784 0.825398
Si Si7 0.750000 0.867643 0.406408
Si Si8 0.973835 0.382290 0.082363
O O1 0.123907 0.311576 0.512025
O O2 0.129455 0.194344 0.260879
O O3 0.193980 0.149600 0.502723
O O4 0.088901 0.108829 0.520046
O O5 0.093399 0.834916 0.302724
O O6 0.196795 0.848553 0.228224
O O7 0.123795 0.000191 0.141908
O O8 0.911984 0.334867 0.487700
O O9 0.805129 0.359218 0.527529
O O10 0.975437 0.831420 0.751993
O O11 0.993725 0.695884 0.967812
O O12 0.250000 0.824215 0.492871
O O13 0.250000 0.718160 0.762856
O O14 0.250000 0.511428 0.841031
O O15 0.000000 0.500000 0.088280
#
# Coordination Sequence:
#
# PCOD8183541 Si02
#       8
#     8   8   8   8   4   4   4   8
#     4  10  22  41  65  95 123 166 212 253 313 378
#     4  11  22  39  67  92 127 172 209 259 316 372
#     4  11  21  41  63  90 130 165 210 261 316 369
#     4  11  25  41  64  94 123 169 214 264 311 376
#     4  10  20  33  62  93 121 166 205 253 310 375
#     4  12  19  37  67  92 130 168 207 253 319 378
#     4  10  21  40  63  93 131 164 206 260 313 371
#     4  11  25  43  65  93 129 166 212 264 316 372
#
# _framework density 20.112735000000001
#
# number of rings (size 3 to 8) (size 9 to 14) (size 15 to 20)
#    0.000    1.231    4.615    2.308    0.000    3.692 
#    0.000    5.385    0.000    0.000    0.000    0.000 
#    0.000    0.000    0.000    0.000    0.000    0.000 
#
# Total GULP energy -322420.199282 kJ/mol
# GULP energy per Si atom -12400.776895 kJ/mol
# Density = 2.006696 g / cm^3
# Si number density = 20.112735 Si / 1000 Ang^3
#
#
#
# Elastic Constant Matrix: (Units=GPa)
#
#
# Indices 1 2 3 4 5 6 
#
# 1 148.7050 54.5150 60.2517 0.0000 0.0000 0.0000
# 2 54.5150 97.4811 67.4635 0.0000 0.0000 0.0000
# 3 60.2517 67.4635 120.7743 0.0000 0.0000 0.0000
# 4 0.0000 0.0000 0.0000 27.0061 0.0000 0.0000
# 5 0.0000 0.0000 0.0000 0.0000 34.7537 0.0000
# 6 0.0000 0.0000 0.0000 0.0000 0.0000 22.7203
#
#
#
# Elastic Compliance Matrix: (Units=1/GPa)
#
#
# Indices 1 2 3 4 5 6 
#
# 1 0.008979 -0.003132 -0.002730 0.000000 0.000000 0.000000
# 2 -0.003132 0.017816 -0.008389 0.000000 0.000000 0.000000
# 3 -0.002730 -0.008389 0.014328 0.000000 0.000000 0.000000
# 4 0.000000 0.000000 0.000000 0.037029 0.000000 0.000000
# 5 0.000000 0.000000 0.000000 0.000000 0.028774 0.000000
# 6 0.000000 0.000000 0.000000 0.000000 0.000000 0.044013
#
#
# Mechanical properties :
#
#
# Convention : Reuss Voigt Hill
#
# Bulk Modulus (GPa) = 79.23698 81.26899 80.25299
# Shear Modulus (GPa) = 27.22592 29.21136 28.21864
#
# Velocity S-wave (km/s) = 3.68321 3.81515 3.74976
# Velocity P-wave (km/s) = 7.58749 7.73961 7.66393
#
# Compressibility (1/GPa) = 0.01262037
#
# Stress axis : x y z
#
# Youngs Moduli (GPa) = 111.37049 56.12937 69.79361
#
# Poissons Ratio (x) = 0.17581 0.19053
# Poissons Ratio (y) = 0.34883 0.58552
# Poissons Ratio (z) = 0.30402 0.47089
#
# Static dielectric constant tensor:
#      x y z
#    x 4.078230 0.000000 0.000000 
#    y 0.000000 3.489540 0.000000 
#    z 0.000000 0.000000 3.691900 
# 
# 
# High freq. dielectric constant tensor:
#      x y z
#    x 1.809440 0.000000 0.000000 
#    y 0.000000 1.776480 0.000000 
#    z 0.000000 0.000000 1.779910 
# 
# From -- ./inp_files/9134.got.cif
#   From: 2010.03.12/outbox.cif.g09.slc.cpg/sg40_5_cif.got.tgz:9134.got - 2010.04.14 01:38:03.
