data_PCOD8183285
_publ_section_title
;
Structure prediction by ZEFSAII (Michael W. Deem and Ramdas Pophale) SiO2 
 PCOD8183285
Probable space group: A M A 2
;
_chemical_formula_sum "Si O2"
_cell_formula_units_Z 64
_cell_length_a 8.623081
_cell_length_b 14.554904
_cell_length_c 27.850462
_cell_angle_alpha 90.000000
_cell_angle_beta 90.000000
_cell_angle_gamma 90.000000
_cell_volume 3495.459019
_symmetry_space_group_name_H-M "A M A 2"
_symmetry_group_IT_number 40
_symmetry_cell_setting 'orthorhombic'
loop_
_space_group_symop_operation_xyz
x,y,z
-x,-y,z
1/2-x,y,z
1/2+x,-y,z
x,1/2+y,1/2+z
-x,1/2-y,1/2+z
1/2-x,1/2+y,1/2+z
1/2+x,1/2-y,1/2+z
loop_
_atom_site_type_symbol
_atom_site_label
_atom_site_fract_x
_atom_site_fract_y
_atom_site_fract_z
Si Si1 0.418942 0.646821 0.850880
Si Si2 0.933541 0.788705 0.452133
Si Si3 0.930881 0.594894 0.757060
Si Si4 0.064383 0.281770 0.220791
Si Si5 0.581870 0.647336 0.317230
Si Si6 0.933559 0.901989 0.638537
Si Si7 0.434592 0.907354 0.915930
Si Si8 0.932535 0.096260 0.535040
O O1 0.250000 0.597038 0.847490
O O2 0.479614 0.648406 0.905958
O O3 0.538469 0.598598 0.814635
O O4 0.392306 0.750595 0.835952
O O5 0.750000 0.795075 0.461424
O O6 0.986945 0.682642 0.445267
O O7 0.028476 0.824344 0.497471
O O8 0.750000 0.599591 0.746978
O O9 0.000000 0.500000 0.736529
O O10 0.012515 0.676948 0.728096
O O11 0.250000 0.284736 0.219890
O O12 0.997895 0.345334 0.265214
O O13 0.994148 0.320540 0.172126
O O14 0.750000 0.600882 0.309023
O O15 0.494674 0.595179 0.360929
O O16 0.750000 0.906491 0.640225
O O17 0.989221 0.877600 0.585303
O O18 0.000000 0.000000 0.655740
O O19 0.250000 0.909480 0.913253
O O20 0.500000 0.000000 0.940874
O O21 0.750000 0.087137 0.542668
O O22 0.000000 0.000000 0.515726
#
# Coordination Sequence:
#
# PCOD8183285 Si02
#       8
#     8   8   8   8   8   8   8   8
#     4   8  15  30  49  68  95 133 174 214 256 301
#     4   9  18  34  54  75 103 139 176 216 263 313
#     4  11  21  33  50  75 107 144 183 220 260 307
#     4  10  19  35  56  78 106 139 176 218 264 313
#     4   7  13  27  46  67  95 132 169 206 247 291
#     4  11  22  38  58  81 107 135 169 210 261 317
#     4   9  17  30  48  72 104 141 177 211 250 296
#     4  11  22  37  57  80 104 131 166 211 264 318
#
# _framework density 18.309469
#
# number of rings (size 3 to 8) (size 9 to 14) (size 15 to 20)
#    0.000    2.500    0.000    6.750    0.000    2.000 
#    0.000    6.875    0.000    0.750    0.000    3.500 
#    0.000    0.000    0.000    0.000    0.000    0.000 
#
# Total GULP energy -396506.948813 kJ/mol
# GULP energy per Si atom -12390.842150 kJ/mol
# Density = 1.826780 g / cm^3
# Si number density = 18.309469 Si / 1000 Ang^3
#
#
#
# Elastic Constant Matrix: (Units=GPa)
#
#
# Indices 1 2 3 4 5 6 
#
# 1 100.2405 40.4020 37.4619 0.0000 0.0000 0.0000
# 2 40.4020 106.2387 59.5865 0.0000 0.0000 0.0000
# 3 37.4619 59.5865 96.9989 0.0000 0.0000 0.0000
# 4 0.0000 0.0000 0.0000 22.0297 0.0000 0.0000
# 5 0.0000 0.0000 0.0000 0.0000 16.6582 0.0000
# 6 0.0000 0.0000 0.0000 0.0000 0.0000 27.7039
#
#
#
# Elastic Compliance Matrix: (Units=1/GPa)
#
#
# Indices 1 2 3 4 5 6 
#
# 1 0.012280 -0.003067 -0.002859 0.000000 0.000000 0.000000
# 2 -0.003067 0.015126 -0.008108 0.000000 0.000000 0.000000
# 3 -0.002859 -0.008108 0.016394 0.000000 0.000000 0.000000
# 4 0.000000 0.000000 0.000000 0.045393 0.000000 0.000000
# 5 0.000000 0.000000 0.000000 0.000000 0.060030 0.000000
# 6 0.000000 0.000000 0.000000 0.000000 0.000000 0.036096
#
#
# Mechanical properties :
#
#
# Convention : Reuss Voigt Hill
#
# Bulk Modulus (GPa) = 63.55581 64.26433 63.91007
# Shear Modulus (GPa) = 22.86942 24.34688 23.60815
#
# Velocity S-wave (km/s) = 3.53802 3.65052 3.59471
# Velocity P-wave (km/s) = 7.17478 7.27623 7.22568
#
# Compressibility (1/GPa) = 0.01573420
#
# Stress axis : x y z
#
# Youngs Moduli (GPa) = 81.42998 66.10932 60.99722
#
# Poissons Ratio (x) = 0.20274 0.17439
# Poissons Ratio (y) = 0.24972 0.49455
# Poissons Ratio (z) = 0.23281 0.53600
#
# Static dielectric constant tensor:
#      x y z
#    x 3.224070 0.000000 0.000000 
#    y 0.000000 3.429320 0.000000 
#    z 0.000000 0.000000 3.452950 
# 
# 
# High freq. dielectric constant tensor:
#      x y z
#    x 1.702110 0.000000 0.000000 
#    y 0.000000 1.701770 0.000000 
#    z 0.000000 0.000000 1.693170 
# 
# From -- ./inp_files/26482.got.cif
#   From: 2010.03.12/outbox.cif.g09.slc.cpg/sg40_14_cif.got.tgz:26482.got - 2010.04.14 01:38:03.
