data_PCOD8183611
_publ_section_title
;
Structure prediction by ZEFSAII (Michael W. Deem and Ramdas Pophale) SiO2 
 PCOD8183611
Probable space group: A M A 2
;
_chemical_formula_sum "Si O2"
_cell_formula_units_Z 48
_cell_length_a 10.125760
_cell_length_b 7.588814
_cell_length_c 31.249755
_cell_angle_alpha 90.000000
_cell_angle_beta 90.000000
_cell_angle_gamma 90.000000
_cell_volume 2401.309588
_symmetry_space_group_name_H-M "A M A 2"
_symmetry_group_IT_number 40
_symmetry_cell_setting 'orthorhombic'
loop_
_space_group_symop_operation_xyz
x,y,z
-x,-y,z
1/2-x,y,z
1/2+x,-y,z
x,1/2+y,1/2+z
-x,1/2-y,1/2+z
1/2-x,1/2+y,1/2+z
1/2+x,1/2-y,1/2+z
loop_
_atom_site_type_symbol
_atom_site_label
_atom_site_fract_x
_atom_site_fract_y
_atom_site_fract_z
Si Si1 0.750000 0.951193 0.497780
Si Si2 0.396081 0.850188 0.789963
Si Si3 0.750000 0.741811 0.922918
Si Si4 0.500000 0.000000 0.556410
Si Si5 0.488849 0.292346 0.375638
Si Si6 0.250000 0.341110 0.433855
Si Si7 0.906333 0.333186 0.609838
Si Si8 0.891684 0.867014 0.206161
O O1 0.750000 0.109379 0.462828
O O2 0.622366 0.960415 0.526587
O O3 0.750000 0.752704 0.479501
O O4 0.250000 0.919581 0.803943
O O5 0.447440 0.718991 0.828401
O O6 0.383713 0.774188 0.743019
O O7 0.500000 0.000000 0.783548
O O8 0.622833 0.704555 0.893110
O O9 0.750000 0.946234 0.939048
O O10 0.536264 0.167332 0.584971
O O11 0.500000 0.500000 0.368205
O O12 0.376921 0.260718 0.410474
O O13 0.750000 0.367751 0.598811
O O14 0.925249 0.284869 0.659886
O O15 0.000000 0.500000 0.598151
O O16 0.750000 0.964982 0.202348
O O17 0.000000 0.000000 0.222131
#
# Coordination Sequence:
#
# PCOD8183611 Si02
#       8
#     4   8   4   4   8   4   8   8
#     4  12  26  42  64  96 124 164 216 270 326 398
#     4  10  20  34  56  88 124 162 209 258 300 366
#     4  10  22  40  60  87 119 163 211 258 316 388
#     4  12  26  44  66  98 138 158 220 280 326 400
#     4   9  18  35  58  82 117 160 209 251 310 373
#     4  10  20  40  64  81 119 165 201 262 320 370
#     4  10  23  44  71  96 129 177 216 264 331 396
#     4   9  20  40  59  88 126 161 209 254 309 377
#
# _framework density 19.989094000000001
#
# number of rings (size 3 to 8) (size 9 to 14) (size 15 to 20)
#    0.000    2.000    1.667    1.000    5.833    2.000 
#    3.000    0.000    0.000    0.000    0.000    0.000 
#    0.000    0.000    0.000    0.000    0.000    0.000 
#
# Total GULP energy -297337.370392 kJ/mol
# GULP energy per Si atom -12389.057100 kJ/mol
# Density = 1.994360 g / cm^3
# Si number density = 19.989094 Si / 1000 Ang^3
#
#
#
# Elastic Constant Matrix: (Units=GPa)
#
#
# Indices 1 2 3 4 5 6 
#
# 1 187.6978 52.4238 69.0939 0.0000 0.0000 0.0000
# 2 52.4238 78.8440 50.8151 0.0000 0.0000 0.0000
# 3 69.0939 50.8151 115.5796 0.0000 0.0000 0.0000
# 4 0.0000 0.0000 0.0000 92.9306 0.0000 0.0000
# 5 0.0000 0.0000 0.0000 0.0000 37.7245 0.0000
# 6 0.0000 0.0000 0.0000 0.0000 0.0000 26.7406
#
#
#
# Elastic Compliance Matrix: (Units=1/GPa)
#
#
# Indices 1 2 3 4 5 6 
#
# 1 0.007257 -0.002832 -0.003094 0.000000 0.000000 0.000000
# 2 -0.002832 0.018803 -0.006574 0.000000 0.000000 0.000000
# 3 -0.003094 -0.006574 0.013392 0.000000 0.000000 0.000000
# 4 0.000000 0.000000 0.000000 0.010761 0.000000 0.000000
# 5 0.000000 0.000000 0.000000 0.000000 0.026508 0.000000
# 6 0.000000 0.000000 0.000000 0.000000 0.000000 0.037396
#
#
# Mechanical properties :
#
#
# Convention : Reuss Voigt Hill
#
# Bulk Modulus (GPa) = 69.18700 80.75411 74.97056
# Shear Modulus (GPa) = 34.73825 45.46504 40.10165
#
# Velocity S-wave (km/s) = 4.17329 4.77434 4.48390
# Velocity P-wave (km/s) = 7.60982 8.41898 8.02460
#
# Compressibility (1/GPa) = 0.01445358
#
# Stress axis : x y z
#
# Youngs Moduli (GPa) = 137.79113 53.18281 74.67324
#
# Poissons Ratio (x) = 0.15060 0.23100
# Poissons Ratio (y) = 0.39018 0.49091
# Poissons Ratio (z) = 0.42626 0.34963
#
# Static dielectric constant tensor:
#      x y z
#    x 5.895190 0.000000 0.000000 
#    y 0.000000 2.201390 0.000000 
#    z 0.000000 0.000000 4.046840 
# 
# 
# High freq. dielectric constant tensor:
#      x y z
#    x 1.809640 0.000000 0.000000 
#    y 0.000000 1.746340 0.000000 
#    z 0.000000 0.000000 1.797470 
# 
# From -- ./inp_files/26220.got.cif
#   From: 2010.03.12/outbox.cif.g09.slc.cpg/sg40_14_cif.got.tgz:26220.got - 2010.04.14 01:38:03.
