data_PCOD8183011
_publ_section_title
;
Structure prediction by ZEFSAII (Michael W. Deem and Ramdas Pophale) SiO2 
 PCOD8183011
Probable space group: A M A 2
;
_chemical_formula_sum "Si O2"
_cell_formula_units_Z 64
_cell_length_a 17.390827
_cell_length_b 12.309966
_cell_length_c 16.502375
_cell_angle_alpha 90.000000
_cell_angle_beta 90.000000
_cell_angle_gamma 90.000000
_cell_volume 3532.836511
_symmetry_space_group_name_H-M "A M A 2"
_symmetry_group_IT_number 40
_symmetry_cell_setting 'orthorhombic'
loop_
_space_group_symop_operation_xyz
x,y,z
-x,-y,z
1/2-x,y,z
1/2+x,-y,z
x,1/2+y,1/2+z
-x,1/2-y,1/2+z
1/2-x,1/2+y,1/2+z
1/2+x,1/2-y,1/2+z
loop_
_atom_site_type_symbol
_atom_site_label
_atom_site_fract_x
_atom_site_fract_y
_atom_site_fract_z
Si Si1 0.090564 0.005287 0.193630
Si Si2 0.840438 0.158594 0.666936
Si Si3 0.340701 0.654901 0.557055
Si Si4 0.659126 0.324628 0.803398
Si Si5 0.341544 0.788559 0.135355
Si Si6 0.658622 0.689583 0.453230
Si Si7 0.658192 0.928957 0.717898
Si Si8 0.158838 0.542504 0.397555
O O1 0.124278 0.884278 0.190016
O O2 0.117940 0.068820 0.114302
O O3 0.119368 0.062877 0.276516
O O4 0.000000 0.000000 0.195223
O O5 0.750000 0.146043 0.672923
O O6 0.863296 0.221746 0.583576
O O7 0.868769 0.229630 0.742913
O O8 0.875175 0.037054 0.672916
O O9 0.250000 0.635428 0.568990
O O10 0.365944 0.632745 0.464392
O O11 0.750000 0.342137 0.797792
O O12 0.633223 0.288223 0.893740
O O13 0.250000 0.796539 0.138057
O O14 0.373193 0.675975 0.171625
O O15 0.373144 0.791274 0.043436
O O16 0.750000 0.683392 0.454512
O O17 0.624952 0.575133 0.421579
O O18 0.750000 0.929372 0.717443
O O19 0.626412 0.923953 0.809960
O O20 0.250000 0.534218 0.393439
#
# Coordination Sequence:
#
# PCOD8183011 Si02
#       8
#     8   8   8   8   8   8   8   8
#     4  11  21  32  49  71 104 134 173 210 258 301
#     4   8  13  23  41  69  96 120 150 193 243 290
#     4   9  16  28  50  74  97 125 165 210 248 288
#     4   9  16  29  52  77  97 126 170 214 249 297
#     4  10  19  32  51  76 104 131 161 209 261 302
#     4   9  15  26  49  78  99 120 161 207 248 294
#     4   9  16  26  44  73 106 128 149 193 255 304
#     4   9  14  24  45  75 102 122 153 200 247 288
#
# _framework density 18.115755
#
# number of rings (size 3 to 8) (size 9 to 14) (size 15 to 20)
#    0.000    2.750    2.500    1.875    0.000    0.000 
#    0.000    1.250    2.750    9.000    0.000    0.000 
#    0.000    0.000    0.000    0.000    0.000    0.000 
#
# Total GULP energy -396581.237838 kJ/mol
# GULP energy per Si atom -12393.163682 kJ/mol
# Density = 1.807452 g / cm^3
# Si number density = 18.115755 Si / 1000 Ang^3
#
#
#
# Elastic Constant Matrix: (Units=GPa)
#
#
# Indices 1 2 3 4 5 6 
#
# 1 27.4909 22.2442 14.8960 0.0000 0.0000 0.0000
# 2 22.2442 160.9244 86.3064 0.0000 0.0000 0.0000
# 3 14.8960 86.3064 132.0583 0.0000 0.0000 0.0000
# 4 0.0000 0.0000 0.0000 35.9523 0.0000 0.0000
# 5 0.0000 0.0000 0.0000 0.0000 5.2780 0.0000
# 6 0.0000 0.0000 0.0000 0.0000 0.0000 4.1534
#
#
#
# Elastic Compliance Matrix: (Units=1/GPa)
#
#
# Indices 1 2 3 4 5 6 
#
# 1 0.041129 -0.004922 -0.001422 0.000000 0.000000 0.000000
# 2 -0.004922 0.010157 -0.006083 0.000000 0.000000 0.000000
# 3 -0.001422 -0.006083 0.011708 0.000000 0.000000 0.000000
# 4 0.000000 0.000000 0.000000 0.027815 0.000000 0.000000
# 5 0.000000 0.000000 0.000000 0.000000 0.189466 0.000000
# 6 0.000000 0.000000 0.000000 0.000000 0.000000 0.240765
#
#
# Mechanical properties :
#
#
# Convention : Reuss Voigt Hill
#
# Bulk Modulus (GPa) = 26.21960 63.04074 44.63017
# Shear Modulus (GPa) = 8.95082 22.21189 15.58135
#
# Velocity S-wave (km/s) = 2.22523 3.50538 2.93593
# Velocity P-wave (km/s) = 4.59423 7.15947 6.01519
#
# Compressibility (1/GPa) = 0.03813941
#
# Stress axis : x y z
#
# Youngs Moduli (GPa) = 24.31361 98.45673 85.41049
#
# Poissons Ratio (x) = 0.48464 0.12148
# Poissons Ratio (y) = 0.11968 0.51952
# Poissons Ratio (z) = 0.03458 0.59888
#
# Static dielectric constant tensor:
#      x y z
#    x 2.738500 0.000000 0.000000 
#    y 0.000000 3.608040 0.000000 
#    z 0.000000 0.000000 3.567520 
# 
# 
# High freq. dielectric constant tensor:
#      x y z
#    x 1.638770 0.000000 0.000000 
#    y 0.000000 1.702750 0.000000 
#    z 0.000000 0.000000 1.698950 
# 
# From -- ./inp_files/21218.got.cif
#   From: 2010.03.12/outbox.cif.g09.slc.cpg/sg40_11_cif.got.tgz:21218.got - 2010.04.14 01:38:03.
