data_PCOD8183264
_publ_section_title
;
Structure prediction by ZEFSAII (Michael W. Deem and Ramdas Pophale) SiO2 
 PCOD8183264
Probable space group: A M A 2
;
_chemical_formula_sum "Si O2"
_cell_formula_units_Z 64
_cell_length_a 14.536486
_cell_length_b 17.496368
_cell_length_c 11.537930
_cell_angle_alpha 90.000000
_cell_angle_beta 90.000000
_cell_angle_gamma 90.000000
_cell_volume 2934.507601
_symmetry_space_group_name_H-M "A M A 2"
_symmetry_group_IT_number 40
_symmetry_cell_setting 'orthorhombic'
loop_
_space_group_symop_operation_xyz
x,y,z
-x,-y,z
1/2-x,y,z
1/2+x,-y,z
x,1/2+y,1/2+z
-x,1/2-y,1/2+z
1/2-x,1/2+y,1/2+z
1/2+x,1/2-y,1/2+z
loop_
_atom_site_type_symbol
_atom_site_label
_atom_site_fract_x
_atom_site_fract_y
_atom_site_fract_z
Si Si1 0.564470 0.433302 0.491440
Si Si2 0.852218 0.203242 0.790874
Si Si3 0.360494 0.382204 0.893867
Si Si4 0.351890 0.478489 0.679632
Si Si5 0.356796 0.442650 0.140597
Si Si6 0.646213 0.406258 0.265184
Si Si7 0.048614 0.751671 0.257297
Si Si8 0.597679 0.162124 0.035582
O O1 0.500000 0.500000 0.442686
O O2 0.592649 0.449992 0.626044
O O3 0.649102 0.429759 0.401623
O O4 0.506850 0.354575 0.493763
O O5 0.750000 0.232092 0.748123
O O6 0.874772 0.120281 0.738429
O O7 0.936626 0.259408 0.756484
O O8 0.845841 0.197281 0.929632
O O9 0.250000 0.369832 0.890364
O O10 0.393666 0.444733 0.798534
O O11 0.409491 0.301332 0.863957
O O12 0.397484 0.413062 0.017545
O O13 0.250000 0.507414 0.705471
O O14 0.352062 0.414230 0.579512
O O15 0.250000 0.455764 0.120450
O O16 0.394977 0.525096 0.184518
O O17 0.750000 0.384209 0.228474
O O18 0.575801 0.336714 0.260809
O O19 0.094579 0.777912 0.138614
#
# Coordination Sequence:
#
# PCOD8183264 Si02
#       8
#     8   8   8   8   8   8   8   8
#     4  10  19  34  59  86 120 155 202 260 309 376
#     4  11  23  40  64  89 122 167 216 266 324 389
#     4   9  19  39  64  91 130 176 212 251 320 403
#     4   9  17  32  60  91 119 158 204 251 307 375
#     4   9  20  37  62  93 127 168 212 261 326 395
#     4  11  22  37  62  96 126 156 209 274 327 380
#     4  11  24  39  63  91 127 170 217 267 323 390
#     4  10  21  39  59  83 124 162 209 255 317 384
#
# _framework density 21.809452
#
# number of rings (size 3 to 8) (size 9 to 14) (size 15 to 20)
#    0.000    2.000    1.250    2.625    1.750    2.500 
#    0.000    2.500    8.250    1.500    0.000    0.000 
#    0.000    0.000    0.000    0.000    0.000    0.000 
#
# Total GULP energy -396548.136117 kJ/mol
# GULP energy per Si atom -12392.129254 kJ/mol
# Density = 2.175981 g / cm^3
# Si number density = 21.809452 Si / 1000 Ang^3
#
#
#
# Elastic Constant Matrix: (Units=GPa)
#
#
# Indices 1 2 3 4 5 6 
#
# 1 90.4682 32.2470 18.0617 0.0000 0.0000 0.0000
# 2 32.2470 82.0800 41.0358 0.0000 0.0000 0.0000
# 3 18.0617 41.0358 119.7067 0.0000 0.0000 0.0000
# 4 0.0000 0.0000 0.0000 21.0047 0.0000 0.0000
# 5 0.0000 0.0000 0.0000 0.0000 26.3696 0.0000
# 6 0.0000 0.0000 0.0000 0.0000 0.0000 21.9504
#
#
#
# Elastic Compliance Matrix: (Units=1/GPa)
#
#
# Indices 1 2 3 4 5 6 
#
# 1 0.012860 -0.004927 -0.000251 0.000000 0.000000 0.000000
# 2 -0.004927 0.016590 -0.004944 0.000000 0.000000 0.000000
# 3 -0.000251 -0.004944 0.010086 0.000000 0.000000 0.000000
# 4 0.000000 0.000000 0.000000 0.047608 0.000000 0.000000
# 5 0.000000 0.000000 0.000000 0.000000 0.037922 0.000000
# 6 0.000000 0.000000 0.000000 0.000000 0.000000 0.045557
#
#
# Mechanical properties :
#
#
# Convention : Reuss Voigt Hill
#
# Bulk Modulus (GPa) = 51.83266 52.77156 52.30211
# Shear Modulus (GPa) = 25.34215 27.25897 26.30056
#
# Velocity S-wave (km/s) = 3.41248 3.53918 3.47641
# Velocity P-wave (km/s) = 6.27251 6.39924 6.33619
#
# Compressibility (1/GPa) = 0.01929285
#
# Stress axis : x y z
#
# Youngs Moduli (GPa) = 77.76124 60.27558 99.14245
#
# Poissons Ratio (x) = 0.29695 0.02493
# Poissons Ratio (y) = 0.38310 0.49015
# Poissons Ratio (z) = 0.01956 0.29800
#
# Static dielectric constant tensor:
#      x y z
#    x 3.894160 0.000000 0.000000 
#    y 0.000000 3.715270 0.000000 
#    z 0.000000 0.000000 4.056410 
# 
# 
# High freq. dielectric constant tensor:
#      x y z
#    x 1.852510 0.000000 0.000000 
#    y 0.000000 1.829740 0.000000 
#    z 0.000000 0.000000 1.859220 
# 
# From -- ./inp_files/12497.got.cif
#   From: 2010.03.12/outbox.cif.g09.slc.cpg/sg40_7_cif.got.tgz:12497.got - 2010.04.14 01:38:03.
