data_PCOD8183321
_publ_section_title
;
Structure prediction by ZEFSAII (Michael W. Deem and Ramdas Pophale) SiO2 
 PCOD8183321
Probable space group: A M A 2
;
_chemical_formula_sum "Si O2"
_cell_formula_units_Z 64
_cell_length_a 17.873717
_cell_length_b 16.109927
_cell_length_c 11.615950
_cell_angle_alpha 90.000000
_cell_angle_beta 90.000000
_cell_angle_gamma 90.000000
_cell_volume 3344.746314
_symmetry_space_group_name_H-M "A M A 2"
_symmetry_group_IT_number 40
_symmetry_cell_setting 'orthorhombic'
loop_
_space_group_symop_operation_xyz
x,y,z
-x,-y,z
1/2-x,y,z
1/2+x,-y,z
x,1/2+y,1/2+z
-x,1/2-y,1/2+z
1/2-x,1/2+y,1/2+z
1/2+x,1/2-y,1/2+z
loop_
_atom_site_type_symbol
_atom_site_label
_atom_site_fract_x
_atom_site_fract_y
_atom_site_fract_z
Si Si1 0.983545 0.905668 0.733000
Si Si2 0.552018 0.224572 0.561894
Si Si3 0.163615 0.533363 0.888358
Si Si4 0.587060 0.825567 0.267976
Si Si5 0.066648 0.819155 0.925834
Si Si6 0.418471 0.865047 0.340574
Si Si7 0.832604 0.682510 0.615509
Si Si8 0.167072 0.625839 0.123558
O O1 0.030560 0.852106 0.642975
O O2 0.011074 0.883324 0.862160
O O3 0.894525 0.889129 0.723018
O O4 0.000000 0.000000 0.705136
O O5 0.592270 0.298501 0.633612
O O6 0.475585 0.261795 0.516605
O O7 0.600148 0.190696 0.453832
O O8 0.250000 0.505114 0.877852
O O9 0.147955 0.603627 0.791979
O O10 0.106983 0.458363 0.865471
O O11 0.145385 0.569978 0.013708
O O12 0.607290 0.741134 0.335370
O O13 0.505727 0.860155 0.307095
O O14 0.127377 0.865363 0.007945
O O15 0.372568 0.827145 0.236653
O O16 0.750000 0.644605 0.626660
O O17 0.831001 0.779359 0.583148
O O18 0.250000 0.600729 0.170017
#
# Coordination Sequence:
#
# PCOD8183321 Si02
#       8
#     8   8   8   8   8   8   8   8
#     4  11  21  36  58  88 119 147 186 248 298 340
#     4  10  19  35  60  84 113 144 202 239 284 340
#     4  11  22  36  55  87 122 152 192 243 298 358
#     4  10  19  35  60  83 112 152 194 240 289 351
#     4  10  19  36  57  86 112 148 200 239 273 350
#     4  11  21  36  58  90 117 147 192 252 299 340
#     4  11  20  37  61  84 116 159 198 235 290 354
#     4  10  19  35  60  84 111 153 200 235 286 356
#
# _framework density 19.134485999999999
#
# number of rings (size 3 to 8) (size 9 to 14) (size 15 to 20)
#    0.000    1.500    3.750    3.750    0.000    0.000 
#    2.250    1.875    0.000    3.000    0.000    0.000 
#    0.000    0.000    0.000    0.000    0.000    0.000 
#
# Total GULP energy -396639.565160 kJ/mol
# GULP energy per Si atom -12394.986411 kJ/mol
# Density = 1.909093 g / cm^3
# Si number density = 19.134486 Si / 1000 Ang^3
#
#
#
# Elastic Constant Matrix: (Units=GPa)
#
#
# Indices 1 2 3 4 5 6 
#
# 1 93.9832 21.0928 50.3158 0.0000 0.0000 0.0000
# 2 21.0928 62.1499 29.6338 0.0000 0.0000 0.0000
# 3 50.3158 29.6338 116.7039 0.0000 0.0000 0.0000
# 4 0.0000 0.0000 0.0000 26.5696 0.0000 0.0000
# 5 0.0000 0.0000 0.0000 0.0000 24.1139 0.0000
# 6 0.0000 0.0000 0.0000 0.0000 0.0000 20.2017
#
#
#
# Elastic Compliance Matrix: (Units=1/GPa)
#
#
# Indices 1 2 3 4 5 6 
#
# 1 0.014080 -0.002144 -0.005526 0.000000 0.000000 0.000000
# 2 -0.002144 0.018633 -0.003807 0.000000 0.000000 0.000000
# 3 -0.005526 -0.003807 0.011918 0.000000 0.000000 0.000000
# 4 0.000000 0.000000 0.000000 0.037637 0.000000 0.000000
# 5 0.000000 0.000000 0.000000 0.000000 0.041470 0.000000
# 6 0.000000 0.000000 0.000000 0.000000 0.000000 0.049501
#
#
# Mechanical properties :
#
#
# Convention : Reuss Voigt Hill
#
# Bulk Modulus (GPa) = 46.13175 52.76909 49.45042
# Shear Modulus (GPa) = 24.58000 25.63002 25.10501
#
# Velocity S-wave (km/s) = 3.58801 3.66384 3.62612
# Velocity P-wave (km/s) = 6.42858 6.74805 6.59025
#
# Compressibility (1/GPa) = 0.02167705
#
# Stress axis : x y z
#
# Youngs Moduli (GPa) = 71.02388 53.66845 83.90724
#
# Poissons Ratio (x) = 0.11504 0.46368
# Poissons Ratio (y) = 0.15225 0.31945
# Poissons Ratio (z) = 0.39248 0.20432
#
# Static dielectric constant tensor:
#      x y z
#    x 3.565660 0.000000 0.000000 
#    y 0.000000 3.435870 0.000000 
#    z 0.000000 0.000000 3.706660 
# 
# 
# High freq. dielectric constant tensor:
#      x y z
#    x 1.731840 0.000000 0.000000 
#    y 0.000000 1.729240 0.000000 
#    z 0.000000 0.000000 1.745420 
# 
# From -- ./inp_files/12478.got.cif
#   From: 2010.03.12/outbox.cif.g09.slc.cpg/sg40_7_cif.got.tgz:12478.got - 2010.04.14 01:38:03.
