data_PCOD8183494
_publ_section_title
;
Structure prediction by ZEFSAII (Michael W. Deem and Ramdas Pophale) SiO2 
 PCOD8183494
Probable space group: A M A 2
;
_chemical_formula_sum "Si O2"
_cell_formula_units_Z 56
_cell_length_a 9.292213
_cell_length_b 20.631770
_cell_length_c 14.639872
_cell_angle_alpha 90.000000
_cell_angle_beta 90.000000
_cell_angle_gamma 90.000000
_cell_volume 2806.680153
_symmetry_space_group_name_H-M "A M A 2"
_symmetry_group_IT_number 40
_symmetry_cell_setting 'orthorhombic'
loop_
_space_group_symop_operation_xyz
x,y,z
-x,-y,z
1/2-x,y,z
1/2+x,-y,z
x,1/2+y,1/2+z
-x,1/2-y,1/2+z
1/2-x,1/2+y,1/2+z
1/2+x,1/2-y,1/2+z
loop_
_atom_site_type_symbol
_atom_site_label
_atom_site_fract_x
_atom_site_fract_y
_atom_site_fract_z
Si Si1 0.580865 0.801360 0.061460
Si Si2 0.094875 0.945017 0.680580
Si Si3 0.591349 0.057983 0.473214
Si Si4 0.415719 0.642231 0.282695
Si Si5 0.085881 0.187076 0.457892
Si Si6 0.910062 0.763002 0.265620
Si Si7 0.416909 0.066841 0.965910
O O1 0.750000 0.789678 0.039439
O O2 0.545895 0.794638 0.169127
O O3 0.488301 0.750124 0.003074
O O4 0.537445 0.875053 0.034886
O O5 0.250000 0.941116 0.730090
O O6 0.119361 0.963779 0.576463
O O7 0.007804 0.878283 0.693584
O O8 0.000000 0.000000 0.730453
O O9 0.750000 0.065988 0.426130
O O10 0.505256 0.124185 0.481338
O O11 0.500000 0.000000 0.424368
O O12 0.250000 0.643652 0.256863
O O13 0.470365 0.713721 0.303319
O O14 0.450620 0.593557 0.365028
O O15 0.250000 0.182349 0.495569
O O16 0.090784 0.185572 0.347545
O O17 0.750000 0.731521 0.256275
O O18 0.250000 0.050674 0.977807
O O19 0.500000 0.000000 0.986824
#
# Coordination Sequence:
#
# PCOD8183494 Si02
#       7
#     8   8   8   8   8   8   8
#     4  10  21  41  62  84 118 161 202 245 303 363
#     4  10  20  33  50  76 110 147 185 226 280 344
#     4  10  21  37  57  81 113 154 194 237 292 353
#     4  11  21  34  54  83 114 148 191 241 296 355
#     4  11  22  37  59  89 118 149 193 247 299 354
#     4  10  22  38  59  84 114 152 195 244 297 356
#     4  10  22  38  58  83 115 157 200 248 300 359
#
# _framework density 19.952397999999999
#
# number of rings (size 3 to 8) (size 9 to 14) (size 15 to 20)
#    0.000    1.714    1.429    3.000    0.000    9.143 
#    0.000    0.714    0.000    1.714    0.000    0.000 
#    0.000    0.000    0.000    0.000    0.000    0.000 
#
# Total GULP energy -346963.733619 kJ/mol
# GULP energy per Si atom -12391.561915 kJ/mol
# Density = 1.990699 g / cm^3
# Si number density = 19.952398 Si / 1000 Ang^3
#
#
#
# Elastic Constant Matrix: (Units=GPa)
#
#
# Indices 1 2 3 4 5 6 
#
# 1 154.5963 76.0109 34.7133 0.0000 0.0000 0.0000
# 2 76.0109 137.6321 27.1794 0.0000 0.0000 0.0000
# 3 34.7133 27.1794 72.1303 0.0000 0.0000 0.0000
# 4 0.0000 0.0000 0.0000 25.0191 0.0000 0.0000
# 5 0.0000 0.0000 0.0000 0.0000 15.5466 0.0000
# 6 0.0000 0.0000 0.0000 0.0000 0.0000 35.5008
#
#
#
# Elastic Compliance Matrix: (Units=1/GPa)
#
#
# Indices 1 2 3 4 5 6 
#
# 1 0.009363 -0.004625 -0.002763 0.000000 0.000000 0.000000
# 2 -0.004625 0.010135 -0.001593 0.000000 0.000000 0.000000
# 3 -0.002763 -0.001593 0.015794 0.000000 0.000000 0.000000
# 4 0.000000 0.000000 0.000000 0.039969 0.000000 0.000000
# 5 0.000000 0.000000 0.000000 0.000000 0.064323 0.000000
# 6 0.000000 0.000000 0.000000 0.000000 0.000000 0.028168
#
#
# Mechanical properties :
#
#
# Convention : Reuss Voigt Hill
#
# Bulk Modulus (GPa) = 57.70731 71.12955 64.41843
# Shear Modulus (GPa) = 26.11086 30.31031 28.21059
#
# Velocity S-wave (km/s) = 3.62146 3.90183 3.76426
# Velocity P-wave (km/s) = 6.81703 7.48506 7.15884
#
# Compressibility (1/GPa) = 0.01732883
#
# Stress axis : x y z
#
# Youngs Moduli (GPa) = 106.80271 98.67030 63.31591
#
# Poissons Ratio (x) = 0.45638 0.17495
# Poissons Ratio (y) = 0.49400 0.10086
# Poissons Ratio (z) = 0.29512 0.15717
#
# Static dielectric constant tensor:
#      x y z
#    x 4.032340 0.000000 0.000000 
#    y 0.000000 3.550310 0.000000 
#    z 0.000000 0.000000 3.464000 
# 
# 
# High freq. dielectric constant tensor:
#      x y z
#    x 1.793970 0.000000 0.000000 
#    y 0.000000 1.773530 0.000000 
#    z 0.000000 0.000000 1.755000 
# 
# From -- ./inp_files/15271.got.cif
#   From: 2010.03.12/outbox.cif.g09.slc.cpg/sg40_8_cif.got.tgz:15271.got - 2010.04.14 01:38:03.
