data_PCOD8183972
_publ_section_title
;
Structure prediction by ZEFSAII (Michael W. Deem and Ramdas Pophale) SiO2 
 PCOD8183972
Probable space group: A M A 2
;
_chemical_formula_sum "Si O2"
_cell_formula_units_Z 40
_cell_length_a 13.012739
_cell_length_b 18.759329
_cell_length_c 7.702608
_cell_angle_alpha 90.000000
_cell_angle_beta 90.000000
_cell_angle_gamma 90.000000
_cell_volume 1880.285581
_symmetry_space_group_name_H-M "A M A 2"
_symmetry_group_IT_number 40
_symmetry_cell_setting 'orthorhombic'
loop_
_space_group_symop_operation_xyz
x,y,z
-x,-y,z
1/2-x,y,z
1/2+x,-y,z
x,1/2+y,1/2+z
-x,1/2-y,1/2+z
1/2-x,1/2+y,1/2+z
1/2+x,1/2-y,1/2+z
loop_
_atom_site_type_symbol
_atom_site_label
_atom_site_fract_x
_atom_site_fract_y
_atom_site_fract_z
Si Si1 0.996204 0.829201 0.886320
Si Si2 0.369534 0.941747 0.460411
Si Si3 0.372116 0.287998 0.081688
Si Si4 0.868580 0.061684 0.071418
Si Si5 0.130650 0.544452 0.259246
O O1 0.933059 0.883045 0.763802
O O2 0.077303 0.784928 0.771920
O O3 0.913451 0.777481 0.970864
O O4 0.060996 0.870237 0.032899
O O5 0.250000 0.940456 0.499094
O O6 0.408563 0.861514 0.491838
O O7 0.395142 0.966643 0.264600
O O8 0.414393 0.998445 0.598348
O O9 0.250000 0.280686 0.099460
O O10 0.750000 0.086507 0.060236
O O11 0.890428 0.998330 0.937293
O O12 0.250000 0.563194 0.237431
#
# Coordination Sequence:
#
# PCOD8183972 Si02
#       5
#     8   8   8   8   8
#     4  12  23  41  64  98 131 185 223 279 346 405
#     4   9  19  39  65  90 125 172 214 271 340 402
#     4  11  24  43  65  94 136 179 229 283 339 413
#     4  10  20  38  65  96 129 170 222 277 340 405
#     4  10  21  41  65  95 131 169 224 286 338 401
#
# _framework density 21.273364000000001
#
# number of rings (size 3 to 8) (size 9 to 14) (size 15 to 20)
#    0.000    1.600    2.000    3.000    0.000    0.000 
#   10.800    3.000    0.000    0.000    0.000    0.000 
#    0.000    0.000    0.000    0.000    0.000    0.000 
#
# Total GULP energy -248015.990565 kJ/mol
# GULP energy per Si atom -12400.799528 kJ/mol
# Density = 2.122494 g / cm^3
# Si number density = 21.273364 Si / 1000 Ang^3
#
#
#
# Elastic Constant Matrix: (Units=GPa)
#
#
# Indices 1 2 3 4 5 6 
#
# 1 123.2651 59.7983 46.1136 0.0000 0.0000 0.0000
# 2 59.7983 126.0612 59.6340 0.0000 0.0000 0.0000
# 3 46.1136 59.6340 156.3064 0.0000 0.0000 0.0000
# 4 0.0000 0.0000 0.0000 19.7415 0.0000 0.0000
# 5 0.0000 0.0000 0.0000 0.0000 8.2912 0.0000
# 6 0.0000 0.0000 0.0000 0.0000 0.0000 36.7951
#
#
#
# Elastic Compliance Matrix: (Units=1/GPa)
#
#
# Indices 1 2 3 4 5 6 
#
# 1 0.010820 -0.004420 -0.001506 0.000000 0.000000 0.000000
# 2 -0.004420 0.011486 -0.003078 0.000000 0.000000 0.000000
# 3 -0.001506 -0.003078 0.008016 0.000000 0.000000 0.000000
# 4 0.000000 0.000000 0.000000 0.050655 0.000000 0.000000
# 5 0.000000 0.000000 0.000000 0.000000 0.120610 0.000000
# 6 0.000000 0.000000 0.000000 0.000000 0.000000 0.027178
#
#
# Mechanical properties :
#
#
# Convention : Reuss Voigt Hill
#
# Bulk Modulus (GPa) = 81.20829 81.85828 81.53329
# Shear Modulus (GPa) = 19.93010 28.97135 24.45073
#
# Velocity S-wave (km/s) = 3.06413 3.69434 3.39390
# Velocity P-wave (km/s) = 7.12567 7.53394 7.33265
#
# Compressibility (1/GPa) = 0.01231401
#
# Stress axis : x y z
#
# Youngs Moduli (GPa) = 92.41862 87.06620 124.74784
#
# Poissons Ratio (x) = 0.38487 0.18784
# Poissons Ratio (y) = 0.40853 0.38395
# Poissons Ratio (z) = 0.13916 0.26798
#
# Static dielectric constant tensor:
#      x y z
#    x 3.980750 0.000000 0.000000 
#    y 0.000000 3.680750 0.000000 
#    z 0.000000 0.000000 3.884370 
# 
# 
# High freq. dielectric constant tensor:
#      x y z
#    x 1.858220 0.000000 0.000000 
#    y 0.000000 1.817610 0.000000 
#    z 0.000000 0.000000 1.835810 
# 
# From -- ./inp_files/6134.got.cif
#   From: 2010.03.12/outbox.cif.g09.slc.cpg/sg40_4_cif.got.tgz:6134.got - 2010.04.14 01:38:03.
