data_PCOD8183764
_publ_section_title
;
Structure prediction by ZEFSAII (Michael W. Deem and Ramdas Pophale) SiO2 
 PCOD8183764
Probable space group: A M A 2
;
_chemical_formula_sum "Si O2"
_cell_formula_units_Z 64
_cell_length_a 9.244606
_cell_length_b 28.067271
_cell_length_c 12.612337
_cell_angle_alpha 90.000000
_cell_angle_beta 90.000000
_cell_angle_gamma 90.000000
_cell_volume 3272.533952
_symmetry_space_group_name_H-M "A M A 2"
_symmetry_group_IT_number 40
_symmetry_cell_setting 'orthorhombic'
loop_
_space_group_symop_operation_xyz
x,y,z
-x,-y,z
1/2-x,y,z
1/2+x,-y,z
x,1/2+y,1/2+z
-x,1/2-y,1/2+z
1/2-x,1/2+y,1/2+z
1/2+x,1/2-y,1/2+z
loop_
_atom_site_type_symbol
_atom_site_label
_atom_site_fract_x
_atom_site_fract_y
_atom_site_fract_z
Si Si1 0.090333 0.319494 0.967960
Si Si2 0.583144 0.301250 0.162457
Si Si3 0.077786 0.454037 0.806518
Si Si4 0.921017 0.885483 0.153306
Si Si5 0.080018 0.049717 0.952266
Si Si6 0.579361 0.404124 0.232857
Si Si7 0.591022 0.072343 0.536719
Si Si8 0.918931 0.698048 0.734298
O O1 0.250000 0.296138 0.968199
O O2 0.098250 0.373183 0.004918
O O3 0.026000 0.316949 0.850423
O O4 0.991052 0.291208 0.049741
O O5 0.750000 0.308628 0.137650
O O6 0.526400 0.348858 0.223362
O O7 0.551325 0.254505 0.230720
O O8 0.250000 0.454439 0.786350
O O9 0.039327 0.455108 0.931550
O O10 0.000000 0.500000 0.755053
O O11 0.007025 0.408651 0.751174
O O12 0.750000 0.884924 0.175186
O O13 0.984594 0.831521 0.148922
O O14 0.957905 0.913161 0.045239
O O15 0.250000 0.039162 0.948150
O O16 0.023992 0.073816 0.843338
O O17 0.000000 0.000000 0.972833
O O18 0.750000 0.407647 0.226043
O O19 0.516144 0.435546 0.135681
O O20 0.750000 0.054492 0.571733
O O21 0.750000 0.686318 0.714802
#
# Coordination Sequence:
#
# PCOD8183764 Si02
#       8
#     8   8   8   8   8   8   8   8
#     4   9  17  33  54  75 106 146 182 226 285 339
#     4   9  19  34  55  83 112 148 191 237 289 346
#     4  11  22  37  56  82 115 146 182 230 286 344
#     4  11  23  38  58  84 113 150 197 243 289 349
#     4  10  23  41  60  84 115 154 198 243 296 349
#     4   9  19  37  58  81 113 150 192 238 286 345
#     4   9  18  34  55  79 107 142 182 227 282 340
#     4  10  20  36  57  82 114 153 192 237 299 353
#
# _framework density 19.556711
#
# number of rings (size 3 to 8) (size 9 to 14) (size 15 to 20)
#    0.000    2.250    1.250    1.125    0.000    6.000 
#    0.000    5.000    0.000    3.000    0.000    0.000 
#    0.000    0.000    0.000    0.000    0.000    0.000 
#
# Total GULP energy -396696.663606 kJ/mol
# GULP energy per Si atom -12396.770738 kJ/mol
# Density = 1.951220 g / cm^3
# Si number density = 19.556711 Si / 1000 Ang^3
#
#
#
# Elastic Constant Matrix: (Units=GPa)
#
#
# Indices 1 2 3 4 5 6 
#
# 1 61.2835 31.9790 39.4985 0.0000 0.0000 0.0000
# 2 31.9790 61.6636 26.5391 0.0000 0.0000 0.0000
# 3 39.4985 26.5391 98.9096 0.0000 0.0000 0.0000
# 4 0.0000 0.0000 0.0000 22.2458 0.0000 0.0000
# 5 0.0000 0.0000 0.0000 0.0000 30.5770 0.0000
# 6 0.0000 0.0000 0.0000 0.0000 0.0000 27.9342
#
#
#
# Elastic Compliance Matrix: (Units=1/GPa)
#
#
# Indices 1 2 3 4 5 6 
#
# 1 0.026933 -0.010558 -0.007923 0.000000 0.000000 0.000000
# 2 -0.010558 0.022473 -0.001814 0.000000 0.000000 0.000000
# 3 -0.007923 -0.001814 0.013761 0.000000 0.000000 0.000000
# 4 0.000000 0.000000 0.000000 0.044952 0.000000 0.000000
# 5 0.000000 0.000000 0.000000 0.000000 0.032704 0.000000
# 6 0.000000 0.000000 0.000000 0.000000 0.000000 0.035798
#
#
# Mechanical properties :
#
#
# Convention : Reuss Voigt Hill
#
# Bulk Modulus (GPa) = 44.29001 46.43222 45.36112
# Shear Modulus (GPa) = 22.24828 24.40741 23.32784
#
# Velocity S-wave (km/s) = 3.37653 3.53658 3.45748
# Velocity P-wave (km/s) = 6.15609 6.36164 6.25971
#
# Compressibility (1/GPa) = 0.02257845
#
# Stress axis : x y z
#
# Youngs Moduli (GPa) = 37.12888 44.49789 72.67076
#
# Poissons Ratio (x) = 0.46980 0.57574
# Poissons Ratio (y) = 0.39200 0.13180
# Poissons Ratio (z) = 0.29416 0.08071
#
# Static dielectric constant tensor:
#      x y z
#    x 3.636090 0.000000 0.000000 
#    y 0.000000 3.590520 0.000000 
#    z 0.000000 0.000000 3.696310 
# 
# 
# High freq. dielectric constant tensor:
#      x y z
#    x 1.754550 0.000000 0.000000 
#    y 0.000000 1.761450 0.000000 
#    z 0.000000 0.000000 1.759130 
# 
# From -- ./inp_files/10576.got.cif
#   From: 2010.03.12/outbox.cif.g09.slc.cpg/sg40_6_cif.got.tgz:10576.got - 2010.04.14 01:38:03.
