data_PCOD8183947
_publ_section_title
;
Structure prediction by ZEFSAII (Michael W. Deem and Ramdas Pophale) SiO2 
 PCOD8183947
Probable space group: A M A 2
;
_chemical_formula_sum "Si O2"
_cell_formula_units_Z 48
_cell_length_a 17.174026
_cell_length_b 10.003753
_cell_length_c 13.419749
_cell_angle_alpha 90.000000
_cell_angle_beta 90.000000
_cell_angle_gamma 90.000000
_cell_volume 2305.576141
_symmetry_space_group_name_H-M "A M A 2"
_symmetry_group_IT_number 40
_symmetry_cell_setting 'orthorhombic'
loop_
_space_group_symop_operation_xyz
x,y,z
-x,-y,z
1/2-x,y,z
1/2+x,-y,z
x,1/2+y,1/2+z
-x,1/2-y,1/2+z
1/2-x,1/2+y,1/2+z
1/2+x,1/2-y,1/2+z
loop_
_atom_site_type_symbol
_atom_site_label
_atom_site_fract_x
_atom_site_fract_y
_atom_site_fract_z
Si Si1 0.995685 0.338466 0.626610
Si Si2 0.663259 0.526677 0.831060
Si Si3 0.586037 0.256487 0.827136
Si Si4 0.663059 0.002484 0.896733
Si Si5 0.663690 0.628620 0.611827
Si Si6 0.567371 0.753816 0.931905
O O1 0.965295 0.290003 0.731835
O O2 0.932088 0.275432 0.551016
O O3 0.000000 0.500000 0.617422
O O4 0.085044 0.280486 0.612405
O O5 0.750000 0.561998 0.867529
O O6 0.645701 0.373237 0.855924
O O7 0.655362 0.539913 0.711842
O O8 0.603632 0.615156 0.895113
O O9 0.634844 0.119944 0.822929
O O10 0.524404 0.238319 0.914587
O O11 0.750000 0.964862 0.864665
O O12 0.611323 0.872849 0.874923
O O13 0.659886 0.037748 0.013630
O O14 0.750000 0.701801 0.613567
#
# Coordination Sequence:
#
# PCOD8183947 Si02
#       6
#     8   8   8   8   8   8
#     4  12  20  40  62  91 120 157 216 255 294 371
#     4  11  23  40  62  92 125 164 208 256 312 372
#     4  12  22  39  65  91 122 162 208 261 308 364
#     4  11  23  40  62  92 125 164 208 256 312 372
#     4  10  20  38  63  88 120 164 206 251 303 367
#     4  12  22  39  65  91 122 162 208 261 308 364
#
# _framework density 20.819092999999999
#
# number of rings (size 3 to 8) (size 9 to 14) (size 15 to 20)
#    0.000    0.667    6.667    2.000    0.000    0.000 
#    0.000    7.500    0.000    0.000    0.000    0.000 
#    0.000    0.000    0.000    0.000    0.000    0.000 
#
# Total GULP energy -297404.267196 kJ/mol
# GULP energy per Si atom -12391.844466 kJ/mol
# Density = 2.077171 g / cm^3
# Si number density = 20.819093 Si / 1000 Ang^3
#
#
#
# Elastic Constant Matrix: (Units=GPa)
#
#
# Indices 1 2 3 4 5 6 
#
# 1 119.3860 26.4612 21.4053 0.0000 0.0000 0.0000
# 2 26.4612 69.8228 10.6992 0.0000 0.0000 0.0000
# 3 21.4053 10.6992 49.8353 0.0000 0.0000 0.0000
# 4 0.0000 0.0000 0.0000 12.1778 0.0000 0.0000
# 5 0.0000 0.0000 0.0000 0.0000 33.6900 0.0000
# 6 0.0000 0.0000 0.0000 0.0000 0.0000 99.4605
#
#
#
# Elastic Compliance Matrix: (Units=1/GPa)
#
#
# Indices 1 2 3 4 5 6 
#
# 1 0.009698 -0.003140 -0.003491 0.000000 0.000000 0.000000
# 2 -0.003140 0.015826 -0.002049 0.000000 0.000000 0.000000
# 3 -0.003491 -0.002049 0.022006 0.000000 0.000000 0.000000
# 4 0.000000 0.000000 0.000000 0.082117 0.000000 0.000000
# 5 0.000000 0.000000 0.000000 0.000000 0.029682 0.000000
# 6 0.000000 0.000000 0.000000 0.000000 0.000000 0.010054
#
#
# Mechanical properties :
#
#
# Convention : Reuss Voigt Hill
#
# Bulk Modulus (GPa) = 33.14699 39.57503 36.36101
# Shear Modulus (GPa) = 25.40639 41.09757 33.25198
#
# Velocity S-wave (km/s) = 3.49713 4.44783 4.00082
# Velocity P-wave (km/s) = 5.68001 6.74002 6.23259
#
# Compressibility (1/GPa) = 0.03016865
#
# Stress axis : x y z
#
# Youngs Moduli (GPa) = 103.11168 63.18693 45.44300
#
# Poissons Ratio (x) = 0.19843 0.15866
# Poissons Ratio (y) = 0.32381 0.09311
# Poissons Ratio (z) = 0.36000 0.12946
#
# Static dielectric constant tensor:
#      x y z
#    x 4.404300 0.000000 0.000000 
#    y 0.000000 3.408340 0.000000 
#    z 0.000000 0.000000 3.664510 
# 
# 
# High freq. dielectric constant tensor:
#      x y z
#    x 1.846390 0.000000 0.000000 
#    y 0.000000 1.775970 0.000000 
#    z 0.000000 0.000000 1.810890 
# 
# From -- ./inp_files/17605.got.cif
#   From: 2010.03.12/outbox.cif.g09.slc.cpg/sg40_9_cif.got.tgz:17605.got - 2010.04.14 01:38:03.
