data_PCOD8183473
_publ_section_title
;
Structure prediction by ZEFSAII (Michael W. Deem and Ramdas Pophale) SiO2 
 PCOD8183473
Probable space group: A M A 2
;
_chemical_formula_sum "Si O2"
_cell_formula_units_Z 40
_cell_length_a 10.126838
_cell_length_b 8.471845
_cell_length_c 23.278795
_cell_angle_alpha 90.000000
_cell_angle_beta 90.000000
_cell_angle_gamma 90.000000
_cell_volume 1997.157703
_symmetry_space_group_name_H-M "A M A 2"
_symmetry_group_IT_number 40
_symmetry_cell_setting 'orthorhombic'
loop_
_space_group_symop_operation_xyz
x,y,z
-x,-y,z
1/2-x,y,z
1/2+x,-y,z
x,1/2+y,1/2+z
-x,1/2-y,1/2+z
1/2-x,1/2+y,1/2+z
1/2+x,1/2-y,1/2+z
loop_
_atom_site_type_symbol
_atom_site_label
_atom_site_fract_x
_atom_site_fract_y
_atom_site_fract_z
Si Si1 0.750000 0.191595 0.583261
Si Si2 0.250000 0.671400 0.232921
Si Si3 0.487018 0.188183 0.526620
Si Si4 0.511213 0.312915 0.785153
Si Si5 0.750000 0.699944 0.213110
Si Si6 0.250000 0.182452 0.602300
Si Si7 0.405712 0.150507 0.405735
O O1 0.626506 0.257606 0.546998
O O2 0.750000 0.257411 0.647486
O O3 0.750000 0.004143 0.591695
O O4 0.375518 0.728601 0.268805
O O5 0.250000 0.484902 0.225712
O O6 0.250000 0.739861 0.168283
O O7 0.380336 0.251128 0.572289
O O8 0.443708 0.248874 0.463145
O O9 0.500000 0.000000 0.526259
O O10 0.500000 0.500000 0.786931
O O11 0.618298 0.272334 0.738156
O O12 0.560698 0.251037 0.847889
O O13 0.250000 0.103164 0.407172
O O14 0.500000 0.000000 0.405111
#
# Coordination Sequence:
#
# PCOD8183473 Si02
#       7
#     4   4   8   8   4   4   8
#     4   9  18  28  49  79 109 145 176 235 282 338
#     4  11  23  36  59  87 113 157 194 237 288 344
#     4   9  16  27  47  75 110 140 175 229 297 334
#     4  11  23  38  58  85 119 154 195 238 288 342
#     4  11  21  40  59  85 123 151 196 235 284 350
#     4   9  16  30  47  75 109 137 182 227 286 338
#     4  10  20  32  52  78 112 147 188 241 295 344
#
# _framework density 20.028462999999999
#
# number of rings (size 3 to 8) (size 9 to 14) (size 15 to 20)
#    0.000    2.000    2.000    2.400    8.400    3.200 
#    0.000    0.000    0.000    0.000    0.000   28.000 
#    0.000    0.000    0.000    0.000    0.000    0.000 
#
# Total GULP energy -247871.619859 kJ/mol
# GULP energy per Si atom -12393.580993 kJ/mol
# Density = 1.998288 g / cm^3
# Si number density = 20.028463 Si / 1000 Ang^3
#
#
#
# Elastic Constant Matrix: (Units=GPa)
#
#
# Indices 1 2 3 4 5 6 
#
# 1 206.4592 11.8260 99.0499 0.0000 0.0000 0.0000
# 2 11.8260 28.5413 17.4194 0.0000 0.0000 0.0000
# 3 99.0499 17.4194 192.6305 0.0000 0.0000 0.0000
# 4 0.0000 0.0000 0.0000 19.1542 0.0000 0.0000
# 5 0.0000 0.0000 0.0000 0.0000 47.1278 0.0000
# 6 0.0000 0.0000 0.0000 0.0000 0.0000 22.1564
#
#
#
# Elastic Compliance Matrix: (Units=1/GPa)
#
#
# Indices 1 2 3 4 5 6 
#
# 1 0.006442 -0.000685 -0.003251 0.000000 0.000000 0.000000
# 2 -0.000685 0.037157 -0.003008 0.000000 0.000000 0.000000
# 3 -0.003251 -0.003008 0.007135 0.000000 0.000000 0.000000
# 4 0.000000 0.000000 0.000000 0.052208 0.000000 0.000000
# 5 0.000000 0.000000 0.000000 0.000000 0.021219 0.000000
# 6 0.000000 0.000000 0.000000 0.000000 0.000000 0.045134
#
#
# Mechanical properties :
#
#
# Convention : Reuss Voigt Hill
#
# Bulk Modulus (GPa) = 27.13976 76.02463 51.58220
# Shear Modulus (GPa) = 25.58023 37.64339 31.61181
#
# Velocity S-wave (km/s) = 3.57766 4.34002 3.97715
# Velocity P-wave (km/s) = 5.53590 7.94701 6.84840
#
# Compressibility (1/GPa) = 0.03684631
#
# Stress axis : x y z
#
# Youngs Moduli (GPa) = 155.22284 26.91315 140.15942
#
# Poissons Ratio (x) = 0.01845 0.45561
# Poissons Ratio (y) = 0.10639 0.42154
# Poissons Ratio (z) = 0.50458 0.08094
#
# Static dielectric constant tensor:
#      x y z
#    x 3.971530 0.000000 0.000000 
#    y 0.000000 2.999580 0.000000 
#    z 0.000000 0.000000 4.465450 
# 
# 
# High freq. dielectric constant tensor:
#      x y z
#    x 1.805670 0.000000 0.000000 
#    y 0.000000 1.708410 0.000000 
#    z 0.000000 0.000000 1.809920 
# 
# From -- ./inp_files/22741.got.cif
#   From: 2010.03.12/outbox.cif.g09.slc.cpg/sg40_12_cif.got.tgz:22741.got - 2010.04.14 01:38:03.
