data_PCOD8183105
_publ_section_title
;
Structure prediction by ZEFSAII (Michael W. Deem and Ramdas Pophale) SiO2 
 PCOD8183105
Probable space group: A M A 2
;
_chemical_formula_sum "Si O2"
_cell_formula_units_Z 64
_cell_length_a 8.816320
_cell_length_b 19.440707
_cell_length_c 20.545115
_cell_angle_alpha 90.000000
_cell_angle_beta 90.000000
_cell_angle_gamma 90.000000
_cell_volume 3521.340133
_symmetry_space_group_name_H-M "A M A 2"
_symmetry_group_IT_number 40
_symmetry_cell_setting 'orthorhombic'
loop_
_space_group_symop_operation_xyz
x,y,z
-x,-y,z
1/2-x,y,z
1/2+x,-y,z
x,1/2+y,1/2+z
-x,1/2-y,1/2+z
1/2-x,1/2+y,1/2+z
1/2+x,1/2-y,1/2+z
loop_
_atom_site_type_symbol
_atom_site_label
_atom_site_fract_x
_atom_site_fract_y
_atom_site_fract_z
Si Si1 0.071780 0.207294 0.907930
Si Si2 0.925812 0.785287 0.291214
Si Si3 0.574134 0.571317 0.359078
Si Si4 0.925526 0.431622 0.739885
Si Si5 0.427421 0.930881 0.101371
Si Si6 0.074101 0.288353 0.539937
Si Si7 0.928863 0.791199 0.670033
Si Si8 0.073177 0.428258 0.207056
O O1 0.250000 0.201033 0.901469
O O2 0.013163 0.260486 0.854560
O O3 0.999872 0.132335 0.899484
O O4 0.024990 0.236016 0.978636
O O5 0.750000 0.764630 0.297353
O O6 0.949022 0.867394 0.287893
O O7 0.988850 0.749951 0.226834
O O8 0.500000 0.500000 0.381182
O O9 0.750000 0.567858 0.376327
O O10 0.545222 0.585495 0.283169
O O11 0.750000 0.446104 0.726772
O O12 0.000000 0.500000 0.771563
O O13 0.003122 0.414367 0.671524
O O14 0.250000 0.941641 0.110804
O O15 0.463188 0.868095 0.053653
O O16 0.500000 0.000000 0.071044
O O17 0.250000 0.277859 0.523174
O O18 0.027050 0.242880 0.601690
O O19 0.750000 0.789045 0.683007
O O20 0.987840 0.869135 0.667217
O O21 0.250000 0.428849 0.189674
O O22 0.000000 0.500000 0.185317
#
# Coordination Sequence:
#
# PCOD8183105 Si02
#       8
#     8   8   8   8   8   8   8   8
#     4  12  25  38  57  82 112 152 193 236 282 338
#     4  11  22  37  58  84 114 149 187 234 283 334
#     4  10  20  35  55  80 114 152 189 231 277 332
#     4  10  20  33  55  84 114 146 182 229 280 329
#     4  10  19  33  53  79 111 150 188 227 272 325
#     4  10  23  40  56  78 114 154 190 234 284 334
#     4  11  21  36  60  86 113 148 189 235 283 333
#     4  10  20  34  56  85 116 149 184 232 282 334
#
# _framework density 18.174897999999999
#
# number of rings (size 3 to 8) (size 9 to 14) (size 15 to 20)
#    0.000    1.500    2.500    4.125    0.000    5.000 
#    0.000    1.250    0.000    0.750    0.000    3.500 
#    0.000    0.000    0.000    0.000    0.000    0.000 
#
# Total GULP energy -396931.813090 kJ/mol
# GULP energy per Si atom -12404.119159 kJ/mol
# Density = 1.813353 g / cm^3
# Si number density = 18.174898 Si / 1000 Ang^3
#
#
#
# Elastic Constant Matrix: (Units=GPa)
#
#
# Indices 1 2 3 4 5 6 
#
# 1 116.6629 50.4347 49.2615 0.0000 0.0000 0.0000
# 2 50.4347 104.8703 51.1798 0.0000 0.0000 0.0000
# 3 49.2615 51.1798 95.9017 0.0000 0.0000 0.0000
# 4 0.0000 0.0000 0.0000 26.6402 0.0000 0.0000
# 5 0.0000 0.0000 0.0000 0.0000 27.0212 0.0000
# 6 0.0000 0.0000 0.0000 0.0000 0.0000 33.0657
#
#
#
# Elastic Compliance Matrix: (Units=1/GPa)
#
#
# Indices 1 2 3 4 5 6 
#
# 1 0.011927 -0.003713 -0.004145 0.000000 0.000000 0.000000
# 2 -0.003713 0.014050 -0.005591 0.000000 0.000000 0.000000
# 3 -0.004145 -0.005591 0.015540 0.000000 0.000000 0.000000
# 4 0.000000 0.000000 0.000000 0.037537 0.000000 0.000000
# 5 0.000000 0.000000 0.000000 0.000000 0.037008 0.000000
# 6 0.000000 0.000000 0.000000 0.000000 0.000000 0.030243
#
#
# Mechanical properties :
#
#
# Convention : Reuss Voigt Hill
#
# Bulk Modulus (GPa) = 68.40214 68.79854 68.60034
# Shear Modulus (GPa) = 28.07796 28.44934 28.26365
#
# Velocity S-wave (km/s) = 3.93475 3.96069 3.94774
# Velocity P-wave (km/s) = 7.63939 7.67150 7.65546
#
# Compressibility (1/GPa) = 0.01461943
#
# Stress axis : x y z
#
# Youngs Moduli (GPa) = 83.84185 71.17579 64.35007
#
# Poissons Ratio (x) = 0.26429 0.26673
# Poissons Ratio (y) = 0.31132 0.35975
# Poissons Ratio (z) = 0.34752 0.39791
#
# Static dielectric constant tensor:
#      x y z
#    x 3.489820 0.000000 0.000000 
#    y 0.000000 3.538950 0.000000 
#    z 0.000000 0.000000 3.139350 
# 
# 
# High freq. dielectric constant tensor:
#      x y z
#    x 1.721400 0.000000 0.000000 
#    y 0.000000 1.710910 0.000000 
#    z 0.000000 0.000000 1.678470 
# 
# From -- ./inp_files/19651.got.cif
#   From: 2010.03.12/outbox.cif.g09.slc.cpg/sg40_10_cif.got.tgz:19651.got - 2010.04.14 01:38:03.
