data_PCOD8183174
_publ_section_title
;
Structure prediction by ZEFSAII (Michael W. Deem and Ramdas Pophale) SiO2 
 PCOD8183174
Probable space group: A M A 2
;
_chemical_formula_sum "Si O2"
_cell_formula_units_Z 48
_cell_length_a 9.085112
_cell_length_b 22.594302
_cell_length_c 11.475054
_cell_angle_alpha 90.000000
_cell_angle_beta 90.000000
_cell_angle_gamma 90.000000
_cell_volume 2355.504579
_symmetry_space_group_name_H-M "A M A 2"
_symmetry_group_IT_number 40
_symmetry_cell_setting 'orthorhombic'
loop_
_space_group_symop_operation_xyz
x,y,z
-x,-y,z
1/2-x,y,z
1/2+x,-y,z
x,1/2+y,1/2+z
-x,1/2-y,1/2+z
1/2-x,1/2+y,1/2+z
1/2+x,1/2-y,1/2+z
loop_
_atom_site_type_symbol
_atom_site_label
_atom_site_fract_x
_atom_site_fract_y
_atom_site_fract_z
Si Si1 0.426336 0.436525 0.298410
Si Si2 0.917622 0.860299 0.366666
Si Si3 0.921671 0.267933 0.666477
Si Si4 0.077144 0.149603 0.634284
Si Si5 0.088668 0.444543 0.719990
Si Si6 0.586374 0.646014 0.510975
O O1 0.500000 0.500000 0.323115
O O2 0.250000 0.443825 0.290306
O O3 0.494125 0.409101 0.180355
O O4 0.472871 0.390402 0.400041
O O5 0.750000 0.879987 0.351653
O O6 0.953613 0.805782 0.281931
O O7 0.954511 0.842805 0.497811
O O8 0.014130 0.917129 0.334292
O O9 0.750000 0.254738 0.648567
O O10 0.007866 0.207582 0.693229
O O11 0.979991 0.300190 0.548547
O O12 0.250000 0.144976 0.662753
O O13 0.250000 0.465755 0.756790
O O14 0.094891 0.398049 0.617731
O O15 0.000000 0.500000 0.671629
O O16 0.750000 0.671804 0.484724
#
# Coordination Sequence:
#
# PCOD8183174 Si02
#       6
#     8   8   8   8   8   8
#     4  11  24  42  63  89 124 164 208 253 304 363
#     4   9  21  40  58  80 114 152 192 240 292 351
#     4  10  21  38  62  91 119 152 197 248 304 361
#     4  11  24  41  61  86 119 160 201 246 302 361
#     4  10  19  33  57  86 115 149 190 237 290 346
#     4   9  20  38  60  88 121 157 196 246 299 354
#
# _framework density 20.377799
#
# number of rings (size 3 to 8) (size 9 to 14) (size 15 to 20)
#    0.000    2.000    0.000    2.500    2.333    4.667 
#    0.000    0.000    0.000    0.000    0.000    0.000 
#    0.000    0.000    0.000    0.000    0.000    0.000 
#
# Total GULP energy -297620.648020 kJ/mol
# GULP energy per Si atom -12400.860334 kJ/mol
# Density = 2.033142 g / cm^3
# Si number density = 20.377799 Si / 1000 Ang^3
#
#
#
# Elastic Constant Matrix: (Units=GPa)
#
#
# Indices 1 2 3 4 5 6 
#
# 1 112.7889 41.9988 36.9763 0.0000 0.0000 0.0000
# 2 41.9988 74.6811 20.6124 0.0000 0.0000 0.0000
# 3 36.9763 20.6124 84.3234 0.0000 0.0000 0.0000
# 4 0.0000 0.0000 0.0000 19.3241 0.0000 0.0000
# 5 0.0000 0.0000 0.0000 0.0000 24.2189 0.0000
# 6 0.0000 0.0000 0.0000 0.0000 0.0000 42.1591
#
#
#
# Elastic Compliance Matrix: (Units=1/GPa)
#
#
# Indices 1 2 3 4 5 6 
#
# 1 0.012349 -0.005845 -0.003987 0.000000 0.000000 0.000000
# 2 -0.005845 0.017125 -0.001623 0.000000 0.000000 0.000000
# 3 -0.003987 -0.001623 0.014004 0.000000 0.000000 0.000000
# 4 0.000000 0.000000 0.000000 0.051749 0.000000 0.000000
# 5 0.000000 0.000000 0.000000 0.000000 0.041290 0.000000
# 6 0.000000 0.000000 0.000000 0.000000 0.000000 0.023720
#
#
# Mechanical properties :
#
#
# Convention : Reuss Voigt Hill
#
# Bulk Modulus (GPa) = 48.61537 52.32983 50.47260
# Shear Modulus (GPa) = 26.31538 28.62080 27.46809
#
# Velocity S-wave (km/s) = 3.59747 3.75174 3.67542
# Velocity P-wave (km/s) = 6.41596 6.67106 6.54475
#
# Compressibility (1/GPa) = 0.02056963
#
# Stress axis : x y z
#
# Youngs Moduli (GPa) = 80.97542 58.39349 71.40800
#
# Poissons Ratio (x) = 0.34129 0.28467
# Poissons Ratio (y) = 0.47328 0.11591
# Poissons Ratio (z) = 0.32282 0.09479
#
# Static dielectric constant tensor:
#      x y z
#    x 3.964220 0.000000 0.000000 
#    y 0.000000 3.670010 0.000000 
#    z 0.000000 0.000000 3.668190 
# 
# 
# High freq. dielectric constant tensor:
#      x y z
#    x 1.804500 0.000000 0.000000 
#    y 0.000000 1.797200 0.000000 
#    z 0.000000 0.000000 1.791470 
# 
# From -- ./inp_files/10244.got.cif
#   From: 2010.03.12/outbox.cif.g09.slc.cpg/sg40_6_cif.got.tgz:10244.got - 2010.04.14 01:38:03.
