data_PCOD8183388
_publ_section_title
;
Structure prediction by ZEFSAII (Michael W. Deem and Ramdas Pophale) SiO2 
 PCOD8183388
Probable space group: A M A 2
;
_chemical_formula_sum "Si O2"
_cell_formula_units_Z 64
_cell_length_a 18.116554
_cell_length_b 11.700266
_cell_length_c 16.166393
_cell_angle_alpha 90.000000
_cell_angle_beta 90.000000
_cell_angle_gamma 90.000000
_cell_volume 3426.766088
_symmetry_space_group_name_H-M "A M A 2"
_symmetry_group_IT_number 40
_symmetry_cell_setting 'orthorhombic'
loop_
_space_group_symop_operation_xyz
x,y,z
-x,-y,z
1/2-x,y,z
1/2+x,-y,z
x,1/2+y,1/2+z
-x,1/2-y,1/2+z
1/2-x,1/2+y,1/2+z
1/2+x,1/2-y,1/2+z
loop_
_atom_site_type_symbol
_atom_site_label
_atom_site_fract_x
_atom_site_fract_y
_atom_site_fract_z
Si Si1 0.835125 0.963741 0.818600
Si Si2 0.336347 0.120894 0.390044
Si Si3 0.663196 0.838873 0.204956
Si Si4 0.836867 0.589296 0.151181
Si Si5 0.392675 0.852090 0.939981
Si Si6 0.938687 0.817769 0.925856
Si Si7 0.582814 0.979546 0.074786
Si Si8 0.077349 0.939341 0.483390
O O1 0.750000 0.923460 0.824800
O O2 0.888170 0.860004 0.848590
O O3 0.854786 0.999565 0.724578
O O4 0.844461 0.075841 0.875332
O O5 0.250000 0.102322 0.395662
O O6 0.364068 0.148844 0.298332
O O7 0.360810 0.225236 0.448762
O O8 0.374658 0.005063 0.416430
O O9 0.750000 0.847845 0.197934
O O10 0.635179 0.715844 0.174661
O O11 0.630462 0.944150 0.153354
O O12 0.750000 0.589699 0.131881
O O13 0.880863 0.554517 0.070129
O O14 0.477208 0.854073 0.908027
O O15 0.386683 0.904907 0.032195
O O16 0.932594 0.684099 0.942588
O O17 0.909998 0.879489 0.007734
O O18 0.500000 0.000000 0.105901
O O19 0.000000 0.000000 0.497804
#
# Coordination Sequence:
#
# PCOD8183388 Si02
#       8
#     8   8   8   8   8   8   8   8
#     4  10  20  36  62  92 118 152 199 251 298 348
#     4  11  23  39  59  84 120 158 194 244 298 356
#     4  10  20  37  59  85 116 151 195 238 285 348
#     4  10  21  39  61  87 119 154 198 243 290 354
#     4  10  19  37  59  86 120 153 196 243 295 354
#     4  10  21  38  59  87 122 153 197 250 297 349
#     4   9  19  35  59  85 115 149 190 245 289 336
#     4  12  24  40  60  87 120 159 200 242 301 364
#
# _framework density 18.676500999999998
#
# number of rings (size 3 to 8) (size 9 to 14) (size 15 to 20)
#    0.000    1.750    3.750    1.875    0.000    5.000 
#    0.000    1.250    0.000    1.500    0.000    0.000 
#    0.000    0.000    0.000    0.000    0.000    0.000 
#
# Total GULP energy -396837.825135 kJ/mol
# GULP energy per Si atom -12401.182035 kJ/mol
# Density = 1.863399 g / cm^3
# Si number density = 18.676501 Si / 1000 Ang^3
#
#
#
# Elastic Constant Matrix: (Units=GPa)
#
#
# Indices 1 2 3 4 5 6 
#
# 1 67.9403 29.1878 45.0576 0.0000 0.0000 0.0000
# 2 29.1878 101.8846 37.6429 0.0000 0.0000 0.0000
# 3 45.0576 37.6429 74.0159 0.0000 0.0000 0.0000
# 4 0.0000 0.0000 0.0000 8.0003 0.0000 0.0000
# 5 0.0000 0.0000 0.0000 0.0000 10.7669 0.0000
# 6 0.0000 0.0000 0.0000 0.0000 0.0000 29.5444
#
#
#
# Elastic Compliance Matrix: (Units=1/GPa)
#
#
# Indices 1 2 3 4 5 6 
#
# 1 0.024978 -0.001894 -0.014242 0.000000 0.000000 0.000000
# 2 -0.001894 0.012230 -0.005067 0.000000 0.000000 0.000000
# 3 -0.014242 -0.005067 0.024758 0.000000 0.000000 0.000000
# 4 0.000000 0.000000 0.000000 0.124995 0.000000 0.000000
# 5 0.000000 0.000000 0.000000 0.000000 0.092877 0.000000
# 6 0.000000 0.000000 0.000000 0.000000 0.000000 0.033847
#
#
# Mechanical properties :
#
#
# Convention : Reuss Voigt Hill
#
# Bulk Modulus (GPa) = 51.12667 51.95747 51.54207
# Shear Modulus (GPa) = 13.78893 18.45916 16.12404
#
# Velocity S-wave (km/s) = 2.72012 3.14723 2.94144
# Velocity P-wave (km/s) = 6.10735 6.40990 6.26045
#
# Compressibility (1/GPa) = 0.01955926
#
# Stress axis : x y z
#
# Youngs Moduli (GPa) = 40.03569 81.76897 40.39148
#
# Poissons Ratio (x) = 0.15483 0.57527
# Poissons Ratio (y) = 0.07581 0.20466
# Poissons Ratio (z) = 0.57020 0.41432
#
# Static dielectric constant tensor:
#      x y z
#    x 3.438200 0.000000 0.000000 
#    y 0.000000 3.494570 0.000000 
#    z 0.000000 0.000000 3.398560 
# 
# 
# High freq. dielectric constant tensor:
#      x y z
#    x 1.729920 0.000000 0.000000 
#    y 0.000000 1.724870 0.000000 
#    z 0.000000 0.000000 1.716910 
# 
# From -- ./inp_files/17851.got.cif
#   From: 2010.03.12/outbox.cif.g09.slc.cpg/sg40_9_cif.got.tgz:17851.got - 2010.04.14 01:38:03.
