data_PCOD8183499
_publ_section_title
;
Structure prediction by ZEFSAII (Michael W. Deem and Ramdas Pophale) SiO2 
 PCOD8183499
Probable space group: A M A 2
;
_chemical_formula_sum "Si O2"
_cell_formula_units_Z 64
_cell_length_a 8.737702
_cell_length_b 14.708922
_cell_length_c 27.351239
_cell_angle_alpha 90.000000
_cell_angle_beta 90.000000
_cell_angle_gamma 90.000000
_cell_volume 3515.240785
_symmetry_space_group_name_H-M "A M A 2"
_symmetry_group_IT_number 40
_symmetry_cell_setting 'orthorhombic'
loop_
_space_group_symop_operation_xyz
x,y,z
-x,-y,z
1/2-x,y,z
1/2+x,-y,z
x,1/2+y,1/2+z
-x,1/2-y,1/2+z
1/2-x,1/2+y,1/2+z
1/2+x,1/2-y,1/2+z
loop_
_atom_site_type_symbol
_atom_site_label
_atom_site_fract_x
_atom_site_fract_y
_atom_site_fract_z
Si Si1 0.930206 0.905980 0.070690
Si Si2 0.070180 0.593955 0.020475
Si Si3 0.070315 0.593271 0.460235
Si Si4 0.431401 0.595762 0.908911
Si Si5 0.931242 0.775772 0.874722
Si Si6 0.930794 0.905343 0.689894
Si Si7 0.570722 0.771622 0.602918
Si Si8 0.068138 0.903487 0.794359
O O1 0.750000 0.913538 0.073189
O O2 0.986153 0.824817 0.105401
O O3 0.988881 0.887174 0.015210
O O4 0.000000 0.000000 0.090495
O O5 0.250000 0.583752 0.025493
O O6 0.009490 0.673999 0.055396
O O7 0.000000 0.500000 0.039283
O O8 0.019799 0.614440 0.965022
O O9 0.250000 0.580648 0.459690
O O10 0.018906 0.675140 0.425136
O O11 0.000000 0.500000 0.439690
O O12 0.500000 0.500000 0.891185
O O13 0.250000 0.595330 0.902112
O O14 0.507206 0.673210 0.875802
O O15 0.750000 0.776832 0.867127
O O16 0.011867 0.824756 0.829830
O O17 0.750000 0.917034 0.697427
O O18 0.970843 0.826902 0.651499
O O19 0.008998 0.877943 0.740642
O O20 0.000000 0.000000 0.670238
O O21 0.750000 0.753768 0.598784
O O22 0.250000 0.909857 0.794711
O O23 0.000000 0.000000 0.811686
#
# Coordination Sequence:
#
# PCOD8183499 Si02
#       8
#     8   8   8   8   8   8   8   8
#     4  10  20  34  51  72 101 137 175 213 253 297
#     4   9  18  31  48  73 106 140 173 211 252 298
#     4   9  19  32  48  73 104 137 171 209 252 300
#     4  10  20  34  51  73 103 140 178 215 256 299
#     4  11  21  34  53  77 104 135 174 215 257 306
#     4  10  20  35  55  79 107 136 167 206 254 305
#     4  10  20  33  51  76 104 135 172 212 254 301
#     4  11  22  37  56  79 107 136 168 207 256 310
#
# _framework density 18.206434000000002
#
# number of rings (size 3 to 8) (size 9 to 14) (size 15 to 20)
#    0.000    2.000    0.000    4.875    0.000    4.500 
#    0.000    0.000    0.000    0.750    0.000    1.750 
#    0.000    0.000    0.000    0.000    0.000    0.000 
#
# Total GULP energy -396905.835638 kJ/mol
# GULP energy per Si atom -12403.307364 kJ/mol
# Density = 1.816500 g / cm^3
# Si number density = 18.206434 Si / 1000 Ang^3
#
#
#
# Elastic Constant Matrix: (Units=GPa)
#
#
# Indices 1 2 3 4 5 6 
#
# 1 84.7362 58.3701 44.5948 0.0000 0.0000 0.0000
# 2 58.3701 160.6025 71.0560 0.0000 0.0000 0.0000
# 3 44.5948 71.0560 77.2277 0.0000 0.0000 0.0000
# 4 0.0000 0.0000 0.0000 27.1352 0.0000 0.0000
# 5 0.0000 0.0000 0.0000 0.0000 20.9041 0.0000
# 6 0.0000 0.0000 0.0000 0.0000 0.0000 36.2398
#
#
#
# Elastic Compliance Matrix: (Units=1/GPa)
#
#
# Indices 1 2 3 4 5 6 
#
# 1 0.017912 -0.003262 -0.007342 0.000000 0.000000 0.000000
# 2 -0.003262 0.011095 -0.008325 0.000000 0.000000 0.000000
# 3 -0.007342 -0.008325 0.024849 0.000000 0.000000 0.000000
# 4 0.000000 0.000000 0.000000 0.036852 0.000000 0.000000
# 5 0.000000 0.000000 0.000000 0.000000 0.047838 0.000000
# 6 0.000000 0.000000 0.000000 0.000000 0.000000 0.027594
#
#
# Mechanical properties :
#
#
# Convention : Reuss Voigt Hill
#
# Bulk Modulus (GPa) = 62.50950 74.51203 68.51076
# Shear Modulus (GPa) = 23.88562 26.75886 25.32224
#
# Velocity S-wave (km/s) = 3.62599 3.83789 3.73344
# Velocity P-wave (km/s) = 7.20685 7.78808 7.50310
#
# Compressibility (1/GPa) = 0.01599757
#
# Stress axis : x y z
#
# Youngs Moduli (GPa) = 55.82793 90.12798 40.24382
#
# Poissons Ratio (x) = 0.29396 0.29549
# Poissons Ratio (y) = 0.18209 0.33504
# Poissons Ratio (z) = 0.40991 0.75034
#
# Static dielectric constant tensor:
#      x y z
#    x 3.343040 0.000000 0.000000 
#    y 0.000000 3.405800 0.000000 
#    z 0.000000 0.000000 3.284560 
# 
# 
# High freq. dielectric constant tensor:
#      x y z
#    x 1.713650 0.000000 0.000000 
#    y 0.000000 1.707640 0.000000 
#    z 0.000000 0.000000 1.683950 
# 
# From -- ./inp_files/26363.got.cif
#   From: 2010.03.12/outbox.cif.g09.slc.cpg/sg40_14_cif.got.tgz:26363.got - 2010.04.14 01:38:03.
