data_PCOD8183998
_publ_section_title
;
Structure prediction by ZEFSAII (Michael W. Deem and Ramdas Pophale) SiO2 
 PCOD8183998
Probable space group: A M A 2
;
_chemical_formula_sum "Si O2"
_cell_formula_units_Z 56
_cell_length_a 14.052862
_cell_length_b 13.851531
_cell_length_c 13.042979
_cell_angle_alpha 90.000000
_cell_angle_beta 90.000000
_cell_angle_gamma 90.000000
_cell_volume 2538.863517
_symmetry_space_group_name_H-M "A M A 2"
_symmetry_group_IT_number 40
_symmetry_cell_setting 'orthorhombic'
loop_
_space_group_symop_operation_xyz
x,y,z
-x,-y,z
1/2-x,y,z
1/2+x,-y,z
x,1/2+y,1/2+z
-x,1/2-y,1/2+z
1/2-x,1/2+y,1/2+z
1/2+x,1/2-y,1/2+z
loop_
_atom_site_type_symbol
_atom_site_label
_atom_site_fract_x
_atom_site_fract_y
_atom_site_fract_z
Si Si1 0.355653 0.506690 0.587590
Si Si2 0.510400 0.282899 0.262951
Si Si3 0.862481 0.101828 0.282491
Si Si4 0.639325 0.083540 0.506309
Si Si5 0.640585 0.955085 0.690821
Si Si6 0.637471 0.779575 0.100256
Si Si7 0.084029 0.431151 0.387073
O O1 0.250000 0.522571 0.627737
O O2 0.406888 0.458465 0.686936
O O3 0.393812 0.614103 0.557990
O O4 0.352814 0.433543 0.490495
O O5 0.588250 0.204925 0.291482
O O6 0.567304 0.367727 0.204546
O O7 0.423379 0.237292 0.201577
O O8 0.458605 0.325499 0.364352
O O9 0.750000 0.121336 0.270920
O O10 0.885156 0.048031 0.390769
O O11 0.750000 0.079779 0.527350
O O12 0.607594 0.195761 0.520096
O O13 0.597652 0.011056 0.591738
O O14 0.750000 0.919085 0.677100
O O15 0.638890 0.027814 0.787702
O O16 0.750000 0.774692 0.126202
O O17 0.000000 0.500000 0.421585
#
# Coordination Sequence:
#
# PCOD8183998 Si02
#       7
#     8   8   8   8   8   8   8
#     4  10  23  42  64  88 126 171 211 259 316 375
#     4  11  23  38  64  97 128 163 205 267 317 368
#     4  10  23  42  62  93 128 167 209 251 312 381
#     4   9  19  38  65  89 122 163 207 256 306 375
#     4  10  20  39  66  96 126 162 208 260 315 372
#     4  10  22  40  64  92 123 168 215 256 308 375
#     4  10  22  36  60  91 124 160 206 259 312 366
#
# _framework density 22.057113000000001
#
# number of rings (size 3 to 8) (size 9 to 14) (size 15 to 20)
#    0.000    2.000    1.429    0.857    6.000    0.571 
#    0.000    4.286    0.000    3.429    0.000    0.000 
#    0.000    0.000    0.000    0.000    0.000    0.000 
#
# Total GULP energy -346893.389413 kJ/mol
# GULP energy per Si atom -12389.049622 kJ/mol
# Density = 2.200691 g / cm^3
# Si number density = 22.057113 Si / 1000 Ang^3
#
#
#
# Elastic Constant Matrix: (Units=GPa)
#
#
# Indices 1 2 3 4 5 6 
#
# 1 62.1951 21.6292 14.0456 0.0000 0.0000 0.0000
# 2 21.6292 99.9155 45.5769 0.0000 0.0000 0.0000
# 3 14.0456 45.5769 153.7074 0.0000 0.0000 0.0000
# 4 0.0000 0.0000 0.0000 29.0894 0.0000 0.0000
# 5 0.0000 0.0000 0.0000 0.0000 2.1099 0.0000
# 6 0.0000 0.0000 0.0000 0.0000 0.0000 27.2187
#
#
#
# Elastic Compliance Matrix: (Units=1/GPa)
#
#
# Indices 1 2 3 4 5 6 
#
# 1 0.017427 -0.003523 -0.000548 0.000000 0.000000 0.000000
# 2 -0.003523 0.012286 -0.003321 0.000000 0.000000 0.000000
# 3 -0.000548 -0.003321 0.007541 0.000000 0.000000 0.000000
# 4 0.000000 0.000000 0.000000 0.034377 0.000000 0.000000
# 5 0.000000 0.000000 0.000000 0.000000 0.473950 0.000000
# 6 0.000000 0.000000 0.000000 0.000000 0.000000 0.036739
#
#
# Mechanical properties :
#
#
# Convention : Reuss Voigt Hill
#
# Bulk Modulus (GPa) = 44.50274 53.14682 48.82478
# Shear Modulus (GPa) = 8.27001 27.32135 17.79568
#
# Velocity S-wave (km/s) = 1.93843 3.52328 2.84350
# Velocity P-wave (km/s) = 5.02294 6.37956 5.74146
#
# Compressibility (1/GPa) = 0.02247053
#
# Stress axis : x y z
#
# Youngs Moduli (GPa) = 57.38154 81.39377 132.61355
#
# Poissons Ratio (x) = 0.28672 0.07267
# Poissons Ratio (y) = 0.20213 0.44042
# Poissons Ratio (z) = 0.03144 0.27032
#
# Static dielectric constant tensor:
#      x y z
#    x 3.917550 0.000000 0.000000 
#    y 0.000000 4.054940 0.000000 
#    z 0.000000 0.000000 3.972490 
# 
# 
# High freq. dielectric constant tensor:
#      x y z
#    x 1.869550 0.000000 0.000000 
#    y 0.000000 1.853640 0.000000 
#    z 0.000000 0.000000 1.864460 
# 
# From -- ./inp_files/12220.got.cif
#   From: 2010.03.12/outbox.cif.g09.slc.cpg/sg40_7_cif.got.tgz:12220.got - 2010.04.14 01:38:03.
