data_PCOD8183604
_publ_section_title
;
Structure prediction by ZEFSAII (Michael W. Deem and Ramdas Pophale) SiO2 
 PCOD8183604
Probable space group: A M A 2
;
_chemical_formula_sum "Si O2"
_cell_formula_units_Z 56
_cell_length_a 22.445177
_cell_length_b 11.740377
_cell_length_c 10.412715
_cell_angle_alpha 90.000000
_cell_angle_beta 90.000000
_cell_angle_gamma 90.000000
_cell_volume 2743.904925
_symmetry_space_group_name_H-M "A M A 2"
_symmetry_group_IT_number 40
_symmetry_cell_setting 'orthorhombic'
loop_
_space_group_symop_operation_xyz
x,y,z
-x,-y,z
1/2-x,y,z
1/2+x,-y,z
x,1/2+y,1/2+z
-x,1/2-y,1/2+z
1/2-x,1/2+y,1/2+z
1/2+x,1/2-y,1/2+z
loop_
_atom_site_type_symbol
_atom_site_label
_atom_site_fract_x
_atom_site_fract_y
_atom_site_fract_z
Si Si1 0.117919 0.813675 0.494160
Si Si2 0.682627 0.499889 0.855455
Si Si3 0.181856 0.854063 0.098665
Si Si4 0.518082 0.623442 0.178204
Si Si5 0.888869 0.322431 0.239127
Si Si6 0.317920 0.721401 0.723213
Si Si7 0.875110 0.571899 0.346376
O O1 0.054084 0.820902 0.561786
O O2 0.114278 0.759757 0.357706
O O3 0.156910 0.727170 0.579529
O O4 0.145822 0.940577 0.471857
O O5 0.750000 0.486598 0.906659
O O6 0.681869 0.575265 0.727956
O O7 0.653756 0.377213 0.815240
O O8 0.250000 0.838620 0.047465
O O9 0.153833 0.728107 0.126845
O O10 0.139480 0.923278 0.997940
O O11 0.500000 0.500000 0.130594
O O12 0.457544 0.691648 0.198674
O O13 0.558580 0.617891 0.308925
O O14 0.867997 0.448018 0.281699
O O15 0.250000 0.686639 0.708631
O O16 0.326257 0.845253 0.784370
#
# Coordination Sequence:
#
# PCOD8183604 Si02
#       7
#     8   8   8   8   8   8   8
#     4  10  20  37  60  83 113 155 197 243 306 346
#     4   9  19  36  56  84 119 152 194 242 296 359
#     4  10  21  36  59  88 118 154 195 245 299 358
#     4   9  21  39  56  80 112 156 193 243 290 351
#     4  10  22  39  60  85 118 154 199 245 301 358
#     4  10  20  34  56  86 118 154 195 239 293 356
#     4  10  21  37  57  83 120 153 198 243 297 353
#
# _framework density 20.40887
#
# number of rings (size 3 to 8) (size 9 to 14) (size 15 to 20)
#    0.000    2.286    0.000    1.714    2.000    5.143 
#    2.571    0.000    0.000    0.000    0.000    0.000 
#    0.000    0.000    0.000    0.000    0.000    0.000 
#
# Total GULP energy -346952.361734 kJ/mol
# GULP energy per Si atom -12391.155776 kJ/mol
# Density = 2.036242 g / cm^3
# Si number density = 20.408870 Si / 1000 Ang^3
#
#
#
# Elastic Constant Matrix: (Units=GPa)
#
#
# Indices 1 2 3 4 5 6 
#
# 1 89.0322 44.7021 27.6608 0.0000 0.0000 0.0000
# 2 44.7021 112.8941 29.7314 0.0000 0.0000 0.0000
# 3 27.6608 29.7314 61.7039 0.0000 0.0000 0.0000
# 4 0.0000 0.0000 0.0000 27.8647 0.0000 0.0000
# 5 0.0000 0.0000 0.0000 0.0000 62.4998 0.0000
# 6 0.0000 0.0000 0.0000 0.0000 0.0000 25.4438
#
#
#
# Elastic Compliance Matrix: (Units=1/GPa)
#
#
# Indices 1 2 3 4 5 6 
#
# 1 0.015005 -0.004776 -0.004425 0.000000 0.000000 0.000000
# 2 -0.004776 0.011665 -0.003480 0.000000 0.000000 0.000000
# 3 -0.004425 -0.003480 0.019867 0.000000 0.000000 0.000000
# 4 0.000000 0.000000 0.000000 0.035888 0.000000 0.000000
# 5 0.000000 0.000000 0.000000 0.000000 0.016000 0.000000
# 6 0.000000 0.000000 0.000000 0.000000 0.000000 0.039302
#
#
# Mechanical properties :
#
#
# Convention : Reuss Voigt Hill
#
# Bulk Modulus (GPa) = 47.22528 51.97987 49.60258
# Shear Modulus (GPa) = 29.38632 33.93072 31.65852
#
# Velocity S-wave (km/s) = 3.79869 4.08186 3.94282
# Velocity P-wave (km/s) = 6.51382 6.90941 6.71453
#
# Compressibility (1/GPa) = 0.02117510
#
# Stress axis : x y z
#
# Youngs Moduli (GPa) = 66.64604 85.72353 50.33506
#
# Poissons Ratio (x) = 0.40941 0.22274
# Poissons Ratio (y) = 0.31830 0.17516
# Poissons Ratio (z) = 0.29491 0.29831
#
# Static dielectric constant tensor:
#      x y z
#    x 0.455570 0.000000 0.000000 
#    y 0.000000 4.003310 0.000000 
#    z 0.000000 0.000000 3.808810 
# 
# 
# High freq. dielectric constant tensor:
#      x y z
#    x 1.789950 0.000000 0.000000 
#    y 0.000000 1.801620 0.000000 
#    z 0.000000 0.000000 1.797900 
# 
# From -- ./inp_files/13543.got.cif
#   From: 2010.03.12/outbox.cif.g09.slc.cpg/sg40_7_cif.got.tgz:13543.got - 2010.04.14 01:38:03.
