data_PCOD8183307
_publ_section_title
;
Structure prediction by ZEFSAII (Michael W. Deem and Ramdas Pophale) SiO2 
 PCOD8183307
Probable space group: A M A 2
;
_chemical_formula_sum "Si O2"
_cell_formula_units_Z 64
_cell_length_a 8.646872
_cell_length_b 26.947057
_cell_length_c 13.140098
_cell_angle_alpha 90.000000
_cell_angle_beta 90.000000
_cell_angle_gamma 90.000000
_cell_volume 3061.744705
_symmetry_space_group_name_H-M "A M A 2"
_symmetry_group_IT_number 40
_symmetry_cell_setting 'orthorhombic'
loop_
_space_group_symop_operation_xyz
x,y,z
-x,-y,z
1/2-x,y,z
1/2+x,-y,z
x,1/2+y,1/2+z
-x,1/2-y,1/2+z
1/2-x,1/2+y,1/2+z
1/2+x,1/2-y,1/2+z
loop_
_atom_site_type_symbol
_atom_site_label
_atom_site_fract_x
_atom_site_fract_y
_atom_site_fract_z
Si Si1 0.422278 0.719656 0.712650
Si Si2 0.575650 0.196010 0.574458
Si Si3 0.065768 0.947542 0.741796
Si Si4 0.934378 0.554651 0.826174
Si Si5 0.569535 0.905974 0.536434
Si Si6 0.430612 0.877705 0.142126
Si Si7 0.432583 0.374634 0.416305
Si Si8 0.926207 0.737042 0.421289
O O1 0.250000 0.702633 0.680611
O O2 0.449211 0.777805 0.683319
O O3 0.540476 0.680284 0.665721
O O4 0.439739 0.721882 0.833318
O O5 0.750000 0.174989 0.561952
O O6 0.454844 0.152434 0.554995
O O7 0.546617 0.243349 0.503254
O O8 0.250000 0.947812 0.737669
O O9 0.000285 0.908736 0.825618
O O10 0.003903 0.935771 0.629578
O O11 0.000000 0.000000 0.777316
O O12 0.750000 0.553356 0.827747
O O13 0.000380 0.587279 0.731153
O O14 0.000000 0.500000 0.812084
O O15 0.991446 0.578070 0.931415
O O16 0.750000 0.918010 0.530462
O O17 0.250000 0.886352 0.141009
O O18 0.496996 0.890336 0.028972
O O19 0.250000 0.380976 0.416826
O O20 0.479875 0.318193 0.391101
O O21 0.750000 0.735145 0.463275
#
# Coordination Sequence:
#
# PCOD8183307 Si02
#       8
#     8   8   8   8   8   8   8   8
#     4  10  21  35  55  85 121 160 198 243 298 353
#     4  11  22  37  57  87 122 157 195 240 298 358
#     4  11  23  42  66  92 123 160 203 257 314 370
#     4  11  24  42  65  93 123 160 205 258 313 369
#     4  12  25  42  64  91 123 161 207 258 309 371
#     4  10  21  39  63  89 121 163 209 252 300 362
#     4   9  19  38  63  88 122 165 205 250 305 363
#     4  10  19  35  58  83 116 160 204 244 292 354
#
# _framework density 20.903115
#
# number of rings (size 3 to 8) (size 9 to 14) (size 15 to 20)
#    0.000    1.500    1.250    4.125    0.000    6.500 
#    0.000    3.750    0.000    0.000    0.000    0.000 
#    0.000    0.000    0.000    0.000    0.000    0.000 
#
# Total GULP energy -396694.930208 kJ/mol
# GULP energy per Si atom -12396.716569 kJ/mol
# Density = 2.085554 g / cm^3
# Si number density = 20.903115 Si / 1000 Ang^3
#
#
#
# Elastic Constant Matrix: (Units=GPa)
#
#
# Indices 1 2 3 4 5 6 
#
# 1 60.0875 17.3864 23.2421 0.0000 0.0000 0.0000
# 2 17.3864 101.6181 25.4263 0.0000 0.0000 0.0000
# 3 23.2421 25.4263 109.3034 0.0000 0.0000 0.0000
# 4 0.0000 0.0000 0.0000 36.3194 0.0000 0.0000
# 5 0.0000 0.0000 0.0000 0.0000 18.2855 0.0000
# 6 0.0000 0.0000 0.0000 0.0000 0.0000 34.2597
#
#
#
# Elastic Compliance Matrix: (Units=1/GPa)
#
#
# Indices 1 2 3 4 5 6 
#
# 1 0.018641 -0.002333 -0.003421 0.000000 0.000000 0.000000
# 2 -0.002333 0.010741 -0.002002 0.000000 0.000000 0.000000
# 3 -0.003421 -0.002002 0.010342 0.000000 0.000000 0.000000
# 4 0.000000 0.000000 0.000000 0.027534 0.000000 0.000000
# 5 0.000000 0.000000 0.000000 0.000000 0.054688 0.000000
# 6 0.000000 0.000000 0.000000 0.000000 0.000000 0.029189
#
#
# Mechanical properties :
#
#
# Convention : Reuss Voigt Hill
#
# Bulk Modulus (GPa) = 41.30461 44.79098 43.04779
# Shear Modulus (GPa) = 28.61754 31.43652 30.02703
#
# Velocity S-wave (km/s) = 3.70409 3.88224 3.79421
# Velocity P-wave (km/s) = 6.17225 6.44749 6.31137
#
# Compressibility (1/GPa) = 0.02421037
#
# Stress axis : x y z
#
# Youngs Moduli (GPa) = 53.64577 93.10085 96.69233
#
# Poissons Ratio (x) = 0.21724 0.33078
# Poissons Ratio (y) = 0.12518 0.19362
# Poissons Ratio (z) = 0.18352 0.18643
#
# Static dielectric constant tensor:
#      x y z
#    x 3.564610 0.000000 0.000000 
#    y 0.000000 3.839410 0.000000 
#    z 0.000000 0.000000 4.313900 
# 
# 
# High freq. dielectric constant tensor:
#      x y z
#    x 1.798200 0.000000 0.000000 
#    y 0.000000 1.820880 0.000000 
#    z 0.000000 0.000000 1.836760 
# 
# From -- ./inp_files/15704.got.cif
#   From: 2010.03.12/outbox.cif.g09.slc.cpg/sg40_8_cif.got.tgz:15704.got - 2010.04.14 01:38:03.
