data_PCOD8183723
_publ_section_title
;
Structure prediction by ZEFSAII (Michael W. Deem and Ramdas Pophale) SiO2 
 PCOD8183723
Probable space group: A M A 2
;
_chemical_formula_sum "Si O2"
_cell_formula_units_Z 64
_cell_length_a 8.658198
_cell_length_b 23.558971
_cell_length_c 15.327159
_cell_angle_alpha 90.000000
_cell_angle_beta 90.000000
_cell_angle_gamma 90.000000
_cell_volume 3126.406849
_symmetry_space_group_name_H-M "A M A 2"
_symmetry_group_IT_number 40
_symmetry_cell_setting 'orthorhombic'
loop_
_space_group_symop_operation_xyz
x,y,z
-x,-y,z
1/2-x,y,z
1/2+x,-y,z
x,1/2+y,1/2+z
-x,1/2-y,1/2+z
1/2-x,1/2+y,1/2+z
1/2+x,1/2-y,1/2+z
loop_
_atom_site_type_symbol
_atom_site_label
_atom_site_fract_x
_atom_site_fract_y
_atom_site_fract_z
Si Si1 0.066994 0.374866 0.411650
Si Si2 0.070290 0.880221 0.717179
Si Si3 0.068078 0.939527 0.078184
Si Si4 0.574438 0.743447 0.150111
Si Si5 0.931594 0.438706 0.055512
Si Si6 0.069327 0.752273 0.967421
Si Si7 0.068705 0.360700 0.906810
Si Si8 0.927580 0.363535 0.725531
O O1 0.250000 0.371322 0.417083
O O2 0.015042 0.394761 0.315487
O O3 0.003712 0.419108 0.483730
O O4 0.004164 0.312160 0.433163
O O5 0.250000 0.894721 0.702775
O O6 0.038289 0.813710 0.702785
O O7 0.971001 0.919504 0.653524
O O8 0.250000 0.944555 0.076183
O O9 0.021643 0.893724 0.149629
O O10 0.000000 0.000000 0.103094
O O11 0.750000 0.742521 0.113567
O O12 0.551187 0.795787 0.216120
O O13 0.455817 0.748476 0.070887
O O14 0.750000 0.440576 0.042450
O O15 0.000000 0.500000 0.035127
O O16 0.003379 0.393831 0.989469
O O17 0.250000 0.743228 0.947005
O O18 0.971619 0.705109 0.917248
O O19 0.250000 0.369939 0.901999
O O20 0.993333 0.384105 0.818168
O O21 0.750000 0.381947 0.719006
#
# Coordination Sequence:
#
# PCOD8183723 Si02
#       8
#     8   8   8   8   8   8   8   8
#     4   9  20  38  63  92 126 165 206 254 308 362
#     4  10  20  39  64  92 127 165 202 250 308 368
#     4  11  23  42  63  89 122 164 212 262 312 367
#     4  10  20  35  61  93 130 166 201 247 309 370
#     4  12  26  45  66  91 121 161 208 260 312 370
#     4  11  20  36  63  94 128 166 205 251 308 369
#     4  12  25  42  64  94 128 165 205 255 310 371
#     4  11  23  41  65  95 127 165 207 255 309 370
#
# _framework density 20.470786
#
# number of rings (size 3 to 8) (size 9 to 14) (size 15 to 20)
#    0.000    1.250    2.500    4.125    0.000    3.500 
#    0.000    7.500    0.000    0.000    0.000    0.000 
#    0.000    0.000    0.000    0.000    0.000    0.000 
#
# Total GULP energy -396957.182102 kJ/mol
# GULP energy per Si atom -12404.911941 kJ/mol
# Density = 2.042419 g / cm^3
# Si number density = 20.470786 Si / 1000 Ang^3
#
#
#
# Elastic Constant Matrix: (Units=GPa)
#
#
# Indices 1 2 3 4 5 6 
#
# 1 54.4561 29.7036 14.9607 0.0000 0.0000 0.0000
# 2 29.7036 67.7602 7.2208 0.0000 0.0000 0.0000
# 3 14.9607 7.2208 111.3244 0.0000 0.0000 0.0000
# 4 0.0000 0.0000 0.0000 10.4113 0.0000 0.0000
# 5 0.0000 0.0000 0.0000 0.0000 26.6342 0.0000
# 6 0.0000 0.0000 0.0000 0.0000 0.0000 28.5357
#
#
#
# Elastic Compliance Matrix: (Units=1/GPa)
#
#
# Indices 1 2 3 4 5 6 
#
# 1 0.024890 -0.010628 -0.002656 0.000000 0.000000 0.000000
# 2 -0.010628 0.019399 0.000170 0.000000 0.000000 0.000000
# 3 -0.002656 0.000170 0.009329 0.000000 0.000000 0.000000
# 4 0.000000 0.000000 0.000000 0.096050 0.000000 0.000000
# 5 0.000000 0.000000 0.000000 0.000000 0.037546 0.000000
# 6 0.000000 0.000000 0.000000 0.000000 0.000000 0.035044
#
#
# Mechanical properties :
#
#
# Convention : Reuss Voigt Hill
#
# Bulk Modulus (GPa) = 36.50912 37.47900 36.99406
# Shear Modulus (GPa) = 19.40888 25.22660 22.31774
#
# Velocity S-wave (km/s) = 3.08251 3.51425 3.30544
# Velocity P-wave (km/s) = 5.52653 5.90042 5.71653
#
# Compressibility (1/GPa) = 0.02739042
#
# Stress axis : x y z
#
# Youngs Moduli (GPa) = 40.17661 51.54979 107.19711
#
# Poissons Ratio (x) = 0.54787 0.28467
# Poissons Ratio (y) = 0.42699 -0.01823
# Poissons Ratio (z) = 0.10669 -0.00876
#
# Static dielectric constant tensor:
#      x y z
#    x 3.615700 0.000000 0.000000 
#    y 0.000000 3.738110 0.000000 
#    z 0.000000 0.000000 3.855350 
# 
# 
# High freq. dielectric constant tensor:
#      x y z
#    x 1.791470 0.000000 0.000000 
#    y 0.000000 1.799520 0.000000 
#    z 0.000000 0.000000 1.811870 
# 
# From -- ./inp_files/15681.got.cif
#   From: 2010.03.12/outbox.cif.g09.slc.cpg/sg40_8_cif.got.tgz:15681.got - 2010.04.14 01:38:03.
