data_PCOD8183199
_publ_section_title
;
Structure prediction by ZEFSAII (Michael W. Deem and Ramdas Pophale) SiO2 
 PCOD8183199
Probable space group: A M A 2
;
_chemical_formula_sum "Si O2"
_cell_formula_units_Z 64
_cell_length_a 8.748583
_cell_length_b 19.505314
_cell_length_c 20.502242
_cell_angle_alpha 90.000000
_cell_angle_beta 90.000000
_cell_angle_gamma 90.000000
_cell_volume 3498.581682
_symmetry_space_group_name_H-M "A M A 2"
_symmetry_group_IT_number 40
_symmetry_cell_setting 'orthorhombic'
loop_
_space_group_symop_operation_xyz
x,y,z
-x,-y,z
1/2-x,y,z
1/2+x,-y,z
x,1/2+y,1/2+z
-x,1/2-y,1/2+z
1/2-x,1/2+y,1/2+z
1/2+x,1/2-y,1/2+z
loop_
_atom_site_type_symbol
_atom_site_label
_atom_site_fract_x
_atom_site_fract_y
_atom_site_fract_z
Si Si1 0.929161 0.791014 0.869950
Si Si2 0.431019 0.570286 0.945007
Si Si3 0.571687 0.931374 0.297409
Si Si4 0.930212 0.292526 0.129967
Si Si5 0.071004 0.294496 0.997190
Si Si6 0.070596 0.214673 0.248744
Si Si7 0.927698 0.571759 0.181477
Si Si8 0.071960 0.928040 0.834075
O O1 0.750000 0.786907 0.853487
O O2 0.024384 0.752182 0.814933
O O3 0.983570 0.869497 0.873897
O O4 0.969307 0.757187 0.938989
O O5 0.500000 0.500000 0.973745
O O6 0.250000 0.568282 0.949670
O O7 0.490625 0.580217 0.870760
O O8 0.492592 0.632337 0.987558
O O9 0.750000 0.943034 0.300442
O O10 0.529451 0.865705 0.253932
O O11 0.500000 0.000000 0.265968
O O12 0.750000 0.293680 0.123462
O O13 0.004030 0.262782 0.063784
O O14 0.976947 0.242780 0.188280
O O15 0.989321 0.369212 0.141491
O O16 0.250000 0.305691 0.003867
O O17 0.250000 0.227479 0.237603
O O18 0.750000 0.571518 0.163924
O O19 0.955288 0.585479 0.257735
O O20 0.000000 0.500000 0.159820
O O21 0.250000 0.927508 0.851960
O O22 0.000000 0.000000 0.855696
#
# Coordination Sequence:
#
# PCOD8183199 Si02
#       8
#     8   8   8   8   8   8   8   8
#     4  11  22  36  59  87 114 147 190 236 282 335
#     4  10  19  34  54  81 114 151 192 232 276 333
#     4   9  19  33  55  84 115 147 183 229 280 330
#     4  12  25  39  57  82 113 152 193 237 283 338
#     4  11  24  40  57  81 114 153 192 236 284 336
#     4  11  21  37  59  85 115 150 188 233 284 335
#     4  10  20  35  55  81 114 152 189 231 277 333
#     4  10  20  34  57  85 117 150 184 232 282 334
#
# _framework density 18.293126999999998
#
# number of rings (size 3 to 8) (size 9 to 14) (size 15 to 20)
#    0.000    1.500    2.500    3.375    0.000    4.500 
#    0.000    2.500    0.000    0.750    0.000    3.500 
#    0.000    0.000    0.000    0.000    0.000    0.000 
#
# Total GULP energy -396955.641154 kJ/mol
# GULP energy per Si atom -12404.863786 kJ/mol
# Density = 1.825149 g / cm^3
# Si number density = 18.293127 Si / 1000 Ang^3
#
#
#
# Elastic Constant Matrix: (Units=GPa)
#
#
# Indices 1 2 3 4 5 6 
#
# 1 81.8878 40.4214 33.3924 0.0000 0.0000 0.0000
# 2 40.4214 109.7457 42.4083 0.0000 0.0000 0.0000
# 3 33.3924 42.4083 83.5864 0.0000 0.0000 0.0000
# 4 0.0000 0.0000 0.0000 14.6094 0.0000 0.0000
# 5 0.0000 0.0000 0.0000 0.0000 27.3594 0.0000
# 6 0.0000 0.0000 0.0000 0.0000 0.0000 33.5468
#
#
#
# Elastic Compliance Matrix: (Units=1/GPa)
#
#
# Indices 1 2 3 4 5 6 
#
# 1 0.016052 -0.004272 -0.004245 0.000000 0.000000 0.000000
# 2 -0.004272 0.012471 -0.004621 0.000000 0.000000 0.000000
# 3 -0.004245 -0.004621 0.016004 0.000000 0.000000 0.000000
# 4 0.000000 0.000000 0.000000 0.068449 0.000000 0.000000
# 5 0.000000 0.000000 0.000000 0.000000 0.036551 0.000000
# 6 0.000000 0.000000 0.000000 0.000000 0.000000 0.029809
#
#
# Mechanical properties :
#
#
# Convention : Reuss Voigt Hill
#
# Bulk Modulus (GPa) = 54.79097 56.40712 55.59904
# Shear Modulus (GPa) = 23.61897 25.70296 24.66096
#
# Velocity S-wave (km/s) = 3.59714 3.75248 3.67563
# Velocity P-wave (km/s) = 6.87526 7.04818 6.96226
#
# Compressibility (1/GPa) = 0.01825118
#
# Stress axis : x y z
#
# Youngs Moduli (GPa) = 62.29933 80.18709 62.48439
#
# Poissons Ratio (x) = 0.34253 0.26526
# Poissons Ratio (y) = 0.26612 0.28872
# Poissons Ratio (z) = 0.26448 0.37052
#
# Static dielectric constant tensor:
#      x y z
#    x 3.456840 0.000000 0.000000 
#    y 0.000000 3.516960 0.000000 
#    z 0.000000 0.000000 3.264310 
# 
# 
# High freq. dielectric constant tensor:
#      x y z
#    x 1.724890 0.000000 0.000000 
#    y 0.000000 1.713440 0.000000 
#    z 0.000000 0.000000 1.685840 
# 
# From -- ./inp_files/22424.got.cif
#   From: 2010.03.12/outbox.cif.g09.slc.cpg/sg40_12_cif.got.tgz:22424.got - 2010.04.14 01:38:03.
