data_PCOD8183980
_publ_section_title
;
Structure prediction by ZEFSAII (Michael W. Deem and Ramdas Pophale) SiO2 
 PCOD8183980
Probable space group: A M A 2
;
_chemical_formula_sum "Si O2"
_cell_formula_units_Z 48
_cell_length_a 8.908741
_cell_length_b 20.353117
_cell_length_c 14.404412
_cell_angle_alpha 90.000000
_cell_angle_beta 90.000000
_cell_angle_gamma 90.000000
_cell_volume 2611.817316
_symmetry_space_group_name_H-M "A M A 2"
_symmetry_group_IT_number 40
_symmetry_cell_setting 'orthorhombic'
loop_
_space_group_symop_operation_xyz
x,y,z
-x,-y,z
1/2-x,y,z
1/2+x,-y,z
x,1/2+y,1/2+z
-x,1/2-y,1/2+z
1/2-x,1/2+y,1/2+z
1/2+x,1/2-y,1/2+z
loop_
_atom_site_type_symbol
_atom_site_label
_atom_site_fract_x
_atom_site_fract_y
_atom_site_fract_z
Si Si1 0.075304 0.314907 0.092290
Si Si2 0.924746 0.932264 0.080125
Si Si3 0.575295 0.568024 0.955260
Si Si4 0.425565 0.128971 0.275403
Si Si5 0.572035 0.307012 0.471597
Si Si6 0.572345 0.769023 0.768626
O O1 0.250000 0.304429 0.115683
O O2 0.980651 0.317578 0.187122
O O3 0.047228 0.382999 0.040114
O O4 0.012174 0.255886 0.028420
O O5 0.750000 0.939107 0.060478
O O6 0.957091 0.917458 0.187659
O O7 0.992887 0.873787 0.016439
O O8 0.000000 0.000000 0.050044
O O9 0.500000 0.500000 0.984007
O O10 0.750000 0.557273 0.935602
O O11 0.503981 0.596303 0.862497
O O12 0.250000 0.136880 0.295024
O O13 0.493702 0.199551 0.253185
O O14 0.750000 0.306948 0.478259
O O15 0.518696 0.301051 0.365404
O O16 0.750000 0.758759 0.767204
#
# Coordination Sequence:
#
# PCOD8183980 Si02
#       6
#     8   8   8   8   8   8
#     4  10  20  39  60  80 114 154 190 233 287 341
#     4  10  21  37  56  79 112 150 183 224 280 335
#     4  11  23  39  59  84 118 155 192 239 294 349
#     4  11  21  35  58  86 118 153 187 232 291 349
#     4   9  18  37  58  78 111 151 184 227 284 333
#     4  11  21  35  59  89 115 145 192 241 284 337
#
# _framework density 18.378008000000001
#
# number of rings (size 3 to 8) (size 9 to 14) (size 15 to 20)
#    0.000    1.667    3.333    2.000    0.000    4.000 
#    0.000    2.500    0.000    4.000    0.000    0.000 
#    0.000    0.000    0.000    0.000    0.000    0.000 
#
# Total GULP energy -297676.995712 kJ/mol
# GULP energy per Si atom -12403.208155 kJ/mol
# Density = 1.833618 g / cm^3
# Si number density = 18.378008 Si / 1000 Ang^3
#
#
#
# Elastic Constant Matrix: (Units=GPa)
#
#
# Indices 1 2 3 4 5 6 
#
# 1 71.4991 50.8393 49.3053 0.0000 0.0000 0.0000
# 2 50.8393 103.0511 40.8099 0.0000 0.0000 0.0000
# 3 49.3053 40.8099 117.6887 0.0000 0.0000 0.0000
# 4 0.0000 0.0000 0.0000 27.5268 0.0000 0.0000
# 5 0.0000 0.0000 0.0000 0.0000 25.0043 0.0000
# 6 0.0000 0.0000 0.0000 0.0000 0.0000 27.9636
#
#
#
# Elastic Compliance Matrix: (Units=1/GPa)
#
#
# Indices 1 2 3 4 5 6 
#
# 1 0.026291 -0.009979 -0.007554 0.000000 0.000000 0.000000
# 2 -0.009979 0.015036 -0.001033 0.000000 0.000000 0.000000
# 3 -0.007554 -0.001033 0.012020 0.000000 0.000000 0.000000
# 4 0.000000 0.000000 0.000000 0.036328 0.000000 0.000000
# 5 0.000000 0.000000 0.000000 0.000000 0.039993 0.000000
# 6 0.000000 0.000000 0.000000 0.000000 0.000000 0.035761
#
#
# Mechanical properties :
#
#
# Convention : Reuss Voigt Hill
#
# Bulk Modulus (GPa) = 61.67357 63.79422 62.73390
# Shear Modulus (GPa) = 24.04228 26.18457 25.11343
#
# Velocity S-wave (km/s) = 3.62084 3.77872 3.70062
# Velocity P-wave (km/s) = 7.14926 7.33661 7.24354
#
# Compressibility (1/GPa) = 0.01621440
#
# Stress axis : x y z
#
# Youngs Moduli (GPa) = 38.03586 66.50658 83.19362
#
# Poissons Ratio (x) = 0.66366 0.62847
# Poissons Ratio (y) = 0.37955 0.08597
# Poissons Ratio (z) = 0.28733 0.06872
#
# Static dielectric constant tensor:
#      x y z
#    x 3.283680 0.000000 0.000000 
#    y 0.000000 3.550360 0.000000 
#    z 0.000000 0.000000 3.486390 
# 
# 
# High freq. dielectric constant tensor:
#      x y z
#    x 1.703270 0.000000 0.000000 
#    y 0.000000 1.713660 0.000000 
#    z 0.000000 0.000000 1.717150 
# 
# From -- ./inp_files/15028.got.cif
#   From: 2010.03.12/outbox.cif.g09.slc.cpg/sg40_8_cif.got.tgz:15028.got - 2010.04.14 01:38:03.
