data_PCOD8183629
_publ_section_title
;
Structure prediction by ZEFSAII (Michael W. Deem and Ramdas Pophale) SiO2 
 PCOD8183629
Probable space group: A M A 2
;
_chemical_formula_sum "Si O2"
_cell_formula_units_Z 64
_cell_length_a 32.321513
_cell_length_b 17.082096
_cell_length_c 5.917757
_cell_angle_alpha 90.000000
_cell_angle_beta 90.000000
_cell_angle_gamma 90.000000
_cell_volume 3267.307189
_symmetry_space_group_name_H-M "A M A 2"
_symmetry_group_IT_number 40
_symmetry_cell_setting 'orthorhombic'
loop_
_space_group_symop_operation_xyz
x,y,z
-x,-y,z
1/2-x,y,z
1/2+x,-y,z
x,1/2+y,1/2+z
-x,1/2-y,1/2+z
1/2-x,1/2+y,1/2+z
1/2+x,1/2-y,1/2+z
loop_
_atom_site_type_symbol
_atom_site_label
_atom_site_fract_x
_atom_site_fract_y
_atom_site_fract_z
Si Si1 0.352921 0.441289 0.731270
Si Si2 0.499291 0.792486 0.547846
Si Si3 0.796947 0.156392 0.924212
Si Si4 0.855718 0.419004 0.422379
Si Si5 0.087282 0.674572 0.124779
Si Si6 0.203155 0.992375 0.614888
Si Si7 0.854031 0.280274 0.739121
Si Si8 0.589313 0.177883 0.437755
O O1 0.326293 0.370414 0.627914
O O2 0.370465 0.503354 0.552822
O O3 0.392098 0.404919 0.859537
O O4 0.322565 0.491623 0.886275
O O5 0.501591 0.746995 0.302393
O O6 0.540455 0.846367 0.547693
O O7 0.456363 0.840280 0.536199
O O8 0.750000 0.165911 0.012556
O O9 0.813054 0.240651 0.841408
O O10 0.798969 0.093312 0.724750
O O11 0.897323 0.392454 0.294196
O O12 0.816487 0.440548 0.269681
O O13 0.838894 0.345612 0.564440
O O14 0.087411 0.761292 0.231331
O O15 0.118624 0.672905 0.917933
O O16 0.250000 0.016951 0.561735
O O17 0.881883 0.211699 0.634265
#
# Coordination Sequence:
#
# PCOD8183629 Si02
#       8
#     8   8   8   8   8   8   8   8
#     4  11  20  39  61  89 121 161 210 252 314 379
#     4  10  20  36  63 103 130 163 212 273 319 388
#     4  10  21  35  59  92 119 153 204 263 313 365
#     4  10  24  37  60  87 122 167 200 251 321 382
#     4  10  20  38  60  93 126 158 206 255 322 374
#     4  10  21  39  59  83 119 163 209 254 308 380
#     4  11  19  38  60  88 121 154 201 261 312 372
#     4  10  20  34  64  96 117 161 209 259 312 377
#
# _framework density 19.587993999999998
#
# number of rings (size 3 to 8) (size 9 to 14) (size 15 to 20)
#    0.000    1.750    3.750    1.125    0.000    1.000 
#    0.000    1.875    0.000    4.500    0.000    0.000 
#    0.000    0.000    0.000    0.000    0.000    0.000 
#
# Total GULP energy -396595.699075 kJ/mol
# GULP energy per Si atom -12393.615596 kJ/mol
# Density = 1.954341 g / cm^3
# Si number density = 19.587994 Si / 1000 Ang^3
#
#
#
# Elastic Constant Matrix: (Units=GPa)
#
#
# Indices 1 2 3 4 5 6 
#
# 1 151.5019 66.5319 46.0586 0.0000 0.0000 0.0000
# 2 66.5319 87.6334 37.3638 0.0000 0.0000 0.0000
# 3 46.0586 37.3638 101.9936 0.0000 0.0000 0.0000
# 4 0.0000 0.0000 0.0000 19.9613 0.0000 0.0000
# 5 0.0000 0.0000 0.0000 0.0000 21.9324 0.0000
# 6 0.0000 0.0000 0.0000 0.0000 0.0000 23.4022
#
#
#
# Elastic Compliance Matrix: (Units=1/GPa)
#
#
# Indices 1 2 3 4 5 6 
#
# 1 0.010272 -0.006898 -0.002112 0.000000 0.000000 0.000000
# 2 -0.006898 0.018156 -0.003536 0.000000 0.000000 0.000000
# 3 -0.002112 -0.003536 0.012053 0.000000 0.000000 0.000000
# 4 0.000000 0.000000 0.000000 0.050097 0.000000 0.000000
# 5 0.000000 0.000000 0.000000 0.000000 0.045595 0.000000
# 6 0.000000 0.000000 0.000000 0.000000 0.000000 0.042731
#
#
# Mechanical properties :
#
#
# Convention : Reuss Voigt Hill
#
# Bulk Modulus (GPa) = 64.97854 71.22640 68.10247
# Shear Modulus (GPa) = 23.90911 25.80416 24.85663
#
# Velocity S-wave (km/s) = 3.49750 3.63346 3.56613
# Velocity P-wave (km/s) = 7.03951 7.35146 7.19717
#
# Compressibility (1/GPa) = 0.01538970
#
# Stress axis : x y z
#
# Youngs Moduli (GPa) = 97.35367 55.07835 82.96370
#
# Poissons Ratio (x) = 0.37994 0.17518
# Poissons Ratio (y) = 0.67156 0.29337
# Poissons Ratio (z) = 0.20557 0.19476
#
# Static dielectric constant tensor:
#      x y z
#    x 3.764220 0.000000 0.000000 
#    y 0.000000 3.255250 0.000000 
#    z 0.000000 0.000000 3.847010 
# 
# 
# High freq. dielectric constant tensor:
#      x y z
#    x 1.767240 0.000000 0.000000 
#    y 0.000000 1.733420 0.000000 
#    z 0.000000 0.000000 1.777070 
# 
# From -- ./inp_files/3492.got.cif
#   From: 2010.03.12/outbox.cif.g09.slc.cpg/sg40_2_cif.got.tgz:3492.got - 2010.04.14 01:38:03.
