data_PCOD8183834
_publ_section_title
;
Structure prediction by ZEFSAII (Michael W. Deem and Ramdas Pophale) SiO2 
 PCOD8183834
Probable space group: A M A 2
;
_chemical_formula_sum "Si O2"
_cell_formula_units_Z 56
_cell_length_a 21.167580
_cell_length_b 9.543872
_cell_length_c 13.358413
_cell_angle_alpha 90.000000
_cell_angle_beta 90.000000
_cell_angle_gamma 90.000000
_cell_volume 2698.675599
_symmetry_space_group_name_H-M "A M A 2"
_symmetry_group_IT_number 40
_symmetry_cell_setting 'orthorhombic'
loop_
_space_group_symop_operation_xyz
x,y,z
-x,-y,z
1/2-x,y,z
1/2+x,-y,z
x,1/2+y,1/2+z
-x,1/2-y,1/2+z
1/2-x,1/2+y,1/2+z
1/2+x,1/2-y,1/2+z
loop_
_atom_site_type_symbol
_atom_site_label
_atom_site_fract_x
_atom_site_fract_y
_atom_site_fract_z
Si Si1 0.822755 0.789183 0.540470
Si Si2 0.321671 0.670104 0.675478
Si Si3 0.400492 0.743310 0.385210
Si Si4 0.323736 0.510586 0.865872
Si Si5 0.934722 0.654040 0.093676
Si Si6 0.319029 0.510522 0.480260
Si Si7 0.062818 0.662056 0.172769
O O1 0.750000 0.798416 0.579880
O O2 0.830798 0.655177 0.467441
O O3 0.871989 0.772201 0.631312
O O4 0.840664 0.926653 0.475126
O O5 0.250000 0.732574 0.685548
O O6 0.349871 0.613661 0.779824
O O7 0.368499 0.788308 0.634720
O O8 0.321206 0.541068 0.598606
O O9 0.348470 0.854459 0.350578
O O10 0.438935 0.823382 0.473234
O O11 0.370678 0.598577 0.422221
O O12 0.442007 0.692351 0.291421
O O13 0.250000 0.501888 0.850109
O O14 0.937712 0.497936 0.136398
O O15 0.998350 0.733438 0.131400
O O16 0.250000 0.550141 0.436784
#
# Coordination Sequence:
#
# PCOD8183834 Si02
#       7
#     8   8   8   8   8   8   8
#     4  10  21  38  61  94 132 168 211 269 321 381
#     4   9  19  37  62  89 126 166 209 267 322 382
#     4  11  22  41  66  92 121 176 212 263 330 383
#     4  10  20  36  63  97 130 167 215 264 325 389
#     4  10  24  45  60  96 132 162 218 271 324 388
#     4   9  19  36  59  92 129 160 208 267 318 381
#     4  11  24  43  65  92 129 172 216 266 329 387
#
# _framework density 20.750917999999999
#
# number of rings (size 3 to 8) (size 9 to 14) (size 15 to 20)
#    0.000    2.000    1.429    1.286    2.000    4.571 
#    2.571    5.000    0.000    0.000    0.000    0.000 
#    0.000    0.000    0.000    0.000    0.000    0.000 
#
# Total GULP energy -346977.780237 kJ/mol
# GULP energy per Si atom -12392.063580 kJ/mol
# Density = 2.070369 g / cm^3
# Si number density = 20.750918 Si / 1000 Ang^3
#
#
#
# Elastic Constant Matrix: (Units=GPa)
#
#
# Indices 1 2 3 4 5 6 
#
# 1 98.1982 28.8754 44.8881 0.0000 0.0000 0.0000
# 2 28.8754 73.9840 27.1701 0.0000 0.0000 0.0000
# 3 44.8881 27.1701 128.2576 0.0000 0.0000 0.0000
# 4 0.0000 0.0000 0.0000 27.2394 0.0000 0.0000
# 5 0.0000 0.0000 0.0000 0.0000 29.3519 0.0000
# 6 0.0000 0.0000 0.0000 0.0000 0.0000 9.0699
#
#
#
# Elastic Compliance Matrix: (Units=1/GPa)
#
#
# Indices 1 2 3 4 5 6 
#
# 1 0.012989 -0.003687 -0.003765 0.000000 0.000000 0.000000
# 2 -0.003687 0.015703 -0.002036 0.000000 0.000000 0.000000
# 3 -0.003765 -0.002036 0.009546 0.000000 0.000000 0.000000
# 4 0.000000 0.000000 0.000000 0.036711 0.000000 0.000000
# 5 0.000000 0.000000 0.000000 0.000000 0.034069 0.000000
# 6 0.000000 0.000000 0.000000 0.000000 0.000000 0.110254
#
#
# Mechanical properties :
#
#
# Convention : Reuss Voigt Hill
#
# Bulk Modulus (GPa) = 51.91592 55.81188 53.86390
# Shear Modulus (GPa) = 20.43578 26.43266 23.43422
#
# Velocity S-wave (km/s) = 3.14158 3.57291 3.36417
# Velocity P-wave (km/s) = 6.18323 6.63140 6.41123
#
# Compressibility (1/GPa) = 0.01926191
#
# Stress axis : x y z
#
# Youngs Moduli (GPa) = 76.99105 63.68154 104.75827
#
# Poissons Ratio (x) = 0.23478 0.39439
# Poissons Ratio (y) = 0.28384 0.21332
# Poissons Ratio (z) = 0.28985 0.12967
#
# Static dielectric constant tensor:
#      x y z
#    x 4.077240 0.000000 0.000000 
#    y 0.000000 3.603800 0.000000 
#    z 0.000000 0.000000 3.828880 
# 
# 
# High freq. dielectric constant tensor:
#      x y z
#    x 1.807850 0.000000 0.000000 
#    y 0.000000 1.805110 0.000000 
#    z 0.000000 0.000000 1.810080 
# 
# From -- ./inp_files/18215.got.cif
#   From: 2010.03.12/outbox.cif.g09.slc.cpg/sg40_10_cif.got.tgz:18215.got - 2010.04.14 01:38:03.
