data_PCOD8183169
_publ_section_title
;
Structure prediction by ZEFSAII (Michael W. Deem and Ramdas Pophale) SiO2 
 PCOD8183169
Probable space group: A M A 2
;
_chemical_formula_sum "Si O2"
_cell_formula_units_Z 64
_cell_length_a 9.022913
_cell_length_b 24.909587
_cell_length_c 14.950637
_cell_angle_alpha 90.000000
_cell_angle_beta 90.000000
_cell_angle_gamma 90.000000
_cell_volume 3360.260864
_symmetry_space_group_name_H-M "A M A 2"
_symmetry_group_IT_number 40
_symmetry_cell_setting 'orthorhombic'
loop_
_space_group_symop_operation_xyz
x,y,z
-x,-y,z
1/2-x,y,z
1/2+x,-y,z
x,1/2+y,1/2+z
-x,1/2-y,1/2+z
1/2-x,1/2+y,1/2+z
1/2+x,1/2-y,1/2+z
loop_
_atom_site_type_symbol
_atom_site_label
_atom_site_fract_x
_atom_site_fract_y
_atom_site_fract_z
Si Si1 0.920578 0.239100 0.142420
Si Si2 0.923599 0.054775 0.557815
Si Si3 0.923022 0.602984 0.869694
Si Si4 0.077388 0.829788 0.879794
Si Si5 0.074484 0.556702 0.695979
Si Si6 0.924846 0.357045 0.548970
Si Si7 0.423306 0.346169 0.176434
Si Si8 0.081878 0.776333 0.348577
O O1 0.750000 0.238836 0.112714
O O2 0.941548 0.218534 0.242872
O O3 0.011840 0.199880 0.079489
O O4 0.985426 0.298490 0.130827
O O5 0.750000 0.046180 0.562738
O O6 0.971568 0.071135 0.457962
O O7 0.974467 0.099456 0.628733
O O8 0.000000 0.000000 0.586633
O O9 0.750000 0.594857 0.846169
O O10 0.956268 0.665560 0.889194
O O11 0.020860 0.580810 0.789398
O O12 0.250000 0.833005 0.900384
O O13 0.037901 0.851271 0.781210
O O14 0.026729 0.767824 0.890389
O O15 0.991728 0.867848 0.950278
O O16 0.250000 0.549555 0.700493
O O17 0.025095 0.595852 0.615730
O O18 0.000000 0.500000 0.676384
O O19 0.750000 0.353259 0.543384
O O20 0.250000 0.334189 0.161851
O O21 0.250000 0.759006 0.371049
#
# Coordination Sequence:
#
# PCOD8183169 Si02
#       8
#     8   8   8   8   8   8   8   8
#     4  10  19  33  56  86 116 149 188 231 280 337
#     4  10  22  39  59  83 112 151 194 236 285 337
#     4  10  20  36  58  85 119 156 189 229 284 345
#     4  10  21  36  57  84 116 152 193 242 288 341
#     4  11  24  40  60  84 114 154 196 241 291 347
#     4  11  23  38  57  83 116 154 194 237 292 348
#     4   9  20  39  59  82 115 153 191 235 292 345
#     4   9  18  33  54  83 119 155 187 223 279 346
#
# _framework density 19.046140999999999
#
# number of rings (size 3 to 8) (size 9 to 14) (size 15 to 20)
#    0.000    2.000    1.250    1.875    1.750    5.000 
#    0.000    0.625    0.000    3.000    0.000    0.000 
#    0.000    0.000    0.000    0.000    0.000    0.000 
#
# Total GULP energy -396922.279771 kJ/mol
# GULP energy per Si atom -12403.821243 kJ/mol
# Density = 1.900279 g / cm^3
# Si number density = 19.046141 Si / 1000 Ang^3
#
#
#
# Elastic Constant Matrix: (Units=GPa)
#
#
# Indices 1 2 3 4 5 6 
#
# 1 74.0167 51.4045 50.8066 0.0000 0.0000 0.0000
# 2 51.4045 124.8511 65.1580 0.0000 0.0000 0.0000
# 3 50.8066 65.1580 102.1077 0.0000 0.0000 0.0000
# 4 0.0000 0.0000 0.0000 28.9372 0.0000 0.0000
# 5 0.0000 0.0000 0.0000 0.0000 30.2200 0.0000
# 6 0.0000 0.0000 0.0000 0.0000 0.0000 31.6265
#
#
#
# Elastic Compliance Matrix: (Units=1/GPa)
#
#
# Indices 1 2 3 4 5 6 
#
# 1 0.022518 -0.005133 -0.007929 0.000000 0.000000 0.000000
# 2 -0.005133 0.013179 -0.005856 0.000000 0.000000 0.000000
# 3 -0.007929 -0.005856 0.017475 0.000000 0.000000 0.000000
# 4 0.000000 0.000000 0.000000 0.034558 0.000000 0.000000
# 5 0.000000 0.000000 0.000000 0.000000 0.033091 0.000000
# 6 0.000000 0.000000 0.000000 0.000000 0.000000 0.031619
#
#
# Mechanical properties :
#
#
# Convention : Reuss Voigt Hill
#
# Bulk Modulus (GPa) = 65.20206 70.63486 67.91846
# Shear Modulus (GPa) = 25.59012 27.06383 26.32698
#
# Velocity S-wave (km/s) = 3.66947 3.77365 3.72193
# Velocity P-wave (km/s) = 7.22921 7.49360 7.36259
#
# Compressibility (1/GPa) = 0.01533694
#
# Stress axis : x y z
#
# Youngs Moduli (GPa) = 44.40882 75.87766 57.22307
#
# Poissons Ratio (x) = 0.38951 0.45371
# Poissons Ratio (y) = 0.22797 0.33508
# Poissons Ratio (z) = 0.35211 0.44432
#
# Static dielectric constant tensor:
#      x y z
#    x 3.476830 0.000000 0.000000 
#    y 0.000000 3.488000 0.000000 
#    z 0.000000 0.000000 3.624080 
# 
# 
# High freq. dielectric constant tensor:
#      x y z
#    x 1.741940 0.000000 0.000000 
#    y 0.000000 1.732670 0.000000 
#    z 0.000000 0.000000 1.746140 
# 
# From -- ./inp_files/15591.got.cif
#   From: 2010.03.12/outbox.cif.g09.slc.cpg/sg40_8_cif.got.tgz:15591.got - 2010.04.14 01:38:03.
