data_PCOD8183804
_publ_section_title
;
Structure prediction by ZEFSAII (Michael W. Deem and Ramdas Pophale) SiO2 
 PCOD8183804
Probable space group: A M A 2
;
_chemical_formula_sum "Si O2"
_cell_formula_units_Z 64
_cell_length_a 8.693120
_cell_length_b 15.481216
_cell_length_c 23.899210
_cell_angle_alpha 90.000000
_cell_angle_beta 90.000000
_cell_angle_gamma 90.000000
_cell_volume 3216.357317
_symmetry_space_group_name_H-M "A M A 2"
_symmetry_group_IT_number 40
_symmetry_cell_setting 'orthorhombic'
loop_
_space_group_symop_operation_xyz
x,y,z
-x,-y,z
1/2-x,y,z
1/2+x,-y,z
x,1/2+y,1/2+z
-x,1/2-y,1/2+z
1/2-x,1/2+y,1/2+z
1/2+x,1/2-y,1/2+z
loop_
_atom_site_type_symbol
_atom_site_label
_atom_site_fract_x
_atom_site_fract_y
_atom_site_fract_z
Si Si1 0.932956 0.254867 0.483970
Si Si2 0.069681 0.349647 0.793388
Si Si3 0.068810 0.088959 0.181186
Si Si4 0.432189 0.909396 0.913577
Si Si5 0.432446 0.250124 0.111288
Si Si6 0.566971 0.588699 0.182975
Si Si7 0.568772 0.090099 0.414721
Si Si8 0.068468 0.149289 0.797512
O O1 0.750000 0.265544 0.478458
O O2 0.990469 0.250239 0.547760
O O3 0.990253 0.167266 0.454229
O O4 0.012556 0.336085 0.455757
O O5 0.250000 0.362790 0.783089
O O6 0.014670 0.390993 0.851597
O O7 0.024676 0.249508 0.793658
O O8 0.976878 0.398267 0.745483
O O9 0.250000 0.084533 0.176365
O O10 0.001056 0.166531 0.143474
O O11 0.000000 0.000000 0.157770
O O12 0.250000 0.913843 0.913386
O O13 0.491611 0.891452 0.851586
O O14 0.500000 0.000000 0.935204
O O15 0.250000 0.248909 0.113332
O O16 0.493602 0.335356 0.142569
O O17 0.500000 0.500000 0.157774
O O18 0.750000 0.585896 0.185997
O O19 0.498815 0.600408 0.244465
O O20 0.750000 0.084028 0.418279
O O21 0.500000 0.000000 0.436238
O O22 0.250000 0.135129 0.801355
#
# Coordination Sequence:
#
# PCOD8183804 Si02
#       8
#     8   8   8   8   8   8   8   8
#     4  10  21  43  65  85 118 160 204 253 301 351
#     4  10  20  36  59  89 118 154 193 238 296 353
#     4  11  22  38  59  88 118 155 196 241 295 354
#     4  12  25  41  63  92 123 158 198 247 302 365
#     4   9  21  40  63  85 116 159 203 248 299 350
#     4  11  22  39  60  91 124 160 202 245 300 357
#     4  10  21  37  59  87 119 154 193 239 293 352
#     4  11  21  38  63  91 122 158 197 245 302 360
#
# _framework density 19.898287
#
# number of rings (size 3 to 8) (size 9 to 14) (size 15 to 20)
#    0.000    1.500    2.500    3.000    0.000    3.500 
#    0.000    3.750    0.000    0.000    0.000    0.000 
#    0.000    0.000    0.000    0.000    0.000    0.000 
#
# Total GULP energy -396952.882257 kJ/mol
# GULP energy per Si atom -12404.777571 kJ/mol
# Density = 1.985300 g / cm^3
# Si number density = 19.898287 Si / 1000 Ang^3
#
#
#
# Elastic Constant Matrix: (Units=GPa)
#
#
# Indices 1 2 3 4 5 6 
#
# 1 65.9916 50.8069 35.1666 0.0000 0.0000 0.0000
# 2 50.8069 192.9491 81.8792 0.0000 0.0000 0.0000
# 3 35.1666 81.8792 151.0037 0.0000 0.0000 0.0000
# 4 0.0000 0.0000 0.0000 7.1784 0.0000 0.0000
# 5 0.0000 0.0000 0.0000 0.0000 23.6542 0.0000
# 6 0.0000 0.0000 0.0000 0.0000 0.0000 31.8082
#
#
#
# Elastic Compliance Matrix: (Units=1/GPa)
#
#
# Indices 1 2 3 4 5 6 
#
# 1 0.019600 -0.004188 -0.002294 0.000000 0.000000 0.000000
# 2 -0.004188 0.007626 -0.003160 0.000000 0.000000 0.000000
# 3 -0.002294 -0.003160 0.008870 0.000000 0.000000 0.000000
# 4 0.000000 0.000000 0.000000 0.139306 0.000000 0.000000
# 5 0.000000 0.000000 0.000000 0.000000 0.042276 0.000000
# 6 0.000000 0.000000 0.000000 0.000000 0.000000 0.031438
#
#
# Mechanical properties :
#
#
# Convention : Reuss Voigt Hill
#
# Bulk Modulus (GPa) = 59.47684 82.84998 71.16341
# Shear Modulus (GPa) = 18.24791 28.66762 23.45776
#
# Velocity S-wave (km/s) = 3.03158 3.79978 3.43721
# Velocity P-wave (km/s) = 6.49687 7.80886 7.18288
#
# Compressibility (1/GPa) = 0.01681327
#
# Stress axis : x y z
#
# Youngs Moduli (GPa) = 51.02082 131.12426 112.73897
#
# Poissons Ratio (x) = 0.54909 0.25861
# Poissons Ratio (y) = 0.21365 0.35626
# Poissons Ratio (z) = 0.11704 0.41436
#
# Static dielectric constant tensor:
#      x y z
#    x 3.435500 0.000000 0.000000 
#    y 0.000000 3.990750 0.000000 
#    z 0.000000 0.000000 3.719590 
# 
# 
# High freq. dielectric constant tensor:
#      x y z
#    x 1.763340 0.000000 0.000000 
#    y 0.000000 1.797710 0.000000 
#    z 0.000000 0.000000 1.774010 
# 
# From -- ./inp_files/24308.got.cif
#   From: 2010.03.12/outbox.cif.g09.slc.cpg/sg40_13_cif.got.tgz:24308.got - 2010.04.14 01:38:03.
