data_PCOD8183698
_publ_section_title
;
Structure prediction by ZEFSAII (Michael W. Deem and Ramdas Pophale) SiO2 
 PCOD8183698
Probable space group: A M A 2
;
_chemical_formula_sum "Si O2"
_cell_formula_units_Z 48
_cell_length_a 21.856824
_cell_length_b 11.363073
_cell_length_c 8.393742
_cell_angle_alpha 90.000000
_cell_angle_beta 90.000000
_cell_angle_gamma 90.000000
_cell_volume 2084.675527
_symmetry_space_group_name_H-M "A M A 2"
_symmetry_group_IT_number 40
_symmetry_cell_setting 'orthorhombic'
loop_
_space_group_symop_operation_xyz
x,y,z
-x,-y,z
1/2-x,y,z
1/2+x,-y,z
x,1/2+y,1/2+z
-x,1/2-y,1/2+z
1/2-x,1/2+y,1/2+z
1/2+x,1/2-y,1/2+z
loop_
_atom_site_type_symbol
_atom_site_label
_atom_site_fract_x
_atom_site_fract_y
_atom_site_fract_z
Si Si1 0.066340 0.357635 0.299540
Si Si2 0.515738 0.712001 0.994039
Si Si3 0.098515 0.566444 0.514003
Si Si4 0.180738 0.913424 0.610053
Si Si5 0.819614 0.340301 0.256554
Si Si6 0.382645 0.385000 0.786284
O O1 0.064256 0.479889 0.391978
O O2 0.133447 0.337811 0.219465
O O3 0.050110 0.251616 0.424043
O O4 0.013711 0.361711 0.159677
O O5 0.549972 0.634962 0.859427
O O6 0.551970 0.829123 0.048618
O O7 0.159525 0.620080 0.434259
O O8 0.117084 0.498837 0.674903
O O9 0.250000 0.873924 0.652341
O O10 0.167670 0.896390 0.424703
O O11 0.171228 0.051870 0.637174
O O12 0.750000 0.299007 0.267062
O O13 0.861184 0.232184 0.190807
#
# Coordination Sequence:
#
# PCOD8183698 Si02
#       6
#     8   8   8   8   8   8
#     4  10  20  37  60  84 118 157 195 248 299 353
#     4  10  21  37  56  85 117 151 198 246 301 359
#     4  10  21  36  56  83 115 152 194 243 298 353
#     4   9  19  36  58  87 121 158 200 247 301 358
#     4   9  19  35  54  79 113 151 193 240 291 351
#     4  10  20  35  58  84 115 155 199 248 300 356
#
# _framework density 23.025168000000001
#
# number of rings (size 3 to 8) (size 9 to 14) (size 15 to 20)
#    0.000    2.333    0.000    2.000    0.000    2.667 
#    0.000    6.667    0.000    8.000    0.000    0.000 
#    0.000    0.000    0.000    0.000    0.000    0.000 
#
# Total GULP energy -297489.350907 kJ/mol
# GULP energy per Si atom -12395.389621 kJ/mol
# Density = 2.297276 g / cm^3
# Si number density = 23.025168 Si / 1000 Ang^3
#
#
#
# Elastic Constant Matrix: (Units=GPa)
#
#
# Indices 1 2 3 4 5 6 
#
# 1 55.6747 7.6652 27.3746 0.0000 0.0000 0.0000
# 2 7.6652 50.4863 26.0541 0.0000 0.0000 0.0000
# 3 27.3746 26.0541 79.8040 0.0000 0.0000 0.0000
# 4 0.0000 0.0000 0.0000 39.9643 0.0000 0.0000
# 5 0.0000 0.0000 0.0000 0.0000 28.5435 0.0000
# 6 0.0000 0.0000 0.0000 0.0000 0.0000 17.2410
#
#
#
# Elastic Compliance Matrix: (Units=1/GPa)
#
#
# Indices 1 2 3 4 5 6 
#
# 1 0.021623 0.000655 -0.007631 0.000000 0.000000 0.000000
# 2 0.000655 0.023841 -0.008008 0.000000 0.000000 0.000000
# 3 -0.007631 -0.008008 0.017763 0.000000 0.000000 0.000000
# 4 0.000000 0.000000 0.000000 0.025022 0.000000 0.000000
# 5 0.000000 0.000000 0.000000 0.000000 0.035034 0.000000
# 6 0.000000 0.000000 0.000000 0.000000 0.000000 0.058001
#
#
# Mechanical properties :
#
#
# Convention : Reuss Voigt Hill
#
# Bulk Modulus (GPa) = 30.06746 34.23919 32.15333
# Shear Modulus (GPa) = 22.48814 25.47450 23.98132
#
# Velocity S-wave (km/s) = 3.12857 3.32983 3.23077
# Velocity P-wave (km/s) = 5.11248 5.44852 5.28317
#
# Compressibility (1/GPa) = 0.03325854
#
# Stress axis : x y z
#
# Youngs Moduli (GPa) = 46.24599 41.94530 56.29726
#
# Poissons Ratio (x) = -0.02748 0.42962
# Poissons Ratio (y) = -0.03030 0.45083
# Poissons Ratio (z) = 0.35292 0.33590
#
# Static dielectric constant tensor:
#      x y z
#    x 4.102600 0.000000 0.000000 
#    y 0.000000 4.237090 0.000000 
#    z 0.000000 0.000000 4.133520 
# 
# 
# High freq. dielectric constant tensor:
#      x y z
#    x 1.896480 0.000000 0.000000 
#    y 0.000000 1.909220 0.000000 
#    z 0.000000 0.000000 1.904480 
# 
# From -- ./inp_files/8718.got.cif
#   From: 2010.03.12/outbox.cif.g09.slc.cpg/sg40_5_cif.got.tgz:8718.got - 2010.04.14 01:38:03.
