data_PCOD8183039
_publ_section_title
;
Structure prediction by ZEFSAII (Michael W. Deem and Ramdas Pophale) SiO2 
 PCOD8183039
Probable space group: A M A 2
;
_chemical_formula_sum "Si O2"
_cell_formula_units_Z 40
_cell_length_a 8.705947
_cell_length_b 20.516903
_cell_length_c 12.482260
_cell_angle_alpha 90.000000
_cell_angle_beta 90.000000
_cell_angle_gamma 90.000000
_cell_volume 2229.569674
_symmetry_space_group_name_H-M "A M A 2"
_symmetry_group_IT_number 40
_symmetry_cell_setting 'orthorhombic'
loop_
_space_group_symop_operation_xyz
x,y,z
-x,-y,z
1/2-x,y,z
1/2+x,-y,z
x,1/2+y,1/2+z
-x,1/2-y,1/2+z
1/2-x,1/2+y,1/2+z
1/2+x,1/2-y,1/2+z
loop_
_atom_site_type_symbol
_atom_site_label
_atom_site_fract_x
_atom_site_fract_y
_atom_site_fract_z
Si Si1 0.571782 0.292525 0.112550
Si Si2 0.076063 0.161307 0.385247
Si Si3 0.429791 0.430114 0.720979
Si Si4 0.931152 0.341588 0.544364
Si Si5 0.072926 0.810623 0.827235
O O1 0.750000 0.272651 0.119913
O O2 0.476552 0.226246 0.099602
O O3 0.516087 0.330193 0.218685
O O4 0.544291 0.341111 0.012692
O O5 0.250000 0.139419 0.358499
O O6 0.048190 0.234385 0.346085
O O7 0.958734 0.114158 0.325546
O O8 0.500000 0.500000 0.745430
O O9 0.250000 0.435270 0.699940
O O10 0.510102 0.400798 0.616320
O O11 0.750000 0.344951 0.534650
O O12 0.003301 0.350204 0.426671
O O13 0.250000 0.829620 0.815620
#
# Coordination Sequence:
#
# PCOD8183039 Si02
#       5
#     8   8   8   8   8
#     4  10  19  32  53  80 111 143 176 220 274 325
#     4   9  19  34  51  77 110 141 179 221 267 320
#     4  12  24  38  57  78 107 144 186 226 271 322
#     4  11  21  34  52  77 110 143 182 223 269 322
#     4  10  19  32  53  80 112 143 176 221 273 324
#
# _framework density 17.940681000000001
#
# number of rings (size 3 to 8) (size 9 to 14) (size 15 to 20)
#    0.000    1.600    2.000    6.000    0.000    4.000 
#    0.000    0.000    0.000    1.200    0.000    2.800 
#    0.000    0.000    0.000    0.000    0.000    0.000 
#
# Total GULP energy -248068.732955 kJ/mol
# GULP energy per Si atom -12403.436648 kJ/mol
# Density = 1.789985 g / cm^3
# Si number density = 17.940681 Si / 1000 Ang^3
#
#
#
# Elastic Constant Matrix: (Units=GPa)
#
#
# Indices 1 2 3 4 5 6 
#
# 1 108.5848 27.0464 42.6418 0.0000 0.0000 0.0000
# 2 27.0464 47.2606 21.4657 0.0000 0.0000 0.0000
# 3 42.6418 21.4657 141.1613 0.0000 0.0000 0.0000
# 4 0.0000 0.0000 0.0000 21.1868 0.0000 0.0000
# 5 0.0000 0.0000 0.0000 0.0000 35.4427 0.0000
# 6 0.0000 0.0000 0.0000 0.0000 0.0000 22.0564
#
#
#
# Elastic Compliance Matrix: (Units=1/GPa)
#
#
# Indices 1 2 3 4 5 6 
#
# 1 0.011615 -0.005428 -0.002683 0.000000 0.000000 0.000000
# 2 -0.005428 0.025266 -0.002202 0.000000 0.000000 0.000000
# 3 -0.002683 -0.002202 0.008230 0.000000 0.000000 0.000000
# 4 0.000000 0.000000 0.000000 0.047199 0.000000 0.000000
# 5 0.000000 0.000000 0.000000 0.000000 0.028215 0.000000
# 6 0.000000 0.000000 0.000000 0.000000 0.000000 0.045338
#
#
# Mechanical properties :
#
#
# Convention : Reuss Voigt Hill
#
# Bulk Modulus (GPa) = 40.84470 53.25717 47.05094
# Shear Modulus (GPa) = 25.68687 29.46071 27.57379
#
# Velocity S-wave (km/s) = 3.78797 4.05670 3.92464
# Velocity P-wave (km/s) = 6.47670 7.18972 6.84250
#
# Compressibility (1/GPa) = 0.02448298
#
# Stress axis : x y z
#
# Youngs Moduli (GPa) = 86.09381 39.57858 121.51362
#
# Poissons Ratio (x) = 0.21485 0.32605
# Poissons Ratio (y) = 0.46736 0.26761
# Poissons Ratio (z) = 0.23101 0.08716
#
# Static dielectric constant tensor:
#      x y z
#    x 3.413550 0.000000 0.000000 
#    y 0.000000 2.878040 0.000000 
#    z 0.000000 0.000000 3.657970 
# 
# 
# High freq. dielectric constant tensor:
#      x y z
#    x 1.711010 0.000000 0.000000 
#    y 0.000000 1.641140 0.000000 
#    z 0.000000 0.000000 1.713510 
# 
# From -- ./inp_files/9995.got.cif
#   From: 2010.03.12/outbox.cif.g09.slc.cpg/sg40_5_cif.got.tgz:9995.got - 2010.04.14 01:38:03.
