data_PCOD8183157
_publ_section_title
;
Structure prediction by ZEFSAII (Michael W. Deem and Ramdas Pophale) SiO2 
 PCOD8183157
Probable space group: A M A 2
;
_chemical_formula_sum "Si O2"
_cell_formula_units_Z 56
_cell_length_a 16.194893
_cell_length_b 5.080719
_cell_length_c 31.595371
_cell_angle_alpha 90.000000
_cell_angle_beta 90.000000
_cell_angle_gamma 90.000000
_cell_volume 2599.720856
_symmetry_space_group_name_H-M "A M A 2"
_symmetry_group_IT_number 40
_symmetry_cell_setting 'orthorhombic'
loop_
_space_group_symop_operation_xyz
x,y,z
-x,-y,z
1/2-x,y,z
1/2+x,-y,z
x,1/2+y,1/2+z
-x,1/2-y,1/2+z
1/2-x,1/2+y,1/2+z
1/2+x,1/2-y,1/2+z
loop_
_atom_site_type_symbol
_atom_site_label
_atom_site_fract_x
_atom_site_fract_y
_atom_site_fract_z
Si Si1 0.591487 0.396545 0.920440
Si Si2 0.556155 0.248729 0.295246
Si Si3 0.344544 0.114059 0.876835
Si Si4 0.845502 0.765488 0.157964
Si Si5 0.652622 0.312621 0.564608
Si Si6 0.154267 0.719520 0.210662
Si Si7 0.847402 0.304576 0.012076
O O1 0.500000 0.500000 0.912934
O O2 0.650794 0.643574 0.910028
O O3 0.604657 0.144074 0.890533
O O4 0.605701 0.296320 0.967791
O O5 0.500000 0.500000 0.289507
O O6 0.622145 0.285368 0.332210
O O7 0.605508 0.199759 0.252302
O O8 0.500000 0.000000 0.306415
O O9 0.250000 0.027214 0.872362
O O10 0.750000 0.688560 0.153144
O O11 0.886772 0.769426 0.111227
O O12 0.883853 0.543336 0.188928
O O13 0.858741 0.051097 0.177015
O O14 0.750000 0.346387 0.570136
O O15 0.617676 0.572165 0.541722
O O16 0.628833 0.071642 0.535123
O O17 0.250000 0.682240 0.223028
O O18 0.750000 0.274871 0.003595
#
# Coordination Sequence:
#
# PCOD8183157 Si02
#       7
#     8   8   8   8   8   8   8
#     4  12  25  42  64  92 128 165 202 251 315 377
#     4  12  25  42  63  89 124 159 196 243 306 369
#     4  12  25  44  68  93 121 158 208 257 305 367
#     4   9  17  31  55  86 118 153 199 253 299 342
#     4   9  17  30  53  85 117 151 198 254 300 342
#     4  10  20  36  59  87 118 155 201 247 294 353
#     4  10  19  33  55  84 118 157 203 249 296 354
#
# _framework density 21.540776999999999
#
# number of rings (size 3 to 8) (size 9 to 14) (size 15 to 20)
#    0.000    1.429    0.000    6.857    0.000    4.571 
#    0.000    4.286    0.000    8.571    0.000    0.000 
#    0.000    0.000    0.000    0.000    0.000    0.000 
#
# Total GULP energy -347307.302102 kJ/mol
# GULP energy per Si atom -12403.832218 kJ/mol
# Density = 2.149175 g / cm^3
# Si number density = 21.540777 Si / 1000 Ang^3
#
#
#
# Elastic Constant Matrix: (Units=GPa)
#
#
# Indices 1 2 3 4 5 6 
#
# 1 58.5271 23.0198 37.7239 0.0000 0.0000 0.0000
# 2 23.0198 118.6128 22.0751 0.0000 0.0000 0.0000
# 3 37.7239 22.0751 124.2641 0.0000 0.0000 0.0000
# 4 0.0000 0.0000 0.0000 31.9028 0.0000 0.0000
# 5 0.0000 0.0000 0.0000 0.0000 8.3355 0.0000
# 6 0.0000 0.0000 0.0000 0.0000 0.0000 17.9408
#
#
#
# Elastic Compliance Matrix: (Units=1/GPa)
#
#
# Indices 1 2 3 4 5 6 
#
# 1 0.022345 -0.003179 -0.006219 0.000000 0.000000 0.000000
# 2 -0.003179 0.009171 -0.000664 0.000000 0.000000 0.000000
# 3 -0.006219 -0.000664 0.010053 0.000000 0.000000 0.000000
# 4 0.000000 0.000000 0.000000 0.031345 0.000000 0.000000
# 5 0.000000 0.000000 0.000000 0.000000 0.119969 0.000000
# 6 0.000000 0.000000 0.000000 0.000000 0.000000 0.055739
#
#
# Mechanical properties :
#
#
# Convention : Reuss Voigt Hill
#
# Bulk Modulus (GPa) = 46.62992 51.89351 49.26172
# Shear Modulus (GPa) = 18.12285 26.20817 22.16551
#
# Velocity S-wave (km/s) = 2.90371 3.49187 3.21129
# Velocity P-wave (km/s) = 5.73902 6.35616 6.05545
#
# Compressibility (1/GPa) = 0.02144546
#
# Stress axis : x y z
#
# Youngs Moduli (GPa) = 44.75321 109.03460 99.47086
#
# Poissons Ratio (x) = 0.34664 0.61857
# Poissons Ratio (y) = 0.14228 0.06606
# Poissons Ratio (z) = 0.27830 0.07241
#
# Static dielectric constant tensor:
#      x y z
#    x 3.588210 0.000000 0.000000 
#    y 0.000000 4.047600 0.000000 
#    z 0.000000 0.000000 4.035270 
# 
# 
# High freq. dielectric constant tensor:
#      x y z
#    x 1.813980 0.000000 0.000000 
#    y 0.000000 1.864530 0.000000 
#    z 0.000000 0.000000 1.862530 
# 
# From -- ./inp_files/26594.got.cif
#   From: 2010.03.12/outbox.cif.g09.slc.cpg/sg40_14_cif.got.tgz:26594.got - 2010.04.14 01:38:03.
