data_PCOD8183292
_publ_section_title
;
Structure prediction by ZEFSAII (Michael W. Deem and Ramdas Pophale) SiO2 
 PCOD8183292
Probable space group: A M A 2
;
_chemical_formula_sum "Si O2"
_cell_formula_units_Z 56
_cell_length_a 17.623762
_cell_length_b 32.296225
_cell_length_c 5.013396
_cell_angle_alpha 90.000000
_cell_angle_beta 90.000000
_cell_angle_gamma 90.000000
_cell_volume 2853.529663
_symmetry_space_group_name_H-M "A M A 2"
_symmetry_group_IT_number 40
_symmetry_cell_setting 'orthorhombic'
loop_
_space_group_symop_operation_xyz
x,y,z
-x,-y,z
1/2-x,y,z
1/2+x,-y,z
x,1/2+y,1/2+z
-x,1/2-y,1/2+z
1/2-x,1/2+y,1/2+z
1/2+x,1/2-y,1/2+z
loop_
_atom_site_type_symbol
_atom_site_label
_atom_site_fract_x
_atom_site_fract_y
_atom_site_fract_z
Si Si1 0.098010 0.352212 0.092040
Si Si2 0.838124 0.602897 0.589900
Si Si3 0.163959 0.688841 0.470627
Si Si4 0.532826 0.412033 0.146301
Si Si5 0.164653 0.136192 0.457343
Si Si6 0.950997 0.241117 0.588299
Si Si7 0.477371 0.453561 0.645267
O O1 0.151596 0.372564 0.314845
O O2 0.012764 0.369360 0.112523
O O3 0.135717 0.364508 0.812782
O O4 0.088726 0.303279 0.123848
O O5 0.750000 0.589980 0.623961
O O6 0.889417 0.560584 0.595710
O O7 0.250000 0.700045 0.550133
O O8 0.134037 0.653573 0.675098
O O9 0.115552 0.729791 0.487727
O O10 0.157623 0.672870 0.170846
O O11 0.530377 0.425923 0.453046
O O12 0.618288 0.403833 0.053200
O O13 0.496502 0.446848 0.955220
O O14 0.250000 0.119914 0.429227
O O15 0.982717 0.258246 0.867921
O O16 0.500000 0.500000 0.569207
#
# Coordination Sequence:
#
# PCOD8183292 Si02
#       7
#     8   8   8   8   8   8   8
#     4  10  21  35  55  81 107 145 186 226 269 317
#     4  10  21  38  58  81 110 146 184 223 272 330
#     4  10  21  35  52  75 108 144 176 220 277 318
#     4  10  19  35  57  78 107 139 176 217 263 322
#     4  10  20  36  56  78 105 140 179 219 265 320
#     4  12  23  36  55  80 109 143 189 235 272 315
#     4  10  21  37  58  83 110 141 174 216 272 326
#
# _framework density 19.624817
#
# number of rings (size 3 to 8) (size 9 to 14) (size 15 to 20)
#    0.000    1.714    0.000    5.143    0.000    3.429 
#    0.000    2.857    0.000    0.000    0.000    0.000 
#    0.000    0.000    0.000    0.000    0.000    0.000 
#
# Total GULP energy -347206.604022 kJ/mol
# GULP energy per Si atom -12400.235858 kJ/mol
# Density = 1.958015 g / cm^3
# Si number density = 19.624817 Si / 1000 Ang^3
#
#
#
# Elastic Constant Matrix: (Units=GPa)
#
#
# Indices 1 2 3 4 5 6 
#
# 1 78.5506 40.2484 -2.3794 0.0000 0.0000 0.0000
# 2 40.2484 76.4725 -7.6245 0.0000 0.0000 0.0000
# 3 -2.3794 -7.6245 63.3180 0.0000 0.0000 0.0000
# 4 0.0000 0.0000 0.0000 19.7076 0.0000 0.0000
# 5 0.0000 0.0000 0.0000 0.0000 22.4191 0.0000
# 6 0.0000 0.0000 0.0000 0.0000 0.0000 22.0708
#
#
#
# Elastic Compliance Matrix: (Units=1/GPa)
#
#
# Indices 1 2 3 4 5 6 
#
# 1 0.017444 -0.009227 -0.000455 0.000000 0.000000 0.000000
# 2 -0.009227 0.018116 0.001835 0.000000 0.000000 0.000000
# 3 -0.000455 0.001835 0.015997 0.000000 0.000000 0.000000
# 4 0.000000 0.000000 0.000000 0.050742 0.000000 0.000000
# 5 0.000000 0.000000 0.000000 0.000000 0.044605 0.000000
# 6 0.000000 0.000000 0.000000 0.000000 0.000000 0.045309
#
#
# Mechanical properties :
#
#
# Convention : Reuss Voigt Hill
#
# Bulk Modulus (GPa) = 27.88444 30.98110 29.43277
# Shear Modulus (GPa) = 22.74158 25.37928 24.06043
#
# Velocity S-wave (km/s) = 3.40783 3.60004 3.50526
# Velocity P-wave (km/s) = 5.45198 5.75338 5.60471
#
# Compressibility (1/GPa) = 0.03586229
#
# Stress axis : x y z
#
# Youngs Moduli (GPa) = 57.32475 55.20104 62.51133
#
# Poissons Ratio (x) = 0.50932 0.02847
# Poissons Ratio (y) = 0.52891 -0.11469
# Poissons Ratio (z) = 0.02611 -0.10128
#
# Static dielectric constant tensor:
#      x y z
#    x 3.618820 0.000000 0.000000 
#    y 0.000000 3.255000 0.000000 
#    z 0.000000 0.000000 3.816970 
# 
# 
# High freq. dielectric constant tensor:
#      x y z
#    x 1.762450 0.000000 0.000000 
#    y 0.000000 1.739470 0.000000 
#    z 0.000000 0.000000 1.788520 
# 
# From -- ./inp_files/1471.got.cif
#   From: 2010.03.12/outbox.cif.g09.slc.cpg/sg40_1_cif.got.tgz:1471.got - 2010.04.14 01:38:03.
