data_PCOD8183371
_publ_section_title
;
Structure prediction by ZEFSAII (Michael W. Deem and Ramdas Pophale) SiO2 
 PCOD8183371
Probable space group: A M A 2
;
_chemical_formula_sum "Si O2"
_cell_formula_units_Z 64
_cell_length_a 8.938378
_cell_length_b 15.346022
_cell_length_c 23.463584
_cell_angle_alpha 90.000000
_cell_angle_beta 90.000000
_cell_angle_gamma 90.000000
_cell_volume 3218.465688
_symmetry_space_group_name_H-M "A M A 2"
_symmetry_group_IT_number 40
_symmetry_cell_setting 'orthorhombic'
loop_
_space_group_symop_operation_xyz
x,y,z
-x,-y,z
1/2-x,y,z
1/2+x,-y,z
x,1/2+y,1/2+z
-x,1/2-y,1/2+z
1/2-x,1/2+y,1/2+z
1/2+x,1/2-y,1/2+z
loop_
_atom_site_type_symbol
_atom_site_label
_atom_site_fract_x
_atom_site_fract_y
_atom_site_fract_z
Si Si1 0.923236 0.263712 0.167870
Si Si2 0.424046 0.853918 0.984912
Si Si3 0.926250 0.909548 0.357740
Si Si4 0.423266 0.250606 0.799761
Si Si5 0.924879 0.587987 0.609836
Si Si6 0.073208 0.911536 0.594957
Si Si7 0.926235 0.912883 0.873301
Si Si8 0.924047 0.849407 0.483027
O O1 0.750000 0.277619 0.150363
O O2 0.949390 0.275277 0.234597
O O3 0.976871 0.167493 0.149715
O O4 0.022572 0.332999 0.134891
O O5 0.250000 0.870492 0.971520
O O6 0.523503 0.902322 0.938404
O O7 0.461018 0.752204 0.984753
O O8 0.473861 0.892757 0.045232
O O9 0.750000 0.917443 0.351644
O O10 0.973920 0.886337 0.422035
O O11 0.982109 0.835450 0.314889
O O12 0.000000 0.000000 0.339128
O O13 0.250000 0.270535 0.812400
O O14 0.482286 0.169708 0.837062
O O15 0.750000 0.574474 0.614413
O O16 0.000000 0.500000 0.632542
O O17 0.250000 0.920261 0.597075
O O18 0.022273 0.897783 0.529984
O O19 0.000000 0.000000 0.618824
O O20 0.750000 0.923191 0.869816
O O21 0.000000 0.000000 0.847322
O O22 0.750000 0.866963 0.495795
#
# Coordination Sequence:
#
# PCOD8183371 Si02
#       8
#     8   8   8   8   8   8   8   8
#     4  10  22  44  65  85 119 161 204 254 305 355
#     4  10  19  36  61  89 119 156 194 239 298 356
#     4  11  23  39  63  91 124 161 201 250 303 364
#     4  10  23  42  64  88 118 158 206 255 305 355
#     4  10  21  37  60  86 118 154 192 240 293 353
#     4  12  25  40  63  93 124 160 201 250 304 366
#     4  11  23  38  59  89 121 156 196 245 298 359
#     4  10  20  38  63  91 123 160 198 245 306 364
#
# _framework density 19.885252000000001
#
# number of rings (size 3 to 8) (size 9 to 14) (size 15 to 20)
#    0.000    1.500    2.500    2.625    0.000    6.500 
#    0.000    2.500    0.000    0.000    0.000    0.000 
#    0.000    0.000    0.000    0.000    0.000    0.000 
#
# Total GULP energy -397003.408107 kJ/mol
# GULP energy per Si atom -12406.356503 kJ/mol
# Density = 1.983999 g / cm^3
# Si number density = 19.885252 Si / 1000 Ang^3
#
#
#
# Elastic Constant Matrix: (Units=GPa)
#
#
# Indices 1 2 3 4 5 6 
#
# 1 81.9687 46.1475 27.9997 0.0000 0.0000 0.0000
# 2 46.1475 119.3194 19.0626 0.0000 0.0000 0.0000
# 3 27.9997 19.0626 66.8838 0.0000 0.0000 0.0000
# 4 0.0000 0.0000 0.0000 6.5589 0.0000 0.0000
# 5 0.0000 0.0000 0.0000 0.0000 21.3798 0.0000
# 6 0.0000 0.0000 0.0000 0.0000 0.0000 37.3756
#
#
#
# Elastic Compliance Matrix: (Units=1/GPa)
#
#
# Indices 1 2 3 4 5 6 
#
# 1 0.017405 -0.005833 -0.005624 0.000000 0.000000 0.000000
# 2 -0.005833 0.010735 -0.000618 0.000000 0.000000 0.000000
# 3 -0.005624 -0.000618 0.017482 0.000000 0.000000 0.000000
# 4 0.000000 0.000000 0.000000 0.152466 0.000000 0.000000
# 5 0.000000 0.000000 0.000000 0.000000 0.046773 0.000000
# 6 0.000000 0.000000 0.000000 0.000000 0.000000 0.026755
#
#
# Mechanical properties :
#
#
# Convention : Reuss Voigt Hill
#
# Bulk Modulus (GPa) = 46.57049 50.51016 48.54033
# Shear Modulus (GPa) = 16.50586 24.72699 20.61642
#
# Velocity S-wave (km/s) = 2.88419 3.53013 3.22338
# Velocity P-wave (km/s) = 5.87894 6.48627 6.19006
#
# Compressibility (1/GPa) = 0.02147282
#
# Stress axis : x y z
#
# Youngs Moduli (GPa) = 57.45591 93.14892 57.20278
#
# Poissons Ratio (x) = 0.54333 0.32169
# Poissons Ratio (y) = 0.33514 0.03535
# Poissons Ratio (z) = 0.32311 0.05756
#
# Static dielectric constant tensor:
#      x y z
#    x 3.484830 0.000000 0.000000 
#    y 0.000000 3.810550 0.000000 
#    z 0.000000 0.000000 3.588540 
# 
# 
# High freq. dielectric constant tensor:
#      x y z
#    x 1.768770 0.000000 0.000000 
#    y 0.000000 1.793670 0.000000 
#    z 0.000000 0.000000 1.771230 
# 
# From -- ./inp_files/24265.got.cif
#   From: 2010.03.12/outbox.cif.g09.slc.cpg/sg40_13_cif.got.tgz:24265.got - 2010.04.14 01:38:03.
