data_PCOD8183214
_publ_section_title
;
Structure prediction by ZEFSAII (Michael W. Deem and Ramdas Pophale) SiO2 
 PCOD8183214
Probable space group: A M A 2
;
_chemical_formula_sum "Si O2"
_cell_formula_units_Z 64
_cell_length_a 8.690499
_cell_length_b 28.956431
_cell_length_c 12.578166
_cell_angle_alpha 90.000000
_cell_angle_beta 90.000000
_cell_angle_gamma 90.000000
_cell_volume 3165.243081
_symmetry_space_group_name_H-M "A M A 2"
_symmetry_group_IT_number 40
_symmetry_cell_setting 'orthorhombic'
loop_
_space_group_symop_operation_xyz
x,y,z
-x,-y,z
1/2-x,y,z
1/2+x,-y,z
x,1/2+y,1/2+z
-x,1/2-y,1/2+z
1/2-x,1/2+y,1/2+z
1/2+x,1/2-y,1/2+z
loop_
_atom_site_type_symbol
_atom_site_label
_atom_site_fract_x
_atom_site_fract_y
_atom_site_fract_z
Si Si1 0.069957 0.455443 0.506020
Si Si2 0.577078 0.198063 0.367176
Si Si3 0.932556 0.448934 0.137448
Si Si4 0.566525 0.598000 0.928454
Si Si5 0.428795 0.575487 0.711728
Si Si6 0.928045 0.390768 0.341891
Si Si7 0.076544 0.834376 0.140088
Si Si8 0.069384 0.204119 0.934771
O O1 0.250000 0.459226 0.510859
O O2 0.000000 0.500000 0.444455
O O3 0.001115 0.458497 0.624893
O O4 0.022244 0.409696 0.442662
O O5 0.750000 0.198436 0.410251
O O6 0.502350 0.150978 0.416262
O O7 0.573492 0.199647 0.240034
O O8 0.498918 0.246373 0.400208
O O9 0.750000 0.452806 0.129628
O O10 0.984848 0.414672 0.232863
O O11 0.000000 0.500000 0.155833
O O12 0.996185 0.426394 0.030513
O O13 0.750000 0.597038 0.934198
O O14 0.514401 0.569390 0.824542
O O15 0.250000 0.565201 0.727859
O O16 0.453853 0.625984 0.662600
O O17 0.750000 0.402595 0.360435
O O18 0.957056 0.335311 0.343610
O O19 0.250000 0.855162 0.126055
O O20 0.027838 0.806054 0.038549
O O21 0.250000 0.206665 0.961411
#
# Coordination Sequence:
#
# PCOD8183214 Si02
#       8
#     8   8   8   8   8   8   8   8
#     4  12  24  38  59  87 120 152 193 242 299 360
#     4   8  18  35  56  84 119 159 201 247 306 362
#     4  11  24  42  63  89 121 164 214 261 316 377
#     4  10  21  40  63  88 122 161 205 256 309 364
#     4  11  21  37  60  86 116 152 194 241 301 365
#     4  10  22  39  60  87 121 160 206 252 304 365
#     4  10  19  34  55  82 116 154 196 248 302 358
#     4  10  19  35  59  85 118 162 205 250 305 367
#
# _framework density 20.219615000000001
#
# number of rings (size 3 to 8) (size 9 to 14) (size 15 to 20)
#    0.000    1.750    1.250    4.500    0.000    3.500 
#    0.000    7.500    0.000    0.000    0.000    0.000 
#    0.000    0.000    0.000    0.000    0.000    0.000 
#
# Total GULP energy -396648.390886 kJ/mol
# GULP energy per Si atom -12395.262215 kJ/mol
# Density = 2.017359 g / cm^3
# Si number density = 20.219615 Si / 1000 Ang^3
#
#
#
# Elastic Constant Matrix: (Units=GPa)
#
#
# Indices 1 2 3 4 5 6 
#
# 1 87.2185 29.8934 34.3674 0.0000 0.0000 0.0000
# 2 29.8934 95.0220 35.0355 0.0000 0.0000 0.0000
# 3 34.3674 35.0355 110.9695 0.0000 0.0000 0.0000
# 4 0.0000 0.0000 0.0000 27.8197 0.0000 0.0000
# 5 0.0000 0.0000 0.0000 0.0000 28.9744 0.0000
# 6 0.0000 0.0000 0.0000 0.0000 0.0000 20.1000
#
#
#
# Elastic Compliance Matrix: (Units=1/GPa)
#
#
# Indices 1 2 3 4 5 6 
#
# 1 0.013840 -0.003139 -0.003295 0.000000 0.000000 0.000000
# 2 -0.003139 0.012622 -0.003013 0.000000 0.000000 0.000000
# 3 -0.003295 -0.003013 0.010983 0.000000 0.000000 0.000000
# 4 0.000000 0.000000 0.000000 0.035946 0.000000 0.000000
# 5 0.000000 0.000000 0.000000 0.000000 0.034513 0.000000
# 6 0.000000 0.000000 0.000000 0.000000 0.000000 0.049751
#
#
# Mechanical properties :
#
#
# Convention : Reuss Voigt Hill
#
# Bulk Modulus (GPa) = 53.90516 54.64472 54.27494
# Shear Modulus (GPa) = 27.36229 28.30642 27.83435
#
# Velocity S-wave (km/s) = 3.68265 3.74565 3.71428
# Velocity P-wave (km/s) = 6.69330 6.76689 6.73019
#
# Compressibility (1/GPa) = 0.01855110
#
# Stress axis : x y z
#
# Youngs Moduli (GPa) = 72.25588 79.22496 91.04759
#
# Poissons Ratio (x) = 0.24868 0.30001
# Poissons Ratio (y) = 0.22681 0.27433
# Poissons Ratio (z) = 0.23809 0.23870
#
# Static dielectric constant tensor:
#      x y z
#    x 3.528410 0.000000 0.000000 
#    y 0.000000 3.943130 0.000000 
#    z 0.000000 0.000000 3.736080 
# 
# 
# High freq. dielectric constant tensor:
#      x y z
#    x 1.780490 0.000000 0.000000 
#    y 0.000000 1.797270 0.000000 
#    z 0.000000 0.000000 1.788290 
# 
# From -- ./inp_files/10652.got.cif
#   From: 2010.03.12/outbox.cif.g09.slc.cpg/sg40_6_cif.got.tgz:10652.got - 2010.04.14 01:38:03.
