data_PCOD8183459
_publ_section_title
;
Structure prediction by ZEFSAII (Michael W. Deem and Ramdas Pophale) SiO2 
 PCOD8183459
Probable space group: A M A 2
;
_chemical_formula_sum "Si O2"
_cell_formula_units_Z 64
_cell_length_a 8.868190
_cell_length_b 14.671234
_cell_length_c 27.166444
_cell_angle_alpha 90.000000
_cell_angle_beta 90.000000
_cell_angle_gamma 90.000000
_cell_volume 3534.552425
_symmetry_space_group_name_H-M "A M A 2"
_symmetry_group_IT_number 40
_symmetry_cell_setting 'orthorhombic'
loop_
_space_group_symop_operation_xyz
x,y,z
-x,-y,z
1/2-x,y,z
1/2+x,-y,z
x,1/2+y,1/2+z
-x,1/2-y,1/2+z
1/2-x,1/2+y,1/2+z
1/2+x,1/2-y,1/2+z
loop_
_atom_site_type_symbol
_atom_site_label
_atom_site_fract_x
_atom_site_fract_y
_atom_site_fract_z
Si Si1 0.573573 0.592419 0.816510
Si Si2 0.924842 0.219708 0.403824
Si Si3 0.927007 0.405718 0.093230
Si Si4 0.427599 0.406392 0.255752
Si Si5 0.924997 0.906922 0.479206
Si Si6 0.929061 0.595100 0.704960
Si Si7 0.426911 0.592782 0.359663
Si Si8 0.427570 0.272544 0.168156
O O1 0.500000 0.500000 0.836384
O O2 0.750000 0.576803 0.816877
O O3 0.523420 0.673358 0.852634
O O4 0.519438 0.615062 0.761189
O O5 0.750000 0.200386 0.413706
O O6 0.958095 0.327383 0.399040
O O7 0.016694 0.180438 0.449537
O O8 0.750000 0.409417 0.104151
O O9 0.000000 0.500000 0.111832
O O10 0.002523 0.322153 0.121188
O O11 0.963855 0.390243 0.036038
O O12 0.500000 0.500000 0.235875
O O13 0.250000 0.420070 0.261937
O O14 0.499328 0.379574 0.307874
O O15 0.468227 0.327622 0.217458
O O16 0.750000 0.918057 0.469858
O O17 0.000000 0.000000 0.459703
O O18 0.750000 0.591805 0.699040
O O19 0.000000 0.500000 0.687035
O O20 0.997151 0.673605 0.670799
O O21 0.500000 0.500000 0.380617
O O22 0.250000 0.578379 0.350943
O O23 0.250000 0.262711 0.160681
#
# Coordination Sequence:
#
# PCOD8183459 Si02
#       8
#     8   8   8   8   8   8   8   8
#     4   9  18  31  47  71 102 135 169 205 248 298
#     4  10  20  33  51  75 102 134 172 211 253 301
#     4  10  21  37  56  79 106 135 166 205 255 308
#     4  10  20  32  48  73 105 138 172 210 252 301
#     4  10  21  36  55  79 106 134 165 204 252 306
#     4  10  20  35  53  73 103 140 176 216 257 299
#     4  10  20  34  51  72 101 137 175 213 253 297
#     4  11  22  34  52  78 104 135 175 214 256 306
#
# _framework density 18.106960000000001
#
# number of rings (size 3 to 8) (size 9 to 14) (size 15 to 20)
#    0.000    2.000    0.000    4.500    0.000    8.500 
#    0.000    0.000    0.000    0.750    0.000    1.750 
#    0.000    0.000    0.000    0.000    0.000    0.000 
#
# Total GULP energy -396911.465111 kJ/mol
# GULP energy per Si atom -12403.483285 kJ/mol
# Density = 1.806575 g / cm^3
# Si number density = 18.106960 Si / 1000 Ang^3
#
#
#
# Elastic Constant Matrix: (Units=GPa)
#
#
# Indices 1 2 3 4 5 6 
#
# 1 91.9979 60.1602 45.2919 0.0000 0.0000 0.0000
# 2 60.1602 141.1088 61.7875 0.0000 0.0000 0.0000
# 3 45.2919 61.7875 68.4442 0.0000 0.0000 0.0000
# 4 0.0000 0.0000 0.0000 32.1255 0.0000 0.0000
# 5 0.0000 0.0000 0.0000 0.0000 26.9875 0.0000
# 6 0.0000 0.0000 0.0000 0.0000 0.0000 33.2749
#
#
#
# Elastic Compliance Matrix: (Units=1/GPa)
#
#
# Indices 1 2 3 4 5 6 
#
# 1 0.017339 -0.003916 -0.007938 0.000000 0.000000 0.000000
# 2 -0.003916 0.012604 -0.008786 0.000000 0.000000 0.000000
# 3 -0.007938 -0.008786 0.027795 0.000000 0.000000 0.000000
# 4 0.000000 0.000000 0.000000 0.031128 0.000000 0.000000
# 5 0.000000 0.000000 0.000000 0.000000 0.037054 0.000000
# 6 0.000000 0.000000 0.000000 0.000000 0.000000 0.030053
#
#
# Mechanical properties :
#
#
# Convention : Reuss Voigt Hill
#
# Bulk Modulus (GPa) = 60.76827 70.67003 65.71915
# Shear Modulus (GPa) = 24.66211 27.43166 26.04688
#
# Velocity S-wave (km/s) = 3.69456 3.89650 3.79687
# Velocity P-wave (km/s) = 7.19954 7.70438 7.45623
#
# Compressibility (1/GPa) = 0.01645596
#
# Stress axis : x y z
#
# Youngs Moduli (GPa) = 57.67351 79.34190 35.97727
#
# Poissons Ratio (x) = 0.31073 0.28560
# Poissons Ratio (y) = 0.22587 0.31611
# Poissons Ratio (z) = 0.45784 0.69712
#
# Static dielectric constant tensor:
#      x y z
#    x 3.405860 0.000000 0.000000 
#    y 0.000000 3.374300 0.000000 
#    z 0.000000 0.000000 3.182030 
# 
# 
# High freq. dielectric constant tensor:
#      x y z
#    x 1.713930 0.000000 0.000000 
#    y 0.000000 1.703270 0.000000 
#    z 0.000000 0.000000 1.678130 
# 
# From -- ./inp_files/24307.got.cif
#   From: 2010.03.12/outbox.cif.g09.slc.cpg/sg40_13_cif.got.tgz:24307.got - 2010.04.14 01:38:03.
