data_PCOD8183508
_publ_section_title
;
Structure prediction by ZEFSAII (Michael W. Deem and Ramdas Pophale) SiO2 
 PCOD8183508
Probable space group: A M A 2
;
_chemical_formula_sum "Si O2"
_cell_formula_units_Z 56
_cell_length_a 9.112157
_cell_length_b 20.607596
_cell_length_c 14.915319
_cell_angle_alpha 90.000000
_cell_angle_beta 90.000000
_cell_angle_gamma 90.000000
_cell_volume 2800.793384
_symmetry_space_group_name_H-M "A M A 2"
_symmetry_group_IT_number 40
_symmetry_cell_setting 'orthorhombic'
loop_
_space_group_symop_operation_xyz
x,y,z
-x,-y,z
1/2-x,y,z
1/2+x,-y,z
x,1/2+y,1/2+z
-x,1/2-y,1/2+z
1/2-x,1/2+y,1/2+z
1/2+x,1/2-y,1/2+z
loop_
_atom_site_type_symbol
_atom_site_label
_atom_site_fract_x
_atom_site_fract_y
_atom_site_fract_z
Si Si1 0.415891 0.281460 0.482740
Si Si2 0.924400 0.312895 0.311508
Si Si3 0.924448 0.068686 0.284112
Si Si4 0.922632 0.697434 0.683602
Si Si5 0.414599 0.633924 0.948177
Si Si6 0.087719 0.440248 0.269387
Si Si7 0.409693 0.442187 0.064008
O O1 0.250000 0.310028 0.481680
O O2 0.521277 0.318745 0.414323
O O3 0.482416 0.286867 0.583374
O O4 0.413359 0.210395 0.439961
O O5 0.750000 0.316139 0.310307
O O6 0.983713 0.249592 0.256640
O O7 0.991560 0.375867 0.265746
O O8 0.750000 0.058577 0.289467
O O9 0.965818 0.123578 0.209687
O O10 0.983589 0.097407 0.376799
O O11 0.000000 0.000000 0.258694
O O12 0.750000 0.706750 0.682832
O O13 0.250000 0.605833 0.942603
O O14 0.490272 0.621002 0.044949
O O15 0.250000 0.431163 0.314310
O O16 0.112656 0.458700 0.166905
O O17 0.000000 0.500000 0.316725
O O18 0.500000 0.500000 0.015685
O O19 0.250000 0.434739 0.018336
#
# Coordination Sequence:
#
# PCOD8183508 Si02
#       7
#     8   8   8   8   8   8   8
#     4  10  21  38  60  86 115 153 200 249 302 363
#     4  11  21  38  62  89 119 155 197 246 304 364
#     4  11  22  39  60  84 119 161 208 256 311 369
#     4   9  20  39  62  86 119 161 202 251 310 366
#     4  11  21  34  55  84 117 151 194 245 303 365
#     4  10  21  37  57  84 116 155 196 242 296 355
#     4  10  20  33  51  77 112 149 189 232 285 348
#
# _framework density 19.994333000000001
#
# number of rings (size 3 to 8) (size 9 to 14) (size 15 to 20)
#    0.000    1.714    1.429    3.429    0.000    3.429 
#    0.000    3.571    0.000    1.714    0.000    0.000 
#    0.000    0.000    0.000    0.000    0.000    0.000 
#
# Total GULP energy -346950.891861 kJ/mol
# GULP energy per Si atom -12391.103281 kJ/mol
# Density = 1.994883 g / cm^3
# Si number density = 19.994333 Si / 1000 Ang^3
#
#
#
# Elastic Constant Matrix: (Units=GPa)
#
#
# Indices 1 2 3 4 5 6 
#
# 1 123.5156 51.1294 35.3152 0.0000 0.0000 0.0000
# 2 51.1294 118.0995 35.8320 0.0000 0.0000 0.0000
# 3 35.3152 35.8320 92.5807 0.0000 0.0000 0.0000
# 4 0.0000 0.0000 0.0000 28.0964 0.0000 0.0000
# 5 0.0000 0.0000 0.0000 0.0000 27.2383 0.0000
# 6 0.0000 0.0000 0.0000 0.0000 0.0000 31.3898
#
#
#
# Elastic Compliance Matrix: (Units=1/GPa)
#
#
# Indices 1 2 3 4 5 6 
#
# 1 0.010354 -0.003721 -0.002509 0.000000 0.000000 0.000000
# 2 -0.003721 0.010931 -0.002811 0.000000 0.000000 0.000000
# 3 -0.002509 -0.002811 0.012847 0.000000 0.000000 0.000000
# 4 0.000000 0.000000 0.000000 0.035592 0.000000 0.000000
# 5 0.000000 0.000000 0.000000 0.000000 0.036713 0.000000
# 6 0.000000 0.000000 0.000000 0.000000 0.000000 0.031857
#
#
# Mechanical properties :
#
#
# Convention : Reuss Voigt Hill
#
# Bulk Modulus (GPa) = 62.31207 64.30545 63.30876
# Shear Modulus (GPa) = 30.91615 31.47286 31.19451
#
# Velocity S-wave (km/s) = 3.93650 3.97178 3.95418
# Velocity P-wave (km/s) = 7.20374 7.29829 7.25117
#
# Compressibility (1/GPa) = 0.01604825
#
# Stress axis : x y z
#
# Youngs Moduli (GPa) = 96.58079 91.47877 77.84122
#
# Poissons Ratio (x) = 0.34042 0.19533
# Poissons Ratio (y) = 0.35940 0.21884
# Poissons Ratio (z) = 0.24235 0.25718
#
# Static dielectric constant tensor:
#      x y z
#    x 3.870010 0.000000 0.000000 
#    y 0.000000 3.672370 0.000000 
#    z 0.000000 0.000000 3.502610 
# 
# 
# High freq. dielectric constant tensor:
#      x y z
#    x 1.782450 0.000000 0.000000 
#    y 0.000000 1.778650 0.000000 
#    z 0.000000 0.000000 1.759630 
# 
# From -- ./inp_files/15264.got.cif
#   From: 2010.03.12/outbox.cif.g09.slc.cpg/sg40_8_cif.got.tgz:15264.got - 2010.04.14 01:38:03.
