data_PCOD8183300
_publ_section_title
;
Structure prediction by ZEFSAII (Michael W. Deem and Ramdas Pophale) SiO2 
 PCOD8183300
Probable space group: A M A 2
;
_chemical_formula_sum "Si O2"
_cell_formula_units_Z 64
_cell_length_a 8.912852
_cell_length_b 20.689637
_cell_length_c 19.446778
_cell_angle_alpha 90.000000
_cell_angle_beta 90.000000
_cell_angle_gamma 90.000000
_cell_volume 3586.057282
_symmetry_space_group_name_H-M "A M A 2"
_symmetry_group_IT_number 40
_symmetry_cell_setting 'orthorhombic'
loop_
_space_group_symop_operation_xyz
x,y,z
-x,-y,z
1/2-x,y,z
1/2+x,-y,z
x,1/2+y,1/2+z
-x,1/2-y,1/2+z
1/2-x,1/2+y,1/2+z
1/2+x,1/2-y,1/2+z
loop_
_atom_site_type_symbol
_atom_site_label
_atom_site_fract_x
_atom_site_fract_y
_atom_site_fract_z
Si Si1 0.926873 0.621771 0.845850
Si Si2 0.921633 0.729091 0.495572
Si Si3 0.428741 0.565870 0.714690
Si Si4 0.423614 0.315497 0.201468
Si Si5 0.926815 0.813213 0.126032
Si Si6 0.073859 0.566278 0.130483
Si Si7 0.424843 0.122113 0.486322
Si Si8 0.422065 0.256906 0.343750
O O1 0.750000 0.613032 0.838264
O O2 0.010205 0.576624 0.791357
O O3 0.978012 0.598691 0.921562
O O4 0.970748 0.695997 0.832643
O O5 0.750000 0.716836 0.515067
O O6 0.964464 0.804080 0.504827
O O7 0.956160 0.708430 0.416715
O O8 0.019181 0.685696 0.547119
O O9 0.500000 0.500000 0.685217
O O10 0.250000 0.561007 0.716096
O O11 0.486864 0.623736 0.665651
O O12 0.250000 0.326835 0.182696
O O13 0.486453 0.251201 0.164117
O O14 0.518710 0.376670 0.179224
O O15 0.446980 0.308257 0.283360
O O16 0.750000 0.813805 0.127910
O O17 0.250000 0.560741 0.138941
O O18 0.000000 0.500000 0.155420
O O19 0.028179 0.579286 0.051495
O O20 0.250000 0.115596 0.467819
O O21 0.250000 0.230797 0.343528
#
# Coordination Sequence:
#
# PCOD8183300 Si02
#       8
#     8   8   8   8   8   8   8   8
#     4  11  21  32  52  81 110 145 184 223 264 318
#     4   9  17  31  54  81 109 139 177 223 268 316
#     4  11  23  40  56  77 109 147 184 224 273 325
#     4  10  19  35  58  81 108 144 181 225 275 322
#     4  10  20  34  56  81 109 142 177 223 274 321
#     4  11  23  38  55  79 110 146 185 227 272 324
#     4   9  19  35  52  73 108 149 183 222 265 316
#     4   9  18  35  55  79 111 146 179 221 274 320
#
# _framework density 17.846897999999999
#
# number of rings (size 3 to 8) (size 9 to 14) (size 15 to 20)
#    0.000    2.000    2.500    2.625    0.000    5.000 
#    0.000    1.250    0.000    0.750    0.000    1.750 
#    0.000    0.000    0.000    0.000    0.000    0.000 
#
# Total GULP energy -396862.159948 kJ/mol
# GULP energy per Si atom -12401.942498 kJ/mol
# Density = 1.780628 g / cm^3
# Si number density = 17.846898 Si / 1000 Ang^3
#
#
#
# Elastic Constant Matrix: (Units=GPa)
#
#
# Indices 1 2 3 4 5 6 
#
# 1 58.8739 38.4199 35.8993 0.0000 0.0000 0.0000
# 2 38.4199 110.6224 58.8745 0.0000 0.0000 0.0000
# 3 35.8993 58.8745 108.9332 0.0000 0.0000 0.0000
# 4 0.0000 0.0000 0.0000 23.7076 0.0000 0.0000
# 5 0.0000 0.0000 0.0000 0.0000 30.5483 0.0000
# 6 0.0000 0.0000 0.0000 0.0000 0.0000 26.7004
#
#
#
# Elastic Compliance Matrix: (Units=1/GPa)
#
#
# Indices 1 2 3 4 5 6 
#
# 1 0.023555 -0.005685 -0.004690 0.000000 0.000000 0.000000
# 2 -0.005685 0.014062 -0.005727 0.000000 0.000000 0.000000
# 3 -0.004690 -0.005727 0.013821 0.000000 0.000000 0.000000
# 4 0.000000 0.000000 0.000000 0.042181 0.000000 0.000000
# 5 0.000000 0.000000 0.000000 0.000000 0.032735 0.000000
# 6 0.000000 0.000000 0.000000 0.000000 0.000000 0.037453
#
#
# Mechanical properties :
#
#
# Convention : Reuss Voigt Hill
#
# Bulk Modulus (GPa) = 51.98959 60.53521 56.26240
# Shear Modulus (GPa) = 24.70110 25.87365 25.28737
#
# Velocity S-wave (km/s) = 3.72433 3.81170 3.76826
# Velocity P-wave (km/s) = 6.90567 7.30513 7.10820
#
# Compressibility (1/GPa) = 0.01923462
#
# Stress axis : x y z
#
# Youngs Moduli (GPa) = 42.45367 71.11480 72.35565
#
# Poissons Ratio (x) = 0.40426 0.33937
# Poissons Ratio (y) = 0.24133 0.41435
# Poissons Ratio (z) = 0.19912 0.40724
#
# Static dielectric constant tensor:
#      x y z
#    x 3.205230 0.000000 0.000000 
#    y 0.000000 3.136360 0.000000 
#    z 0.000000 0.000000 3.449750 
# 
# 
# High freq. dielectric constant tensor:
#      x y z
#    x 1.688370 0.000000 0.000000 
#    y 0.000000 1.664810 0.000000 
#    z 0.000000 0.000000 1.694480 
# 
# From -- ./inp_files/22431.got.cif
#   From: 2010.03.12/outbox.cif.g09.slc.cpg/sg40_12_cif.got.tgz:22431.got - 2010.04.14 01:38:03.
