data_PCOD8183854
_publ_section_title
;
Structure prediction by ZEFSAII (Michael W. Deem and Ramdas Pophale) SiO2 
 PCOD8183854
Probable space group: A M A 2
;
_chemical_formula_sum "Si O2"
_cell_formula_units_Z 48
_cell_length_a 13.843502
_cell_length_b 9.353995
_cell_length_c 17.484284
_cell_angle_alpha 90.000000
_cell_angle_beta 90.000000
_cell_angle_gamma 90.000000
_cell_volume 2264.075752
_symmetry_space_group_name_H-M "A M A 2"
_symmetry_group_IT_number 40
_symmetry_cell_setting 'orthorhombic'
loop_
_space_group_symop_operation_xyz
x,y,z
-x,-y,z
1/2-x,y,z
1/2+x,-y,z
x,1/2+y,1/2+z
-x,1/2-y,1/2+z
1/2-x,1/2+y,1/2+z
1/2+x,1/2-y,1/2+z
loop_
_atom_site_type_symbol
_atom_site_label
_atom_site_fract_x
_atom_site_fract_y
_atom_site_fract_z
Si Si1 0.635589 0.642262 0.896910
Si Si2 0.022140 0.349857 0.744159
Si Si3 0.517360 0.651158 0.451188
Si Si4 0.640756 0.650010 0.300983
Si Si5 0.599500 0.426383 0.176700
Si Si6 0.354652 0.610427 0.011369
O O1 0.750000 0.666762 0.886738
O O2 0.583239 0.601592 0.818298
O O3 0.587010 0.788023 0.926961
O O4 0.610743 0.517269 0.956868
O O5 0.088080 0.241700 0.695645
O O6 0.000000 0.500000 0.700335
O O7 0.918884 0.276203 0.760696
O O8 0.500000 0.500000 0.493882
O O9 0.585201 0.614100 0.378798
O O10 0.569640 0.760387 0.508129
O O11 0.750000 0.703238 0.316984
O O12 0.647492 0.507745 0.248390
O O13 0.500000 0.500000 0.157388
O O14 0.659218 0.441789 0.098674
O O15 0.250000 0.663349 0.982370
#
# Coordination Sequence:
#
# PCOD8183854 Si02
#       6
#     8   8   8   8   8   8
#     4  10  21  37  59  85 116 155 197 236 280 339
#     4  10  21  36  57  87 120 151 188 237 291 340
#     4  11  22  36  57  86 119 152 188 238 292 341
#     4  10  20  37  59  85 117 155 196 235 279 340
#     4  10  21  38  60  85 116 155 194 234 281 339
#     4  11  23  40  62  86 113 152 196 238 285 343
#
# _framework density 21.200706
#
# number of rings (size 3 to 8) (size 9 to 14) (size 15 to 20)
#    0.000    1.667    0.000    7.000    0.000    6.667 
#    0.000    0.000    0.000    0.000    0.000    0.000 
#    0.000    0.000    0.000    0.000    0.000    0.000 
#
# Total GULP energy -297502.089438 kJ/mol
# GULP energy per Si atom -12395.920393 kJ/mol
# Density = 2.115245 g / cm^3
# Si number density = 21.200706 Si / 1000 Ang^3
#
#
#
# Elastic Constant Matrix: (Units=GPa)
#
#
# Indices 1 2 3 4 5 6 
#
# 1 135.5962 40.6023 19.5600 0.0000 0.0000 0.0000
# 2 40.6023 134.7141 28.5716 0.0000 0.0000 0.0000
# 3 19.5600 28.5716 93.1054 0.0000 0.0000 0.0000
# 4 0.0000 0.0000 0.0000 19.1771 0.0000 0.0000
# 5 0.0000 0.0000 0.0000 0.0000 39.1991 0.0000
# 6 0.0000 0.0000 0.0000 0.0000 0.0000 16.4445
#
#
#
# Elastic Compliance Matrix: (Units=1/GPa)
#
#
# Indices 1 2 3 4 5 6 
#
# 1 0.008198 -0.002252 -0.001031 0.000000 0.000000 0.000000
# 2 -0.002252 0.008559 -0.002153 0.000000 0.000000 0.000000
# 3 -0.001031 -0.002153 0.011618 0.000000 0.000000 0.000000
# 4 0.000000 0.000000 0.000000 0.052145 0.000000 0.000000
# 5 0.000000 0.000000 0.000000 0.000000 0.025511 0.000000
# 6 0.000000 0.000000 0.000000 0.000000 0.000000 0.060811
#
#
# Mechanical properties :
#
#
# Convention : Reuss Voigt Hill
#
# Bulk Modulus (GPa) = 57.13832 60.09814 58.61823
# Shear Modulus (GPa) = 27.24081 33.27627 30.25854
#
# Velocity S-wave (km/s) = 3.58844 3.96609 3.78198
# Velocity P-wave (km/s) = 6.64672 7.02723 6.83962
#
# Compressibility (1/GPa) = 0.01750139
#
# Stress axis : x y z
#
# Youngs Moduli (GPa) = 121.98169 116.84150 86.07388
#
# Poissons Ratio (x) = 0.26314 0.08875
# Poissons Ratio (y) = 0.27472 0.18534
# Poissons Ratio (z) = 0.12578 0.25159
#
# Static dielectric constant tensor:
#      x y z
#    x 3.858030 0.000000 0.000000 
#    y 0.000000 3.888620 0.000000 
#    z 0.000000 0.000000 3.604220 
# 
# 
# High freq. dielectric constant tensor:
#      x y z
#    x 1.840290 0.000000 0.000000 
#    y 0.000000 1.832700 0.000000 
#    z 0.000000 0.000000 1.809760 
# 
# From -- ./inp_files/20555.got.cif
#   From: 2010.03.12/outbox.cif.g09.slc.cpg/sg40_11_cif.got.tgz:20555.got - 2010.04.14 01:38:03.
