data_PCOD8183770
_publ_section_title
;
Structure prediction by ZEFSAII (Michael W. Deem and Ramdas Pophale) SiO2 
 PCOD8183770
Probable space group: A M A 2
;
_chemical_formula_sum "Si O2"
_cell_formula_units_Z 48
_cell_length_a 8.642133
_cell_length_b 19.000986
_cell_length_c 15.043890
_cell_angle_alpha 90.000000
_cell_angle_beta 90.000000
_cell_angle_gamma 90.000000
_cell_volume 2470.342857
_symmetry_space_group_name_H-M "A M A 2"
_symmetry_group_IT_number 40
_symmetry_cell_setting 'orthorhombic'
loop_
_space_group_symop_operation_xyz
x,y,z
-x,-y,z
1/2-x,y,z
1/2+x,-y,z
x,1/2+y,1/2+z
-x,1/2-y,1/2+z
1/2-x,1/2+y,1/2+z
1/2+x,1/2-y,1/2+z
loop_
_atom_site_type_symbol
_atom_site_label
_atom_site_fract_x
_atom_site_fract_y
_atom_site_fract_z
Si Si1 0.068970 0.927263 0.893980
Si Si2 0.568749 0.832765 0.244830
Si Si3 0.432680 0.925369 0.396764
Si Si4 0.932088 0.425533 0.087375
Si Si5 0.069340 0.330348 0.235362
Si Si6 0.066129 0.925329 0.094840
O O1 0.250000 0.937397 0.895065
O O2 0.017697 0.864802 0.828781
O O3 0.011772 0.910427 0.993765
O O4 0.000000 0.000000 0.857739
O O5 0.750000 0.846201 0.257369
O O6 0.478221 0.865768 0.327182
O O7 0.527263 0.750959 0.241876
O O8 0.510640 0.864641 0.152612
O O9 0.250000 0.931953 0.402964
O O10 0.498548 0.903916 0.492460
O O11 0.500000 0.000000 0.364422
O O12 0.750000 0.433435 0.077647
O O13 0.000000 0.500000 0.120711
O O14 0.972328 0.364421 0.156159
O O15 0.250000 0.343033 0.216474
O O16 0.250000 0.924559 0.106849
O O17 0.000000 0.000000 0.127555
#
# Coordination Sequence:
#
# PCOD8183770 Si02
#       6
#     8   8   8   8   8   8
#     4   9  19  36  58  82 108 141 182 228 275 325
#     4  11  23  38  56  82 117 153 188 231 283 337
#     4  11  22  39  62  86 113 147 191 238 286 340
#     4  11  22  38  61  87 115 148 190 237 285 337
#     4  10  22  39  57  82 117 153 187 228 281 337
#     4  10  20  36  58  83 110 144 188 234 281 334
#
# _framework density 19.430502000000001
#
# number of rings (size 3 to 8) (size 9 to 14) (size 15 to 20)
#    0.000    1.667    0.000    6.000    0.000    5.333 
#    0.000    1.667    0.000    0.000    0.000    0.000 
#    0.000    0.000    0.000    0.000    0.000    0.000 
#
# Total GULP energy -297717.972560 kJ/mol
# GULP energy per Si atom -12404.915523 kJ/mol
# Density = 1.938628 g / cm^3
# Si number density = 19.430502 Si / 1000 Ang^3
#
#
#
# Elastic Constant Matrix: (Units=GPa)
#
#
# Indices 1 2 3 4 5 6 
#
# 1 115.5521 58.3207 51.5772 0.0000 0.0000 0.0000
# 2 58.3207 145.9117 85.5940 0.0000 0.0000 0.0000
# 3 51.5772 85.5940 123.4983 0.0000 0.0000 0.0000
# 4 0.0000 0.0000 0.0000 16.5909 0.0000 0.0000
# 5 0.0000 0.0000 0.0000 0.0000 32.3223 0.0000
# 6 0.0000 0.0000 0.0000 0.0000 0.0000 30.3268
#
#
#
# Elastic Compliance Matrix: (Units=1/GPa)
#
#
# Indices 1 2 3 4 5 6 
#
# 1 0.011347 -0.002958 -0.002689 0.000000 0.000000 0.000000
# 2 -0.002958 0.012320 -0.007303 0.000000 0.000000 0.000000
# 3 -0.002689 -0.007303 0.014282 0.000000 0.000000 0.000000
# 4 0.000000 0.000000 0.000000 0.060274 0.000000 0.000000
# 5 0.000000 0.000000 0.000000 0.000000 0.030938 0.000000
# 6 0.000000 0.000000 0.000000 0.000000 0.000000 0.032974
#
#
# Mechanical properties :
#
#
# Convention : Reuss Voigt Hill
#
# Bulk Modulus (GPa) = 82.99613 86.21620 84.60616
# Shear Modulus (GPa) = 26.03449 28.47933 27.25691
#
# Velocity S-wave (km/s) = 3.66440 3.83260 3.74945
# Velocity P-wave (km/s) = 7.79172 8.00331 7.89823
#
# Compressibility (1/GPa) = 0.01204875
#
# Stress axis : x y z
#
# Youngs Moduli (GPa) = 88.12664 81.16802 70.01837
#
# Poissons Ratio (x) = 0.24012 0.18826
# Poissons Ratio (y) = 0.26070 0.51137
# Poissons Ratio (z) = 0.23695 0.59280
#
# Static dielectric constant tensor:
#      x y z
#    x 3.571400 0.000000 0.000000 
#    y 0.000000 3.446350 0.000000 
#    z 0.000000 0.000000 3.752200 
# 
# 
# High freq. dielectric constant tensor:
#      x y z
#    x 1.765440 0.000000 0.000000 
#    y 0.000000 1.752320 0.000000 
#    z 0.000000 0.000000 1.769720 
# 
# From -- ./inp_files/15041.got.cif
#   From: 2010.03.12/outbox.cif.g09.slc.cpg/sg40_8_cif.got.tgz:15041.got - 2010.04.14 01:38:03.
