data_PCOD8183920
_publ_section_title
;
Structure prediction by ZEFSAII (Michael W. Deem and Ramdas Pophale) SiO2 
 PCOD8183920
Probable space group: A M A 2
;
_chemical_formula_sum "Si O2"
_cell_formula_units_Z 48
_cell_length_a 16.797926
_cell_length_b 15.678221
_cell_length_c 8.897997
_cell_angle_alpha 90.000000
_cell_angle_beta 90.000000
_cell_angle_gamma 90.000000
_cell_volume 2343.390693
_symmetry_space_group_name_H-M "A M A 2"
_symmetry_group_IT_number 40
_symmetry_cell_setting 'orthorhombic'
loop_
_space_group_symop_operation_xyz
x,y,z
-x,-y,z
1/2-x,y,z
1/2+x,-y,z
x,1/2+y,1/2+z
-x,1/2-y,1/2+z
1/2-x,1/2+y,1/2+z
1/2+x,1/2-y,1/2+z
loop_
_atom_site_type_symbol
_atom_site_label
_atom_site_fract_x
_atom_site_fract_y
_atom_site_fract_z
Si Si1 0.114607 0.682102 0.222760
Si Si2 0.661016 0.671041 0.918025
Si Si3 0.432470 0.066512 0.968756
Si Si4 0.946055 0.261853 0.647604
Si Si5 0.339284 0.653450 0.891281
Si Si6 0.094965 0.991679 0.263884
O O1 0.169054 0.744062 0.320512
O O2 0.112442 0.592191 0.314962
O O3 0.026159 0.718524 0.203046
O O4 0.158036 0.673524 0.065984
O O5 0.750000 0.643669 0.969748
O O6 0.621177 0.602242 0.807889
O O7 0.604795 0.689676 0.060546
O O8 0.464710 0.154824 0.045575
O O9 0.377376 0.018446 0.093839
O O10 0.500000 0.000000 0.920540
O O11 0.898108 0.287173 0.796937
O O12 0.250000 0.667546 0.830730
O O13 0.364208 0.554957 0.880844
O O14 0.000000 0.000000 0.269371
#
# Coordination Sequence:
#
# PCOD8183920 Si02
#       6
#     8   8   8   8   8   8
#     4  11  21  36  59  86 116 153 195 243 293 358
#     4  11  22  38  59  87 117 152 198 251 301 350
#     4   9  19  35  56  83 111 145 193 242 287 343
#     4  10  21  38  61  83 113 156 200 242 292 358
#     4  11  22  37  56  85 119 151 189 246 303 348
#     4  10  20  38  60  82 112 153 199 242 291 359
#
# _framework density 20.483139000000001
#
# number of rings (size 3 to 8) (size 9 to 14) (size 15 to 20)
#    0.000    1.667    0.000    7.500    0.000    2.000 
#    0.000    2.500    0.000    0.000    0.000    2.333 
#    0.000    0.000    0.000    0.000    0.000    0.000 
#
# Total GULP energy -297518.892012 kJ/mol
# GULP energy per Si atom -12396.620500 kJ/mol
# Density = 2.043652 g / cm^3
# Si number density = 20.483139 Si / 1000 Ang^3
#
#
#
# Elastic Constant Matrix: (Units=GPa)
#
#
# Indices 1 2 3 4 5 6 
#
# 1 97.8851 19.2018 9.0311 0.0000 0.0000 0.0000
# 2 19.2018 86.4243 23.4910 0.0000 0.0000 0.0000
# 3 9.0311 23.4910 84.5173 0.0000 0.0000 0.0000
# 4 0.0000 0.0000 0.0000 41.2554 0.0000 0.0000
# 5 0.0000 0.0000 0.0000 0.0000 23.8782 0.0000
# 6 0.0000 0.0000 0.0000 0.0000 0.0000 22.3798
#
#
#
# Elastic Compliance Matrix: (Units=1/GPa)
#
#
# Indices 1 2 3 4 5 6 
#
# 1 0.010703 -0.002236 -0.000522 0.000000 0.000000 0.000000
# 2 -0.002236 0.012984 -0.003370 0.000000 0.000000 0.000000
# 3 -0.000522 -0.003370 0.012824 0.000000 0.000000 0.000000
# 4 0.000000 0.000000 0.000000 0.024239 0.000000 0.000000
# 5 0.000000 0.000000 0.000000 0.000000 0.041879 0.000000
# 6 0.000000 0.000000 0.000000 0.000000 0.000000 0.044683
#
#
# Mechanical properties :
#
#
# Convention : Reuss Voigt Hill
#
# Bulk Modulus (GPa) = 41.22894 41.36382 41.29638
# Shear Modulus (GPa) = 29.82346 31.97619 30.89982
#
# Velocity S-wave (km/s) = 3.81990 3.95536 3.88822
# Velocity P-wave (km/s) = 6.29503 6.41075 6.35316
#
# Compressibility (1/GPa) = 0.02425481
#
# Stress axis : x y z
#
# Youngs Moduli (GPa) = 93.43289 77.02045 77.97695
#
# Poissons Ratio (x) = 0.17222 0.04072
# Poissons Ratio (y) = 0.20892 0.26276
# Poissons Ratio (z) = 0.04879 0.25954
#
# Static dielectric constant tensor:
#      x y z
#    x 3.844550 0.000000 0.000000 
#    y 0.000000 3.798130 0.000000 
#    z 0.000000 0.000000 3.901220 
# 
# 
# High freq. dielectric constant tensor:
#      x y z
#    x 1.788360 0.000000 0.000000 
#    y 0.000000 1.799610 0.000000 
#    z 0.000000 0.000000 1.806380 
# 
# From -- ./inp_files/7433.got.cif
#   From: 2010.03.12/outbox.cif.g09.slc.cpg/sg40_4_cif.got.tgz:7433.got - 2010.04.14 01:38:03.
