data_PCOD8183749
_publ_section_title
;
Structure prediction by ZEFSAII (Michael W. Deem and Ramdas Pophale) SiO2 
 PCOD8183749
Probable space group: A M A 2
;
_chemical_formula_sum "Si O2"
_cell_formula_units_Z 64
_cell_length_a 8.746969
_cell_length_b 19.665902
_cell_length_c 19.977867
_cell_angle_alpha 90.000000
_cell_angle_beta 90.000000
_cell_angle_gamma 90.000000
_cell_volume 3436.533450
_symmetry_space_group_name_H-M "A M A 2"
_symmetry_group_IT_number 40
_symmetry_cell_setting 'orthorhombic'
loop_
_space_group_symop_operation_xyz
x,y,z
-x,-y,z
1/2-x,y,z
1/2+x,-y,z
x,1/2+y,1/2+z
-x,1/2-y,1/2+z
1/2-x,1/2+y,1/2+z
1/2+x,1/2-y,1/2+z
loop_
_atom_site_type_symbol
_atom_site_label
_atom_site_fract_x
_atom_site_fract_y
_atom_site_fract_z
Si Si1 0.073326 0.827021 0.388670
Si Si2 0.071488 0.328855 0.531595
Si Si3 0.569358 0.072040 0.784847
Si Si4 0.430553 0.070888 0.135167
Si Si5 0.568860 0.428186 0.143480
Si Si6 0.928563 0.430050 0.789025
Si Si7 0.928082 0.831382 0.892139
Si Si8 0.426858 0.672065 0.026463
O O1 0.250000 0.843582 0.380264
O O2 0.036998 0.747644 0.380039
O O3 0.983534 0.866089 0.331281
O O4 0.021150 0.851747 0.461801
O O5 0.250000 0.343906 0.521933
O O6 0.038940 0.249789 0.545247
O O7 0.006865 0.368034 0.595142
O O8 0.982340 0.353687 0.465712
O O9 0.750000 0.064771 0.778652
O O10 0.501030 0.095352 0.713902
O O11 0.527204 0.128291 0.838763
O O12 0.500000 0.000000 0.807393
O O13 0.250000 0.070522 0.123825
O O14 0.476453 0.082355 0.212283
O O15 0.500000 0.000000 0.108963
O O16 0.500000 0.500000 0.120632
O O17 0.750000 0.434422 0.151002
O O18 0.519704 0.372824 0.088933
O O19 0.750000 0.437550 0.796847
O O20 0.000000 0.500000 0.816532
O O21 0.750000 0.848701 0.883962
O O22 0.250000 0.660545 0.009575
#
# Coordination Sequence:
#
# PCOD8183749 Si02
#       8
#     8   8   8   8   8   8   8   8
#     4  10  21  36  57  82 110 143 180 223 271 319
#     4  10  20  36  57  81 108 141 179 222 269 318
#     4  11  22  37  57  81 109 142 179 223 270 320
#     4  10  21  37  56  80 108 141 178 220 267 318
#     4  10  20  36  56  80 109 143 180 221 267 317
#     4  10  21  37  57  80 110 144 182 225 269 319
#     4  10  21  38  57  80 110 143 180 223 267 319
#     4   9  20  37  56  78 109 145 181 221 267 318
#
# _framework density 18.623417
#
# number of rings (size 3 to 8) (size 9 to 14) (size 15 to 20)
#    0.000    2.000    0.000    4.125    0.000    6.500 
#    0.000    7.500    0.000    0.000    0.000    0.000 
#    0.000    0.000    0.000    0.000    0.000    0.000 
#
# Total GULP energy -396956.837167 kJ/mol
# GULP energy per Si atom -12404.901161 kJ/mol
# Density = 1.858103 g / cm^3
# Si number density = 18.623417 Si / 1000 Ang^3
#
#
#
# Elastic Constant Matrix: (Units=GPa)
#
#
# Indices 1 2 3 4 5 6 
#
# 1 90.0010 41.8773 48.0722 0.0000 0.0000 0.0000
# 2 41.8773 83.7682 70.2524 0.0000 0.0000 0.0000
# 3 48.0722 70.2524 110.9820 0.0000 0.0000 0.0000
# 4 0.0000 0.0000 0.0000 30.4215 0.0000 0.0000
# 5 0.0000 0.0000 0.0000 0.0000 34.0677 0.0000
# 6 0.0000 0.0000 0.0000 0.0000 0.0000 33.6105
#
#
#
# Elastic Compliance Matrix: (Units=1/GPa)
#
#
# Indices 1 2 3 4 5 6 
#
# 1 0.015187 -0.004424 -0.003778 0.000000 0.000000 0.000000
# 2 -0.004424 0.026735 -0.015007 0.000000 0.000000 0.000000
# 3 -0.003778 -0.015007 0.020147 0.000000 0.000000 0.000000
# 4 0.000000 0.000000 0.000000 0.032871 0.000000 0.000000
# 5 0.000000 0.000000 0.000000 0.000000 0.029353 0.000000
# 6 0.000000 0.000000 0.000000 0.000000 0.000000 0.029753
#
#
# Mechanical properties :
#
#
# Convention : Reuss Voigt Hill
#
# Bulk Modulus (GPa) = 63.89534 67.23947 65.56740
# Shear Modulus (GPa) = 24.30928 27.92324 26.11626
#
# Velocity S-wave (km/s) = 3.61682 3.87636 3.74884
# Velocity P-wave (km/s) = 7.19899 7.49787 7.34995
#
# Compressibility (1/GPa) = 0.01565059
#
# Stress axis : x y z
#
# Youngs Moduli (GPa) = 65.84386 37.40360 49.63579
#
# Poissons Ratio (x) = 0.16547 0.18753
# Poissons Ratio (y) = 0.29129 0.74491
# Poissons Ratio (z) = 0.24876 0.56133
#
# Static dielectric constant tensor:
#      x y z
#    x 3.546860 0.000000 0.000000 
#    y 0.000000 3.418420 0.000000 
#    z 0.000000 0.000000 3.460090 
# 
# 
# High freq. dielectric constant tensor:
#      x y z
#    x 1.739070 0.000000 0.000000 
#    y 0.000000 1.722800 0.000000 
#    z 0.000000 0.000000 1.726640 
# 
# From -- ./inp_files/19577.got.cif
#   From: 2010.03.12/outbox.cif.g09.slc.cpg/sg40_10_cif.got.tgz:19577.got - 2010.04.14 01:38:03.
