data_PCOD8183384
_publ_section_title
;
Structure prediction by ZEFSAII (Michael W. Deem and Ramdas Pophale) SiO2 
 PCOD8183384
Probable space group: A M A 2
;
_chemical_formula_sum "Si O2"
_cell_formula_units_Z 56
_cell_length_a 20.103173
_cell_length_b 13.716456
_cell_length_c 9.586906
_cell_angle_alpha 90.000000
_cell_angle_beta 90.000000
_cell_angle_gamma 90.000000
_cell_volume 2643.534568
_symmetry_space_group_name_H-M "A M A 2"
_symmetry_group_IT_number 40
_symmetry_cell_setting 'orthorhombic'
loop_
_space_group_symop_operation_xyz
x,y,z
-x,-y,z
1/2-x,y,z
1/2+x,-y,z
x,1/2+y,1/2+z
-x,1/2-y,1/2+z
1/2-x,1/2+y,1/2+z
1/2+x,1/2-y,1/2+z
loop_
_atom_site_type_symbol
_atom_site_label
_atom_site_fract_x
_atom_site_fract_y
_atom_site_fract_z
Si Si1 0.577277 0.773509 0.221260
Si Si2 0.825207 0.789126 0.974111
Si Si3 0.821879 0.865932 0.418660
Si Si4 0.175599 0.580652 0.213000
Si Si5 0.960827 0.094127 0.293595
Si Si6 0.177517 0.413031 0.827904
Si Si7 0.562320 0.063361 0.623864
O O1 0.618200 0.803659 0.357651
O O2 0.503179 0.816021 0.237319
O O3 0.564600 0.659803 0.216079
O O4 0.620742 0.813949 0.092209
O O5 0.750000 0.817500 0.021608
O O6 0.847982 0.854935 0.843829
O O7 0.826683 0.673650 0.942002
O O8 0.750000 0.834331 0.355339
O O9 0.823153 0.844249 0.583262
O O10 0.831596 0.982495 0.401920
O O11 0.250000 0.538323 0.238841
O O12 0.128135 0.492277 0.172072
O O13 0.886360 0.098344 0.224358
O O14 0.946239 0.090981 0.460345
O O15 0.000000 0.000000 0.242290
O O16 0.250000 0.407228 0.751334
O O17 0.500000 0.000000 0.672639
#
# Coordination Sequence:
#
# PCOD8183384 Si02
#       7
#     8   8   8   8   8   8   8
#     4  12  23  39  64  95 128 167 207 281 321 380
#     4  10  22  40  66  99 131 167 210 265 335 388
#     4  10  19  36  66  99 126 166 217 259 308 381
#     4  10  21  42  69  95 128 169 216 261 312 388
#     4  11  21  40  62  94 124 165 221 261 315 386
#     4  10  19  38  65  93 127 171 217 257 309 393
#     4  11  24  40  62  89 126 172 219 259 313 381
#
# _framework density 21.183758000000001
#
# number of rings (size 3 to 8) (size 9 to 14) (size 15 to 20)
#    0.000    1.429    4.286    1.286    2.000    1.143 
#    0.000    3.571    0.000    3.429    0.000    0.000 
#    0.000    0.000    0.000    0.000    0.000    0.000 
#
# Total GULP energy -346877.263258 kJ/mol
# GULP energy per Si atom -12388.473688 kJ/mol
# Density = 2.113554 g / cm^3
# Si number density = 21.183758 Si / 1000 Ang^3
#
#
#
# Elastic Constant Matrix: (Units=GPa)
#
#
# Indices 1 2 3 4 5 6 
#
# 1 204.9562 56.9745 48.9785 0.0000 0.0000 0.0000
# 2 56.9745 108.0877 41.5862 0.0000 0.0000 0.0000
# 3 48.9785 41.5862 72.1503 0.0000 0.0000 0.0000
# 4 0.0000 0.0000 0.0000 21.0446 0.0000 0.0000
# 5 0.0000 0.0000 0.0000 0.0000 28.8677 0.0000
# 6 0.0000 0.0000 0.0000 0.0000 0.0000 36.6137
#
#
#
# Elastic Compliance Matrix: (Units=1/GPa)
#
#
# Indices 1 2 3 4 5 6 
#
# 1 0.006177 -0.002111 -0.002977 0.000000 0.000000 0.000000
# 2 -0.002111 0.012609 -0.005835 0.000000 0.000000 0.000000
# 3 -0.002977 -0.005835 0.019244 0.000000 0.000000 0.000000
# 4 0.000000 0.000000 0.000000 0.047518 0.000000 0.000000
# 5 0.000000 0.000000 0.000000 0.000000 0.034641 0.000000
# 6 0.000000 0.000000 0.000000 0.000000 0.000000 0.027312
#
#
# Mechanical properties :
#
#
# Convention : Reuss Voigt Hill
#
# Bulk Modulus (GPa) = 61.78366 75.58586 68.68476
# Shear Modulus (GPa) = 28.61369 33.14887 30.88128
#
# Velocity S-wave (km/s) = 3.67923 3.96008 3.82223
# Velocity P-wave (km/s) = 6.87589 7.52782 7.20923
#
# Compressibility (1/GPa) = 0.01618551
#
# Stress axis : x y z
#
# Youngs Moduli (GPa) = 161.88550 79.30623 51.96479
#
# Poissons Ratio (x) = 0.16740 0.15468
# Poissons Ratio (y) = 0.34171 0.30321
# Poissons Ratio (z) = 0.48188 0.46274
#
# Static dielectric constant tensor:
#      x y z
#    x 4.597380 0.000000 0.000000 
#    y 0.000000 3.697690 0.000000 
#    z 0.000000 0.000000 3.465930 
# 
# 
# High freq. dielectric constant tensor:
#      x y z
#    x 1.865860 0.000000 0.000000 
#    y 0.000000 1.822030 0.000000 
#    z 0.000000 0.000000 1.784630 
# 
# From -- ./inp_files/8341.got.cif
#   From: 2010.03.12/outbox.cif.g09.slc.cpg/sg40_5_cif.got.tgz:8341.got - 2010.04.14 01:38:03.
