data_PCOD8183238
_publ_section_title
;
Structure prediction by ZEFSAII (Michael W. Deem and Ramdas Pophale) SiO2 
 PCOD8183238
Probable space group: A M A 2
;
_chemical_formula_sum "Si O2"
_cell_formula_units_Z 64
_cell_length_a 8.945524
_cell_length_b 33.028143
_cell_length_c 11.640334
_cell_angle_alpha 90.000000
_cell_angle_beta 90.000000
_cell_angle_gamma 90.000000
_cell_volume 3439.183776
_symmetry_space_group_name_H-M "A M A 2"
_symmetry_group_IT_number 40
_symmetry_cell_setting 'orthorhombic'
loop_
_space_group_symop_operation_xyz
x,y,z
-x,-y,z
1/2-x,y,z
1/2+x,-y,z
x,1/2+y,1/2+z
-x,1/2-y,1/2+z
1/2-x,1/2+y,1/2+z
1/2+x,1/2-y,1/2+z
loop_
_atom_site_type_symbol
_atom_site_label
_atom_site_fract_x
_atom_site_fract_y
_atom_site_fract_z
Si Si1 0.073788 0.041111 0.662430
Si Si2 0.927194 0.374701 0.540210
Si Si3 0.584212 0.675144 0.116267
Si Si4 0.077555 0.810119 0.878877
Si Si5 0.425895 0.854570 0.281640
Si Si6 0.076295 0.608942 0.989483
Si Si7 0.583303 0.728132 0.908989
Si Si8 0.426373 0.542284 0.422874
O O1 0.250000 0.037035 0.658648
O O2 0.016035 0.072547 0.567937
O O3 0.022934 0.052634 0.792132
O O4 0.000000 0.000000 0.622520
O O5 0.750000 0.372758 0.550305
O O6 0.978669 0.419952 0.501907
O O7 0.978001 0.341972 0.447170
O O8 0.998033 0.362687 0.660671
O O9 0.750000 0.654783 0.103967
O O10 0.544995 0.683740 0.246079
O O11 0.452035 0.648106 0.066637
O O12 0.585126 0.716309 0.043109
O O13 0.250000 0.816516 0.912546
O O14 0.034209 0.764030 0.902493
O O15 0.250000 0.859718 0.268612
O O16 0.484954 0.888458 0.370767
O O17 0.467075 0.809800 0.328892
O O18 0.250000 0.604998 0.959524
O O19 0.750000 0.742211 0.871423
O O20 0.500000 0.500000 0.464949
O O21 0.250000 0.536237 0.430596
#
# Coordination Sequence:
#
# PCOD8183238 Si02
#       8
#     8   8   8   8   8   8   8   8
#     4   9  18  32  53  83 115 143 179 225 278 337
#     4  11  23  39  59  84 115 152 193 237 289 346
#     4   9  20  37  54  76 107 142 181 226 274 326
#     4  11  23  36  55  84 113 145 188 234 280 334
#     4  10  22  40  59  81 111 148 192 237 284 339
#     4  10  19  34  57  82 108 142 183 226 276 335
#     4   9  20  38  56  77 107 144 183 232 286 334
#     4   9  19  36  58  85 116 150 187 233 287 341
#
# _framework density 18.609068000000001
#
# number of rings (size 3 to 8) (size 9 to 14) (size 15 to 20)
#    0.000    2.250    0.000    3.000    1.750    6.500 
#    0.000    3.125    0.000    0.000    0.000    0.000 
#    0.000    0.000    0.000    0.000    0.000    0.000 
#
# Total GULP energy -396714.638937 kJ/mol
# GULP energy per Si atom -12397.332467 kJ/mol
# Density = 1.856671 g / cm^3
# Si number density = 18.609068 Si / 1000 Ang^3
#
#
#
# Elastic Constant Matrix: (Units=GPa)
#
#
# Indices 1 2 3 4 5 6 
#
# 1 59.2969 40.9416 45.2363 0.0000 0.0000 0.0000
# 2 40.9416 104.7643 64.3553 0.0000 0.0000 0.0000
# 3 45.2363 64.3553 135.1859 0.0000 0.0000 0.0000
# 4 0.0000 0.0000 0.0000 8.8706 0.0000 0.0000
# 5 0.0000 0.0000 0.0000 0.0000 24.7692 0.0000
# 6 0.0000 0.0000 0.0000 0.0000 0.0000 33.2581
#
#
#
# Elastic Compliance Matrix: (Units=1/GPa)
#
#
# Indices 1 2 3 4 5 6 
#
# 1 0.025589 -0.006699 -0.005374 0.000000 0.000000 0.000000
# 2 -0.006699 0.015244 -0.005015 0.000000 0.000000 0.000000
# 3 -0.005374 -0.005015 0.011583 0.000000 0.000000 0.000000
# 4 0.000000 0.000000 0.000000 0.112732 0.000000 0.000000
# 5 0.000000 0.000000 0.000000 0.000000 0.040373 0.000000
# 6 0.000000 0.000000 0.000000 0.000000 0.000000 0.030068
#
#
# Mechanical properties :
#
#
# Convention : Reuss Voigt Hill
#
# Bulk Modulus (GPa) = 54.82452 66.70148 60.76300
# Shear Modulus (GPa) = 18.12614 23.29383 20.70999
#
# Velocity S-wave (km/s) = 3.12436 3.54184 3.33963
# Velocity P-wave (km/s) = 6.52232 7.25586 6.89885
#
# Compressibility (1/GPa) = 0.01824001
#
# Stress axis : x y z
#
# Youngs Moduli (GPa) = 39.07901 65.59923 86.33477
#
# Poissons Ratio (x) = 0.43947 0.46392
# Poissons Ratio (y) = 0.26180 0.43299
# Poissons Ratio (z) = 0.20999 0.32899
#
# Static dielectric constant tensor:
#      x y z
#    x 3.523860 0.000000 0.000000 
#    y 0.000000 3.409760 0.000000 
#    z 0.000000 0.000000 3.599070 
# 
# 
# High freq. dielectric constant tensor:
#      x y z
#    x 1.726330 0.000000 0.000000 
#    y 0.000000 1.714900 0.000000 
#    z 0.000000 0.000000 1.726440 
# 
# From -- ./inp_files/10570.got.cif
#   From: 2010.03.12/outbox.cif.g09.slc.cpg/sg40_6_cif.got.tgz:10570.got - 2010.04.14 01:38:03.
