data_PCOD8183581
_publ_section_title
;
Structure prediction by ZEFSAII (Michael W. Deem and Ramdas Pophale) SiO2 
 PCOD8183581
Probable space group: A M A 2
;
_chemical_formula_sum "Si O2"
_cell_formula_units_Z 64
_cell_length_a 8.614939
_cell_length_b 20.554009
_cell_length_c 19.309443
_cell_angle_alpha 90.000000
_cell_angle_beta 90.000000
_cell_angle_gamma 90.000000
_cell_volume 3419.152688
_symmetry_space_group_name_H-M "A M A 2"
_symmetry_group_IT_number 40
_symmetry_cell_setting 'orthorhombic'
loop_
_space_group_symop_operation_xyz
x,y,z
-x,-y,z
1/2-x,y,z
1/2+x,-y,z
x,1/2+y,1/2+z
-x,1/2-y,1/2+z
1/2-x,1/2+y,1/2+z
1/2+x,1/2-y,1/2+z
loop_
_atom_site_type_symbol
_atom_site_label
_atom_site_fract_x
_atom_site_fract_y
_atom_site_fract_z
Si Si1 0.930220 0.184214 0.091800
Si Si2 0.429460 0.568994 0.096504
Si Si3 0.928481 0.267294 0.301875
Si Si4 0.570147 0.692783 0.166009
Si Si5 0.572299 0.369271 0.952849
Si Si6 0.569572 0.768878 0.957828
Si Si7 0.069970 0.384173 0.811845
Si Si8 0.432349 0.066309 0.173901
O O1 0.750000 0.169453 0.103103
O O2 0.969980 0.252620 0.127293
O O3 0.027526 0.126317 0.124846
O O4 0.969281 0.187590 0.010272
O O5 0.500000 0.500000 0.117243
O O6 0.250000 0.572252 0.118307
O O7 0.523702 0.622475 0.138875
O O8 0.450254 0.579498 0.014441
O O9 0.750000 0.283175 0.285327
O O10 0.971744 0.290228 0.379518
O O11 0.960573 0.190869 0.293591
O O12 0.036905 0.305313 0.248182
O O13 0.750000 0.706236 0.151538
O O14 0.750000 0.345729 0.947282
O O15 0.465829 0.307081 0.968571
O O16 0.520181 0.403835 0.881824
O O17 0.750000 0.779474 0.973967
O O18 0.250000 0.398486 0.823715
O O19 0.006932 0.427130 0.749566
O O20 0.250000 0.061339 0.181688
O O21 0.500000 0.000000 0.140643
#
# Coordination Sequence:
#
# PCOD8183581 Si02
#       8
#     8   8   8   8   8   8   8   8
#     4  12  23  38  60  87 119 153 194 242 292 344
#     4  11  24  40  58  82 116 155 196 242 292 346
#     4   9  19  35  57  85 119 151 188 238 290 339
#     4  12  23  36  60  88 116 152 196 241 289 345
#     4  10  20  34  54  81 116 157 197 238 286 343
#     4  10  20  35  58  87 117 151 193 240 291 344
#     4  10  20  35  56  82 117 156 195 239 285 340
#     4  12  25  41  60  84 116 155 198 242 293 351
#
# _framework density 18.718088999999999
#
# number of rings (size 3 to 8) (size 9 to 14) (size 15 to 20)
#    0.000    1.250    2.500    5.625    0.000    4.500 
#    0.000    1.250    0.000    0.750    0.000    0.000 
#    0.000    0.000    0.000    0.000    0.000    0.000 
#
# Total GULP energy -396968.403400 kJ/mol
# GULP energy per Si atom -12405.262606 kJ/mol
# Density = 1.867549 g / cm^3
# Si number density = 18.718089 Si / 1000 Ang^3
#
#
#
# Elastic Constant Matrix: (Units=GPa)
#
#
# Indices 1 2 3 4 5 6 
#
# 1 77.7581 15.9144 30.8979 0.0000 0.0000 0.0000
# 2 15.9144 81.5483 35.0248 0.0000 0.0000 0.0000
# 3 30.8979 35.0248 95.0214 0.0000 0.0000 0.0000
# 4 0.0000 0.0000 0.0000 25.0625 0.0000 0.0000
# 5 0.0000 0.0000 0.0000 0.0000 32.9364 0.0000
# 6 0.0000 0.0000 0.0000 0.0000 0.0000 29.5049
#
#
#
# Elastic Compliance Matrix: (Units=1/GPa)
#
#
# Indices 1 2 3 4 5 6 
#
# 1 0.014834 -0.000978 -0.004463 0.000000 0.000000 0.000000
# 2 -0.000978 0.014634 -0.005076 0.000000 0.000000 0.000000
# 3 -0.004463 -0.005076 0.013846 0.000000 0.000000 0.000000
# 4 0.000000 0.000000 0.000000 0.039900 0.000000 0.000000
# 5 0.000000 0.000000 0.000000 0.000000 0.030362 0.000000
# 6 0.000000 0.000000 0.000000 0.000000 0.000000 0.033893
#
#
# Mechanical properties :
#
#
# Convention : Reuss Voigt Hill
#
# Bulk Modulus (GPa) = 44.88366 46.44465 45.66415
# Shear Modulus (GPa) = 28.42059 29.00015 28.71037
#
# Velocity S-wave (km/s) = 3.90083 3.94040 3.92066
# Velocity P-wave (km/s) = 6.65728 6.75047 6.70404
#
# Compressibility (1/GPa) = 0.02227982
#
# Stress axis : x y z
#
# Youngs Moduli (GPa) = 67.41270 68.33572 72.22224
#
# Poissons Ratio (x) = 0.06683 0.32233
# Poissons Ratio (y) = 0.06593 0.36659
# Poissons Ratio (z) = 0.30086 0.34687
#
# Static dielectric constant tensor:
#      x y z
#    x 3.534520 0.000000 0.000000 
#    y 0.000000 3.066410 0.000000 
#    z 0.000000 0.000000 3.637030 
# 
# 
# High freq. dielectric constant tensor:
#      x y z
#    x 1.742190 0.000000 0.000000 
#    y 0.000000 1.698160 0.000000 
#    z 0.000000 0.000000 1.731310 
# 
# From -- ./inp_files/22439.got.cif
#   From: 2010.03.12/outbox.cif.g09.slc.cpg/sg40_12_cif.got.tgz:22439.got - 2010.04.14 01:38:03.
