data_PCOD8183255
_publ_section_title
;
Structure prediction by ZEFSAII (Michael W. Deem and Ramdas Pophale) SiO2 
 PCOD8183255
Probable space group: A M A 2
;
_chemical_formula_sum "Si O2"
_cell_formula_units_Z 64
_cell_length_a 9.130162
_cell_length_b 28.152101
_cell_length_c 12.446827
_cell_angle_alpha 90.000000
_cell_angle_beta 90.000000
_cell_angle_gamma 90.000000
_cell_volume 3199.248306
_symmetry_space_group_name_H-M "A M A 2"
_symmetry_group_IT_number 40
_symmetry_cell_setting 'orthorhombic'
loop_
_space_group_symop_operation_xyz
x,y,z
-x,-y,z
1/2-x,y,z
1/2+x,-y,z
x,1/2+y,1/2+z
-x,1/2-y,1/2+z
1/2-x,1/2+y,1/2+z
1/2+x,1/2-y,1/2+z
loop_
_atom_site_type_symbol
_atom_site_label
_atom_site_fract_x
_atom_site_fract_y
_atom_site_fract_z
Si Si1 0.083887 0.455622 0.452150
Si Si2 0.412263 0.200396 0.328843
Si Si3 0.075714 0.449727 0.094541
Si Si4 0.422535 0.592755 0.886844
Si Si5 0.583119 0.579005 0.678981
Si Si6 0.079050 0.379462 0.288634
Si Si7 0.912847 0.834399 0.101234
Si Si8 0.080853 0.207053 0.872586
O O1 0.250000 0.461655 0.414865
O O2 0.066345 0.457869 0.581031
O O3 0.026172 0.407233 0.396649
O O4 0.000000 0.500000 0.401400
O O5 0.250000 0.212610 0.372741
O O6 0.459080 0.148539 0.373750
O O7 0.410912 0.202250 0.199834
O O8 0.526684 0.239191 0.366707
O O9 0.250000 0.457104 0.083785
O O10 0.036228 0.411536 0.186384
O O11 0.000000 0.500000 0.121666
O O12 0.011164 0.429028 0.984792
O O13 0.250000 0.583243 0.900265
O O14 0.477581 0.565908 0.778449
O O15 0.750000 0.581790 0.720255
O O16 0.539488 0.628348 0.624407
O O17 0.250000 0.367962 0.289345
O O18 0.997166 0.328793 0.288673
O O19 0.750000 0.858408 0.092745
O O20 0.953716 0.806939 0.994143
O O21 0.250000 0.205890 0.843136
#
# Coordination Sequence:
#
# PCOD8183255 Si02
#       8
#     8   8   8   8   8   8   8   8
#     4  10  21  35  55  84 115 148 186 233 289 349
#     4   9  20  38  58  82 116 159 200 248 310 367
#     4  11  24  42  66  91 122 165 211 260 313 372
#     4  10  22  41  63  87 121 159 202 253 307 363
#     4  10  19  34  58  85 113 148 192 238 292 357
#     4  10  22  41  60  84 119 158 200 248 305 364
#     4   9  19  36  55  78 111 151 191 239 299 354
#     4  11  22  35  58  89 118 154 204 255 306 368
#
# _framework density 20.004698000000001
#
# number of rings (size 3 to 8) (size 9 to 14) (size 15 to 20)
#    0.000    2.000    1.250    2.625    0.000    7.000 
#    0.000    5.000    0.000    0.000    0.000    0.000 
#    0.000    0.000    0.000    0.000    0.000    0.000 
#
# Total GULP energy -396709.090778 kJ/mol
# GULP energy per Si atom -12397.159087 kJ/mol
# Density = 1.995917 g / cm^3
# Si number density = 20.004698 Si / 1000 Ang^3
#
#
#
# Elastic Constant Matrix: (Units=GPa)
#
#
# Indices 1 2 3 4 5 6 
#
# 1 82.7212 30.7077 29.3075 0.0000 0.0000 0.0000
# 2 30.7077 59.3293 7.2391 0.0000 0.0000 0.0000
# 3 29.3075 7.2391 80.1453 0.0000 0.0000 0.0000
# 4 0.0000 0.0000 0.0000 21.5366 0.0000 0.0000
# 5 0.0000 0.0000 0.0000 0.0000 29.4361 0.0000
# 6 0.0000 0.0000 0.0000 0.0000 0.0000 38.3655
#
#
#
# Elastic Compliance Matrix: (Units=1/GPa)
#
#
# Indices 1 2 3 4 5 6 
#
# 1 0.017069 -0.008163 -0.005505 0.000000 0.000000 0.000000
# 2 -0.008163 0.020947 0.001093 0.000000 0.000000 0.000000
# 3 -0.005505 0.001093 0.014392 0.000000 0.000000 0.000000
# 4 0.000000 0.000000 0.000000 0.046433 0.000000 0.000000
# 5 0.000000 0.000000 0.000000 0.000000 0.033972 0.000000
# 6 0.000000 0.000000 0.000000 0.000000 0.000000 0.026065
#
#
# Mechanical properties :
#
#
# Convention : Reuss Voigt Hill
#
# Bulk Modulus (GPa) = 36.68597 39.63384 38.15991
# Shear Modulus (GPa) = 25.89164 28.19707 27.04436
#
# Velocity S-wave (km/s) = 3.60151 3.75843 3.68081
# Velocity P-wave (km/s) = 5.97269 6.22011 6.09765
#
# Compressibility (1/GPa) = 0.02725838
#
# Stress axis : x y z
#
# Youngs Moduli (GPa) = 58.58456 47.74006 69.48533
#
# Poissons Ratio (x) = 0.38971 0.38249
# Poissons Ratio (y) = 0.47823 -0.07595
# Poissons Ratio (z) = 0.32248 -0.05218
#
# Static dielectric constant tensor:
#      x y z
#    x 3.659460 0.000000 0.000000 
#    y 0.000000 3.465870 0.000000 
#    z 0.000000 0.000000 3.761120 
# 
# 
# High freq. dielectric constant tensor:
#      x y z
#    x 1.785210 0.000000 0.000000 
#    y 0.000000 1.770410 0.000000 
#    z 0.000000 0.000000 1.784300 
# 
# From -- ./inp_files/10640.got.cif
#   From: 2010.03.12/outbox.cif.g09.slc.cpg/sg40_6_cif.got.tgz:10640.got - 2010.04.14 01:38:03.
