data_PCOD8183514
_publ_section_title
;
Structure prediction by ZEFSAII (Michael W. Deem and Ramdas Pophale) SiO2 
 PCOD8183514
Probable space group: A M A 2
;
_chemical_formula_sum "Si O2"
_cell_formula_units_Z 56
_cell_length_a 8.883081
_cell_length_b 23.653835
_cell_length_c 13.677652
_cell_angle_alpha 90.000000
_cell_angle_beta 90.000000
_cell_angle_gamma 90.000000
_cell_volume 2873.933634
_symmetry_space_group_name_H-M "A M A 2"
_symmetry_group_IT_number 40
_symmetry_cell_setting 'orthorhombic'
loop_
_space_group_symop_operation_xyz
x,y,z
-x,-y,z
1/2-x,y,z
1/2+x,-y,z
x,1/2+y,1/2+z
-x,1/2-y,1/2+z
1/2-x,1/2+y,1/2+z
1/2+x,1/2-y,1/2+z
loop_
_atom_site_type_symbol
_atom_site_label
_atom_site_fract_x
_atom_site_fract_y
_atom_site_fract_z
Si Si1 0.427932 0.170681 0.260990
Si Si2 0.426774 0.732089 0.377663
Si Si3 0.925794 0.942701 0.586097
Si Si4 0.575744 0.882610 0.776713
Si Si5 0.426971 0.557963 0.867590
Si Si6 0.074520 0.442249 0.450352
Si Si7 0.927070 0.172180 0.054463
O O1 0.250000 0.175821 0.243703
O O2 0.479427 0.213713 0.344658
O O3 0.474965 0.108176 0.295828
O O4 0.518045 0.184653 0.163166
O O5 0.250000 0.745886 0.381272
O O6 0.464215 0.681943 0.301348
O O7 0.483800 0.715012 0.484747
O O8 0.750000 0.953647 0.582527
O O9 0.965618 0.892944 0.662890
O O10 0.984999 0.927121 0.477509
O O11 0.000000 0.000000 0.624742
O O12 0.750000 0.895030 0.798487
O O13 0.482296 0.925956 0.842763
O O14 0.500000 0.500000 0.829107
O O15 0.250000 0.549479 0.867333
O O16 0.250000 0.452747 0.444221
O O17 0.033263 0.392364 0.526129
O O18 0.000000 0.500000 0.488445
O O19 0.750000 0.184269 0.045395
#
# Coordination Sequence:
#
# PCOD8183514 Si02
#       7
#     8   8   8   8   8   8   8
#     4  11  23  39  60  85 112 146 185 228 280 338
#     4  10  21  38  59  84 113 146 184 229 279 335
#     4   9  17  31  50  75 106 141 178 218 266 319
#     4   9  18  32  52  78 110 146 183 223 272 329
#     4   9  20  37  56  79 110 145 183 228 275 326
#     4  10  20  33  52  78 110 147 186 230 281 333
#     4  10  22  40  59  81 111 147 187 234 282 332
#
# _framework density 19.485489000000001
#
# number of rings (size 3 to 8) (size 9 to 14) (size 15 to 20)
#    0.000    2.286    0.000    2.143    0.000    6.857 
#    0.000    5.714    0.000    0.000    0.000    0.000 
#    0.000    0.000    0.000    0.000    0.000    0.000 
#
# Total GULP energy -347259.393324 kJ/mol
# GULP energy per Si atom -12402.121190 kJ/mol
# Density = 1.944114 g / cm^3
# Si number density = 19.485489 Si / 1000 Ang^3
#
#
#
# Elastic Constant Matrix: (Units=GPa)
#
#
# Indices 1 2 3 4 5 6 
#
# 1 49.1091 30.3950 21.9277 0.0000 0.0000 0.0000
# 2 30.3950 98.3768 40.0012 0.0000 0.0000 0.0000
# 3 21.9277 40.0012 91.6975 0.0000 0.0000 0.0000
# 4 0.0000 0.0000 0.0000 23.2580 0.0000 0.0000
# 5 0.0000 0.0000 0.0000 0.0000 27.0422 0.0000
# 6 0.0000 0.0000 0.0000 0.0000 0.0000 33.1385
#
#
#
# Elastic Compliance Matrix: (Units=1/GPa)
#
#
# Indices 1 2 3 4 5 6 
#
# 1 0.025971 -0.006685 -0.003294 0.000000 0.000000 0.000000
# 2 -0.006685 0.014077 -0.004542 0.000000 0.000000 0.000000
# 3 -0.003294 -0.004542 0.013675 0.000000 0.000000 0.000000
# 4 0.000000 0.000000 0.000000 0.042996 0.000000 0.000000
# 5 0.000000 0.000000 0.000000 0.000000 0.036979 0.000000
# 6 0.000000 0.000000 0.000000 0.000000 0.000000 0.030176
#
#
# Mechanical properties :
#
#
# Convention : Reuss Voigt Hill
#
# Bulk Modulus (GPa) = 40.51832 47.09234 43.80533
# Shear Modulus (GPa) = 24.85772 26.47836 25.66804
#
# Velocity S-wave (km/s) = 3.57557 3.69029 3.63339
# Velocity P-wave (km/s) = 6.15512 6.50984 6.33497
#
# Compressibility (1/GPa) = 0.02468019
#
# Stress axis : x y z
#
# Youngs Moduli (GPa) = 38.50424 71.03615 73.12729
#
# Poissons Ratio (x) = 0.47485 0.24092
# Poissons Ratio (y) = 0.25739 0.33218
# Poissons Ratio (z) = 0.12685 0.32268
#
# Static dielectric constant tensor:
#      x y z
#    x 3.515580 0.000000 0.000000 
#    y 0.000000 3.588620 0.000000 
#    z 0.000000 0.000000 3.594540 
# 
# 
# High freq. dielectric constant tensor:
#      x y z
#    x 1.761200 0.000000 0.000000 
#    y 0.000000 1.755350 0.000000 
#    z 0.000000 0.000000 1.756920 
# 
# From -- ./inp_files/15295.got.cif
#   From: 2010.03.12/outbox.cif.g09.slc.cpg/sg40_8_cif.got.tgz:15295.got - 2010.04.14 01:38:03.
