data_PCOD8183163
_publ_section_title
;
Structure prediction by ZEFSAII (Michael W. Deem and Ramdas Pophale) SiO2 
 PCOD8183163
Probable space group: A M A 2
;
_chemical_formula_sum "Si O2"
_cell_formula_units_Z 28
_cell_length_a 5.370458
_cell_length_b 28.058324
_cell_length_c 8.503741
_cell_angle_alpha 90.000000
_cell_angle_beta 90.000000
_cell_angle_gamma 90.000000
_cell_volume 1281.395147
_symmetry_space_group_name_H-M "A M A 2"
_symmetry_group_IT_number 40
_symmetry_cell_setting 'orthorhombic'
loop_
_space_group_symop_operation_xyz
x,y,z
-x,-y,z
1/2-x,y,z
1/2+x,-y,z
x,1/2+y,1/2+z
-x,1/2-y,1/2+z
1/2-x,1/2+y,1/2+z
1/2+x,1/2-y,1/2+z
loop_
_atom_site_type_symbol
_atom_site_label
_atom_site_fract_x
_atom_site_fract_y
_atom_site_fract_z
Si Si1 0.750000 0.129486 0.118320
Si Si2 0.750000 0.908767 0.624449
Si Si3 0.250000 0.261689 0.721495
Si Si4 0.750000 0.000762 0.844325
Si Si5 0.250000 0.723284 0.887165
Si Si6 0.250000 0.114497 0.283872
Si Si7 0.250000 0.894125 0.756831
O O1 0.750000 0.184471 0.161163
O O2 0.499493 0.103953 0.183079
O O3 0.750000 0.125484 0.931993
O O4 0.750000 0.919113 0.437855
O O5 0.503177 0.877484 0.668682
O O6 0.750000 0.957983 0.720373
O O7 0.499752 0.251179 0.821938
O O8 0.250000 0.226298 0.574640
O O9 0.750000 0.048715 0.744129
O O10 0.500000 0.000000 0.951781
O O11 0.250000 0.668507 0.841649
#
# Coordination Sequence:
#
# PCOD8183163 Si02
#       7
#     4   4   4   4   4   4   4
#     4  10  21  36  53  78 110 140 171 216 269 313
#     4  10  19  33  56  78 101 136 177 217 256 310
#     4  10  21  36  54  77 108 141 176 217 260 310
#     4   8  16  30  50  72  98 126 166 214 254 292
#     4  10  21  36  54  77 108 141 176 217 260 310
#     4  10  21  36  53  78 110 140 171 216 269 313
#     4  10  19  33  56  78 101 136 177 217 256 310
#
# _framework density 21.851182000000001
#
# number of rings (size 3 to 8) (size 9 to 14) (size 15 to 20)
#    0.000    2.286    0.000    2.571    0.000    2.286 
#    0.000    0.000    0.000   46.286    0.000    0.000 
#    0.000    0.000    0.000    0.000    0.000    0.000 
#
# Total GULP energy -173443.066552 kJ/mol
# GULP energy per Si atom -12388.790468 kJ/mol
# Density = 2.180145 g / cm^3
# Si number density = 21.851182 Si / 1000 Ang^3
#
#
#
# Elastic Constant Matrix: (Units=GPa)
#
#
# Indices 1 2 3 4 5 6 
#
# 1 259.6971 5.0938 27.6852 0.0000 0.0000 0.0000
# 2 5.0938 4.1755 -2.9252 0.0000 0.0000 0.0000
# 3 27.6852 -2.9252 65.0501 0.0000 0.0000 0.0000
# 4 0.0000 0.0000 0.0000 19.2770 0.0000 0.0000
# 5 0.0000 0.0000 0.0000 0.0000 43.4210 0.0000
# 6 0.0000 0.0000 0.0000 0.0000 0.0000 7.0324
#
#
#
# Elastic Compliance Matrix: (Units=1/GPa)
#
#
# Indices 1 2 3 4 5 6 
#
# 1 0.004202 -0.006587 -0.002085 0.000000 0.000000 0.000000
# 2 -0.006587 0.257605 0.014387 0.000000 0.000000 0.000000
# 3 -0.002085 0.014387 0.016907 0.000000 0.000000 0.000000
# 4 0.000000 0.000000 0.000000 0.051875 0.000000 0.000000
# 5 0.000000 0.000000 0.000000 0.000000 0.023030 0.000000
# 6 0.000000 0.000000 0.000000 0.000000 0.000000 0.142200
#
#
# Mechanical properties :
#
#
# Convention : Reuss Voigt Hill
#
# Bulk Modulus (GPa) = 3.44653 43.18116 23.31385
# Shear Modulus (GPa) = 8.60433 33.88399 21.24416
#
# Velocity S-wave (km/s) = 1.98652 3.94213 3.12143
# Velocity P-wave (km/s) = 2.61579 6.36591 4.86658
#
# Compressibility (1/GPa) = 0.29014677
#
# Stress axis : x y z
#
# Youngs Moduli (GPa) = 237.97860 3.88191 59.14734
#
# Poissons Ratio (x) = 0.02557 0.12330
# Poissons Ratio (y) = 1.56746 -0.85098
# Poissons Ratio (z) = 0.49608 -0.05585
#
# Static dielectric constant tensor:
#      x y z
#    x 5.506080 0.000000 0.000000 
#    y 0.000000 3.537290 0.000000 
#    z 0.000000 0.000000 3.704530 
# 
# 
# High freq. dielectric constant tensor:
#      x y z
#    x 1.904540 0.000000 0.000000 
#    y 0.000000 1.826510 0.000000 
#    z 0.000000 0.000000 1.834900 
# 
# From -- ./inp_files/3703.got.cif
#   From: 2010.03.12/outbox.cif.g09.slc.cpg/sg40_2_cif.got.tgz:3703.got - 2010.04.14 01:38:03.
