data_PCOD8183533
_publ_section_title
;
Structure prediction by ZEFSAII (Michael W. Deem and Ramdas Pophale) SiO2 
 PCOD8183533
Probable space group: A M A 2
;
_chemical_formula_sum "Si O2"
_cell_formula_units_Z 56
_cell_length_a 8.986943
_cell_length_b 14.456205
_cell_length_c 21.883869
_cell_angle_alpha 90.000000
_cell_angle_beta 90.000000
_cell_angle_gamma 90.000000
_cell_volume 2843.088586
_symmetry_space_group_name_H-M "A M A 2"
_symmetry_group_IT_number 40
_symmetry_cell_setting 'orthorhombic'
loop_
_space_group_symop_operation_xyz
x,y,z
-x,-y,z
1/2-x,y,z
1/2+x,-y,z
x,1/2+y,1/2+z
-x,1/2-y,1/2+z
1/2-x,1/2+y,1/2+z
1/2+x,1/2-y,1/2+z
loop_
_atom_site_type_symbol
_atom_site_label
_atom_site_fract_x
_atom_site_fract_y
_atom_site_fract_z
Si Si1 0.077455 0.790297 0.816840
Si Si2 0.422797 0.590838 0.984133
Si Si3 0.574497 0.777652 0.591709
Si Si4 0.422558 0.090476 0.346048
Si Si5 0.925264 0.404695 0.556378
Si Si6 0.923280 0.906438 0.914936
Si Si7 0.073444 0.900069 0.695139
O O1 0.250000 0.802896 0.833660
O O2 0.040802 0.681586 0.806134
O O3 0.032776 0.846575 0.757095
O O4 0.983574 0.822359 0.875020
O O5 0.500000 0.500000 0.012423
O O6 0.250000 0.569462 0.985436
O O7 0.460281 0.679853 0.025087
O O8 0.480177 0.608864 0.915278
O O9 0.750000 0.769556 0.604469
O O10 0.499203 0.677158 0.595430
O O11 0.499035 0.843677 0.640655
O O12 0.250000 0.068329 0.346237
O O13 0.500000 0.000000 0.317113
O O14 0.750000 0.408560 0.569391
O O15 0.961596 0.387233 0.485363
O O16 0.000000 0.500000 0.578329
O O17 0.750000 0.918401 0.903874
O O18 0.000000 0.000000 0.891650
O O19 0.250000 0.908735 0.685381
O O20 0.000000 0.000000 0.698730
#
# Coordination Sequence:
#
# PCOD8183533 Si02
#       7
#     8   8   8   8   8   8   8
#     4  10  21  37  57  79 109 149 190 233 281 331
#     4   9  18  31  51  79 110 141 175 217 269 327
#     4  11  22  37  58  82 109 147 189 230 279 334
#     4   9  18  34  54  79 109 140 175 219 269 323
#     4  10  21  37  57  84 116 148 183 228 279 334
#     4  10  20  33  54  84 116 148 183 226 278 334
#     4  11  24  41  59  81 110 145 186 233 281 333
#
# _framework density 19.696888000000001
#
# number of rings (size 3 to 8) (size 9 to 14) (size 15 to 20)
#    0.000    2.000    0.000    3.429    0.000    8.000 
#    0.000    3.571    0.000    1.714    0.000    0.000 
#    0.000    0.000    0.000    0.000    0.000    0.000 
#
# Total GULP energy -347265.621447 kJ/mol
# GULP energy per Si atom -12402.343623 kJ/mol
# Density = 1.965206 g / cm^3
# Si number density = 19.696888 Si / 1000 Ang^3
#
#
#
# Elastic Constant Matrix: (Units=GPa)
#
#
# Indices 1 2 3 4 5 6 
#
# 1 82.5599 68.6289 39.9395 0.0000 0.0000 0.0000
# 2 68.6289 177.9913 57.3264 0.0000 0.0000 0.0000
# 3 39.9395 57.3264 59.7940 0.0000 0.0000 0.0000
# 4 0.0000 0.0000 0.0000 32.1073 0.0000 0.0000
# 5 0.0000 0.0000 0.0000 0.0000 3.4526 0.0000
# 6 0.0000 0.0000 0.0000 0.0000 0.0000 40.9142
#
#
#
# Elastic Compliance Matrix: (Units=1/GPa)
#
#
# Indices 1 2 3 4 5 6 
#
# 1 0.020661 -0.005095 -0.008916 0.000000 0.000000 0.000000
# 2 -0.005095 0.009384 -0.005594 0.000000 0.000000 0.000000
# 3 -0.008916 -0.005594 0.028043 0.000000 0.000000 0.000000
# 4 0.000000 0.000000 0.000000 0.031146 0.000000 0.000000
# 5 0.000000 0.000000 0.000000 0.000000 0.289635 0.000000
# 6 0.000000 0.000000 0.000000 0.000000 0.000000 0.024441
#
#
# Mechanical properties :
#
#
# Convention : Reuss Voigt Hill
#
# Bulk Modulus (GPa) = 52.97060 72.45941 62.71501
# Shear Modulus (GPa) = 11.14053 25.59151 18.36602
#
# Velocity S-wave (km/s) = 2.38081 3.60844 3.05689
# Velocity P-wave (km/s) = 5.87443 7.36398 6.66098
#
# Compressibility (1/GPa) = 0.01887840
#
# Stress axis : x y z
#
# Youngs Moduli (GPa) = 48.40143 106.56086 35.65994
#
# Poissons Ratio (x) = 0.54289 0.31794
# Poissons Ratio (y) = 0.24659 0.19948
# Poissons Ratio (z) = 0.43154 0.59611
#
# Static dielectric constant tensor:
#      x y z
#    x 3.599460 0.000000 0.000000 
#    y 0.000000 3.835370 0.000000 
#    z 0.000000 0.000000 3.473960 
# 
# 
# High freq. dielectric constant tensor:
#      x y z
#    x 1.771660 0.000000 0.000000 
#    y 0.000000 1.782140 0.000000 
#    z 0.000000 0.000000 1.745050 
# 
# From -- ./inp_files/22138.got.cif
#   From: 2010.03.12/outbox.cif.g09.slc.cpg/sg40_12_cif.got.tgz:22138.got - 2010.04.14 01:38:03.
