data_PCOD8183404
_publ_section_title
;
Structure prediction by ZEFSAII (Michael W. Deem and Ramdas Pophale) SiO2 
 PCOD8183404
Probable space group: A M A 2
;
_chemical_formula_sum "Si O2"
_cell_formula_units_Z 64
_cell_length_a 8.914550
_cell_length_b 30.596078
_cell_length_c 11.825560
_cell_angle_alpha 90.000000
_cell_angle_beta 90.000000
_cell_angle_gamma 90.000000
_cell_volume 3225.424649
_symmetry_space_group_name_H-M "A M A 2"
_symmetry_group_IT_number 40
_symmetry_cell_setting 'orthorhombic'
loop_
_space_group_symop_operation_xyz
x,y,z
-x,-y,z
1/2-x,y,z
1/2+x,-y,z
x,1/2+y,1/2+z
-x,1/2-y,1/2+z
1/2-x,1/2+y,1/2+z
1/2+x,1/2-y,1/2+z
loop_
_atom_site_type_symbol
_atom_site_label
_atom_site_fract_x
_atom_site_fract_y
_atom_site_fract_z
Si Si1 0.923370 0.203396 0.600310
Si Si2 0.572849 0.044664 0.073326
Si Si3 0.922006 0.567830 0.321847
Si Si4 0.572172 0.127330 0.218589
Si Si5 0.575358 0.802918 0.063190
Si Si6 0.419548 0.331055 0.342261
Si Si7 0.926117 0.956957 0.599115
Si Si8 0.572694 0.372143 0.962510
O O1 0.750000 0.193336 0.571816
O O2 0.969702 0.252369 0.569541
O O3 0.954415 0.198203 0.733336
O O4 0.026436 0.171585 0.527348
O O5 0.750000 0.040475 0.080802
O O6 0.515984 0.084720 0.150181
O O7 0.500000 0.000000 0.118854
O O8 0.520325 0.053493 0.945143
O O9 0.750000 0.553687 0.302386
O O10 0.941138 0.619248 0.306269
O O11 0.025606 0.544658 0.229961
O O12 0.750000 0.128755 0.225577
O O13 0.517430 0.170848 0.156365
O O14 0.505186 0.125686 0.342346
O O15 0.750000 0.810118 0.087672
O O16 0.537478 0.819231 0.938183
O O17 0.250000 0.323356 0.387499
O O18 0.750000 0.961669 0.590949
O O19 0.982974 0.914141 0.533240
O O20 0.000000 0.000000 0.542716
O O21 0.750000 0.372129 0.946057
#
# Coordination Sequence:
#
# PCOD8183404 Si02
#       8
#     8   8   8   8   8   8   8   8
#     4  10  23  42  64  92 125 165 206 249 306 365
#     4  10  22  39  60  89 120 156 201 248 303 364
#     4  10  19  37  63  90 122 158 202 248 299 362
#     4  11  24  44  65  87 121 165 208 250 309 371
#     4  11  24  40  62  96 128 159 207 256 304 360
#     4  10  20  39  65  90 124 166 204 247 305 365
#     4  11  24  40  61  91 124 159 202 249 305 364
#     4  11  25  43  63  91 123 158 207 259 306 359
#
# _framework density 19.842347
#
# number of rings (size 3 to 8) (size 9 to 14) (size 15 to 20)
#    0.000    1.500    2.500    1.875    1.750    6.500 
#    0.000    2.500    0.000    0.000    0.000    0.000 
#    0.000    0.000    0.000    0.000    0.000    0.000 
#
# Total GULP energy -396975.780268 kJ/mol
# GULP energy per Si atom -12405.493133 kJ/mol
# Density = 1.979718 g / cm^3
# Si number density = 19.842347 Si / 1000 Ang^3
#
#
#
# Elastic Constant Matrix: (Units=GPa)
#
#
# Indices 1 2 3 4 5 6 
#
# 1 66.1066 51.9311 43.1540 0.0000 0.0000 0.0000
# 2 51.9311 126.0862 56.8263 0.0000 0.0000 0.0000
# 3 43.1540 56.8263 108.4684 0.0000 0.0000 0.0000
# 4 0.0000 0.0000 0.0000 15.5503 0.0000 0.0000
# 5 0.0000 0.0000 0.0000 0.0000 29.1088 0.0000
# 6 0.0000 0.0000 0.0000 0.0000 0.0000 34.1857
#
#
#
# Elastic Compliance Matrix: (Units=1/GPa)
#
#
# Indices 1 2 3 4 5 6 
#
# 1 0.024993 -0.007609 -0.005957 0.000000 0.000000 0.000000
# 2 -0.007609 0.012699 -0.003626 0.000000 0.000000 0.000000
# 3 -0.005957 -0.003626 0.013489 0.000000 0.000000 0.000000
# 4 0.000000 0.000000 0.000000 0.064307 0.000000 0.000000
# 5 0.000000 0.000000 0.000000 0.000000 0.034354 0.000000
# 6 0.000000 0.000000 0.000000 0.000000 0.000000 0.029252
#
#
# Mechanical properties :
#
#
# Convention : Reuss Voigt Hill
#
# Bulk Modulus (GPa) = 59.53364 67.16490 63.34927
# Shear Modulus (GPa) = 22.82293 25.68561 24.25427
#
# Velocity S-wave (km/s) = 3.39516 3.60180 3.50000
# Velocity P-wave (km/s) = 6.74077 7.15682 6.95190
#
# Compressibility (1/GPa) = 0.01679723
#
# Stress axis : x y z
#
# Youngs Moduli (GPa) = 40.01054 78.74518 74.13530
#
# Poissons Ratio (x) = 0.59919 0.44164
# Poissons Ratio (y) = 0.30445 0.26880
# Poissons Ratio (z) = 0.23835 0.28551
#
# Static dielectric constant tensor:
#      x y z
#    x 3.548320 0.000000 0.000000 
#    y 0.000000 3.859740 0.000000 
#    z 0.000000 0.000000 3.612290 
# 
# 
# High freq. dielectric constant tensor:
#      x y z
#    x 1.771160 0.000000 0.000000 
#    y 0.000000 1.790130 0.000000 
#    z 0.000000 0.000000 1.775680 
# 
# From -- ./inp_files/10552.got.cif
#   From: 2010.03.12/outbox.cif.g09.slc.cpg/sg40_6_cif.got.tgz:10552.got - 2010.04.14 01:38:03.
