data_PCOD8183490
_publ_section_title
;
Structure prediction by ZEFSAII (Michael W. Deem and Ramdas Pophale) SiO2 
 PCOD8183490
Probable space group: A M A 2
;
_chemical_formula_sum "Si O2"
_cell_formula_units_Z 64
_cell_length_a 8.909105
_cell_length_b 23.015895
_cell_length_c 18.912497
_cell_angle_alpha 90.000000
_cell_angle_beta 90.000000
_cell_angle_gamma 90.000000
_cell_volume 3878.026899
_symmetry_space_group_name_H-M "A M A 2"
_symmetry_group_IT_number 40
_symmetry_cell_setting 'orthorhombic'
loop_
_space_group_symop_operation_xyz
x,y,z
-x,-y,z
1/2-x,y,z
1/2+x,-y,z
x,1/2+y,1/2+z
-x,1/2-y,1/2+z
1/2-x,1/2+y,1/2+z
1/2+x,1/2-y,1/2+z
loop_
_atom_site_type_symbol
_atom_site_label
_atom_site_fract_x
_atom_site_fract_y
_atom_site_fract_z
Si Si1 0.077669 0.342631 0.022380
Si Si2 0.425948 0.061665 0.605806
Si Si3 0.075880 0.940557 0.885836
Si Si4 0.923512 0.775520 0.097488
Si Si5 0.572182 0.381358 0.252531
Si Si6 0.575786 0.728556 0.888318
Si Si7 0.076998 0.829072 0.973924
Si Si8 0.925210 0.243842 0.752327
O O1 0.250000 0.359586 0.035771
O O2 0.031272 0.288753 0.071922
O O3 0.974413 0.397024 0.041217
O O4 0.049381 0.325572 0.940732
O O5 0.250000 0.053361 0.603958
O O6 0.480148 0.089572 0.679373
O O7 0.500000 0.000000 0.594353
O O8 0.250000 0.951018 0.869509
O O9 0.053119 0.895082 0.949520
O O10 0.999254 0.918840 0.814480
O O11 0.000000 0.000000 0.911313
O O12 0.750000 0.787563 0.079915
O O13 0.957895 0.779694 0.180753
O O14 0.022025 0.822882 0.055172
O O15 0.750000 0.381266 0.260999
O O16 0.514525 0.315973 0.254479
O O17 0.750000 0.736111 0.869970
O O18 0.521072 0.788202 0.923632
O O19 0.482569 0.716302 0.816897
O O20 0.250000 0.810230 0.967685
O O21 0.750000 0.229536 0.760068
#
# Coordination Sequence:
#
# PCOD8183490 Si02
#       8
#     8   8   8   8   8   8   8   8
#     4   9  18  34  51  70  98 131 166 207 250 296
#     4  11  23  35  50  72  98 134 175 211 250 295
#     4  11  23  36  51  72  99 136 175 213 251 294
#     4   9  19  33  51  73 100 133 165 204 255 300
#     4  11  22  34  49  72 101 137 175 210 247 294
#     4  10  20  33  51  74 101 133 166 204 255 303
#     4  10  20  33  50  73  99 130 169 211 252 295
#     4  11  20  32  51  76 104 136 169 206 251 302
#
# _framework density 16.503239000000001
#
# number of rings (size 3 to 8) (size 9 to 14) (size 15 to 20)
#    0.000    1.750    2.500    3.375    0.000    7.500 
#    0.000    0.000    0.000    0.000    0.000    0.875 
#    0.000    4.000    0.000    0.000    0.000    0.000 
#
# Total GULP energy -396896.347758 kJ/mol
# GULP energy per Si atom -12403.010867 kJ/mol
# Density = 1.646568 g / cm^3
# Si number density = 16.503239 Si / 1000 Ang^3
#
#
#
# Elastic Constant Matrix: (Units=GPa)
#
#
# Indices 1 2 3 4 5 6 
#
# 1 74.5789 41.5616 45.3429 0.0000 0.0000 0.0000
# 2 41.5616 78.1927 49.1456 0.0000 0.0000 0.0000
# 3 45.3429 49.1456 110.0390 0.0000 0.0000 0.0000
# 4 0.0000 0.0000 0.0000 19.2438 0.0000 0.0000
# 5 0.0000 0.0000 0.0000 0.0000 29.5796 0.0000
# 6 0.0000 0.0000 0.0000 0.0000 0.0000 27.0785
#
#
#
# Elastic Compliance Matrix: (Units=1/GPa)
#
#
# Indices 1 2 3 4 5 6 
#
# 1 0.020912 -0.007923 -0.005078 0.000000 0.000000 0.000000
# 2 -0.007923 0.020782 -0.006017 0.000000 0.000000 0.000000
# 3 -0.005078 -0.006017 0.013867 0.000000 0.000000 0.000000
# 4 0.000000 0.000000 0.000000 0.051965 0.000000 0.000000
# 5 0.000000 0.000000 0.000000 0.000000 0.033807 0.000000
# 6 0.000000 0.000000 0.000000 0.000000 0.000000 0.036930
#
#
# Mechanical properties :
#
#
# Convention : Reuss Voigt Hill
#
# Bulk Modulus (GPa) = 57.06296 59.43454 58.24875
# Shear Modulus (GPa) = 22.50825 23.63108 23.06966
#
# Velocity S-wave (km/s) = 3.69707 3.78816 3.74289
# Velocity P-wave (km/s) = 7.27161 7.43139 7.35193
#
# Compressibility (1/GPa) = 0.01752450
#
# Stress axis : x y z
#
# Youngs Moduli (GPa) = 47.82025 48.11837 72.11153
#
# Poissons Ratio (x) = 0.38126 0.36619
# Poissons Ratio (y) = 0.37890 0.43388
# Poissons Ratio (z) = 0.24284 0.28952
#
# Static dielectric constant tensor:
#      x y z
#    x 3.244390 0.000000 0.000000 
#    y 0.000000 2.965280 0.000000 
#    z 0.000000 0.000000 3.357180 
# 
# 
# High freq. dielectric constant tensor:
#      x y z
#    x 1.651460 0.000000 0.000000 
#    y 0.000000 1.604470 0.000000 
#    z 0.000000 0.000000 1.633610 
# 
# From -- ./inp_files/19735.got.cif
#   From: 2010.03.12/outbox.cif.g09.slc.cpg/sg40_10_cif.got.tgz:19735.got - 2010.04.14 01:38:03.
