data_PCOD8183203
_publ_section_title
;
Structure prediction by ZEFSAII (Michael W. Deem and Ramdas Pophale) SiO2 
 PCOD8183203
Probable space group: A M A 2
;
_chemical_formula_sum "Si O2"
_cell_formula_units_Z 64
_cell_length_a 33.054472
_cell_length_b 11.395153
_cell_length_c 8.535046
_cell_angle_alpha 90.000000
_cell_angle_beta 90.000000
_cell_angle_gamma 90.000000
_cell_volume 3214.816962
_symmetry_space_group_name_H-M "A M A 2"
_symmetry_group_IT_number 40
_symmetry_cell_setting 'orthorhombic'
loop_
_space_group_symop_operation_xyz
x,y,z
-x,-y,z
1/2-x,y,z
1/2+x,-y,z
x,1/2+y,1/2+z
-x,1/2-y,1/2+z
1/2-x,1/2+y,1/2+z
1/2+x,1/2-y,1/2+z
loop_
_atom_site_type_symbol
_atom_site_label
_atom_site_fract_x
_atom_site_fract_y
_atom_site_fract_z
Si Si1 0.794965 0.358290 0.522050
Si Si2 0.110781 0.882948 0.076845
Si Si3 0.856087 0.971591 0.806478
Si Si4 0.520783 0.623592 0.702566
Si Si5 0.705369 0.589959 0.097833
Si Si6 0.009871 0.127854 0.541375
Si Si7 0.664485 0.494675 0.798053
Si Si8 0.603137 0.370511 0.004559
O O1 0.750000 0.405563 0.479906
O O2 0.825423 0.375897 0.377376
O O3 0.793266 0.223042 0.553585
O O4 0.809675 0.418103 0.680247
O O5 0.067131 0.887088 0.155470
O O6 0.118148 0.761701 0.990370
O O7 0.146513 0.893429 0.205689
O O8 0.114881 0.982333 0.943970
O O9 0.885183 0.919156 0.675293
O O10 0.827423 0.072501 0.734383
O O11 0.500000 0.500000 0.644336
O O12 0.502493 0.749615 0.637517
O O13 0.518827 0.633714 0.889667
O O14 0.750000 0.546834 0.151354
O O15 0.693446 0.519848 0.942358
O O16 0.055516 0.119937 0.481046
O O17 0.000000 0.000000 0.627747
O O18 0.623833 0.432446 0.858533
#
# Coordination Sequence:
#
# PCOD8183203 Si02
#       8
#     8   8   8   8   8   8   8   8
#     4  10  20  34  53  78 107 140 178 219 265 316
#     4  10  21  37  56  80 109 141 180 222 268 322
#     4  10  21  36  55  78 106 140 178 220 267 316
#     4  10  22  39  58  83 113 145 183 227 276 330
#     4  10  20  34  53  78 107 140 178 219 265 316
#     4  10  22  39  58  83 113 145 183 227 276 330
#     4  10  19  34  55  78 108 142 178 220 267 314
#     4  10  21  37  56  80 109 141 180 222 268 322
#
# _framework density 19.907820000000001
#
# number of rings (size 3 to 8) (size 9 to 14) (size 15 to 20)
#    0.000    2.000    0.000    3.750    0.000    4.500 
#    0.000    6.250    0.000   12.000    0.000    0.000 
#    0.000    0.000    0.000    0.000    0.000    0.000 
#
# Total GULP energy -396548.010597 kJ/mol
# GULP energy per Si atom -12392.125331 kJ/mol
# Density = 1.986251 g / cm^3
# Si number density = 19.907820 Si / 1000 Ang^3
#
#
#
# Elastic Constant Matrix: (Units=GPa)
#
#
# Indices 1 2 3 4 5 6 
#
# 1 61.3266 12.1379 12.0553 0.0000 0.0000 0.0000
# 2 12.1379 95.9586 4.1071 0.0000 0.0000 0.0000
# 3 12.0553 4.1071 58.7305 0.0000 0.0000 0.0000
# 4 0.0000 0.0000 0.0000 7.0491 0.0000 0.0000
# 5 0.0000 0.0000 0.0000 0.0000 15.1492 0.0000
# 6 0.0000 0.0000 0.0000 0.0000 0.0000 25.4514
#
#
#
# Elastic Compliance Matrix: (Units=1/GPa)
#
#
# Indices 1 2 3 4 5 6 
#
# 1 0.017386 -0.002053 -0.003425 0.000000 0.000000 0.000000
# 2 -0.002053 0.010695 -0.000327 0.000000 0.000000 0.000000
# 3 -0.003425 -0.000327 0.017753 0.000000 0.000000 0.000000
# 4 0.000000 0.000000 0.000000 0.141862 0.000000 0.000000
# 5 0.000000 0.000000 0.000000 0.000000 0.066010 0.000000
# 6 0.000000 0.000000 0.000000 0.000000 0.000000 0.039291
#
#
# Mechanical properties :
#
#
# Convention : Reuss Voigt Hill
#
# Bulk Modulus (GPa) = 29.21861 30.29070 29.75466
# Shear Modulus (GPa) = 15.82215 22.04430 18.93322
#
# Velocity S-wave (km/s) = 2.82223 3.33125 3.08725
# Velocity P-wave (km/s) = 5.03277 5.48131 5.26182
#
# Compressibility (1/GPa) = 0.03422476
#
# Stress axis : x y z
#
# Youngs Moduli (GPa) = 57.51859 93.50367 56.32909
#
# Poissons Ratio (x) = 0.19192 0.19293
# Poissons Ratio (y) = 0.11806 0.01840
# Poissons Ratio (z) = 0.19701 0.03054
#
# Static dielectric constant tensor:
#      x y z
#    x 3.738890 0.000000 0.000000 
#    y 0.000000 3.879090 0.000000 
#    z 0.000000 0.000000 3.502980 
# 
# 
# High freq. dielectric constant tensor:
#      x y z
#    x 1.784860 0.000000 0.000000 
#    y 0.000000 1.782930 0.000000 
#    z 0.000000 0.000000 1.774490 
# 
# From -- ./inp_files/9449.got.cif
#   From: 2010.03.12/outbox.cif.g09.slc.cpg/sg40_5_cif.got.tgz:9449.got - 2010.04.14 01:38:03.
