data_PCOD8183625
_publ_section_title
;
Structure prediction by ZEFSAII (Michael W. Deem and Ramdas Pophale) SiO2 
 PCOD8183625
Probable space group: A M A 2
;
_chemical_formula_sum "Si O2"
_cell_formula_units_Z 64
_cell_length_a 18.721910
_cell_length_b 17.568802
_cell_length_c 9.551363
_cell_angle_alpha 90.000000
_cell_angle_beta 90.000000
_cell_angle_gamma 90.000000
_cell_volume 3141.648930
_symmetry_space_group_name_H-M "A M A 2"
_symmetry_group_IT_number 40
_symmetry_cell_setting 'orthorhombic'
loop_
_space_group_symop_operation_xyz
x,y,z
-x,-y,z
1/2-x,y,z
1/2+x,-y,z
x,1/2+y,1/2+z
-x,1/2-y,1/2+z
1/2-x,1/2+y,1/2+z
1/2+x,1/2-y,1/2+z
loop_
_atom_site_type_symbol
_atom_site_label
_atom_site_fract_x
_atom_site_fract_y
_atom_site_fract_z
Si Si1 0.071881 0.687755 0.909600
Si Si2 0.407498 0.169828 0.099278
Si Si3 0.167415 0.853966 0.216576
Si Si4 0.330506 0.566181 0.387153
Si Si5 0.939980 0.146825 0.995375
Si Si6 0.434207 0.951371 0.739493
Si Si7 0.171722 0.181916 0.643950
Si Si8 0.089789 0.335873 0.992328
O O1 0.106665 0.660626 0.764370
O O2 0.089310 0.777282 0.921047
O O3 0.114990 0.646255 0.035117
O O4 0.988822 0.668834 0.925769
O O5 0.382256 0.252434 0.040906
O O6 0.370201 0.097401 0.025836
O O7 0.492707 0.167130 0.089799
O O8 0.250000 0.877377 0.200381
O O9 0.150257 0.766177 0.188856
O O10 0.141457 0.871689 0.373890
O O11 0.120231 0.894582 0.094059
O O12 0.250000 0.539998 0.426366
O O13 0.368476 0.498827 0.302312
O O14 0.329216 0.637806 0.287102
O O15 0.967102 0.092775 0.871747
O O16 0.406029 0.894029 0.621636
O O17 0.500000 0.000000 0.676904
O O18 0.250000 0.179982 0.573536
#
# Coordination Sequence:
#
# PCOD8183625 Si02
#       8
#     8   8   8   8   8   8   8   8
#     4  10  20  34  63  97 124 148 212 278 314 363
#     4  11  20  37  64  95 124 159 216 273 314 374
#     4  10  20  38  62  89 124 160 205 269 326 372
#     4  11  24  41  63  90 127 171 211 256 321 395
#     4  10  21  37  60  95 122 163 207 260 321 383
#     4  12  24  41  63  92 130 172 211 258 327 398
#     4   9  19  37  60  88 122 163 202 253 322 374
#     4  11  22  36  62  97 124 162 216 268 319 385
#
# _framework density 20.371468
#
# number of rings (size 3 to 8) (size 9 to 14) (size 15 to 20)
#    0.000    1.500    5.000    0.750    0.000    1.500 
#    0.000    3.125    0.000    0.000    0.000    0.000 
#    0.000    0.000    0.000    0.000    0.000    0.000 
#
# Total GULP energy -396706.931792 kJ/mol
# GULP energy per Si atom -12397.091618 kJ/mol
# Density = 2.032510 g / cm^3
# Si number density = 20.371468 Si / 1000 Ang^3
#
#
#
# Elastic Constant Matrix: (Units=GPa)
#
#
# Indices 1 2 3 4 5 6 
#
# 1 95.0251 13.8250 37.0844 0.0000 0.0000 0.0000
# 2 13.8250 48.3806 19.0507 0.0000 0.0000 0.0000
# 3 37.0844 19.0507 118.6680 0.0000 0.0000 0.0000
# 4 0.0000 0.0000 0.0000 28.1252 0.0000 0.0000
# 5 0.0000 0.0000 0.0000 0.0000 35.0684 0.0000
# 6 0.0000 0.0000 0.0000 0.0000 0.0000 23.8649
#
#
#
# Elastic Compliance Matrix: (Units=1/GPa)
#
#
# Indices 1 2 3 4 5 6 
#
# 1 0.012185 -0.002116 -0.003468 0.000000 0.000000 0.000000
# 2 -0.002116 0.022432 -0.002940 0.000000 0.000000 0.000000
# 3 -0.003468 -0.002940 0.009983 0.000000 0.000000 0.000000
# 4 0.000000 0.000000 0.000000 0.035555 0.000000 0.000000
# 5 0.000000 0.000000 0.000000 0.000000 0.028516 0.000000
# 6 0.000000 0.000000 0.000000 0.000000 0.000000 0.041903
#
#
# Mechanical properties :
#
#
# Convention : Reuss Voigt Hill
#
# Bulk Modulus (GPa) = 36.29642 44.66599 40.48121
# Shear Modulus (GPa) = 28.27977 30.21927 29.24952
#
# Velocity S-wave (km/s) = 3.72990 3.85569 3.79332
# Velocity P-wave (km/s) = 6.03370 6.46491 6.25303
#
# Compressibility (1/GPa) = 0.02755092
#
# Stress axis : x y z
#
# Youngs Moduli (GPa) = 82.06892 44.57968 100.17411
#
# Poissons Ratio (x) = 0.09434 0.34741
# Poissons Ratio (y) = 0.17368 0.29449
# Poissons Ratio (z) = 0.28462 0.13105
#
# Static dielectric constant tensor:
#      x y z
#    x 3.722540 0.000000 0.000000 
#    y 0.000000 3.509940 0.000000 
#    z 0.000000 0.000000 3.798960 
# 
# 
# High freq. dielectric constant tensor:
#      x y z
#    x 1.791490 0.000000 0.000000 
#    y 0.000000 1.769550 0.000000 
#    z 0.000000 0.000000 1.805450 
# 
# From -- ./inp_files/7782.got.cif
#   From: 2010.03.12/outbox.cif.g09.slc.cpg/sg40_4_cif.got.tgz:7782.got - 2010.04.14 01:38:03.
