data_PCOD8183877
_publ_section_title
;
Structure prediction by ZEFSAII (Michael W. Deem and Ramdas Pophale) SiO2 
 PCOD8183877
Probable space group: A M A 2
;
_chemical_formula_sum "Si O2"
_cell_formula_units_Z 40
_cell_length_a 17.332499
_cell_length_b 4.891813
_cell_length_c 21.974561
_cell_angle_alpha 90.000000
_cell_angle_beta 90.000000
_cell_angle_gamma 90.000000
_cell_volume 1863.164661
_symmetry_space_group_name_H-M "A M A 2"
_symmetry_group_IT_number 40
_symmetry_cell_setting 'orthorhombic'
loop_
_space_group_symop_operation_xyz
x,y,z
-x,-y,z
1/2-x,y,z
1/2+x,-y,z
x,1/2+y,1/2+z
-x,1/2-y,1/2+z
1/2-x,1/2+y,1/2+z
1/2+x,1/2-y,1/2+z
loop_
_atom_site_type_symbol
_atom_site_label
_atom_site_fract_x
_atom_site_fract_y
_atom_site_fract_z
Si Si1 0.336738 0.876085 0.559450
Si Si2 0.550132 0.258901 0.874536
Si Si3 0.160372 0.976296 0.691370
Si Si4 0.337611 0.396440 0.479175
Si Si5 0.412811 0.982369 0.248865
O O1 0.250000 0.788257 0.577610
O O2 0.375548 0.611152 0.527299
O O3 0.374415 0.986075 0.622232
O O4 0.338205 0.103056 0.508630
O O5 0.500000 0.500000 0.907838
O O6 0.612809 0.122659 0.918236
O O7 0.590304 0.421390 0.818972
O O8 0.500000 0.000000 0.850294
O O9 0.250000 0.054230 0.693615
O O10 0.114849 0.172291 0.737956
O O11 0.146616 0.666491 0.711568
O O12 0.250000 0.486845 0.462067
O O13 0.500000 0.000000 0.223906
#
# Coordination Sequence:
#
# PCOD8183877 Si02
#       5
#     8   8   8   8   8
#     4   9  19  36  58  86 119 151 186 243 309 352
#     4  11  23  41  60  83 121 162 198 246 308 362
#     4  11  22  39  64  90 118 156 205 252 297 362
#     4  10  20  37  61  86 114 152 198 243 293 358
#     4  11  23  41  60  85 123 163 198 246 312 362
#
# _framework density 21.468848999999999
#
# number of rings (size 3 to 8) (size 9 to 14) (size 15 to 20)
#    0.000    1.600    0.000    6.000    0.000    4.800 
#    0.000   12.000    0.000    0.000    0.000    0.000 
#    0.000    0.000    0.000    0.000    0.000    0.000 
#
# Total GULP energy -247885.843431 kJ/mol
# GULP energy per Si atom -12394.292172 kJ/mol
# Density = 2.141998 g / cm^3
# Si number density = 21.468849 Si / 1000 Ang^3
#
#
#
# Elastic Constant Matrix: (Units=GPa)
#
#
# Indices 1 2 3 4 5 6 
#
# 1 71.5166 23.7756 45.0974 0.0000 0.0000 0.0000
# 2 23.7756 104.1879 32.2566 0.0000 0.0000 0.0000
# 3 45.0974 32.2566 128.1507 0.0000 0.0000 0.0000
# 4 0.0000 0.0000 0.0000 41.7308 0.0000 0.0000
# 5 0.0000 0.0000 0.0000 0.0000 17.0609 0.0000
# 6 0.0000 0.0000 0.0000 0.0000 0.0000 36.8394
#
#
#
# Elastic Compliance Matrix: (Units=1/GPa)
#
#
# Indices 1 2 3 4 5 6 
#
# 1 0.018505 -0.002393 -0.005910 0.000000 0.000000 0.000000
# 2 -0.002393 0.010719 -0.001856 0.000000 0.000000 0.000000
# 3 -0.005910 -0.001856 0.010350 0.000000 0.000000 0.000000
# 4 0.000000 0.000000 0.000000 0.023963 0.000000 0.000000
# 5 0.000000 0.000000 0.000000 0.000000 0.058613 0.000000
# 6 0.000000 0.000000 0.000000 0.000000 0.000000 0.027145
#
#
# Mechanical properties :
#
#
# Convention : Reuss Voigt Hill
#
# Bulk Modulus (GPa) = 51.93068 56.23494 54.08281
# Shear Modulus (GPa) = 28.40403 32.64127 30.52265
#
# Velocity S-wave (km/s) = 3.64130 3.90346 3.77466
# Velocity P-wave (km/s) = 6.47457 6.82397 6.65157
#
# Compressibility (1/GPa) = 0.01925644
#
# Stress axis : x y z
#
# Youngs Moduli (GPa) = 54.03958 93.29463 96.61733
#
# Poissons Ratio (x) = 0.22327 0.57098
# Poissons Ratio (y) = 0.12933 0.17930
# Poissons Ratio (z) = 0.31936 0.17314
#
# Static dielectric constant tensor:
#      x y z
#    x 3.762810 0.000000 0.000000 
#    y 0.000000 4.005600 0.000000 
#    z 0.000000 0.000000 3.781880 
# 
# 
# High freq. dielectric constant tensor:
#      x y z
#    x 1.814270 0.000000 0.000000 
#    y 0.000000 1.864920 0.000000 
#    z 0.000000 0.000000 1.840240 
# 
# From -- ./inp_files/23248.got.cif
#   From: 2010.03.12/outbox.cif.g09.slc.cpg/sg40_12_cif.got.tgz:23248.got - 2010.04.14 01:38:03.
