data_PCOD8183090
_publ_section_title
;
Structure prediction by ZEFSAII (Michael W. Deem and Ramdas Pophale) SiO2 
 PCOD8183090
Probable space group: A M A 2
;
_chemical_formula_sum "Si O2"
_cell_formula_units_Z 64
_cell_length_a 8.793228
_cell_length_b 29.696052
_cell_length_c 13.248737
_cell_angle_alpha 90.000000
_cell_angle_beta 90.000000
_cell_angle_gamma 90.000000
_cell_volume 3459.565266
_symmetry_space_group_name_H-M "A M A 2"
_symmetry_group_IT_number 40
_symmetry_cell_setting 'orthorhombic'
loop_
_space_group_symop_operation_xyz
x,y,z
-x,-y,z
1/2-x,y,z
1/2+x,-y,z
x,1/2+y,1/2+z
-x,1/2-y,1/2+z
1/2-x,1/2+y,1/2+z
1/2+x,1/2-y,1/2+z
loop_
_atom_site_type_symbol
_atom_site_label
_atom_site_fract_x
_atom_site_fract_y
_atom_site_fract_z
Si Si1 0.426031 0.790979 0.706740
Si Si2 0.567950 0.385272 0.184429
Si Si3 0.415557 0.706351 0.404273
Si Si4 0.927743 0.712238 0.598149
Si Si5 0.930127 0.048622 0.520235
Si Si6 0.428341 0.391026 0.609918
Si Si7 0.071225 0.452119 0.791243
Si Si8 0.414643 0.102685 0.909093
O O1 0.250000 0.787353 0.675928
O O2 0.498542 0.836190 0.659647
O O3 0.446717 0.791752 0.826103
O O4 0.522189 0.746324 0.683929
O O5 0.750000 0.381080 0.184219
O O6 0.509672 0.417700 0.097447
O O7 0.513974 0.403557 0.295756
O O8 0.250000 0.726830 0.370884
O O9 0.477935 0.731204 0.502791
O O10 0.389045 0.654766 0.430248
O O11 0.750000 0.715267 0.576141
O O12 0.975032 0.661099 0.624866
O O13 0.750000 0.047646 0.539495
O O14 0.969515 0.063840 0.405427
O O15 0.000000 0.000000 0.541920
O O16 0.250000 0.396204 0.606276
O O17 0.493690 0.417024 0.708343
O O18 0.485026 0.413973 0.504348
O O19 0.250000 0.457331 0.780976
O O20 0.000000 0.500000 0.766922
O O21 0.250000 0.078023 0.912948
#
# Coordination Sequence:
#
# PCOD8183090 Si02
#       8
#     8   8   8   8   8   8   8   8
#     4  11  21  34  52  76 106 142 181 222 271 326
#     4  10  20  36  56  79 108 140 181 227 275 327
#     4   9  17  32  51  71  98 135 174 216 265 319
#     4  10  19  33  52  75 104 140 179 222 271 325
#     4  10  20  36  58  81 109 143 183 225 274 331
#     4   9  18  33  54  78 105 138 176 219 267 323
#     4   9  19  36  56  80 108 141 179 220 269 324
#     4   8  16  30  51  76 102 133 168 211 261 315
#
# _framework density 18.499433
#
# number of rings (size 3 to 8) (size 9 to 14) (size 15 to 20)
#    0.000    2.500    0.000    3.375    0.000    5.000 
#    2.250    0.625    0.000    1.500    0.000    0.000 
#    0.000    0.000    0.000    0.000    0.000    0.000 
#
# Total GULP energy -396447.656129 kJ/mol
# GULP energy per Si atom -12388.989254 kJ/mol
# Density = 1.845733 g / cm^3
# Si number density = 18.499433 Si / 1000 Ang^3
#
#
#
# Elastic Constant Matrix: (Units=GPa)
#
#
# Indices 1 2 3 4 5 6 
#
# 1 68.2613 36.4441 42.4380 0.0000 0.0000 0.0000
# 2 36.4441 82.1325 65.2454 0.0000 0.0000 0.0000
# 3 42.4380 65.2454 123.5287 0.0000 0.0000 0.0000
# 4 0.0000 0.0000 0.0000 17.2900 0.0000 0.0000
# 5 0.0000 0.0000 0.0000 0.0000 30.5276 0.0000
# 6 0.0000 0.0000 0.0000 0.0000 0.0000 25.7910
#
#
#
# Elastic Compliance Matrix: (Units=1/GPa)
#
#
# Indices 1 2 3 4 5 6 
#
# 1 0.020180 -0.005939 -0.003796 0.000000 0.000000 0.000000
# 2 -0.005939 0.022725 -0.009962 0.000000 0.000000 0.000000
# 3 -0.003796 -0.009962 0.014661 0.000000 0.000000 0.000000
# 4 0.000000 0.000000 0.000000 0.057837 0.000000 0.000000
# 5 0.000000 0.000000 0.000000 0.000000 0.032757 0.000000
# 6 0.000000 0.000000 0.000000 0.000000 0.000000 0.038773
#
#
# Mechanical properties :
#
#
# Convention : Reuss Voigt Hill
#
# Bulk Modulus (GPa) = 55.03101 62.46417 58.74759
# Shear Modulus (GPa) = 21.51591 23.37472 22.44532
#
# Velocity S-wave (km/s) = 3.41406 3.55848 3.48702
# Velocity P-wave (km/s) = 6.73447 7.12197 6.93093
#
# Compressibility (1/GPa) = 0.01817157
#
# Stress axis : x y z
#
# Youngs Moduli (GPa) = 49.55318 44.00478 68.20620
#
# Poissons Ratio (x) = 0.26134 0.25892
# Poissons Ratio (y) = 0.29429 0.67950
# Poissons Ratio (z) = 0.18811 0.43840
#
# Static dielectric constant tensor:
#      x y z
#    x 3.589120 0.000000 0.000000 
#    y 0.000000 3.704010 0.000000 
#    z 0.000000 0.000000 3.626930 
# 
# 
# High freq. dielectric constant tensor:
#      x y z
#    x 1.723720 0.000000 0.000000 
#    y 0.000000 1.687030 0.000000 
#    z 0.000000 0.000000 1.725130 
# 
# From -- ./inp_files/10647.got.cif
#   From: 2010.03.12/outbox.cif.g09.slc.cpg/sg40_6_cif.got.tgz:10647.got - 2010.04.14 01:38:03.
