data_PCOD8183940
_publ_section_title
;
Structure prediction by ZEFSAII (Michael W. Deem and Ramdas Pophale) SiO2 
 PCOD8183940
Probable space group: A M A 2
;
_chemical_formula_sum "Si O2"
_cell_formula_units_Z 64
_cell_length_a 16.284757
_cell_length_b 16.475340
_cell_length_c 11.971347
_cell_angle_alpha 90.000000
_cell_angle_beta 90.000000
_cell_angle_gamma 90.000000
_cell_volume 3211.875389
_symmetry_space_group_name_H-M "A M A 2"
_symmetry_group_IT_number 40
_symmetry_cell_setting 'orthorhombic'
loop_
_space_group_symop_operation_xyz
x,y,z
-x,-y,z
1/2-x,y,z
1/2+x,-y,z
x,1/2+y,1/2+z
-x,1/2-y,1/2+z
1/2-x,1/2+y,1/2+z
1/2+x,1/2-y,1/2+z
loop_
_atom_site_type_symbol
_atom_site_label
_atom_site_fract_x
_atom_site_fract_y
_atom_site_fract_z
Si Si1 0.153159 0.665283 0.962830
Si Si2 0.846386 0.112333 0.722691
Si Si3 0.655724 0.944729 0.132850
Si Si4 0.905941 0.705777 0.633332
Si Si5 0.347486 0.983946 0.516944
Si Si6 0.653771 0.076956 0.968224
Si Si7 0.584864 0.785835 0.224263
Si Si8 0.344526 0.417358 0.792866
O O1 0.250000 0.670228 0.932542
O O2 0.123493 0.575178 0.993117
O O3 0.100271 0.694471 0.855519
O O4 0.135437 0.716989 0.074354
O O5 0.750000 0.101713 0.723189
O O6 0.886027 0.052045 0.630751
O O7 0.880007 0.084722 0.843025
O O8 0.866163 0.205031 0.693441
O O9 0.750000 0.928204 0.161832
O O10 0.611205 0.859205 0.143828
O O11 0.616091 0.010840 0.217512
O O12 0.645458 0.983389 0.008728
O O13 0.905562 0.634468 0.541044
O O14 0.855866 0.671878 0.740514
O O15 0.991676 0.730140 0.689051
O O16 0.250000 0.981592 0.525853
O O17 0.380596 0.925083 0.417743
O O18 0.750000 0.104998 0.981095
O O19 0.250000 0.438498 0.798082
#
# Coordination Sequence:
#
# PCOD8183940 Si02
#       8
#     8   8   8   8   8   8   8   8
#     4  11  21  42  69  90 117 165 217 252 296 382
#     4  10  20  38  62  88 118 161 204 248 304 371
#     4   9  17  33  59  89 112 147 205 259 293 350
#     4  11  23  35  56  91 125 158 203 256 308 361
#     4   9  19  36  63  92 115 146 204 263 305 354
#     4   9  18  36  62  86 117 161 210 249 297 368
#     4  12  23  35  58  92 124 156 203 258 307 362
#     4   9  17  34  58  87 119 154 200 257 308 358
#
# _framework density 19.926054000000001
#
# number of rings (size 3 to 8) (size 9 to 14) (size 15 to 20)
#    0.000    2.000    2.500    3.000    0.000    3.000 
#    0.000    4.375    2.750    4.500    0.000    0.000 
#    0.000    0.000    0.000    0.000    0.000    0.000 
#
# Total GULP energy -396500.963269 kJ/mol
# GULP energy per Si atom -12390.655102 kJ/mol
# Density = 1.988070 g / cm^3
# Si number density = 19.926054 Si / 1000 Ang^3
#
#
#
# Elastic Constant Matrix: (Units=GPa)
#
#
# Indices 1 2 3 4 5 6 
#
# 1 25.0661 4.8215 30.1509 0.0000 0.0000 0.0000
# 2 4.8215 99.7614 66.0649 0.0000 0.0000 0.0000
# 3 30.1509 66.0649 133.1722 0.0000 0.0000 0.0000
# 4 0.0000 0.0000 0.0000 40.4665 0.0000 0.0000
# 5 0.0000 0.0000 0.0000 0.0000 23.6659 0.0000
# 6 0.0000 0.0000 0.0000 0.0000 0.0000 8.3675
#
#
#
# Elastic Compliance Matrix: (Units=1/GPa)
#
#
# Indices 1 2 3 4 5 6 
#
# 1 0.059858 0.009057 -0.018045 0.000000 0.000000 0.000000
# 2 0.009057 0.016299 -0.010136 0.000000 0.000000 0.000000
# 3 -0.018045 -0.010136 0.016623 0.000000 0.000000 0.000000
# 4 0.000000 0.000000 0.000000 0.024712 0.000000 0.000000
# 5 0.000000 0.000000 0.000000 0.000000 0.042255 0.000000
# 6 0.000000 0.000000 0.000000 0.000000 0.000000 0.119510
#
#
# Mechanical properties :
#
#
# Convention : Reuss Voigt Hill
#
# Bulk Modulus (GPa) = 18.33806 51.11936 34.72871
# Shear Modulus (GPa) = 14.89502 24.96414 19.92958
#
# Velocity S-wave (km/s) = 2.73704 3.54339 3.16599
# Velocity P-wave (km/s) = 4.38310 6.51544 5.55259
#
# Compressibility (1/GPa) = 0.05453141
#
# Stress axis : x y z
#
# Youngs Moduli (GPa) = 16.70609 61.35499 60.15752
#
# Poissons Ratio (x) = -0.55570 1.08557
# Poissons Ratio (y) = -0.15131 0.60976
# Poissons Ratio (z) = 0.30147 0.62190
#
# Static dielectric constant tensor:
#      x y z
#    x 3.291470 0.000000 0.000000 
#    y 0.000000 3.680120 0.000000 
#    z 0.000000 0.000000 4.097180 
# 
# 
# High freq. dielectric constant tensor:
#      x y z
#    x 1.742570 0.000000 0.000000 
#    y 0.000000 1.773750 0.000000 
#    z 0.000000 0.000000 1.782160 
# 
# From -- ./inp_files/12467.got.cif
#   From: 2010.03.12/outbox.cif.g09.slc.cpg/sg40_7_cif.got.tgz:12467.got - 2010.04.14 01:38:03.
