data_PCOD8183681
_publ_section_title
;
Structure prediction by ZEFSAII (Michael W. Deem and Ramdas Pophale) SiO2 
 PCOD8183681
Probable space group: A M A 2
;
_chemical_formula_sum "Si O2"
_cell_formula_units_Z 64
_cell_length_a 8.884216
_cell_length_b 18.337838
_cell_length_c 20.673777
_cell_angle_alpha 90.000000
_cell_angle_beta 90.000000
_cell_angle_gamma 90.000000
_cell_volume 3368.116214
_symmetry_space_group_name_H-M "A M A 2"
_symmetry_group_IT_number 40
_symmetry_cell_setting 'orthorhombic'
loop_
_space_group_symop_operation_xyz
x,y,z
-x,-y,z
1/2-x,y,z
1/2+x,-y,z
x,1/2+y,1/2+z
-x,1/2-y,1/2+z
1/2-x,1/2+y,1/2+z
1/2+x,1/2-y,1/2+z
loop_
_atom_site_type_symbol
_atom_site_label
_atom_site_fract_x
_atom_site_fract_y
_atom_site_fract_z
Si Si1 0.420274 0.173275 0.333150
Si Si2 0.922478 0.320665 0.337327
Si Si3 0.074001 0.678843 0.193124
Si Si4 0.426598 0.576949 0.570662
Si Si5 0.922559 0.334069 0.692066
Si Si6 0.073370 0.921722 0.587058
Si Si7 0.422387 0.826819 0.964652
Si Si8 0.080709 0.153938 0.471727
O O1 0.250000 0.207616 0.337456
O O2 0.546454 0.234900 0.333371
O O3 0.437595 0.131136 0.264630
O O4 0.443205 0.124114 0.397721
O O5 0.750000 0.333832 0.356385
O O6 0.957644 0.352109 0.265647
O O7 0.025691 0.355475 0.393598
O O8 0.250000 0.675992 0.176446
O O9 0.021262 0.761783 0.184671
O O10 0.983702 0.628770 0.144420
O O11 0.500000 0.500000 0.555604
O O12 0.250000 0.566634 0.566665
O O13 0.478473 0.605408 0.641324
O O14 0.476449 0.635727 0.518302
O O15 0.750000 0.312335 0.677350
O O16 0.250000 0.930723 0.592667
O O17 0.035570 0.886199 0.517921
O O18 0.000000 0.000000 0.593655
O O19 0.250000 0.849184 0.974881
O O20 0.448172 0.740495 0.971132
O O21 0.250000 0.136865 0.495920
#
# Coordination Sequence:
#
# PCOD8183681 Si02
#       8
#     8   8   8   8   8   8   8   8
#     4   8  15  30  53  80 109 138 171 215 264 311
#     4   9  17  30  52  82 111 136 169 215 262 311
#     4  10  20  35  57  84 111 138 172 216 264 315
#     4  11  23  37  53  75 107 144 182 224 266 313
#     4   9  18  34  57  83 108 139 179 219 262 313
#     4  12  25  39  55  75 105 143 181 222 265 314
#     4  10  20  35  57  82 109 141 176 217 263 313
#     4   9  18  34  57  83 110 139 172 214 264 316
#
# _framework density 19.001719999999999
#
# number of rings (size 3 to 8) (size 9 to 14) (size 15 to 20)
#    0.000    2.250    0.000    4.125    0.000    7.000 
#    0.000    1.250    0.000    4.500    0.000    0.000 
#    0.000    0.000    0.000    0.000    0.000    0.000 
#
# Total GULP energy -396640.991894 kJ/mol
# GULP energy per Si atom -12395.030997 kJ/mol
# Density = 1.895847 g / cm^3
# Si number density = 19.001720 Si / 1000 Ang^3
#
#
#
# Elastic Constant Matrix: (Units=GPa)
#
#
# Indices 1 2 3 4 5 6 
#
# 1 235.5580 336.5022 416.0439 0.0000 0.0000 0.0000
# 2 336.5022 701.9435 824.6590 0.0000 0.0000 0.0000
# 3 416.0439 824.6590 1096.5910 0.0000 0.0000 0.0000
# 4 0.0000 0.0000 0.0000 -2.2167 0.0000 0.0000
# 5 0.0000 0.0000 0.0000 0.0000 23.4612 0.0000
# 6 0.0000 0.0000 0.0000 0.0000 0.0000 21.2836
#
#
#
# Elastic Compliance Matrix: (Units=1/GPa)
#
#
# Indices 1 2 3 4 5 6 
#
# 1 0.014107 -0.004076 -0.002287 0.000000 0.000000 0.000000
# 2 -0.004076 0.013405 -0.008535 0.000000 0.000000 0.000000
# 3 -0.002287 -0.008535 0.008198 0.000000 0.000000 0.000000
# 4 0.000000 0.000000 0.000000 -0.451116 0.000000 0.000000
# 5 0.000000 0.000000 0.000000 0.000000 0.042624 0.000000
# 6 0.000000 0.000000 0.000000 0.000000 0.000000 0.046984
#
#
# Mechanical properties :
#
#
# Convention : Reuss Voigt Hill
#
# Bulk Modulus (GPa) = 169.05832 576.50029 372.77930
# Shear Modulus (GPa) = -17.00501 38.96478 10.97988
#
# Velocity S-wave (km/s) = -2.99477 4.53326 2.40643
# Velocity P-wave (km/s) = 8.78664 18.20585 14.29437
#
# Compressibility (1/GPa) = 0.00591512
#
# Stress axis : x y z
#
# Youngs Moduli (GPa) = 70.88521 74.59858 121.98408
#
# Poissons Ratio (x) = 0.30405 0.27900
# Poissons Ratio (y) = 0.28892 1.04108
# Poissons Ratio (z) = 0.16212 0.63666
#
# Static dielectric constant tensor:
#      x y z
#    x 3.535650 0.000000 0.000000 
#    y 0.000000 3.073340 0.000000 
#    z 0.000000 0.000000 3.187640 
# 
# 
# High freq. dielectric constant tensor:
#      x y z
#    x 1.746730 0.000000 0.000000 
#    y 0.000000 1.688260 0.000000 
#    z 0.000000 0.000000 1.766140 
# 
# From -- ./inp_files/22446.got.cif
#   From: 2010.03.12/outbox.cif.g09.slc.cpg/sg40_12_cif.got.tgz:22446.got - 2010.04.14 01:38:03.
