data_PCOD8183870
_publ_section_title
;
Structure prediction by ZEFSAII (Michael W. Deem and Ramdas Pophale) SiO2 
 PCOD8183870
Probable space group: A M A 2
;
_chemical_formula_sum "Si O2"
_cell_formula_units_Z 64
_cell_length_a 22.572315
_cell_length_b 15.502407
_cell_length_c 9.284999
_cell_angle_alpha 90.000000
_cell_angle_beta 90.000000
_cell_angle_gamma 90.000000
_cell_volume 3249.055263
_symmetry_space_group_name_H-M "A M A 2"
_symmetry_group_IT_number 40
_symmetry_cell_setting 'orthorhombic'
loop_
_space_group_symop_operation_xyz
x,y,z
-x,-y,z
1/2-x,y,z
1/2+x,-y,z
x,1/2+y,1/2+z
-x,1/2-y,1/2+z
1/2-x,1/2+y,1/2+z
1/2+x,1/2-y,1/2+z
loop_
_atom_site_type_symbol
_atom_site_label
_atom_site_fract_x
_atom_site_fract_y
_atom_site_fract_z
Si Si1 0.182717 0.768138 0.366430
Si Si2 0.815818 0.565491 0.031512
Si Si3 0.440878 0.044914 0.778580
Si Si4 0.375337 0.374647 0.315713
Si Si5 0.112109 0.603610 0.990641
Si Si6 0.537053 0.284557 0.793176
Si Si7 0.181481 0.265973 0.545480
Si Si8 0.438145 0.202310 0.964866
O O1 0.250000 0.726852 0.382694
O O2 0.187938 0.868428 0.401554
O O3 0.155557 0.767062 0.206276
O O4 0.133150 0.719768 0.464824
O O5 0.750000 0.528952 0.068919
O O6 0.839897 0.622085 0.165483
O O7 0.858554 0.490179 0.973322
O O8 0.416034 0.103980 0.649665
O O9 0.452450 0.106334 0.912526
O O10 0.500000 0.000000 0.719777
O O11 0.397129 0.971901 0.837919
O O12 0.427202 0.304116 0.316984
O O13 0.334211 0.349792 0.450558
O O14 0.161083 0.677508 0.971609
O O15 0.064159 0.629086 0.868310
O O16 0.472211 0.271831 0.864175
O O17 0.533402 0.297229 0.623001
O O18 0.250000 0.263630 0.563027
#
# Coordination Sequence:
#
# PCOD8183870 Si02
#       8
#     8   8   8   8   8   8   8   8
#     4  10  22  39  62  88 121 165 203 255 312 370
#     4  10  20  38  62  89 125 165 207 254 308 371
#     4  11  22  38  61  85 124 159 202 254 309 371
#     4  10  21  37  59  90 121 160 208 253 309 366
#     4  10  22  38  59  92 120 160 205 256 308 370
#     4  11  24  38  65  90 123 164 206 260 319 375
#     4  10  20  37  60  88 121 160 206 253 307 365
#     4  12  23  42  62  93 125 163 211 258 317 379
#
# _framework density 19.698032000000001
#
# number of rings (size 3 to 8) (size 9 to 14) (size 15 to 20)
#    0.000    1.500    3.750    1.500    1.750    1.000 
#    0.000    1.875    0.000    0.000    0.000    0.000 
#    0.000    0.000    0.000    0.000    0.000    0.000 
#
# Total GULP energy -396589.556472 kJ/mol
# GULP energy per Si atom -12393.423640 kJ/mol
# Density = 1.965320 g / cm^3
# Si number density = 19.698032 Si / 1000 Ang^3
#
#
#
# Elastic Constant Matrix: (Units=GPa)
#
#
# Indices 1 2 3 4 5 6 
#
# 1 79.4030 24.4148 18.6847 0.0000 0.0000 0.0000
# 2 24.4148 72.4769 33.8841 0.0000 0.0000 0.0000
# 3 18.6847 33.8841 79.7451 0.0000 0.0000 0.0000
# 4 0.0000 0.0000 0.0000 32.3173 0.0000 0.0000
# 5 0.0000 0.0000 0.0000 0.0000 29.2945 0.0000
# 6 0.0000 0.0000 0.0000 0.0000 0.0000 25.2172
#
#
#
# Elastic Compliance Matrix: (Units=1/GPa)
#
#
# Indices 1 2 3 4 5 6 
#
# 1 0.014214 -0.004032 -0.001617 0.000000 0.000000 0.000000
# 2 -0.004032 0.018362 -0.006857 0.000000 0.000000 0.000000
# 3 -0.001617 -0.006857 0.015833 0.000000 0.000000 0.000000
# 4 0.000000 0.000000 0.000000 0.030943 0.000000 0.000000
# 5 0.000000 0.000000 0.000000 0.000000 0.034136 0.000000
# 6 0.000000 0.000000 0.000000 0.000000 0.000000 0.039656
#
#
# Mechanical properties :
#
#
# Convention : Reuss Voigt Hill
#
# Bulk Modulus (GPa) = 42.74358 42.84358 42.79358
# Shear Modulus (GPa) = 26.88823 27.67523 27.28173
#
# Velocity S-wave (km/s) = 3.69863 3.75236 3.72559
# Velocity P-wave (km/s) = 6.32347 6.36954 6.34655
#
# Compressibility (1/GPa) = 0.02339532
#
# Stress axis : x y z
#
# Youngs Moduli (GPa) = 70.35145 54.46129 63.16104
#
# Poissons Ratio (x) = 0.21960 0.10214
# Poissons Ratio (y) = 0.28367 0.43311
# Poissons Ratio (z) = 0.11377 0.37345
#
# Static dielectric constant tensor:
#      x y z
#    x 3.781480 0.000000 0.000000 
#    y 0.000000 3.455350 0.000000 
#    z 0.000000 0.000000 3.756410 
# 
# 
# High freq. dielectric constant tensor:
#      x y z
#    x 1.777410 0.000000 0.000000 
#    y 0.000000 1.760790 0.000000 
#    z 0.000000 0.000000 1.761610 
# 
# From -- ./inp_files/8908.got.cif
#   From: 2010.03.12/outbox.cif.g09.slc.cpg/sg40_5_cif.got.tgz:8908.got - 2010.04.14 01:38:03.
