data_PCOD8183830
_publ_section_title
;
Structure prediction by ZEFSAII (Michael W. Deem and Ramdas Pophale) SiO2 
 PCOD8183830
Probable space group: A M A 2
;
_chemical_formula_sum "Si O2"
_cell_formula_units_Z 64
_cell_length_a 16.813065
_cell_length_b 14.659247
_cell_length_c 12.702479
_cell_angle_alpha 90.000000
_cell_angle_beta 90.000000
_cell_angle_gamma 90.000000
_cell_volume 3130.740274
_symmetry_space_group_name_H-M "A M A 2"
_symmetry_group_IT_number 40
_symmetry_cell_setting 'orthorhombic'
loop_
_space_group_symop_operation_xyz
x,y,z
-x,-y,z
1/2-x,y,z
1/2+x,-y,z
x,1/2+y,1/2+z
-x,1/2-y,1/2+z
1/2-x,1/2+y,1/2+z
1/2+x,1/2-y,1/2+z
loop_
_atom_site_type_symbol
_atom_site_label
_atom_site_fract_x
_atom_site_fract_y
_atom_site_fract_z
Si Si1 0.447397 0.761525 0.439010
Si Si2 0.841559 0.513440 0.259842
Si Si3 0.976246 0.403629 0.799126
Si Si4 0.839723 0.874312 0.162240
Si Si5 0.341162 0.834194 0.604640
Si Si6 0.655964 0.015446 0.992057
Si Si7 0.565787 0.670944 0.602567
Si Si8 0.843779 0.308017 0.248344
O O1 0.512649 0.820167 0.377782
O O2 0.390706 0.834758 0.497158
O O3 0.495829 0.701069 0.523025
O O4 0.390962 0.704968 0.358838
O O5 0.750000 0.541132 0.272230
O O6 0.879631 0.590647 0.183744
O O7 0.882318 0.513790 0.375216
O O8 0.851384 0.412856 0.211713
O O9 0.026749 0.389193 0.693335
O O10 0.000000 0.500000 0.851278
O O11 0.884054 0.407164 0.767093
O O12 0.750000 0.904325 0.180807
O O13 0.850075 0.766238 0.153258
O O14 0.872597 0.926071 0.057508
O O15 0.250000 0.857921 0.578206
O O16 0.750000 0.012843 0.982673
O O17 0.629942 0.109074 0.044870
O O18 0.615168 0.753715 0.653502
O O19 0.750000 0.282037 0.263995
#
# Coordination Sequence:
#
# PCOD8183830 Si02
#       8
#     8   8   8   8   8   8   8   8
#     4  11  24  38  62  88 124 164 204 247 317 371
#     4   9  20  36  62  93 117 147 202 253 294 353
#     4  11  23  41  58  88 125 157 204 257 304 363
#     4  10  20  37  63  87 120 161 204 250 305 367
#     4  10  20  38  62  89 120 160 205 251 301 367
#     4  10  20  36  61  93 118 155 202 251 307 364
#     4  11  23  38  60  88 124 160 200 254 311 364
#     4  10  22  43  63  87 121 164 209 253 301 375
#
# _framework density 20.442449
#
# number of rings (size 3 to 8) (size 9 to 14) (size 15 to 20)
#    0.000    1.750    2.500    1.500    1.750    3.000 
#    0.000    2.500    0.000    0.000    0.000    0.000 
#    0.000    0.000    0.000    0.000    0.000    0.000 
#
# Total GULP energy -396689.362884 kJ/mol
# GULP energy per Si atom -12396.542590 kJ/mol
# Density = 2.039592 g / cm^3
# Si number density = 20.442449 Si / 1000 Ang^3
#
#
#
# Elastic Constant Matrix: (Units=GPa)
#
#
# Indices 1 2 3 4 5 6 
#
# 1 57.8730 22.9692 33.9267 0.0000 0.0000 0.0000
# 2 22.9692 112.9890 45.0608 0.0000 0.0000 0.0000
# 3 33.9267 45.0608 69.3506 0.0000 0.0000 0.0000
# 4 0.0000 0.0000 0.0000 28.9013 0.0000 0.0000
# 5 0.0000 0.0000 0.0000 0.0000 32.8231 0.0000
# 6 0.0000 0.0000 0.0000 0.0000 0.0000 20.0907
#
#
#
# Elastic Compliance Matrix: (Units=1/GPa)
#
#
# Indices 1 2 3 4 5 6 
#
# 1 0.024233 -0.000268 -0.011681 0.000000 0.000000 0.000000
# 2 -0.000268 0.011949 -0.007633 0.000000 0.000000 0.000000
# 3 -0.011681 -0.007633 0.025093 0.000000 0.000000 0.000000
# 4 0.000000 0.000000 0.000000 0.034601 0.000000 0.000000
# 5 0.000000 0.000000 0.000000 0.000000 0.030466 0.000000
# 6 0.000000 0.000000 0.000000 0.000000 0.000000 0.049774
#
#
# Mechanical properties :
#
#
# Convention : Reuss Voigt Hill
#
# Bulk Modulus (GPa) = 45.22396 49.34733 47.28565
# Shear Modulus (GPa) = 22.45673 25.58009 24.01841
#
# Velocity S-wave (km/s) = 3.31801 3.54124 3.43144
# Velocity P-wave (km/s) = 6.07038 6.39629 6.23547
#
# Compressibility (1/GPa) = 0.02211217
#
# Stress axis : x y z
#
# Youngs Moduli (GPa) = 41.26571 83.68984 39.85120
#
# Poissons Ratio (x) = 0.02241 0.46550
# Poissons Ratio (y) = 0.01105 0.30418
# Poissons Ratio (z) = 0.48202 0.63879
#
# Static dielectric constant tensor:
#      x y z
#    x 3.787640 0.000000 0.000000 
#    y 0.000000 3.665840 0.000000 
#    z 0.000000 0.000000 3.787350 
# 
# 
# High freq. dielectric constant tensor:
#      x y z
#    x 1.796240 0.000000 0.000000 
#    y 0.000000 1.803910 0.000000 
#    z 0.000000 0.000000 1.789660 
# 
# From -- ./inp_files/13142.got.cif
#   From: 2010.03.12/outbox.cif.g09.slc.cpg/sg40_7_cif.got.tgz:13142.got - 2010.04.14 01:38:03.
