data_PCOD8183892
_publ_section_title
;
Structure prediction by ZEFSAII (Michael W. Deem and Ramdas Pophale) SiO2 
 PCOD8183892
Probable space group: A M A 2
;
_chemical_formula_sum "Si O2"
_cell_formula_units_Z 48
_cell_length_a 23.351017
_cell_length_b 11.741823
_cell_length_c 7.871548
_cell_angle_alpha 90.000000
_cell_angle_beta 90.000000
_cell_angle_gamma 90.000000
_cell_volume 2158.248648
_symmetry_space_group_name_H-M "A M A 2"
_symmetry_group_IT_number 40
_symmetry_cell_setting 'orthorhombic'
loop_
_space_group_symop_operation_xyz
x,y,z
-x,-y,z
1/2-x,y,z
1/2+x,-y,z
x,1/2+y,1/2+z
-x,1/2-y,1/2+z
1/2-x,1/2+y,1/2+z
1/2+x,1/2-y,1/2+z
loop_
_atom_site_type_symbol
_atom_site_label
_atom_site_fract_x
_atom_site_fract_y
_atom_site_fract_z
Si Si1 0.394915 0.533570 0.966790
Si Si2 0.814855 0.052314 0.757661
Si Si3 0.684193 0.276915 0.950761
Si Si4 0.186486 0.694848 0.348297
Si Si5 0.512007 0.874318 0.705973
Si Si6 0.075045 0.800521 0.447369
O O1 0.353388 0.620623 0.866282
O O2 0.421461 0.427724 0.857681
O O3 0.358383 0.462231 0.104548
O O4 0.444506 0.609748 0.049489
O O5 0.750000 0.069032 0.688483
O O6 0.834830 0.157262 0.873782
O O7 0.816923 0.940429 0.876181
O O8 0.750000 0.305145 0.912162
O O9 0.672085 0.275783 0.152158
O O10 0.250000 0.740164 0.397131
O O11 0.139754 0.752965 0.469979
O O12 0.454148 0.817769 0.631828
O O13 0.537667 0.788609 0.842256
O O14 0.500000 0.000000 0.787355
#
# Coordination Sequence:
#
# PCOD8183892 Si02
#       6
#     8   8   8   8   8   8
#     4  10  20  37  62  83 119 160 210 251 300 367
#     4   9  17  33  59  89 122 161 199 249 311 370
#     4   9  17  33  61  93 126 161 197 248 313 369
#     4   9  18  36  61  91 122 156 200 249 306 369
#     4  10  23  43  61  84 124 162 211 257 307 366
#     4  11  22  42  64  90 121 164 208 257 311 367
#
# _framework density 22.240255000000001
#
# number of rings (size 3 to 8) (size 9 to 14) (size 15 to 20)
#    0.000    2.333    3.333    1.500    0.000    4.000 
#    0.000   10.833    0.000    4.000    0.000    0.000 
#    0.000    0.000    0.000    0.000    0.000    0.000 
#
# Total GULP energy -297389.448575 kJ/mol
# GULP energy per Si atom -12391.227024 kJ/mol
# Density = 2.218964 g / cm^3
# Si number density = 22.240255 Si / 1000 Ang^3
#
#
#
# Elastic Constant Matrix: (Units=GPa)
#
#
# Indices 1 2 3 4 5 6 
#
# 1 111.5246 48.0319 25.7720 0.0000 0.0000 0.0000
# 2 48.0319 154.0195 47.7708 0.0000 0.0000 0.0000
# 3 25.7720 47.7708 28.0363 0.0000 0.0000 0.0000
# 4 0.0000 0.0000 0.0000 38.1940 0.0000 0.0000
# 5 0.0000 0.0000 0.0000 0.0000 19.8764 0.0000
# 6 0.0000 0.0000 0.0000 0.0000 0.0000 50.7738
#
#
#
# Elastic Compliance Matrix: (Units=1/GPa)
#
#
# Indices 1 2 3 4 5 6 
#
# 1 0.011415 -0.000647 -0.009390 0.000000 0.000000 0.000000
# 2 -0.000647 0.013806 -0.022929 0.000000 0.000000 0.000000
# 3 -0.009390 -0.022929 0.083369 0.000000 0.000000 0.000000
# 4 0.000000 0.000000 0.000000 0.026182 0.000000 0.000000
# 5 0.000000 0.000000 0.000000 0.000000 0.050311 0.000000
# 6 0.000000 0.000000 0.000000 0.000000 0.000000 0.019695
#
#
# Mechanical properties :
#
#
# Convention : Reuss Voigt Hill
#
# Bulk Modulus (GPa) = 23.44301 59.63666 41.53983
# Shear Modulus (GPa) = 17.54802 33.23589 25.39195
#
# Velocity S-wave (km/s) = 2.81200 3.86994 3.38259
# Velocity P-wave (km/s) = 4.59421 6.84409 5.82874
#
# Compressibility (1/GPa) = 0.04265664
#
# Stress axis : x y z
#
# Youngs Moduli (GPa) = 87.60026 72.43015 11.99484
#
# Poissons Ratio (x) = 0.04690 0.11264
# Poissons Ratio (y) = 0.05672 0.27503
# Poissons Ratio (z) = 0.82259 1.66078
#
# Static dielectric constant tensor:
#      x y z
#    x 4.438280 0.000000 0.000000 
#    y 0.000000 4.475300 0.000000 
#    z 0.000000 0.000000 3.272080 
# 
# 
# High freq. dielectric constant tensor:
#      x y z
#    x 1.901310 0.000000 0.000000 
#    y 0.000000 1.900010 0.000000 
#    z 0.000000 0.000000 1.800840 
# 
# From -- ./inp_files/8722.got.cif
#   From: 2010.03.12/outbox.cif.g09.slc.cpg/sg40_5_cif.got.tgz:8722.got - 2010.04.14 01:38:03.
