data_PCOD8183576
_publ_section_title
;
Structure prediction by ZEFSAII (Michael W. Deem and Ramdas Pophale) SiO2 
 PCOD8183576
Probable space group: A M A 2
;
_chemical_formula_sum "Si O2"
_cell_formula_units_Z 56
_cell_length_a 8.870848
_cell_length_b 23.638836
_cell_length_c 13.607206
_cell_angle_alpha 90.000000
_cell_angle_beta 90.000000
_cell_angle_gamma 90.000000
_cell_volume 2853.383759
_symmetry_space_group_name_H-M "A M A 2"
_symmetry_group_IT_number 40
_symmetry_cell_setting 'orthorhombic'
loop_
_space_group_symop_operation_xyz
x,y,z
-x,-y,z
1/2-x,y,z
1/2+x,-y,z
x,1/2+y,1/2+z
-x,1/2-y,1/2+z
1/2-x,1/2+y,1/2+z
1/2+x,1/2-y,1/2+z
loop_
_atom_site_type_symbol
_atom_site_label
_atom_site_fract_x
_atom_site_fract_y
_atom_site_fract_z
Si Si1 0.925245 0.883304 0.417000
Si Si2 0.576563 0.336004 0.405891
Si Si3 0.427562 0.941038 0.588793
Si Si4 0.423864 0.159426 0.129760
Si Si5 0.077940 0.732245 0.811519
Si Si6 0.926143 0.058327 0.813790
Si Si7 0.428530 0.940996 0.234295
O O1 0.750000 0.899495 0.418862
O O2 0.949535 0.818231 0.388314
O O3 0.999552 0.891435 0.523733
O O4 0.007641 0.924370 0.340590
O O5 0.750000 0.349451 0.385401
O O6 0.547152 0.319804 0.519285
O O7 0.528806 0.284100 0.337705
O O8 0.482559 0.391655 0.382422
O O9 0.250000 0.943624 0.571814
O O10 0.469734 0.927829 0.701327
O O11 0.500000 0.000000 0.554814
O O12 0.250000 0.141782 0.148381
O O13 0.465108 0.211248 0.202114
O O14 0.526825 0.105440 0.153042
O O15 0.250000 0.753502 0.815710
O O16 0.750000 0.051280 0.827086
O O17 0.000000 0.000000 0.849057
O O18 0.250000 0.946388 0.240165
O O19 0.500000 0.000000 0.200206
#
# Coordination Sequence:
#
# PCOD8183576 Si02
#       7
#     8   8   8   8   8   8   8
#     4  10  20  35  55  81 115 152 189 233 281 330
#     4  11  23  39  62  87 112 145 186 229 278 335
#     4  10  20  34  54  81 113 150 190 233 279 331
#     4   9  21  41  59  80 112 148 186 232 280 328
#     4   9  20  39  59  80 111 147 184 228 278 328
#     4  10  22  40  60  83 114 148 186 232 280 330
#     4  11  21  34  55  82 113 150 190 233 280 334
#
# _framework density 19.625820999999998
#
# number of rings (size 3 to 8) (size 9 to 14) (size 15 to 20)
#    0.000    2.000    0.000    4.286    0.000    7.429 
#    0.000    4.286    0.000    0.000    0.000    0.000 
#    0.000    0.000    0.000    0.000    0.000    0.000 
#
# Total GULP energy -347337.932550 kJ/mol
# GULP energy per Si atom -12404.926163 kJ/mol
# Density = 1.958115 g / cm^3
# Si number density = 19.625821 Si / 1000 Ang^3
#
#
#
# Elastic Constant Matrix: (Units=GPa)
#
#
# Indices 1 2 3 4 5 6 
#
# 1 103.6392 47.5389 39.4972 0.0000 0.0000 0.0000
# 2 47.5389 104.6451 51.5873 0.0000 0.0000 0.0000
# 3 39.4972 51.5873 94.3994 0.0000 0.0000 0.0000
# 4 0.0000 0.0000 0.0000 24.6723 0.0000 0.0000
# 5 0.0000 0.0000 0.0000 0.0000 28.5203 0.0000
# 6 0.0000 0.0000 0.0000 0.0000 0.0000 36.7937
#
#
#
# Elastic Compliance Matrix: (Units=1/GPa)
#
#
# Indices 1 2 3 4 5 6 
#
# 1 0.012771 -0.004335 -0.002974 0.000000 0.000000 0.000000
# 2 -0.004335 0.014552 -0.006138 0.000000 0.000000 0.000000
# 3 -0.002974 -0.006138 0.015192 0.000000 0.000000 0.000000
# 4 0.000000 0.000000 0.000000 0.040531 0.000000 0.000000
# 5 0.000000 0.000000 0.000000 0.000000 0.035063 0.000000
# 6 0.000000 0.000000 0.000000 0.000000 0.000000 0.027179
#
#
# Mechanical properties :
#
#
# Convention : Reuss Voigt Hill
#
# Bulk Modulus (GPa) = 64.02458 64.43671 64.23064
# Shear Modulus (GPa) = 28.18657 28.93460 28.56058
#
# Velocity S-wave (km/s) = 3.79383 3.84384 3.81892
# Velocity P-wave (km/s) = 7.20308 7.25287 7.22801
#
# Compressibility (1/GPa) = 0.01561900
#
# Stress axis : x y z
#
# Youngs Moduli (GPa) = 78.30233 68.72087 65.82374
#
# Poissons Ratio (x) = 0.29794 0.19577
# Poissons Ratio (y) = 0.33948 0.40404
# Poissons Ratio (z) = 0.23289 0.42182
#
# Static dielectric constant tensor:
#      x y z
#    x 3.610160 0.000000 0.000000 
#    y 0.000000 3.471170 0.000000 
#    z 0.000000 0.000000 3.604050 
# 
# 
# High freq. dielectric constant tensor:
#      x y z
#    x 1.773830 0.000000 0.000000 
#    y 0.000000 1.758710 0.000000 
#    z 0.000000 0.000000 1.764170 
# 
# From -- ./inp_files/15358.got.cif
#   From: 2010.03.12/outbox.cif.g09.slc.cpg/sg40_8_cif.got.tgz:15358.got - 2010.04.14 01:38:03.
