data_PCOD8183976
_publ_section_title
;
Structure prediction by ZEFSAII (Michael W. Deem and Ramdas Pophale) SiO2 
 PCOD8183976
Probable space group: A M A 2
;
_chemical_formula_sum "Si O2"
_cell_formula_units_Z 56
_cell_length_a 18.187626
_cell_length_b 9.557298
_cell_length_c 14.920020
_cell_angle_alpha 90.000000
_cell_angle_beta 90.000000
_cell_angle_gamma 90.000000
_cell_volume 2593.465935
_symmetry_space_group_name_H-M "A M A 2"
_symmetry_group_IT_number 40
_symmetry_cell_setting 'orthorhombic'
loop_
_space_group_symop_operation_xyz
x,y,z
-x,-y,z
1/2-x,y,z
1/2+x,-y,z
x,1/2+y,1/2+z
-x,1/2-y,1/2+z
1/2-x,1/2+y,1/2+z
1/2+x,1/2-y,1/2+z
loop_
_atom_site_type_symbol
_atom_site_label
_atom_site_fract_x
_atom_site_fract_y
_atom_site_fract_z
Si Si1 0.945005 0.250181 0.991470
Si Si2 0.832058 0.208710 0.552051
Si Si3 0.032200 0.847259 0.659786
Si Si4 0.334476 0.976000 0.048006
Si Si5 0.328989 0.039646 0.429454
Si Si6 0.667834 0.595762 0.753750
Si Si7 0.482844 0.332778 0.815483
O O1 0.892473 0.382023 0.980110
O O2 0.004204 0.257577 0.911269
O O3 0.893148 0.113482 0.990870
O O4 0.985496 0.265318 0.085108
O O5 0.750000 0.209019 0.593699
O O6 0.884320 0.137633 0.626038
O O7 0.855784 0.365263 0.526373
O O8 0.834861 0.121836 0.459943
O O9 0.035153 0.747928 0.746303
O O10 0.000000 0.000000 0.681961
O O11 0.250000 0.940673 0.020376
O O12 0.346201 0.954099 0.153517
O O13 0.250000 0.104176 0.457685
O O14 0.336806 0.038343 0.321362
O O15 0.750000 0.664769 0.762303
O O16 0.601274 0.697827 0.783601
O O17 0.500000 0.500000 0.818731
#
# Coordination Sequence:
#
# PCOD8183976 Si02
#       7
#     8   8   8   8   8   8   8
#     4  12  23  41  65  97 135 171 221 280 327 400
#     4  10  22  41  66  95 132 175 217 270 337 396
#     4  12  25  44  65  98 134 171 224 280 341 398
#     4  10  22  42  67  98 132 173 225 280 334 400
#     4  10  20  38  67  96 127 174 219 266 332 396
#     4  10  20  39  65  95 126 167 224 273 322 397
#     4  12  24  43  67  96 132 176 225 279 341 402
#
# _framework density 21.592725999999999
#
# number of rings (size 3 to 8) (size 9 to 14) (size 15 to 20)
#    0.000    1.143    4.286    2.571    0.000    0.000 
#    5.143    1.429    0.000    0.000    0.000    0.000 
#    0.000    0.000    0.000    0.000    0.000    0.000 
#
# Total GULP energy -347055.696657 kJ/mol
# GULP energy per Si atom -12394.846309 kJ/mol
# Density = 2.154358 g / cm^3
# Si number density = 21.592726 Si / 1000 Ang^3
#
#
#
# Elastic Constant Matrix: (Units=GPa)
#
#
# Indices 1 2 3 4 5 6 
#
# 1 106.1741 37.0492 11.6396 0.0000 0.0000 0.0000
# 2 37.0492 101.4514 30.3752 0.0000 0.0000 0.0000
# 3 11.6396 30.3752 74.3251 0.0000 0.0000 0.0000
# 4 0.0000 0.0000 0.0000 24.3260 0.0000 0.0000
# 5 0.0000 0.0000 0.0000 0.0000 28.3162 0.0000
# 6 0.0000 0.0000 0.0000 0.0000 0.0000 27.5952
#
#
#
# Elastic Compliance Matrix: (Units=1/GPa)
#
#
# Indices 1 2 3 4 5 6 
#
# 1 0.010795 -0.003915 -0.000090 0.000000 0.000000 0.000000
# 2 -0.003915 0.012651 -0.004557 0.000000 0.000000 0.000000
# 3 -0.000090 -0.004557 0.015331 0.000000 0.000000 0.000000
# 4 0.000000 0.000000 0.000000 0.041108 0.000000 0.000000
# 5 0.000000 0.000000 0.000000 0.000000 0.035315 0.000000
# 6 0.000000 0.000000 0.000000 0.000000 0.000000 0.036238
#
#
# Mechanical properties :
#
#
# Convention : Reuss Voigt Hill
#
# Bulk Modulus (GPa) = 46.18642 48.89762 47.54202
# Shear Modulus (GPa) = 28.44450 29.57326 29.00888
#
# Velocity S-wave (km/s) = 3.63343 3.70482 3.66929
# Velocity P-wave (km/s) = 6.24809 6.40277 6.32590
#
# Compressibility (1/GPa) = 0.02165138
#
# Stress axis : x y z
#
# Youngs Moduli (GPa) = 92.63948 79.04457 65.22729
#
# Poissons Ratio (x) = 0.30946 0.00590
# Poissons Ratio (y) = 0.36268 0.29725
# Poissons Ratio (z) = 0.00838 0.36022
#
# Static dielectric constant tensor:
#      x y z
#    x 4.436350 0.000000 0.000000 
#    y 0.000000 3.666990 0.000000 
#    z 0.000000 0.000000 3.829650 
# 
# 
# High freq. dielectric constant tensor:
#      x y z
#    x 1.876630 0.000000 0.000000 
#    y 0.000000 1.817040 0.000000 
#    z 0.000000 0.000000 1.841800 
# 
# From -- ./inp_files/18213.got.cif
#   From: 2010.03.12/outbox.cif.g09.slc.cpg/sg40_10_cif.got.tgz:18213.got - 2010.04.14 01:38:03.
