data_PCOD8183180
_publ_section_title
;
Structure prediction by ZEFSAII (Michael W. Deem and Ramdas Pophale) SiO2 
 PCOD8183180
Probable space group: A M A 2
;
_chemical_formula_sum "Si O2"
_cell_formula_units_Z 64
_cell_length_a 8.845048
_cell_length_b 30.200642
_cell_length_c 14.172937
_cell_angle_alpha 90.000000
_cell_angle_beta 90.000000
_cell_angle_gamma 90.000000
_cell_volume 3785.961785
_symmetry_space_group_name_H-M "A M A 2"
_symmetry_group_IT_number 40
_symmetry_cell_setting 'orthorhombic'
loop_
_space_group_symop_operation_xyz
x,y,z
-x,-y,z
1/2-x,y,z
1/2+x,-y,z
x,1/2+y,1/2+z
-x,1/2-y,1/2+z
1/2-x,1/2+y,1/2+z
1/2+x,1/2-y,1/2+z
loop_
_atom_site_type_symbol
_atom_site_label
_atom_site_fract_x
_atom_site_fract_y
_atom_site_fract_z
Si Si1 0.423263 0.697928 0.368230
Si Si2 0.919095 0.820318 0.161072
Si Si3 0.926514 0.630806 0.496709
Si Si4 0.929008 0.954527 0.073612
Si Si5 0.427180 0.788276 0.473304
Si Si6 0.424147 0.730700 0.166230
Si Si7 0.419566 0.636584 0.859232
Si Si8 0.927998 0.955040 0.288603
O O1 0.250000 0.689720 0.396576
O O2 0.523103 0.656730 0.402735
O O3 0.477362 0.744334 0.416032
O O4 0.442644 0.698253 0.255317
O O5 0.750000 0.816994 0.117323
O O6 0.916667 0.852384 0.249186
O O7 0.974904 0.772605 0.193134
O O8 0.034860 0.837589 0.083783
O O9 0.750000 0.621097 0.492898
O O10 0.013505 0.584552 0.506122
O O11 0.750000 0.956890 0.066635
O O12 0.984534 0.946206 0.181285
O O13 0.000000 0.000000 0.035212
O O14 0.250000 0.787896 0.493426
O O15 0.516160 0.792159 0.571451
O O16 0.465396 0.832419 0.414845
O O17 0.250000 0.744718 0.153189
O O18 0.250000 0.641850 0.901407
O O19 0.474093 0.585266 0.858952
O O20 0.750000 0.960916 0.287533
O O21 0.000000 0.000000 0.329324
#
# Coordination Sequence:
#
# PCOD8183180 Si02
#       8
#     8   8   8   8   8   8   8   8
#     4  10  22  37  52  73 103 137 174 217 259 305
#     4  11  20  32  50  72 104 140 174 216 258 299
#     4  12  23  33  51  77 104 141 181 213 257 312
#     4  10  19  34  52  75 107 139 173 214 260 307
#     4  11  22  35  52  76 104 135 174 215 259 306
#     4  11  22  37  53  73 101 136 178 218 258 306
#     4  10  20  34  51  73 103 140 177 211 256 306
#     4   9  18  32  49  73 102 136 171 210 257 305
#
# _framework density 16.904554000000001
#
# number of rings (size 3 to 8) (size 9 to 14) (size 15 to 20)
#    0.000    1.500    3.750    2.625    0.000    3.000 
#    0.000    0.000    0.000    0.000    0.000    0.875 
#    0.000    4.000    0.000    0.000    0.000    0.000 
#
# Total GULP energy -396813.828355 kJ/mol
# GULP energy per Si atom -12400.432136 kJ/mol
# Density = 1.686608 g / cm^3
# Si number density = 16.904554 Si / 1000 Ang^3
#
#
#
# Elastic Constant Matrix: (Units=GPa)
#
#
# Indices 1 2 3 4 5 6 
#
# 1 71.3430 35.6155 26.5821 0.0000 0.0000 0.0000
# 2 35.6155 108.6223 26.0604 0.0000 0.0000 0.0000
# 3 26.5821 26.0604 69.1155 0.0000 0.0000 0.0000
# 4 0.0000 0.0000 0.0000 21.1700 0.0000 0.0000
# 5 0.0000 0.0000 0.0000 0.0000 23.2784 0.0000
# 6 0.0000 0.0000 0.0000 0.0000 0.0000 31.5771
#
#
#
# Elastic Compliance Matrix: (Units=1/GPa)
#
#
# Indices 1 2 3 4 5 6 
#
# 1 0.018352 -0.004754 -0.005266 0.000000 0.000000 0.000000
# 2 -0.004754 0.011353 -0.002452 0.000000 0.000000 0.000000
# 3 -0.005266 -0.002452 0.017418 0.000000 0.000000 0.000000
# 4 0.000000 0.000000 0.000000 0.047237 0.000000 0.000000
# 5 0.000000 0.000000 0.000000 0.000000 0.042958 0.000000
# 6 0.000000 0.000000 0.000000 0.000000 0.000000 0.031668
#
#
# Mechanical properties :
#
#
# Convention : Reuss Voigt Hill
#
# Bulk Modulus (GPa) = 45.08669 47.28855 46.18762
# Shear Modulus (GPa) = 24.83548 25.92662 25.38105
#
# Velocity S-wave (km/s) = 3.83712 3.92051 3.87904
# Velocity P-wave (km/s) = 6.80886 6.96623 6.88799
#
# Compressibility (1/GPa) = 0.02217950
#
# Stress axis : x y z
#
# Youngs Moduli (GPa) = 54.48983 88.07966 57.41035
#
# Poissons Ratio (x) = 0.41873 0.30231
# Poissons Ratio (y) = 0.25904 0.14080
# Poissons Ratio (z) = 0.28693 0.21601
#
# Static dielectric constant tensor:
#      x y z
#    x 3.192220 0.000000 0.000000 
#    y 0.000000 3.201830 0.000000 
#    z 0.000000 0.000000 2.951350 
# 
# 
# High freq. dielectric constant tensor:
#      x y z
#    x 1.660310 0.000000 0.000000 
#    y 0.000000 1.646250 0.000000 
#    z 0.000000 0.000000 1.620990 
# 
# From -- ./inp_files/15906.got.cif
#   From: 2010.03.12/outbox.cif.g09.slc.cpg/sg40_8_cif.got.tgz:15906.got - 2010.04.14 01:38:03.
