data_PCOD8183114
_publ_section_title
;
Structure prediction by ZEFSAII (Michael W. Deem and Ramdas Pophale) SiO2 
 PCOD8183114
Probable space group: A M A 2
;
_chemical_formula_sum "Si O2"
_cell_formula_units_Z 64
_cell_length_a 16.879094
_cell_length_b 9.345327
_cell_length_c 20.600488
_cell_angle_alpha 90.000000
_cell_angle_beta 90.000000
_cell_angle_gamma 90.000000
_cell_volume 3249.534427
_symmetry_space_group_name_H-M "A M A 2"
_symmetry_group_IT_number 40
_symmetry_cell_setting 'orthorhombic'
loop_
_space_group_symop_operation_xyz
x,y,z
-x,-y,z
1/2-x,y,z
1/2+x,-y,z
x,1/2+y,1/2+z
-x,1/2-y,1/2+z
1/2-x,1/2+y,1/2+z
1/2+x,1/2-y,1/2+z
loop_
_atom_site_type_symbol
_atom_site_label
_atom_site_fract_x
_atom_site_fract_y
_atom_site_fract_z
Si Si1 0.656901 0.161326 0.039950
Si Si2 0.155684 0.830407 0.660259
Si Si3 0.344347 0.019681 0.539342
Si Si4 0.655430 0.978553 0.921664
Si Si5 0.156090 0.520158 0.278104
Si Si6 0.156365 0.840329 0.420238
Si Si7 0.408663 0.013779 0.157205
Si Si8 0.843317 0.655249 0.774008
O O1 0.750000 0.173413 0.030131
O O2 0.620292 0.320405 0.045731
O O3 0.641301 0.072697 0.104558
O O4 0.619787 0.083190 0.976560
O O5 0.250000 0.811011 0.661266
O O6 0.115108 0.678194 0.655133
O O7 0.126866 0.925328 0.599789
O O8 0.123635 0.908883 0.725137
O O9 0.250000 0.024987 0.538594
O O10 0.378490 0.950937 0.472882
O O11 0.750000 0.978742 0.923935
O O12 0.626363 0.027258 0.849818
O O13 0.623251 0.818472 0.935075
O O14 0.250000 0.520520 0.276982
O O15 0.128717 0.681603 0.261294
O O16 0.250000 0.834021 0.427341
O O17 0.134482 0.889915 0.347540
O O18 0.500000 0.000000 0.139610
O O19 0.391583 0.950219 0.227973
O O20 0.750000 0.637275 0.760729
#
# Coordination Sequence:
#
# PCOD8183114 Si02
#       8
#     8   8   8   8   8   8   8   8
#     4  10  19  33  54  76 101 134 170 208 252 303
#     4  10  19  33  55  78 102 133 169 208 250 299
#     4   9  17  29  51  84 110 129 163 210 253 297
#     4   8  14  26  49  81 111 133 158 200 250 298
#     4   8  15  29  53  85 110 129 162 207 250 297
#     4   8  14  26  48  79 108 130 158 202 252 299
#     4  12  25  37  49  70 102 136 175 219 258 299
#     4   9  17  33  56  77 101 134 168 204 252 306
#
# _framework density 19.695129999999999
#
# number of rings (size 3 to 8) (size 9 to 14) (size 15 to 20)
#    0.000    2.750    0.000    4.125    0.000    5.000 
#    0.000    6.250    0.000    9.000    0.000    0.000 
#    0.000    0.000    0.000    0.000    0.000    0.000 
#
# Total GULP energy -396695.835970 kJ/mol
# GULP energy per Si atom -12396.744874 kJ/mol
# Density = 1.965030 g / cm^3
# Si number density = 19.695130 Si / 1000 Ang^3
#
#
#
# Elastic Constant Matrix: (Units=GPa)
#
#
# Indices 1 2 3 4 5 6 
#
# 1 10.3875 5.5923 2.4518 0.0000 0.0000 0.0000
# 2 5.5923 151.4149 89.2207 0.0000 0.0000 0.0000
# 3 2.4518 89.2207 154.9889 0.0000 0.0000 0.0000
# 4 0.0000 0.0000 0.0000 41.2877 0.0000 0.0000
# 5 0.0000 0.0000 0.0000 0.0000 3.2253 0.0000
# 6 0.0000 0.0000 0.0000 0.0000 0.0000 3.8396
#
#
#
# Elastic Compliance Matrix: (Units=1/GPa)
#
#
# Indices 1 2 3 4 5 6 
#
# 1 0.098289 -0.004107 0.000810 0.000000 0.000000 0.000000
# 2 -0.004107 0.010166 -0.005787 0.000000 0.000000 0.000000
# 3 0.000810 -0.005787 0.009771 0.000000 0.000000 0.000000
# 4 0.000000 0.000000 0.000000 0.024220 0.000000 0.000000
# 5 0.000000 0.000000 0.000000 0.000000 0.310049 0.000000
# 6 0.000000 0.000000 0.000000 0.000000 0.000000 0.260445
#
#
# Mechanical properties :
#
#
# Convention : Reuss Voigt Hill
#
# Bulk Modulus (GPa) = 9.99436 56.81343 33.40390
# Shear Modulus (GPa) = 6.54054 24.30561 15.42308
#
# Velocity S-wave (km/s) = 1.82431 3.51678 2.80141
# Velocity P-wave (km/s) = 3.08594 6.73790 5.24034
#
# Compressibility (1/GPa) = 0.10005639
#
# Stress axis : x y z
#
# Youngs Moduli (GPa) = 10.17404 98.36514 102.34604
#
# Poissons Ratio (x) = 0.40400 -0.08285
# Poissons Ratio (y) = 0.04179 0.59231
# Poissons Ratio (z) = -0.00824 0.56927
#
# Static dielectric constant tensor:
#      x y z
#    x 2.882340 0.000000 0.000000 
#    y 0.000000 3.874160 0.000000 
#    z 0.000000 0.000000 3.984750 
# 
# 
# High freq. dielectric constant tensor:
#      x y z
#    x 1.698540 0.000000 0.000000 
#    y 0.000000 1.774500 0.000000 
#    z 0.000000 0.000000 1.786130 
# 
# From -- ./inp_files/23358.got.cif
#   From: 2010.03.12/outbox.cif.g09.slc.cpg/sg40_12_cif.got.tgz:23358.got - 2010.04.14 01:38:03.
