data_PCOD8183474
_publ_section_title
;
Structure prediction by ZEFSAII (Michael W. Deem and Ramdas Pophale) SiO2 
 PCOD8183474
Probable space group: A M A 2
;
_chemical_formula_sum "Si O2"
_cell_formula_units_Z 44
_cell_length_a 14.746453
_cell_length_b 17.486836
_cell_length_c 8.878295
_cell_angle_alpha 90.000000
_cell_angle_beta 90.000000
_cell_angle_gamma 90.000000
_cell_volume 2289.435324
_symmetry_space_group_name_H-M "A M A 2"
_symmetry_group_IT_number 40
_symmetry_cell_setting 'orthorhombic'
loop_
_space_group_symop_operation_xyz
x,y,z
-x,-y,z
1/2-x,y,z
1/2+x,-y,z
x,1/2+y,1/2+z
-x,1/2-y,1/2+z
1/2-x,1/2+y,1/2+z
1/2+x,1/2-y,1/2+z
loop_
_atom_site_type_symbol
_atom_site_label
_atom_site_fract_x
_atom_site_fract_y
_atom_site_fract_z
Si Si1 0.350645 0.369651 0.787260
Si Si2 0.353683 0.041657 0.236608
Si Si3 0.481930 0.115534 0.480842
Si Si4 0.351343 0.208519 0.664601
Si Si5 0.354136 0.584461 0.407496
Si Si6 0.000000 0.500000 0.233449
O O1 0.250000 0.368388 0.862369
O O2 0.366346 0.450841 0.704470
O O3 0.427041 0.352105 0.909407
O O4 0.358705 0.299895 0.671199
O O5 0.250000 0.058888 0.286772
O O6 0.423068 0.062393 0.369234
O O7 0.378199 0.089394 0.085619
O O8 0.418765 0.185307 0.531437
O O9 0.517666 0.071959 0.627186
O O10 0.250000 0.184063 0.616814
O O11 0.373831 0.165442 0.823974
O O12 0.250000 0.559506 0.389910
O O13 0.412177 0.515892 0.335262
#
# Coordination Sequence:
#
# PCOD8183474 Si02
#       6
#     8   8   8   8   8   4
#     4  10  21  36  56  83 115 147 182 234 286 329
#     4  10  20  36  61  85 111 145 191 238 280 333
#     4  11  20  36  57  87 108 150 193 231 278 340
#     4   9  20  39  58  78 112 149 187 231 289 341
#     4   9  20  36  56  79 108 147 184 228 282 336
#     4  10  20  32  54  82 110 140 186 230 270 328
#
# _framework density 19.218713000000001
#
# number of rings (size 3 to 8) (size 9 to 14) (size 15 to 20)
#    0.000    2.182    1.818    0.545    2.545    2.909 
#    3.273    0.000    0.000    1.091    0.000    0.000 
#    0.000    0.000    0.000    0.000    0.000    0.000 
#
# Total GULP energy -272674.243584 kJ/mol
# GULP energy per Si atom -12394.283799 kJ/mol
# Density = 1.917497 g / cm^3
# Si number density = 19.218713 Si / 1000 Ang^3
#
#
#
# Elastic Constant Matrix: (Units=GPa)
#
#
# Indices 1 2 3 4 5 6 
#
# 1 99.3491 37.9106 39.5523 0.0000 0.0000 0.0000
# 2 37.9106 87.4660 24.7718 0.0000 0.0000 0.0000
# 3 39.5523 24.7718 69.7130 0.0000 0.0000 0.0000
# 4 0.0000 0.0000 0.0000 17.6507 0.0000 0.0000
# 5 0.0000 0.0000 0.0000 0.0000 35.1134 0.0000
# 6 0.0000 0.0000 0.0000 0.0000 0.0000 21.4436
#
#
#
# Elastic Compliance Matrix: (Units=1/GPa)
#
#
# Indices 1 2 3 4 5 6 
#
# 1 0.014353 -0.004353 -0.006596 0.000000 0.000000 0.000000
# 2 -0.004353 0.014032 -0.002517 0.000000 0.000000 0.000000
# 3 -0.006596 -0.002517 0.018981 0.000000 0.000000 0.000000
# 4 0.000000 0.000000 0.000000 0.056655 0.000000 0.000000
# 5 0.000000 0.000000 0.000000 0.000000 0.028479 0.000000
# 6 0.000000 0.000000 0.000000 0.000000 0.000000 0.046634
#
#
# Mechanical properties :
#
#
# Convention : Reuss Voigt Hill
#
# Bulk Modulus (GPa) = 48.93632 51.22194 50.07913
# Shear Modulus (GPa) = 23.48769 25.12777 24.30773
#
# Velocity S-wave (km/s) = 3.49968 3.61981 3.56025
# Velocity P-wave (km/s) = 6.46904 6.64685 6.55855
#
# Compressibility (1/GPa) = 0.02043472
#
# Stress axis : x y z
#
# Youngs Moduli (GPa) = 69.67399 71.26371 52.68336
#
# Poissons Ratio (x) = 0.31019 0.34752
# Poissons Ratio (y) = 0.30327 0.13259
# Poissons Ratio (z) = 0.45960 0.17935
#
# Static dielectric constant tensor:
#      x y z
#    x 3.784530 0.000000 0.000000 
#    y 0.000000 3.375440 0.000000 
#    z 0.000000 0.000000 3.397210 
# 
# 
# High freq. dielectric constant tensor:
#      x y z
#    x 1.764550 0.000000 0.000000 
#    y 0.000000 1.735820 0.000000 
#    z 0.000000 0.000000 1.727510 
# 
# From -- ./inp_files/6353.got.cif
#   From: 2010.03.12/outbox.cif.g09.slc.cpg/sg40_4_cif.got.tgz:6353.got - 2010.04.14 01:38:03.
