data_PCOD8183457
_publ_section_title
;
Structure prediction by ZEFSAII (Michael W. Deem and Ramdas Pophale) SiO2 
 PCOD8183457
Probable space group: A M A 2
;
_chemical_formula_sum "Si O2"
_cell_formula_units_Z 64
_cell_length_a 9.005172
_cell_length_b 14.445423
_cell_length_c 28.078544
_cell_angle_alpha 90.000000
_cell_angle_beta 90.000000
_cell_angle_gamma 90.000000
_cell_volume 3652.555804
_symmetry_space_group_name_H-M "A M A 2"
_symmetry_group_IT_number 40
_symmetry_cell_setting 'orthorhombic'
loop_
_space_group_symop_operation_xyz
x,y,z
-x,-y,z
1/2-x,y,z
1/2+x,-y,z
x,1/2+y,1/2+z
-x,1/2-y,1/2+z
1/2-x,1/2+y,1/2+z
1/2+x,1/2-y,1/2+z
loop_
_atom_site_type_symbol
_atom_site_label
_atom_site_fract_x
_atom_site_fract_y
_atom_site_fract_z
Si Si1 0.072367 0.597912 0.125000
Si Si2 0.923619 0.708296 0.934947
Si Si3 0.415818 0.173553 0.812667
Si Si4 0.575330 0.408352 0.745231
Si Si5 0.420245 0.155620 0.346373
Si Si6 0.582803 0.910468 0.907179
Si Si7 0.920162 0.775273 0.711494
Si Si8 0.926692 0.597205 0.027315
O O1 0.250000 0.587623 0.121057
O O2 0.023630 0.671231 0.164989
O O3 0.000000 0.500000 0.138453
O O4 0.002442 0.634091 0.075609
O O5 0.750000 0.707546 0.926371
O O6 0.984199 0.813599 0.927757
O O7 0.989470 0.637676 0.895150
O O8 0.966067 0.672314 0.987096
O O9 0.250000 0.218278 0.819678
O O10 0.545553 0.241622 0.828438
O O11 0.427140 0.086944 0.848924
O O12 0.438163 0.153265 0.756459
O O13 0.500000 0.500000 0.723063
O O14 0.750000 0.411163 0.736284
O O15 0.536782 0.409684 0.801857
O O16 0.513621 0.317763 0.718840
O O17 0.250000 0.145656 0.359953
O O18 0.750000 0.919877 0.925253
O O19 0.500000 0.000000 0.927994
O O20 0.750000 0.745106 0.705291
O O21 0.750000 0.584646 0.034008
O O22 0.000000 0.500000 0.012615
#
# Coordination Sequence:
#
# PCOD8183457 Si02
#       8
#     8   8   8   8   8   8   8   8
#     4  10  20  34  53  77 102 127 158 199 249 301
#     4   9  19  34  50  68  95 131 164 197 243 295
#     4   8  15  29  45  62  91 128 160 191 230 276
#     4  10  20  32  48  72 102 135 169 204 242 288
#     4   9  17  28  44  68  94 122 160 201 236 274
#     4   9  17  29  45  67  95 127 161 193 229 274
#     4   9  18  33  52  72  97 131 167 202 242 289
#     4  10  20  35  54  74  96 123 157 199 248 299
#
# _framework density 17.521977
#
# number of rings (size 3 to 8) (size 9 to 14) (size 15 to 20)
#    0.000    2.750    0.000    3.000    0.000    6.500 
#    0.000    2.500    0.000    0.750    0.000    3.500 
#    0.000    0.000    0.000    0.000    0.000    0.000 
#
# Total GULP energy -396453.202764 kJ/mol
# GULP energy per Si atom -12389.162586 kJ/mol
# Density = 1.748210 g / cm^3
# Si number density = 17.521977 Si / 1000 Ang^3
#
#
#
# Elastic Constant Matrix: (Units=GPa)
#
#
# Indices 1 2 3 4 5 6 
#
# 1 66.1384 45.9239 47.2971 0.0000 0.0000 0.0000
# 2 45.9239 91.7887 65.8739 0.0000 0.0000 0.0000
# 3 47.2971 65.8739 125.9414 0.0000 0.0000 0.0000
# 4 0.0000 0.0000 0.0000 24.3179 0.0000 0.0000
# 5 0.0000 0.0000 0.0000 0.0000 22.9462 0.0000
# 6 0.0000 0.0000 0.0000 0.0000 0.0000 23.2784
#
#
#
# Elastic Compliance Matrix: (Units=1/GPa)
#
#
# Indices 1 2 3 4 5 6 
#
# 1 0.024662 -0.009113 -0.004495 0.000000 0.000000 0.000000
# 2 -0.009113 0.020809 -0.007462 0.000000 0.000000 0.000000
# 3 -0.004495 -0.007462 0.013531 0.000000 0.000000 0.000000
# 4 0.000000 0.000000 0.000000 0.041122 0.000000 0.000000
# 5 0.000000 0.000000 0.000000 0.000000 0.043580 0.000000
# 6 0.000000 0.000000 0.000000 0.000000 0.000000 0.042958
#
#
# Mechanical properties :
#
#
# Convention : Reuss Voigt Hill
#
# Bulk Modulus (GPa) = 59.30346 66.89538 63.09942
# Shear Modulus (GPa) = 21.32884 22.42673 21.87779
#
# Velocity S-wave (km/s) = 3.49271 3.58148 3.53737
# Velocity P-wave (km/s) = 7.08407 7.44067 7.26456
#
# Compressibility (1/GPa) = 0.01686242
#
# Stress axis : x y z
#
# Youngs Moduli (GPa) = 40.54800 48.05575 73.90215
#
# Poissons Ratio (x) = 0.43792 0.33221
# Poissons Ratio (y) = 0.36951 0.55146
# Poissons Ratio (z) = 0.18228 0.35859
#
# Static dielectric constant tensor:
#      x y z
#    x 3.265560 0.000000 0.000000 
#    y 0.000000 3.073370 0.000000 
#    z 0.000000 0.000000 3.338690 
# 
# 
# High freq. dielectric constant tensor:
#      x y z
#    x 1.682740 0.000000 0.000000 
#    y 0.000000 1.653190 0.000000 
#    z 0.000000 0.000000 1.664550 
# 
# From -- ./inp_files/26441.got.cif
#   From: 2010.03.12/outbox.cif.g09.slc.cpg/sg40_14_cif.got.tgz:26441.got - 2010.04.14 01:38:03.
