data_PCOD8183076
_publ_section_title
;
Structure prediction by ZEFSAII (Michael W. Deem and Ramdas Pophale) SiO2 
 PCOD8183076
Probable space group: A M A 2
;
_chemical_formula_sum "Si O2"
_cell_formula_units_Z 64
_cell_length_a 8.812077
_cell_length_b 30.471440
_cell_length_c 14.242713
_cell_angle_alpha 90.000000
_cell_angle_beta 90.000000
_cell_angle_gamma 90.000000
_cell_volume 3824.405946
_symmetry_space_group_name_H-M "A M A 2"
_symmetry_group_IT_number 40
_symmetry_cell_setting 'orthorhombic'
loop_
_space_group_symop_operation_xyz
x,y,z
-x,-y,z
1/2-x,y,z
1/2+x,-y,z
x,1/2+y,1/2+z
-x,1/2-y,1/2+z
1/2-x,1/2+y,1/2+z
1/2+x,1/2-y,1/2+z
loop_
_atom_site_type_symbol
_atom_site_label
_atom_site_fract_x
_atom_site_fract_y
_atom_site_fract_z
Si Si1 0.077510 0.733873 0.170660
Si Si2 0.919412 0.321440 0.654303
Si Si3 0.571887 0.282610 0.959300
Si Si4 0.070554 0.044911 0.073809
Si Si5 0.072665 0.370055 0.492576
Si Si6 0.925832 0.302884 0.366815
Si Si7 0.579469 0.864892 0.350296
Si Si8 0.930512 0.955162 0.288976
O O1 0.250000 0.751578 0.173680
O O2 0.049659 0.699551 0.254596
O O3 0.963458 0.773533 0.190391
O O4 0.043409 0.711796 0.070304
O O5 0.750000 0.320861 0.610684
O O6 0.923254 0.354268 0.740560
O O7 0.039217 0.336261 0.576642
O O8 0.750000 0.277970 0.934467
O O9 0.488312 0.239964 0.920169
O O10 0.498937 0.326685 0.911502
O O11 0.250000 0.042774 0.066354
O O12 0.016026 0.051657 0.181272
O O13 0.000000 0.000000 0.033844
O O14 0.012062 0.084257 0.008971
O O15 0.250000 0.378950 0.484790
O O16 0.012965 0.346904 0.397996
O O17 0.750000 0.307054 0.393152
O O18 0.750000 0.867513 0.388974
O O19 0.508331 0.914206 0.353172
O O20 0.750000 0.957603 0.293531
O O21 0.000000 0.000000 0.330333
#
# Coordination Sequence:
#
# PCOD8183076 Si02
#       8
#     8   8   8   8   8   8   8   8
#     4  10  21  34  48  71 101 129 168 214 251 295
#     4  11  19  30  49  72  99 134 168 205 250 297
#     4  10  19  33  51  71  95 130 169 208 249 301
#     4  10  19  33  51  74 103 132 165 204 250 304
#     4  12  23  34  49  72 100 137 176 210 249 296
#     4  11  22  34  48  71 100 132 167 210 254 298
#     4   9  17  30  48  70  97 131 167 198 242 298
#     4   9  17  30  46  69  98 129 162 197 239 293
#
# _framework density 16.734625000000001
#
# number of rings (size 3 to 8) (size 9 to 14) (size 15 to 20)
#    0.000    1.750    3.750    2.250    0.000    1.000 
#    0.000    0.625    0.000    0.000    0.000    0.875 
#    0.000    2.000    0.000    0.000    0.000    0.000 
#
# Total GULP energy -396694.623130 kJ/mol
# GULP energy per Si atom -12396.706973 kJ/mol
# Density = 1.669654 g / cm^3
# Si number density = 16.734625 Si / 1000 Ang^3
#
#
#
# Elastic Constant Matrix: (Units=GPa)
#
#
# Indices 1 2 3 4 5 6 
#
# 1 63.3662 31.1672 18.8246 0.0000 0.0000 0.0000
# 2 31.1672 121.1237 26.4016 0.0000 0.0000 0.0000
# 3 18.8246 26.4016 65.1180 0.0000 0.0000 0.0000
# 4 0.0000 0.0000 0.0000 23.9993 0.0000 0.0000
# 5 0.0000 0.0000 0.0000 0.0000 15.0952 0.0000
# 6 0.0000 0.0000 0.0000 0.0000 0.0000 28.1963
#
#
#
# Elastic Compliance Matrix: (Units=1/GPa)
#
#
# Indices 1 2 3 4 5 6 
#
# 1 0.018901 -0.004029 -0.003831 0.000000 0.000000 0.000000
# 2 -0.004029 0.009915 -0.002855 0.000000 0.000000 0.000000
# 3 -0.003831 -0.002855 0.017622 0.000000 0.000000 0.000000
# 4 0.000000 0.000000 0.000000 0.041668 0.000000 0.000000
# 5 0.000000 0.000000 0.000000 0.000000 0.066246 0.000000
# 6 0.000000 0.000000 0.000000 0.000000 0.000000 0.035466
#
#
# Mechanical properties :
#
#
# Convention : Reuss Voigt Hill
#
# Bulk Modulus (GPa) = 39.98629 44.71053 42.34841
# Shear Modulus (GPa) = 22.77048 25.00578 23.88813
#
# Velocity S-wave (km/s) = 3.69274 3.86975 3.78228
# Velocity P-wave (km/s) = 6.49061 6.83681 6.66596
#
# Compressibility (1/GPa) = 0.02500857
#
# Stress axis : x y z
#
# Youngs Moduli (GPa) = 52.90804 100.85702 56.74788
#
# Poissons Ratio (x) = 0.40630 0.21738
# Poissons Ratio (y) = 0.21314 0.16204
# Poissons Ratio (z) = 0.20267 0.28799
#
# Static dielectric constant tensor:
#      x y z
#    x 3.109980 0.000000 0.000000 
#    y 0.000000 3.278260 0.000000 
#    z 0.000000 0.000000 3.066930 
# 
# 
# High freq. dielectric constant tensor:
#      x y z
#    x 1.640170 0.000000 0.000000 
#    y 0.000000 1.642810 0.000000 
#    z 0.000000 0.000000 1.615050 
# 
# From -- ./inp_files/15867.got.cif
#   From: 2010.03.12/outbox.cif.g09.slc.cpg/sg40_8_cif.got.tgz:15867.got - 2010.04.14 01:38:03.
