data_PCOD8183704
_publ_section_title
;
Structure prediction by ZEFSAII (Michael W. Deem and Ramdas Pophale) SiO2 
 PCOD8183704
Probable space group: A M A 2
;
_chemical_formula_sum "Si O2"
_cell_formula_units_Z 40
_cell_length_a 8.765426
_cell_length_b 9.145822
_cell_length_c 25.738068
_cell_angle_alpha 90.000000
_cell_angle_beta 90.000000
_cell_angle_gamma 90.000000
_cell_volume 2063.344365
_symmetry_space_group_name_H-M "A M A 2"
_symmetry_group_IT_number 40
_symmetry_cell_setting 'orthorhombic'
loop_
_space_group_symop_operation_xyz
x,y,z
-x,-y,z
1/2-x,y,z
1/2+x,-y,z
x,1/2+y,1/2+z
-x,1/2-y,1/2+z
1/2-x,1/2+y,1/2+z
1/2+x,1/2-y,1/2+z
loop_
_atom_site_type_symbol
_atom_site_label
_atom_site_fract_x
_atom_site_fract_y
_atom_site_fract_z
Si Si1 0.928087 0.842641 0.492890
Si Si2 0.073116 0.345065 0.391237
Si Si3 0.430489 0.661443 0.585194
Si Si4 0.426848 0.842862 0.187379
Si Si5 0.072984 0.840792 0.302323
O O1 0.750000 0.854237 0.506126
O O2 0.958694 0.757784 0.439907
O O3 0.013609 0.761893 0.538986
O O4 0.000000 0.000000 0.485315
O O5 0.250000 0.367784 0.380487
O O6 0.000000 0.500000 0.403930
O O7 0.000428 0.275810 0.340260
O O8 0.500000 0.500000 0.579233
O O9 0.250000 0.650352 0.584005
O O10 0.486141 0.736923 0.639628
O O11 0.250000 0.855261 0.172509
O O12 0.449952 0.771833 0.244319
O O13 0.500000 0.000000 0.192252
O O14 0.250000 0.859615 0.315419
O O15 0.000000 0.000000 0.309191
#
# Coordination Sequence:
#
# PCOD8183704 Si02
#       5
#     8   8   8   8   8
#     4  11  24  41  60  84 113 147 186 231 282 337
#     4  11  24  40  60  84 113 148 187 232 282 335
#     4  11  21  35  58  86 116 151 189 233 279 329
#     4   9  17  31  53  82 114 149 188 230 275 328
#     4  10  20  35  58  86 117 151 189 232 278 329
#
# _framework density 19.386004
#
# number of rings (size 3 to 8) (size 9 to 14) (size 15 to 20)
#    0.000    1.600    0.000    6.600    0.000    8.800 
#    0.000    1.000    0.000    4.800    0.000    0.000 
#    0.000    0.000    0.000    0.000    0.000    0.000 
#
# Total GULP energy -247967.226028 kJ/mol
# GULP energy per Si atom -12398.361301 kJ/mol
# Density = 1.934188 g / cm^3
# Si number density = 19.386004 Si / 1000 Ang^3
#
#
#
# Elastic Constant Matrix: (Units=GPa)
#
#
# Indices 1 2 3 4 5 6 
#
# 1 178.7898 71.5344 98.2863 0.0000 0.0000 0.0000
# 2 71.5344 94.7663 48.1493 0.0000 0.0000 0.0000
# 3 98.2863 48.1493 134.9764 0.0000 0.0000 0.0000
# 4 0.0000 0.0000 0.0000 36.6776 0.0000 0.0000
# 5 0.0000 0.0000 0.0000 0.0000 37.9998 0.0000
# 6 0.0000 0.0000 0.0000 0.0000 0.0000 31.4441
#
#
#
# Elastic Compliance Matrix: (Units=1/GPa)
#
#
# Indices 1 2 3 4 5 6 
#
# 1 0.011102 -0.005219 -0.006222 0.000000 0.000000 0.000000
# 2 -0.005219 0.015341 -0.001673 0.000000 0.000000 0.000000
# 3 -0.006222 -0.001673 0.012536 0.000000 0.000000 0.000000
# 4 0.000000 0.000000 0.000000 0.027265 0.000000 0.000000
# 5 0.000000 0.000000 0.000000 0.000000 0.026316 0.000000
# 6 0.000000 0.000000 0.000000 0.000000 0.000000 0.031803
#
#
# Mechanical properties :
#
#
# Convention : Reuss Voigt Hill
#
# Bulk Modulus (GPa) = 78.41746 93.83028 86.12387
# Shear Modulus (GPa) = 32.29125 33.92845 33.10985
#
# Velocity S-wave (km/s) = 4.08573 4.18802 4.13719
# Velocity P-wave (km/s) = 7.92439 8.47892 8.20634
#
# Compressibility (1/GPa) = 0.01275226
#
# Stress axis : x y z
#
# Youngs Moduli (GPa) = 90.07513 65.18312 79.76807
#
# Poissons Ratio (x) = 0.34017 0.49635
# Poissons Ratio (y) = 0.47008 0.13341
# Poissons Ratio (z) = 0.56049 0.10902
#
# Static dielectric constant tensor:
#      x y z
#    x 3.773510 0.000000 0.000000 
#    y 0.000000 3.277650 0.000000 
#    z 0.000000 0.000000 4.343500 
# 
# 
# High freq. dielectric constant tensor:
#      x y z
#    x 1.777480 0.000000 0.000000 
#    y 0.000000 1.725210 0.000000 
#    z 0.000000 0.000000 1.780960 
# 
# From -- ./inp_files/23811.got.cif
#   From: 2010.03.12/outbox.cif.g09.slc.cpg/sg40_12_cif.got.tgz:23811.got - 2010.04.14 01:38:03.
