data_PCOD8183131
_publ_section_title
;
Structure prediction by ZEFSAII (Michael W. Deem and Ramdas Pophale) SiO2 
 PCOD8183131
Probable space group: A M A 2
;
_chemical_formula_sum "Si O2"
_cell_formula_units_Z 48
_cell_length_a 8.525614
_cell_length_b 9.588593
_cell_length_c 30.970792
_cell_angle_alpha 90.000000
_cell_angle_beta 90.000000
_cell_angle_gamma 90.000000
_cell_volume 2531.820210
_symmetry_space_group_name_H-M "A M A 2"
_symmetry_group_IT_number 40
_symmetry_cell_setting 'orthorhombic'
loop_
_space_group_symop_operation_xyz
x,y,z
-x,-y,z
1/2-x,y,z
1/2+x,-y,z
x,1/2+y,1/2+z
-x,1/2-y,1/2+z
1/2-x,1/2+y,1/2+z
1/2+x,1/2-y,1/2+z
loop_
_atom_site_type_symbol
_atom_site_label
_atom_site_fract_x
_atom_site_fract_y
_atom_site_fract_z
Si Si1 0.935647 0.344263 0.704980
Si Si2 0.934921 0.650732 0.369124
Si Si3 0.935639 0.154770 0.441336
Si Si4 0.434011 0.145919 0.775918
Si Si5 0.064084 0.654859 0.518490
Si Si6 0.432750 0.151224 0.111703
O O1 0.750000 0.341386 0.714647
O O2 0.973169 0.273688 0.657472
O O3 0.000000 0.500000 0.706780
O O4 0.031389 0.260819 0.740378
O O5 0.750000 0.649521 0.374669
O O6 0.000000 0.500000 0.383427
O O7 0.007700 0.772032 0.397854
O O8 0.979852 0.686330 0.320119
O O9 0.750000 0.149445 0.441668
O O10 0.002831 0.240903 0.482329
O O11 0.000000 0.000000 0.443696
O O12 0.250000 0.133842 0.784978
O O13 0.500000 0.000000 0.758218
O O14 0.250000 0.646967 0.514863
O O15 0.009025 0.716446 0.565875
O O16 0.000000 0.500000 0.510484
O O17 0.250000 0.133481 0.107944
O O18 0.500000 0.000000 0.115698
#
# Coordination Sequence:
#
# PCOD8183131 Si02
#       6
#     8   8   8   8   8   8
#     4  10  19  33  54  81 112 145 182 223 268 316
#     4  11  22  39  61  83 107 138 178 220 265 318
#     4  11  23  38  55  79 111 144 179 221 271 321
#     4  11  22  38  58  81 109 141 179 221 268 319
#     4   9  18  33  55  80 106 139 180 222 264 314
#     4   8  15  29  50  76 106 139 177 221 263 308
#
# _framework density 18.958694000000001
#
# number of rings (size 3 to 8) (size 9 to 14) (size 15 to 20)
#    0.000    2.000    0.000    5.500    0.000    4.000 
#    0.000    4.167    0.000    2.000    0.000    0.000 
#    0.000    0.000    0.000    0.000    0.000    0.000 
#
# Total GULP energy -297403.941673 kJ/mol
# GULP energy per Si atom -12391.830903 kJ/mol
# Density = 1.891554 g / cm^3
# Si number density = 18.958694 Si / 1000 Ang^3
#
#
#
# Elastic Constant Matrix: (Units=GPa)
#
#
# Indices 1 2 3 4 5 6 
#
# 1 59.2303 24.9889 21.8149 0.0000 0.0000 0.0000
# 2 24.9889 106.5505 74.2496 0.0000 0.0000 0.0000
# 3 21.8149 74.2496 122.2019 0.0000 0.0000 0.0000
# 4 0.0000 0.0000 0.0000 23.9158 0.0000 0.0000
# 5 0.0000 0.0000 0.0000 0.0000 24.7193 0.0000
# 6 0.0000 0.0000 0.0000 0.0000 0.0000 30.6425
#
#
#
# Elastic Compliance Matrix: (Units=1/GPa)
#
#
# Indices 1 2 3 4 5 6 
#
# 1 0.018834 -0.003597 -0.001177 0.000000 0.000000 0.000000
# 2 -0.003597 0.016964 -0.009665 0.000000 0.000000 0.000000
# 3 -0.001177 -0.009665 0.014266 0.000000 0.000000 0.000000
# 4 0.000000 0.000000 0.000000 0.041813 0.000000 0.000000
# 5 0.000000 0.000000 0.000000 0.000000 0.040454 0.000000
# 6 0.000000 0.000000 0.000000 0.000000 0.000000 0.032634
#
#
# Mechanical properties :
#
#
# Convention : Reuss Voigt Hill
#
# Bulk Modulus (GPa) = 47.20070 58.89886 53.04978
# Shear Modulus (GPa) = 24.88727 26.98412 25.93570
#
# Velocity S-wave (km/s) = 3.62706 3.77677 3.70268
# Velocity P-wave (km/s) = 6.51855 7.08188 6.80605
#
# Compressibility (1/GPa) = 0.02118613
#
# Stress axis : x y z
#
# Youngs Moduli (GPa) = 53.09482 58.94831 70.09812
#
# Poissons Ratio (x) = 0.21205 0.08247
# Poissons Ratio (y) = 0.19100 0.67751
# Poissons Ratio (z) = 0.06247 0.56974
#
# Static dielectric constant tensor:
#      x y z
#    x 3.544200 0.000000 0.000000 
#    y 0.000000 7.035770 0.000000 
#    z 0.000000 0.000000 4.143120 
# 
# 
# High freq. dielectric constant tensor:
#      x y z
#    x 1.746210 0.000000 0.000000 
#    y 0.000000 1.706630 0.000000 
#    z 0.000000 0.000000 1.762860 
# 
# From -- ./inp_files/26115.got.cif
#   From: 2010.03.12/outbox.cif.g09.slc.cpg/sg40_14_cif.got.tgz:26115.got - 2010.04.14 01:38:03.
