data_PCOD8183368
_publ_section_title
;
Structure prediction by ZEFSAII (Michael W. Deem and Ramdas Pophale) SiO2 
 PCOD8183368
Probable space group: A M A 2
;
_chemical_formula_sum "Si O2"
_cell_formula_units_Z 52
_cell_length_a 13.848120
_cell_length_b 15.314679
_cell_length_c 13.188768
_cell_angle_alpha 90.000000
_cell_angle_beta 90.000000
_cell_angle_gamma 90.000000
_cell_volume 2797.067489
_symmetry_space_group_name_H-M "A M A 2"
_symmetry_group_IT_number 40
_symmetry_cell_setting 'orthorhombic'
loop_
_space_group_symop_operation_xyz
x,y,z
-x,-y,z
1/2-x,y,z
1/2+x,-y,z
x,1/2+y,1/2+z
-x,1/2-y,1/2+z
1/2-x,1/2+y,1/2+z
1/2+x,1/2-y,1/2+z
loop_
_atom_site_type_symbol
_atom_site_label
_atom_site_fract_x
_atom_site_fract_y
_atom_site_fract_z
Si Si1 0.140085 0.940646 0.787970
Si Si2 0.858876 0.913730 0.623827
Si Si3 0.637655 0.063156 0.474275
Si Si4 0.000000 0.000000 0.956378
Si Si5 0.362138 0.963020 0.240307
Si Si6 0.538143 0.385412 0.637644
Si Si7 0.545443 0.683803 0.128499
O O1 0.250000 0.918027 0.815672
O O2 0.081279 0.951994 0.890816
O O3 0.097522 0.861471 0.722917
O O4 0.132723 0.030416 0.726122
O O5 0.750000 0.878815 0.607802
O O6 0.930018 0.831553 0.633172
O O7 0.894155 0.973846 0.530121
O O8 0.750000 0.077702 0.495733
O O9 0.612846 0.055102 0.356968
O O10 0.584099 0.146608 0.521837
O O11 0.949754 0.925983 0.025588
O O12 0.250000 0.946258 0.216462
O O13 0.426811 0.897319 0.173294
O O14 0.390907 0.062951 0.214529
O O15 0.568714 0.285504 0.635229
#
# Coordination Sequence:
#
# PCOD8183368 Si02
#       7
#     8   8   8   4   8   8   8
#     4  10  19  36  61  82 110 151 191 225 277 334
#     4   9  18  32  55  86 114 148 182 227 287 336
#     4   9  18  34  59  84 108 146 189 226 282 336
#     4  10  20  42  52  80 110 158 192 224 272 340
#     4   9  20  41  60  77 110 155 192 224 274 343
#     4  10  25  36  58  84 115 149 190 229 284 329
#     4  11  20  35  58  89 118 138 178 246 280 325
#
# _framework density 18.590897999999999
#
# number of rings (size 3 to 8) (size 9 to 14) (size 15 to 20)
#    0.000    2.462    1.538    2.769    4.308    5.538 
#    0.000    0.000    0.000    0.000    0.000    0.000 
#    0.000    0.000    0.000    0.000    0.000    0.000 
#
# Total GULP energy -322407.884845 kJ/mol
# GULP energy per Si atom -12400.303263 kJ/mol
# Density = 1.854858 g / cm^3
# Si number density = 18.590898 Si / 1000 Ang^3
#
#
#
# Elastic Constant Matrix: (Units=GPa)
#
#
# Indices 1 2 3 4 5 6 
#
# 1 92.2049 34.7576 43.8093 0.0000 0.0000 0.0000
# 2 34.7576 109.4020 45.5049 0.0000 0.0000 0.0000
# 3 43.8093 45.5049 116.4457 0.0000 0.0000 0.0000
# 4 0.0000 0.0000 0.0000 12.0575 0.0000 0.0000
# 5 0.0000 0.0000 0.0000 0.0000 22.7968 0.0000
# 6 0.0000 0.0000 0.0000 0.0000 0.0000 14.1026
#
#
#
# Elastic Compliance Matrix: (Units=1/GPa)
#
#
# Indices 1 2 3 4 5 6 
#
# 1 0.013826 -0.002662 -0.004162 0.000000 0.000000 0.000000
# 2 -0.002662 0.011427 -0.003464 0.000000 0.000000 0.000000
# 3 -0.004162 -0.003464 0.011507 0.000000 0.000000 0.000000
# 4 0.000000 0.000000 0.000000 0.082936 0.000000 0.000000
# 5 0.000000 0.000000 0.000000 0.000000 0.043866 0.000000
# 6 0.000000 0.000000 0.000000 0.000000 0.000000 0.070909
#
#
# Mechanical properties :
#
#
# Convention : Reuss Voigt Hill
#
# Bulk Modulus (GPa) = 61.78338 62.91068 62.34703
# Shear Modulus (GPa) = 19.19824 22.72344 20.96084
#
# Velocity S-wave (km/s) = 3.21700 3.49992 3.36144
# Velocity P-wave (km/s) = 6.86324 7.08841 6.97673
#
# Compressibility (1/GPa) = 0.01618558
#
# Stress axis : x y z
#
# Youngs Moduli (GPa) = 72.32747 87.51126 86.90310
#
# Poissons Ratio (x) = 0.23292 0.36165
# Poissons Ratio (y) = 0.19251 0.30104
# Poissons Ratio (z) = 0.30099 0.30315
#
# Static dielectric constant tensor:
#      x y z
#    x 3.564680 0.000000 0.000000 
#    y 0.000000 3.058700 0.000000 
#    z 0.000000 0.000000 3.446690 
# 
# 
# High freq. dielectric constant tensor:
#      x y z
#    x 1.735230 0.000000 0.000000 
#    y 0.000000 1.689770 0.000000 
#    z 0.000000 0.000000 1.723930 
# 
# From -- ./inp_files/12221.got.cif
#   From: 2010.03.12/outbox.cif.g09.slc.cpg/sg40_7_cif.got.tgz:12221.got - 2010.04.14 01:38:03.
