data_PCOD8183789
_publ_section_title
;
Structure prediction by ZEFSAII (Michael W. Deem and Ramdas Pophale) SiO2 
 PCOD8183789
Probable space group: A M A 2
;
_chemical_formula_sum "Si O2"
_cell_formula_units_Z 40
_cell_length_a 8.867803
_cell_length_b 23.458569
_cell_length_c 10.180796
_cell_angle_alpha 90.000000
_cell_angle_beta 90.000000
_cell_angle_gamma 90.000000
_cell_volume 2117.869949
_symmetry_space_group_name_H-M "A M A 2"
_symmetry_group_IT_number 40
_symmetry_cell_setting 'orthorhombic'
loop_
_space_group_symop_operation_xyz
x,y,z
-x,-y,z
1/2-x,y,z
1/2+x,-y,z
x,1/2+y,1/2+z
-x,1/2-y,1/2+z
1/2-x,1/2+y,1/2+z
1/2+x,1/2-y,1/2+z
loop_
_atom_site_type_symbol
_atom_site_label
_atom_site_fract_x
_atom_site_fract_y
_atom_site_fract_z
Si Si1 0.928546 0.059507 0.784870
Si Si2 0.072386 0.121123 0.023832
Si Si3 0.580936 0.729719 0.592466
Si Si4 0.072183 0.849195 0.567854
Si Si5 0.419083 0.366175 0.778374
O O1 0.750000 0.053813 0.796657
O O2 0.977226 0.104700 0.674546
O O3 0.000000 0.000000 0.741154
O O4 0.995517 0.077665 0.924206
O O5 0.250000 0.119295 0.005461
O O6 0.010182 0.185575 0.997510
O O7 0.025458 0.101241 0.172332
O O8 0.750000 0.737157 0.535658
O O9 0.502356 0.789956 0.606103
O O10 0.585315 0.701077 0.737813
O O11 0.250000 0.839677 0.563279
O O12 0.014656 0.870835 0.425223
O O13 0.250000 0.392114 0.771024
#
# Coordination Sequence:
#
# PCOD8183789 Si02
#       5
#     8   8   8   8   8
#     4  11  24  42  62  86 118 160 206 251 299 356
#     4  10  20  36  59  84 115 153 196 244 292 352
#     4   9  19  33  55  86 121 153 189 238 297 357
#     4  10  21  37  59  85 119 157 196 247 303 357
#     4   8  18  36  55  83 116 149 187 236 294 351
#
# _framework density 18.886900000000001
#
# number of rings (size 3 to 8) (size 9 to 14) (size 15 to 20)
#    1.200    1.200    0.000    2.400    2.800    2.400 
#    0.000    1.000    0.000    2.400    0.000    0.000 
#    0.000    0.000    0.000    0.000    0.000    0.000 
#
# Total GULP energy -247853.236772 kJ/mol
# GULP energy per Si atom -12392.661839 kJ/mol
# Density = 1.884391 g / cm^3
# Si number density = 18.886900 Si / 1000 Ang^3
#
#
#
# Elastic Constant Matrix: (Units=GPa)
#
#
# Indices 1 2 3 4 5 6 
#
# 1 75.6438 27.4439 23.0898 0.0000 0.0000 0.0000
# 2 27.4439 69.8273 15.2650 0.0000 0.0000 0.0000
# 3 23.0898 15.2650 96.4218 0.0000 0.0000 0.0000
# 4 0.0000 0.0000 0.0000 25.1837 0.0000 0.0000
# 5 0.0000 0.0000 0.0000 0.0000 15.6472 0.0000
# 6 0.0000 0.0000 0.0000 0.0000 0.0000 31.6408
#
#
#
# Elastic Compliance Matrix: (Units=1/GPa)
#
#
# Indices 1 2 3 4 5 6 
#
# 1 0.016202 -0.005718 -0.002975 0.000000 0.000000 0.000000
# 2 -0.005718 0.016852 -0.001299 0.000000 0.000000 0.000000
# 3 -0.002975 -0.001299 0.011289 0.000000 0.000000 0.000000
# 4 0.000000 0.000000 0.000000 0.039708 0.000000 0.000000
# 5 0.000000 0.000000 0.000000 0.000000 0.063909 0.000000
# 6 0.000000 0.000000 0.000000 0.000000 0.000000 0.031605
#
#
# Mechanical properties :
#
#
# Convention : Reuss Voigt Hill
#
# Bulk Modulus (GPa) = 41.04875 41.49892 41.27384
# Shear Modulus (GPa) = 24.07685 26.23394 25.15540
#
# Velocity S-wave (km/s) = 3.57430 3.73097 3.65347
# Velocity P-wave (km/s) = 6.23019 6.37026 6.30062
#
# Compressibility (1/GPa) = 0.02436128
#
# Stress axis : x y z
#
# Youngs Moduli (GPa) = 61.71983 59.33965 88.58136
#
# Poissons Ratio (x) = 0.33928 0.26351
# Poissons Ratio (y) = 0.35289 0.11505
# Poissons Ratio (z) = 0.18360 0.07707
#
# Static dielectric constant tensor:
#      x y z
#    x 3.472210 0.000000 0.000000 
#    y 0.000000 3.170310 0.000000 
#    z 0.000000 0.000000 3.449700 
# 
# 
# High freq. dielectric constant tensor:
#      x y z
#    x 1.737680 0.000000 0.000000 
#    y 0.000000 1.706320 0.000000 
#    z 0.000000 0.000000 1.730490 
# 
# From -- ./inp_files/10127.got.cif
#   From: 2010.03.12/outbox.cif.g09.slc.cpg/sg40_6_cif.got.tgz:10127.got - 2010.04.14 01:38:03.
