data_PCOD8183796
_publ_section_title
;
Structure prediction by ZEFSAII (Michael W. Deem and Ramdas Pophale) SiO2 
 PCOD8183796
Probable space group: A M A 2
;
_chemical_formula_sum "Si O2"
_cell_formula_units_Z 64
_cell_length_a 8.920792
_cell_length_b 15.458193
_cell_length_c 23.881150
_cell_angle_alpha 90.000000
_cell_angle_beta 90.000000
_cell_angle_gamma 90.000000
_cell_volume 3293.194452
_symmetry_space_group_name_H-M "A M A 2"
_symmetry_group_IT_number 40
_symmetry_cell_setting 'orthorhombic'
loop_
_space_group_symop_operation_xyz
x,y,z
-x,-y,z
1/2-x,y,z
1/2+x,-y,z
x,1/2+y,1/2+z
-x,1/2-y,1/2+z
1/2-x,1/2+y,1/2+z
1/2+x,1/2-y,1/2+z
loop_
_atom_site_type_symbol
_atom_site_label
_atom_site_fract_x
_atom_site_fract_y
_atom_site_fract_z
Si Si1 0.927838 0.411709 0.222480
Si Si2 0.424892 0.411442 0.720583
Si Si3 0.925273 0.088301 0.954989
Si Si4 0.077463 0.833858 0.338433
Si Si5 0.428053 0.745835 0.023326
Si Si6 0.574549 0.152595 0.833160
Si Si7 0.572220 0.749991 0.650900
Si Si8 0.924598 0.590020 0.957963
O O1 0.750000 0.419876 0.221620
O O2 0.987332 0.335505 0.182256
O O3 0.000000 0.500000 0.199777
O O4 0.979772 0.394418 0.285609
O O5 0.500000 0.500000 0.701237
O O6 0.250000 0.420951 0.709869
O O7 0.461332 0.393068 0.785367
O O8 0.492149 0.334014 0.682790
O O9 0.750000 0.078422 0.963657
O O10 0.967761 0.105331 0.890720
O O11 0.985315 0.167686 0.992444
O O12 0.000000 0.000000 0.976114
O O13 0.250000 0.801501 0.335891
O O14 0.045110 0.890787 0.392895
O O15 0.968222 0.752524 0.338473
O O16 0.250000 0.735684 0.018213
O O17 0.483376 0.750611 0.087243
O O18 0.503895 0.663722 0.995643
O O19 0.750000 0.145296 0.819550
O O20 0.750000 0.748833 0.654461
O O21 0.750000 0.584280 0.971514
O O22 0.000000 0.500000 0.974431
#
# Coordination Sequence:
#
# PCOD8183796 Si02
#       8
#     8   8   8   8   8   8   8   8
#     4  11  22  39  60  86 116 152 191 237 289 347
#     4  10  20  37  58  86 116 150 189 229 283 342
#     4  10  22  37  57  85 117 151 189 232 285 342
#     4  10  20  36  59  85 118 154 187 230 288 345
#     4  10  21  41  62  83 113 154 198 245 289 338
#     4  11  21  35  58  89 117 151 190 233 288 346
#     4   9  20  39  62  81 112 155 194 237 292 339
#     4  11  23  38  60  89 119 155 191 237 292 347
#
# _framework density 19.434017999999998
#
# number of rings (size 3 to 8) (size 9 to 14) (size 15 to 20)
#    0.000    1.750    2.500    1.875    0.000    4.500 
#    0.000    3.125    0.000    0.000    0.000    0.000 
#    0.000    0.000    0.000    0.000    0.000    0.000 
#
# Total GULP energy -396934.876442 kJ/mol
# GULP energy per Si atom -12404.214889 kJ/mol
# Density = 1.938979 g / cm^3
# Si number density = 19.434018 Si / 1000 Ang^3
#
#
#
# Elastic Constant Matrix: (Units=GPa)
#
#
# Indices 1 2 3 4 5 6 
#
# 1 53.0461 51.6851 39.6217 0.0000 0.0000 0.0000
# 2 51.6851 193.5748 79.5349 0.0000 0.0000 0.0000
# 3 39.6217 79.5349 139.2132 0.0000 0.0000 0.0000
# 4 0.0000 0.0000 0.0000 6.8492 0.0000 0.0000
# 5 0.0000 0.0000 0.0000 0.0000 20.3386 0.0000
# 6 0.0000 0.0000 0.0000 0.0000 0.0000 39.8769
#
#
#
# Elastic Compliance Matrix: (Units=1/GPa)
#
#
# Indices 1 2 3 4 5 6 
#
# 1 0.027722 -0.005436 -0.004784 0.000000 0.000000 0.000000
# 2 -0.005436 0.007817 -0.002919 0.000000 0.000000 0.000000
# 3 -0.004784 -0.002919 0.010212 0.000000 0.000000 0.000000
# 4 0.000000 0.000000 0.000000 0.146003 0.000000 0.000000
# 5 0.000000 0.000000 0.000000 0.000000 0.049167 0.000000
# 6 0.000000 0.000000 0.000000 0.000000 0.000000 0.025077
#
#
# Mechanical properties :
#
#
# Convention : Reuss Voigt Hill
#
# Bulk Modulus (GPa) = 51.35363 80.83528 66.09445
# Shear Modulus (GPa) = 16.73546 27.74577 22.24061
#
# Velocity S-wave (km/s) = 2.93771 3.78258 3.38659
# Velocity P-wave (km/s) = 6.16351 7.79501 7.02677
#
# Compressibility (1/GPa) = 0.01947282
#
# Stress axis : x y z
#
# Youngs Moduli (GPa) = 36.07302 127.93334 97.92121
#
# Poissons Ratio (x) = 0.69545 0.46847
# Poissons Ratio (y) = 0.19609 0.28579
# Poissons Ratio (z) = 0.17258 0.37338
#
# Static dielectric constant tensor:
#      x y z
#    x 3.364630 0.000000 0.000000 
#    y 0.000000 3.701150 0.000000 
#    z 0.000000 0.000000 3.724150 
# 
# 
# High freq. dielectric constant tensor:
#      x y z
#    x 1.741450 0.000000 0.000000 
#    y 0.000000 1.770840 0.000000 
#    z 0.000000 0.000000 1.757700 
# 
# From -- ./inp_files/24228.got.cif
#   From: 2010.03.12/outbox.cif.g09.slc.cpg/sg40_13_cif.got.tgz:24228.got - 2010.04.14 01:38:03.
