data_PCOD8183623
_publ_section_title
;
Structure prediction by ZEFSAII (Michael W. Deem and Ramdas Pophale) SiO2 
 PCOD8183623
Probable space group: A M A 2
;
_chemical_formula_sum "Si O2"
_cell_formula_units_Z 44
_cell_length_a 14.272428
_cell_length_b 15.018120
_cell_length_c 11.319856
_cell_angle_alpha 90.000000
_cell_angle_beta 90.000000
_cell_angle_gamma 90.000000
_cell_volume 2426.354946
_symmetry_space_group_name_H-M "A M A 2"
_symmetry_group_IT_number 40
_symmetry_cell_setting 'orthorhombic'
loop_
_space_group_symop_operation_xyz
x,y,z
-x,-y,z
1/2-x,y,z
1/2+x,-y,z
x,1/2+y,1/2+z
-x,1/2-y,1/2+z
1/2-x,1/2+y,1/2+z
1/2+x,1/2-y,1/2+z
loop_
_atom_site_type_symbol
_atom_site_label
_atom_site_fract_x
_atom_site_fract_y
_atom_site_fract_z
Si Si1 0.000000 0.000000 0.969890
Si Si2 0.141224 0.759951 0.443213
Si Si3 0.499197 0.395678 0.033193
Si Si4 0.859333 0.817974 0.355854
Si Si5 0.644947 0.900131 0.114095
Si Si6 0.508120 0.162834 0.800405
O O1 0.972110 0.082995 0.890155
O O2 0.085097 0.021982 0.056621
O O3 0.250000 0.773932 0.409763
O O4 0.126934 0.696044 0.555465
O O5 0.095441 0.854812 0.476480
O O6 0.087005 0.716594 0.332066
O O7 0.500000 0.500000 0.008336
O O8 0.504596 0.376693 0.171302
O O9 0.590161 0.350853 0.974273
O O10 0.750000 0.803926 0.382441
O O11 0.875948 0.891099 0.253200
O O12 0.901221 0.724888 0.310627
O O13 0.750000 0.930979 0.090824
#
# Coordination Sequence:
#
# PCOD8183623 Si02
#       6
#     4   8   8   8   8   8
#     4  10  20  34  60  86 112 140 186 240 278 320
#     4   9  19  37  58  78 107 150 189 224 276 338
#     4  11  22  36  58  86 118 147 184 237 292 334
#     4  10  22  39  57  79 114 157 190 224 281 347
#     4   9  18  35  58  80 106 146 188 226 274 332
#     4  10  20  37  59  84 112 148 189 233 280 332
#
# _framework density 18.134198999999999
#
# number of rings (size 3 to 8) (size 9 to 14) (size 15 to 20)
#    0.000    2.182    2.727    0.000    1.273    2.182 
#    0.000    0.000    0.000    0.000    0.000    0.000 
#    0.000    0.000    0.000    0.000    0.000    0.000 
#
# Total GULP energy -272815.313154 kJ/mol
# GULP energy per Si atom -12400.696052 kJ/mol
# Density = 1.809292 g / cm^3
# Si number density = 18.134199 Si / 1000 Ang^3
#
#
#
# Elastic Constant Matrix: (Units=GPa)
#
#
# Indices 1 2 3 4 5 6 
#
# 1 141.2481 61.0215 42.4414 0.0000 0.0000 0.0000
# 2 61.0215 102.2494 34.5907 0.0000 0.0000 0.0000
# 3 42.4414 34.5907 56.7804 0.0000 0.0000 0.0000
# 4 0.0000 0.0000 0.0000 26.3736 0.0000 0.0000
# 5 0.0000 0.0000 0.0000 0.0000 22.8658 0.0000
# 6 0.0000 0.0000 0.0000 0.0000 0.0000 27.9036
#
#
#
# Elastic Compliance Matrix: (Units=1/GPa)
#
#
# Indices 1 2 3 4 5 6 
#
# 1 0.010606 -0.004594 -0.005128 0.000000 0.000000 0.000000
# 2 -0.004594 0.014309 -0.005283 0.000000 0.000000 0.000000
# 3 -0.005128 -0.005283 0.024663 0.000000 0.000000 0.000000
# 4 0.000000 0.000000 0.000000 0.037917 0.000000 0.000000
# 5 0.000000 0.000000 0.000000 0.000000 0.043733 0.000000
# 6 0.000000 0.000000 0.000000 0.000000 0.000000 0.035838
#
#
# Mechanical properties :
#
#
# Convention : Reuss Voigt Hill
#
# Bulk Modulus (GPa) = 51.10761 64.04280 57.57520
# Shear Modulus (GPa) = 24.55801 26.24355 25.40078
#
# Velocity S-wave (km/s) = 3.68399 3.80832 3.74667
# Velocity P-wave (km/s) = 6.80734 7.39800 7.10881
#
# Compressibility (1/GPa) = 0.01956656
#
# Stress axis : x y z
#
# Youngs Moduli (GPa) = 94.29052 69.88555 40.54590
#
# Poissons Ratio (x) = 0.32108 0.20793
# Poissons Ratio (y) = 0.43320 0.21420
# Poissons Ratio (z) = 0.48356 0.36921
#
# Static dielectric constant tensor:
#      x y z
#    x 3.359090 0.000000 0.000000 
#    y 0.000000 3.279840 0.000000 
#    z 0.000000 0.000000 3.384860 
# 
# 
# High freq. dielectric constant tensor:
#      x y z
#    x 1.702560 0.000000 0.000000 
#    y 0.000000 1.698540 0.000000 
#    z 0.000000 0.000000 1.708650 
# 
# From -- ./inp_files/12087.got.cif
#   From: 2010.03.12/outbox.cif.g09.slc.cpg/sg40_7_cif.got.tgz:12087.got - 2010.04.14 01:38:03.
