data_PCOD8183139
_publ_section_title
;
Structure prediction by ZEFSAII (Michael W. Deem and Ramdas Pophale) SiO2 
 PCOD8183139
Probable space group: A M A 2
;
_chemical_formula_sum "Si O2"
_cell_formula_units_Z 64
_cell_length_a 8.943308
_cell_length_b 15.813553
_cell_length_c 22.334247
_cell_angle_alpha 90.000000
_cell_angle_beta 90.000000
_cell_angle_gamma 90.000000
_cell_volume 3158.631492
_symmetry_space_group_name_H-M "A M A 2"
_symmetry_group_IT_number 40
_symmetry_cell_setting 'orthorhombic'
loop_
_space_group_symop_operation_xyz
x,y,z
-x,-y,z
1/2-x,y,z
1/2+x,-y,z
x,1/2+y,1/2+z
-x,1/2-y,1/2+z
1/2-x,1/2+y,1/2+z
1/2+x,1/2-y,1/2+z
loop_
_atom_site_type_symbol
_atom_site_label
_atom_site_fract_x
_atom_site_fract_y
_atom_site_fract_z
Si Si1 0.919727 0.917740 0.518860
Si Si2 0.425790 0.587705 0.280996
Si Si3 0.428500 0.764650 0.858723
Si Si4 0.422125 0.907404 0.322875
Si Si5 0.583263 0.360743 0.148209
Si Si6 0.917908 0.799070 0.107579
Si Si7 0.077411 0.250726 0.976564
Si Si8 0.085773 0.417116 0.690777
O O1 0.750000 0.912171 0.495361
O O2 0.922703 0.923043 0.591303
O O3 0.012981 0.841868 0.491832
O O4 0.000000 0.000000 0.492561
O O5 0.500000 0.500000 0.304292
O O6 0.250000 0.586843 0.296682
O O7 0.501554 0.670029 0.311009
O O8 0.454193 0.591194 0.209583
O O9 0.250000 0.765346 0.851851
O O10 0.489229 0.667759 0.856165
O O11 0.480924 0.795013 0.924769
O O12 0.250000 0.915017 0.345586
O O13 0.420839 0.870461 0.254806
O O14 0.500000 0.000000 0.331341
O O15 0.750000 0.319809 0.152583
O O16 0.461167 0.289642 0.136728
O O17 0.750000 0.817091 0.127319
O O18 0.020979 0.869619 0.134673
O O19 0.937927 0.804954 0.036370
O O20 0.250000 0.259025 0.956738
O O21 0.250000 0.441790 0.670947
O O22 0.000000 0.500000 0.705278
#
# Coordination Sequence:
#
# PCOD8183139 Si02
#       8
#     8   8   8   8   8   8   8   8
#     4  10  19  33  54  83 116 148 182 223 272 331
#     4  11  23  40  61  87 118 154 195 241 290 343
#     4  12  25  41  61  85 114 153 197 244 293 343
#     4  10  21  38  60  89 122 156 192 234 284 343
#     4   9  19  34  55  83 116 150 183 222 275 335
#     4  10  20  34  56  83 111 143 182 227 278 333
#     4  10  22  40  58  78 106 144 189 235 279 331
#     4  10  20  34  55  82 114 146 179 222 275 333
#
# _framework density 20.261939999999999
#
# number of rings (size 3 to 8) (size 9 to 14) (size 15 to 20)
#    0.000    1.750    0.000    4.500    0.000    8.000 
#    0.000    3.125    0.000    3.000    0.000    0.000 
#    0.000    0.000    0.000    0.000    0.000    0.000 
#
# Total GULP energy -396627.372392 kJ/mol
# GULP energy per Si atom -12394.605387 kJ/mol
# Density = 2.021582 g / cm^3
# Si number density = 20.261940 Si / 1000 Ang^3
#
#
#
# Elastic Constant Matrix: (Units=GPa)
#
#
# Indices 1 2 3 4 5 6 
#
# 1 151.8113 33.9404 41.5281 0.0000 0.0000 0.0000
# 2 33.9404 57.6508 18.5344 0.0000 0.0000 0.0000
# 3 41.5281 18.5344 64.6544 0.0000 0.0000 0.0000
# 4 0.0000 0.0000 0.0000 13.3498 0.0000 0.0000
# 5 0.0000 0.0000 0.0000 0.0000 31.9242 0.0000
# 6 0.0000 0.0000 0.0000 0.0000 0.0000 41.5000
#
#
#
# Elastic Compliance Matrix: (Units=1/GPa)
#
#
# Indices 1 2 3 4 5 6 
#
# 1 0.008631 -0.003634 -0.004502 0.000000 0.000000 0.000000
# 2 -0.003634 0.020637 -0.003582 0.000000 0.000000 0.000000
# 3 -0.004502 -0.003582 0.019385 0.000000 0.000000 0.000000
# 4 0.000000 0.000000 0.000000 0.074908 0.000000 0.000000
# 5 0.000000 0.000000 0.000000 0.000000 0.031324 0.000000
# 6 0.000000 0.000000 0.000000 0.000000 0.000000 0.024096
#
#
# Mechanical properties :
#
#
# Convention : Reuss Voigt Hill
#
# Bulk Modulus (GPa) = 39.65490 51.34690 45.50090
# Shear Modulus (GPa) = 23.71659 29.36238 26.53949
#
# Velocity S-wave (km/s) = 3.42497 3.81089 3.62307
# Velocity P-wave (km/s) = 5.93752 6.69032 6.32513
#
# Compressibility (1/GPa) = 0.02521756
#
# Stress axis : x y z
#
# Youngs Moduli (GPa) = 115.85987 48.45727 51.58522
#
# Poissons Ratio (x) = 0.17609 0.23224
# Poissons Ratio (y) = 0.42103 0.18477
# Poissons Ratio (z) = 0.52161 0.17356
#
# Static dielectric constant tensor:
#      x y z
#    x 3.873540 0.000000 0.000000 
#    y 0.000000 3.353130 0.000000 
#    z 0.000000 0.000000 3.926280 
# 
# 
# High freq. dielectric constant tensor:
#      x y z
#    x 1.809460 0.000000 0.000000 
#    y 0.000000 1.770100 0.000000 
#    z 0.000000 0.000000 1.795190 
# 
# From -- ./inp_files/24337.got.cif
#   From: 2010.03.12/outbox.cif.g09.slc.cpg/sg40_13_cif.got.tgz:24337.got - 2010.04.14 01:38:03.
