data_PCOD8183461
_publ_section_title
;
Structure prediction by ZEFSAII (Michael W. Deem and Ramdas Pophale) SiO2 
 PCOD8183461
Probable space group: A M A 2
;
_chemical_formula_sum "Si O2"
_cell_formula_units_Z 64
_cell_length_a 9.018719
_cell_length_b 13.519746
_cell_length_c 29.113911
_cell_angle_alpha 90.000000
_cell_angle_beta 90.000000
_cell_angle_gamma 90.000000
_cell_volume 3549.882172
_symmetry_space_group_name_H-M "A M A 2"
_symmetry_group_IT_number 40
_symmetry_cell_setting 'orthorhombic'
loop_
_space_group_symop_operation_xyz
x,y,z
-x,-y,z
1/2-x,y,z
1/2+x,-y,z
x,1/2+y,1/2+z
-x,1/2-y,1/2+z
1/2-x,1/2+y,1/2+z
1/2+x,1/2-y,1/2+z
loop_
_atom_site_type_symbol
_atom_site_label
_atom_site_fract_x
_atom_site_fract_y
_atom_site_fract_z
Si Si1 0.079332 0.602269 0.158900
Si Si2 0.423872 0.104037 0.119520
Si Si3 0.582870 0.602906 0.366921
Si Si4 0.083420 0.717039 0.809983
Si Si5 0.922259 0.274919 0.707954
Si Si6 0.576718 0.779271 0.568432
Si Si7 0.075377 0.394786 0.988979
Si Si8 0.922243 0.217483 0.396935
O O1 0.250000 0.588043 0.170030
O O2 0.052395 0.637626 0.106995
O O3 0.000000 0.500000 0.166693
O O4 0.016040 0.679801 0.194933
O O5 0.250000 0.097772 0.108738
O O6 0.453240 0.137190 0.172059
O O7 0.499246 0.178436 0.083933
O O8 0.500000 0.000000 0.111721
O O9 0.500000 0.500000 0.361089
O O10 0.750000 0.581553 0.383481
O O11 0.580775 0.663092 0.318361
O O12 0.504088 0.676010 0.404287
O O13 0.250000 0.676215 0.816695
O O14 0.026256 0.691322 0.758843
O O15 0.979674 0.666884 0.849146
O O16 0.750000 0.244865 0.708247
O O17 0.750000 0.759794 0.559241
O O18 0.496103 0.815102 0.522744
O O19 0.250000 0.404004 0.998802
O O20 0.000000 0.500000 0.996723
O O21 0.041093 0.357468 0.937790
O O22 0.750000 0.239975 0.393191
#
# Coordination Sequence:
#
# PCOD8183461 Si02
#       8
#     8   8   8   8   8   8   8   8
#     4  10  20  32  48  75 108 142 177 217 264 318
#     4  10  20  36  59  82 111 146 182 224 270 322
#     4   9  17  30  51  75 103 139 177 219 265 317
#     4   8  17  32  51  74 104 141 180 220 266 312
#     4   9  18  34  53  76 106 142 182 225 267 313
#     4  10  21  37  58  82 110 141 178 223 272 324
#     4  11  23  38  59  85 111 142 180 221 271 327
#     4   9  19  35  53  76 107 140 179 225 270 319
#
# _framework density 18.028767999999999
#
# number of rings (size 3 to 8) (size 9 to 14) (size 15 to 20)
#    0.750    1.750    0.000    2.250    0.000    6.000 
#    0.000    2.500    0.000    6.000    0.000    0.000 
#    0.000    0.000    0.000    0.000    0.000    0.000 
#
# Total GULP energy -396643.600706 kJ/mol
# GULP energy per Si atom -12395.112522 kJ/mol
# Density = 1.798773 g / cm^3
# Si number density = 18.028768 Si / 1000 Ang^3
#
#
#
# Elastic Constant Matrix: (Units=GPa)
#
#
# Indices 1 2 3 4 5 6 
#
# 1 116.8889 51.9078 66.3021 0.0000 0.0000 0.0000
# 2 51.9078 89.0427 46.7549 0.0000 0.0000 0.0000
# 3 66.3021 46.7549 117.3795 0.0000 0.0000 0.0000
# 4 0.0000 0.0000 0.0000 20.8859 0.0000 0.0000
# 5 0.0000 0.0000 0.0000 0.0000 28.4293 0.0000
# 6 0.0000 0.0000 0.0000 0.0000 0.0000 27.2691
#
#
#
# Elastic Compliance Matrix: (Units=1/GPa)
#
#
# Indices 1 2 3 4 5 6 
#
# 1 0.014244 -0.005158 -0.005991 0.000000 0.000000 0.000000
# 2 -0.005158 0.016068 -0.003487 0.000000 0.000000 0.000000
# 3 -0.005991 -0.003487 0.013293 0.000000 0.000000 0.000000
# 4 0.000000 0.000000 0.000000 0.047879 0.000000 0.000000
# 5 0.000000 0.000000 0.000000 0.000000 0.035175 0.000000
# 6 0.000000 0.000000 0.000000 0.000000 0.000000 0.036672
#
#
# Mechanical properties :
#
#
# Convention : Reuss Voigt Hill
#
# Bulk Modulus (GPa) = 69.77030 72.58229 71.17629
# Shear Modulus (GPa) = 25.33185 25.87327 25.60256
#
# Velocity S-wave (km/s) = 3.75251 3.79239 3.77250
# Velocity P-wave (km/s) = 7.58673 7.71511 7.65119
#
# Compressibility (1/GPa) = 0.01433275
#
# Stress axis : x y z
#
# Youngs Moduli (GPa) = 70.20531 62.23468 75.23004
#
# Poissons Ratio (x) = 0.32098 0.45073
# Poissons Ratio (y) = 0.36209 0.26233
# Poissons Ratio (z) = 0.42062 0.21701
#
# Static dielectric constant tensor:
#      x y z
#    x 3.449590 0.000000 0.000000 
#    y 0.000000 2.940000 0.000000 
#    z 0.000000 0.000000 3.310320 
# 
# 
# High freq. dielectric constant tensor:
#      x y z
#    x 1.713110 0.000000 0.000000 
#    y 0.000000 1.681780 0.000000 
#    z 0.000000 0.000000 1.687600 
# 
# From -- ./inp_files/26496.got.cif
#   From: 2010.03.12/outbox.cif.g09.slc.cpg/sg40_14_cif.got.tgz:26496.got - 2010.04.14 01:38:03.
