data_PCOD8183671
_publ_section_title
;
Structure prediction by ZEFSAII (Michael W. Deem and Ramdas Pophale) SiO2 
 PCOD8183671
Probable space group: A M A 2
;
_chemical_formula_sum "Si O2"
_cell_formula_units_Z 56
_cell_length_a 13.906228
_cell_length_b 13.106341
_cell_length_c 15.466377
_cell_angle_alpha 90.000000
_cell_angle_beta 90.000000
_cell_angle_gamma 90.000000
_cell_volume 2818.898256
_symmetry_space_group_name_H-M "A M A 2"
_symmetry_group_IT_number 40
_symmetry_cell_setting 'orthorhombic'
loop_
_space_group_symop_operation_xyz
x,y,z
-x,-y,z
1/2-x,y,z
1/2+x,-y,z
x,1/2+y,1/2+z
-x,1/2-y,1/2+z
1/2-x,1/2+y,1/2+z
1/2+x,1/2-y,1/2+z
loop_
_atom_site_type_symbol
_atom_site_label
_atom_site_fract_x
_atom_site_fract_y
_atom_site_fract_z
Si Si1 0.863589 0.790615 0.480450
Si Si2 0.951806 0.394016 0.815490
Si Si3 0.637637 0.413682 0.144540
Si Si4 0.640858 0.128023 0.711395
Si Si5 0.984861 0.883391 0.977882
Si Si6 0.357790 0.152219 0.141827
Si Si7 0.458752 0.691533 0.301695
O O1 0.750000 0.769877 0.487141
O O2 0.885809 0.851241 0.392580
O O3 0.904850 0.860869 0.558850
O O4 0.916772 0.681554 0.486178
O O5 0.886871 0.405689 0.729995
O O6 0.000000 0.500000 0.842384
O O7 0.037341 0.314059 0.794620
O O8 0.750000 0.413807 0.133739
O O9 0.603369 0.531031 0.155882
O O10 0.612076 0.349092 0.229153
O O11 0.750000 0.112289 0.747130
O O12 0.635334 0.225592 0.649460
O O13 0.567523 0.145147 0.790690
O O14 0.922919 0.838397 0.897488
O O15 0.000000 0.000000 0.954000
O O16 0.926592 0.881610 0.065881
O O17 0.250000 0.118329 0.119031
#
# Coordination Sequence:
#
# PCOD8183671 Si02
#       7
#     8   8   8   8   8   8   8
#     4  10  22  39  60  87 116 149 193 243 298 360
#     4  10  21  38  59  82 111 149 193 239 288 344
#     4  10  20  35  56  82 111 143 180 227 284 340
#     4   9  18  34  58  82 105 139 183 231 284 338
#     4  11  23  37  55  82 113 151 194 235 285 345
#     4  10  21  37  56  81 114 151 193 237 283 343
#     4  10  21  36  55  80 110 142 180 230 281 332
#
# _framework density 19.865917
#
# number of rings (size 3 to 8) (size 9 to 14) (size 15 to 20)
#    0.000    2.000    0.000    3.857    0.000    8.000 
#    0.000    2.857    0.000    0.857    0.000    0.000 
#    0.000    0.000    0.000    0.000    0.000    0.000 
#
# Total GULP energy -347132.820064 kJ/mol
# GULP energy per Si atom -12397.600717 kJ/mol
# Density = 1.982070 g / cm^3
# Si number density = 19.865917 Si / 1000 Ang^3
#
#
#
# Elastic Constant Matrix: (Units=GPa)
#
#
# Indices 1 2 3 4 5 6 
#
# 1 35.6555 23.8901 12.9766 0.0000 0.0000 0.0000
# 2 23.8901 115.7316 14.9329 0.0000 0.0000 0.0000
# 3 12.9766 14.9329 104.4301 0.0000 0.0000 0.0000
# 4 0.0000 0.0000 0.0000 23.3210 0.0000 0.0000
# 5 0.0000 0.0000 0.0000 0.0000 26.1923 0.0000
# 6 0.0000 0.0000 0.0000 0.0000 0.0000 23.5680
#
#
#
# Elastic Compliance Matrix: (Units=1/GPa)
#
#
# Indices 1 2 3 4 5 6 
#
# 1 0.033592 -0.006516 -0.003242 0.000000 0.000000 0.000000
# 2 -0.006516 0.010067 -0.000630 0.000000 0.000000 0.000000
# 3 -0.003242 -0.000630 0.010069 0.000000 0.000000 0.000000
# 4 0.000000 0.000000 0.000000 0.042880 0.000000 0.000000
# 5 0.000000 0.000000 0.000000 0.000000 0.038179 0.000000
# 6 0.000000 0.000000 0.000000 0.000000 0.000000 0.042430
#
#
# Mechanical properties :
#
#
# Convention : Reuss Voigt Hill
#
# Bulk Modulus (GPa) = 30.34770 39.93515 35.14142
# Shear Modulus (GPa) = 23.92601 28.21743 26.07172
#
# Velocity S-wave (km/s) = 3.47418 3.77290 3.62661
# Velocity P-wave (km/s) = 5.60380 6.25505 5.93836
#
# Compressibility (1/GPa) = 0.03295143
#
# Stress axis : x y z
#
# Youngs Moduli (GPa) = 29.76889 99.33433 99.31717
#
# Poissons Ratio (x) = 0.64726 0.32203
# Poissons Ratio (y) = 0.19397 0.06255
# Poissons Ratio (z) = 0.09652 0.06257
#
# Static dielectric constant tensor:
#      x y z
#    x 3.525150 0.000000 0.000000 
#    y 0.000000 3.929140 0.000000 
#    z 0.000000 0.000000 3.716390 
# 
# 
# High freq. dielectric constant tensor:
#      x y z
#    x 1.760430 0.000000 0.000000 
#    y 0.000000 1.779650 0.000000 
#    z 0.000000 0.000000 1.781310 
# 
# From -- ./inp_files/17085.got.cif
#   From: 2010.03.12/outbox.cif.g09.slc.cpg/sg40_9_cif.got.tgz:17085.got - 2010.04.14 01:38:03.
