data_PCOD8183202
_publ_section_title
;
Structure prediction by ZEFSAII (Michael W. Deem and Ramdas Pophale) SiO2 
 PCOD8183202
Probable space group: A M A 2
;
_chemical_formula_sum "Si O2"
_cell_formula_units_Z 64
_cell_length_a 8.506291
_cell_length_b 14.574786
_cell_length_c 27.928311
_cell_angle_alpha 90.000000
_cell_angle_beta 90.000000
_cell_angle_gamma 90.000000
_cell_volume 3462.478574
_symmetry_space_group_name_H-M "A M A 2"
_symmetry_group_IT_number 40
_symmetry_cell_setting 'orthorhombic'
loop_
_space_group_symop_operation_xyz
x,y,z
-x,-y,z
1/2-x,y,z
1/2+x,-y,z
x,1/2+y,1/2+z
-x,1/2-y,1/2+z
1/2-x,1/2+y,1/2+z
1/2+x,1/2-y,1/2+z
loop_
_atom_site_type_symbol
_atom_site_label
_atom_site_fract_x
_atom_site_fract_y
_atom_site_fract_z
Si Si1 0.929379 0.348918 0.397930
Si Si2 0.570495 0.829446 0.432687
Si Si3 0.436141 0.092296 0.995645
Si Si4 0.064427 0.098786 0.612668
Si Si5 0.064435 0.292028 0.027197
Si Si6 0.937010 0.785208 0.799716
Si Si7 0.569873 0.904900 0.333605
Si Si8 0.935089 0.097268 0.716536
O O1 0.750000 0.375989 0.391641
O O2 0.003490 0.411309 0.440253
O O3 0.003110 0.348439 0.344351
O O4 0.943894 0.246611 0.418173
O O5 0.750000 0.792404 0.433148
O O6 0.518625 0.857242 0.486679
O O7 0.554513 0.907131 0.391830
O O8 0.250000 0.090729 0.995563
O O9 0.492250 0.185601 0.021677
O O10 0.500000 0.000000 0.021616
O O11 0.250000 0.099024 0.608011
O O12 0.991210 0.176355 0.579048
O O13 0.015257 0.122716 0.666518
O O14 0.000000 0.000000 0.596845
O O15 0.250000 0.302139 0.022404
O O16 0.750000 0.794405 0.794096
O O17 0.978243 0.679185 0.808986
O O18 0.023850 0.821401 0.752874
O O19 0.750000 0.896654 0.317742
O O20 0.500000 0.000000 0.313837
O O21 0.750000 0.089351 0.708996
O O22 0.000000 0.000000 0.735970
#
# Coordination Sequence:
#
# PCOD8183202 Si02
#       8
#     8   8   8   8   8   8   8   8
#     4   8  16  30  46  67  98 135 172 212 256 299
#     4   9  17  29  46  70  99 133 175 217 255 299
#     4   9  18  31  48  72 104 141 178 214 253 298
#     4  11  22  38  59  82 105 131 166 210 263 318
#     4  10  20  35  53  75 105 140 176 216 263 313
#     4  10  19  34  55  78 106 140 178 219 264 313
#     4  10  20  33  50  75 107 144 183 221 262 309
#     4  11  22  38  58  81 108 136 169 211 262 317
#
# _framework density 18.483868000000001
#
# number of rings (size 3 to 8) (size 9 to 14) (size 15 to 20)
#    0.000    2.250    0.000    5.250    0.000    5.500 
#    0.000    2.500    0.000    0.750    0.000    3.500 
#    0.000    0.000    0.000    0.000    0.000    0.000 
#
# Total GULP energy -396446.059489 kJ/mol
# GULP energy per Si atom -12388.939359 kJ/mol
# Density = 1.844180 g / cm^3
# Si number density = 18.483868 Si / 1000 Ang^3
#
#
#
# Elastic Constant Matrix: (Units=GPa)
#
#
# Indices 1 2 3 4 5 6 
#
# 1 64.4558 25.7340 17.2378 0.0000 0.0000 0.0000
# 2 25.7340 95.1176 52.0708 0.0000 0.0000 0.0000
# 3 17.2378 52.0708 89.9023 0.0000 0.0000 0.0000
# 4 0.0000 0.0000 0.0000 23.3455 0.0000 0.0000
# 5 0.0000 0.0000 0.0000 0.0000 27.8883 0.0000
# 6 0.0000 0.0000 0.0000 0.0000 0.0000 27.2422
#
#
#
# Elastic Compliance Matrix: (Units=1/GPa)
#
#
# Indices 1 2 3 4 5 6 
#
# 1 0.017442 -0.004229 -0.000895 0.000000 0.000000 0.000000
# 2 -0.004229 0.016420 -0.008699 0.000000 0.000000 0.000000
# 3 -0.000895 -0.008699 0.016333 0.000000 0.000000 0.000000
# 4 0.000000 0.000000 0.000000 0.042835 0.000000 0.000000
# 5 0.000000 0.000000 0.000000 0.000000 0.035857 0.000000
# 6 0.000000 0.000000 0.000000 0.000000 0.000000 0.036708
#
#
# Mechanical properties :
#
#
# Convention : Reuss Voigt Hill
#
# Bulk Modulus (GPa) = 44.34832 48.84010 46.59421
# Shear Modulus (GPa) = 24.90556 25.99074 25.44815
#
# Velocity S-wave (km/s) = 3.67471 3.75391 3.71452
# Velocity P-wave (km/s) = 6.48457 6.72827 6.60754
#
# Compressibility (1/GPa) = 0.02254877
#
# Stress axis : x y z
#
# Youngs Moduli (GPa) = 57.33191 60.90204 61.22432
#
# Poissons Ratio (x) = 0.25756 0.05479
# Poissons Ratio (y) = 0.24246 0.53261
# Poissons Ratio (z) = 0.05131 0.52981
#
# Static dielectric constant tensor:
#      x y z
#    x 3.388210 0.000000 0.000000 
#    y 0.000000 3.380920 0.000000 
#    z 0.000000 0.000000 3.465980 
# 
# 
# High freq. dielectric constant tensor:
#      x y z
#    x 1.725280 0.000000 0.000000 
#    y 0.000000 1.698870 0.000000 
#    z 0.000000 0.000000 1.702260 
# 
# From -- ./inp_files/24321.got.cif
#   From: 2010.03.12/outbox.cif.g09.slc.cpg/sg40_13_cif.got.tgz:24321.got - 2010.04.14 01:38:03.
