data_PCOD8183699
_publ_section_title
;
Structure prediction by ZEFSAII (Michael W. Deem and Ramdas Pophale) SiO2 
 PCOD8183699
Probable space group: A M A 2
;
_chemical_formula_sum "Si O2"
_cell_formula_units_Z 40
_cell_length_a 18.170272
_cell_length_b 21.498937
_cell_length_c 5.081349
_cell_angle_alpha 90.000000
_cell_angle_beta 90.000000
_cell_angle_gamma 90.000000
_cell_volume 1984.985963
_symmetry_space_group_name_H-M "A M A 2"
_symmetry_group_IT_number 40
_symmetry_cell_setting 'orthorhombic'
loop_
_space_group_symop_operation_xyz
x,y,z
-x,-y,z
1/2-x,y,z
1/2+x,-y,z
x,1/2+y,1/2+z
-x,1/2-y,1/2+z
1/2-x,1/2+y,1/2+z
1/2+x,1/2-y,1/2+z
loop_
_atom_site_type_symbol
_atom_site_label
_atom_site_fract_x
_atom_site_fract_y
_atom_site_fract_z
Si Si1 0.579063 0.291187 0.868260
Si Si2 0.666933 0.568904 0.804247
Si Si3 0.439002 0.329436 0.623420
Si Si4 0.418141 0.634673 0.382200
Si Si5 0.666857 0.988905 0.792630
O O1 0.489491 0.289996 0.830290
O O2 0.617602 0.319618 0.606151
O O3 0.604013 0.220808 0.939192
O O4 0.600522 0.337765 0.100286
O O5 0.750000 0.588364 0.882613
O O6 0.616987 0.630276 0.795485
O O7 0.664660 0.540727 0.515480
O O8 0.637138 0.520224 0.022671
O O9 0.494019 0.371720 0.443968
O O10 0.384719 0.566320 0.389800
O O11 0.750000 0.963892 0.750792
#
# Coordination Sequence:
#
# PCOD8183699 Si02
#       5
#     8   8   8   8   8
#     4  10  20  35  58  84 118 146 187 246 306 331
#     4  10  23  39  59  82 117 161 194 244 298 353
#     4  10  21  37  60  85 121 150 194 247 295 358
#     4  10  20  36  57  86 111 155 191 243 298 350
#     4  10  22  41  57  80 120 157 199 246 296 347
#
# _framework density 20.151275999999999
#
# number of rings (size 3 to 8) (size 9 to 14) (size 15 to 20)
#    1.200    0.800    2.000    1.200    2.800    0.800 
#    0.000    2.000    0.000    0.000    0.000    0.000 
#    0.000    0.000    0.000    0.000    0.000    0.000 
#
# Total GULP energy -247870.962064 kJ/mol
# GULP energy per Si atom -12393.548103 kJ/mol
# Density = 2.010541 g / cm^3
# Si number density = 20.151276 Si / 1000 Ang^3
#
#
#
# Elastic Constant Matrix: (Units=GPa)
#
#
# Indices 1 2 3 4 5 6 
#
# 1 46.0997 43.4423 12.5639 0.0000 0.0000 0.0000
# 2 43.4423 110.3955 27.2592 0.0000 0.0000 0.0000
# 3 12.5639 27.2592 110.7966 0.0000 0.0000 0.0000
# 4 0.0000 0.0000 0.0000 41.9561 0.0000 0.0000
# 5 0.0000 0.0000 0.0000 0.0000 18.8112 0.0000
# 6 0.0000 0.0000 0.0000 0.0000 0.0000 2.6699
#
#
#
# Elastic Compliance Matrix: (Units=1/GPa)
#
#
# Indices 1 2 3 4 5 6 
#
# 1 0.034516 -0.013432 -0.000609 0.000000 0.000000 0.000000
# 2 -0.013432 0.014871 -0.002136 0.000000 0.000000 0.000000
# 3 -0.000609 -0.002136 0.009620 0.000000 0.000000 0.000000
# 4 0.000000 0.000000 0.000000 0.023834 0.000000 0.000000
# 5 0.000000 0.000000 0.000000 0.000000 0.053160 0.000000
# 6 0.000000 0.000000 0.000000 0.000000 0.000000 0.374551
#
#
# Mechanical properties :
#
#
# Convention : Reuss Voigt Hill
#
# Bulk Modulus (GPa) = 37.51870 48.20250 42.86060
# Shear Modulus (GPa) = 9.06139 24.95586 17.00863
#
# Velocity S-wave (km/s) = 2.12284 3.52295 2.90840
# Velocity P-wave (km/s) = 4.96664 6.36557 5.70911
#
# Compressibility (1/GPa) = 0.02665338
#
# Stress axis : x y z
#
# Youngs Moduli (GPa) = 28.97207 67.24312 103.94930
#
# Poissons Ratio (x) = 0.90322 0.06334
# Poissons Ratio (y) = 0.38916 0.22200
# Poissons Ratio (z) = 0.01765 0.14361
#
# Static dielectric constant tensor:
#      x y z
#    x 3.331220 0.000000 0.000000 
#    y 0.000000 3.372180 0.000000 
#    z 0.000000 0.000000 3.728990 
# 
# 
# High freq. dielectric constant tensor:
#      x y z
#    x 1.738530 0.000000 0.000000 
#    y 0.000000 1.781680 0.000000 
#    z 0.000000 0.000000 1.805510 
# 
# From -- ./inp_files/1809.got.cif
#   From: 2010.03.12/outbox.cif.g09.slc.cpg/sg40_1_cif.got.tgz:1809.got - 2010.04.14 01:38:03.
