data_PCOD8183275
_publ_section_title
;
Structure prediction by ZEFSAII (Michael W. Deem and Ramdas Pophale) SiO2 
 PCOD8183275
Probable space group: A M A 2
;
_chemical_formula_sum "Si O2"
_cell_formula_units_Z 64
_cell_length_a 16.942397
_cell_length_b 12.065585
_cell_length_c 16.212595
_cell_angle_alpha 90.000000
_cell_angle_beta 90.000000
_cell_angle_gamma 90.000000
_cell_volume 3314.177553
_symmetry_space_group_name_H-M "A M A 2"
_symmetry_group_IT_number 40
_symmetry_cell_setting 'orthorhombic'
loop_
_space_group_symop_operation_xyz
x,y,z
-x,-y,z
1/2-x,y,z
1/2+x,-y,z
x,1/2+y,1/2+z
-x,1/2-y,1/2+z
1/2-x,1/2+y,1/2+z
1/2+x,1/2-y,1/2+z
loop_
_atom_site_type_symbol
_atom_site_label
_atom_site_fract_x
_atom_site_fract_y
_atom_site_fract_z
Si Si1 0.416445 0.689256 0.041290
Si Si2 0.157620 0.847163 0.907235
Si Si3 0.341943 0.859556 0.152057
Si Si4 0.343697 0.995750 0.303374
Si Si5 0.657775 0.767731 0.239973
Si Si6 0.092099 0.019142 0.018478
Si Si7 0.159956 0.475875 0.986627
Si Si8 0.596121 0.233498 0.562609
O O1 0.388281 0.749347 0.125205
O O2 0.510069 0.691872 0.038091
O O3 0.380462 0.749428 0.961350
O O4 0.388926 0.562074 0.042373
O O5 0.250000 0.850083 0.927900
O O6 0.142992 0.824048 0.810787
O O7 0.117274 0.964927 0.930744
O O8 0.250000 0.831403 0.153700
O O9 0.373179 0.898945 0.241652
O O10 0.357072 0.959392 0.088674
O O11 0.250000 0.997129 0.303994
O O12 0.374119 0.114672 0.272518
O O13 0.376785 0.971983 0.394492
O O14 0.750000 0.773455 0.215856
O O15 0.606176 0.736666 0.160886
O O16 0.113405 0.148318 0.020177
O O17 0.000000 0.000000 0.036002
O O18 0.250000 0.516934 0.983667
O O19 0.157437 0.354133 0.025631
#
# Coordination Sequence:
#
# PCOD8183275 Si02
#       8
#     8   8   8   8   8   8   8   8
#     4  11  21  39  58  88 123 160 201 242 305 372
#     4  10  20  37  65  89 112 159 214 249 284 358
#     4  10  19  34  61  90 116 154 204 252 293 354
#     4   9  18  34  59  90 115 145 204 260 297 342
#     4  10  20  38  62  89 118 159 211 252 293 362
#     4  11  20  36  57  88 126 153 189 250 311 357
#     4  11  23  41  62  85 120 164 204 251 302 364
#     4  12  24  38  59  91 127 156 194 251 317 365
#
# _framework density 19.310974999999999
#
# number of rings (size 3 to 8) (size 9 to 14) (size 15 to 20)
#    0.000    1.500    5.000    3.000    0.000    1.500 
#    2.250    3.750    0.000    3.000    0.000    0.000 
#    0.000    0.000    0.000    0.000    0.000    0.000 
#
# Total GULP energy -396852.082138 kJ/mol
# GULP energy per Si atom -12401.627567 kJ/mol
# Density = 1.926702 g / cm^3
# Si number density = 19.310975 Si / 1000 Ang^3
#
#
#
# Elastic Constant Matrix: (Units=GPa)
#
#
# Indices 1 2 3 4 5 6 
#
# 1 50.7079 10.4940 17.2224 0.0000 0.0000 0.0000
# 2 10.4940 124.4622 56.8446 0.0000 0.0000 0.0000
# 3 17.2224 56.8446 109.6195 0.0000 0.0000 0.0000
# 4 0.0000 0.0000 0.0000 31.4110 0.0000 0.0000
# 5 0.0000 0.0000 0.0000 0.0000 12.9006 0.0000
# 6 0.0000 0.0000 0.0000 0.0000 0.0000 27.5108
#
#
#
# Elastic Compliance Matrix: (Units=1/GPa)
#
#
# Indices 1 2 3 4 5 6 
#
# 1 0.020844 -0.000343 -0.003097 0.000000 0.000000 0.000000
# 2 -0.000343 0.010534 -0.005408 0.000000 0.000000 0.000000
# 3 -0.003097 -0.005408 0.012414 0.000000 0.000000 0.000000
# 4 0.000000 0.000000 0.000000 0.031836 0.000000 0.000000
# 5 0.000000 0.000000 0.000000 0.000000 0.077516 0.000000
# 6 0.000000 0.000000 0.000000 0.000000 0.000000 0.036349
#
#
# Mechanical properties :
#
#
# Convention : Reuss Voigt Hill
#
# Bulk Modulus (GPa) = 38.32270 50.43462 44.37866
# Shear Modulus (GPa) = 23.16030 27.71307 25.43668
#
# Velocity S-wave (km/s) = 3.46690 3.79237 3.63328
# Velocity P-wave (km/s) = 5.99282 6.73423 6.37432
#
# Compressibility (1/GPa) = 0.02609419
#
# Stress axis : x y z
#
# Youngs Moduli (GPa) = 47.97631 94.93385 80.55650
#
# Poissons Ratio (x) = 0.03256 0.24948
# Poissons Ratio (y) = 0.01646 0.43569
# Poissons Ratio (z) = 0.14858 0.51345
#
# Static dielectric constant tensor:
#      x y z
#    x 3.384020 0.000000 0.000000 
#    y 0.000000 3.598760 0.000000 
#    z 0.000000 0.000000 3.620810 
# 
# 
# High freq. dielectric constant tensor:
#      x y z
#    x 1.745740 0.000000 0.000000 
#    y 0.000000 1.746470 0.000000 
#    z 0.000000 0.000000 1.744460 
# 
# From -- ./inp_files/20817.got.cif
#   From: 2010.03.12/outbox.cif.g09.slc.cpg/sg40_11_cif.got.tgz:20817.got - 2010.04.14 01:38:03.
