data_PCOD8183956
_publ_section_title
;
Structure prediction by ZEFSAII (Michael W. Deem and Ramdas Pophale) SiO2 
 PCOD8183956
Probable space group: A M A 2
;
_chemical_formula_sum "Si O2"
_cell_formula_units_Z 48
_cell_length_a 23.470256
_cell_length_b 7.606835
_cell_length_c 11.934394
_cell_angle_alpha 90.000000
_cell_angle_beta 90.000000
_cell_angle_gamma 90.000000
_cell_volume 2130.699452
_symmetry_space_group_name_H-M "A M A 2"
_symmetry_group_IT_number 40
_symmetry_cell_setting 'orthorhombic'
loop_
_space_group_symop_operation_xyz
x,y,z
-x,-y,z
1/2-x,y,z
1/2+x,-y,z
x,1/2+y,1/2+z
-x,1/2-y,1/2+z
1/2-x,1/2+y,1/2+z
1/2+x,1/2-y,1/2+z
loop_
_atom_site_type_symbol
_atom_site_label
_atom_site_fract_x
_atom_site_fract_y
_atom_site_fract_z
Si Si1 0.750000 0.093006 0.859401
Si Si2 0.980457 0.696116 0.961326
Si Si3 0.250000 0.488280 0.834056
Si Si4 0.000000 0.000000 0.128661
Si Si5 0.162230 0.888838 0.677202
Si Si6 0.569959 0.811403 0.288642
Si Si7 0.137206 0.457303 0.945957
Si Si8 0.750000 0.895840 0.098821
O O1 0.750000 0.304959 0.871329
O O2 0.803893 0.032649 0.783097
O O3 0.750000 0.995116 0.978934
O O4 0.004236 0.824605 0.055945
O O5 0.000000 0.500000 0.993672
O O6 0.911554 0.696247 0.946997
O O7 0.011322 0.755859 0.845802
O O8 0.194694 0.390106 0.884719
O O9 0.250000 0.461869 0.699942
O O10 0.944605 0.977965 0.208513
O O11 0.098541 0.841372 0.716792
O O12 0.153111 0.020752 0.572709
O O13 0.193644 0.721605 0.618679
O O14 0.615151 0.870307 0.382372
#
# Coordination Sequence:
#
# PCOD8183956 Si02
#       8
#     4   8   4   4   8   8   8   4
#     4  10  21  39  63  92 125 170 222 272 328 404
#     4  10  24  42  66  99 134 175 228 278 337 405
#     4  10  20  38  64  86 126 174 208 270 337 391
#     4  12  22  44  68  94 138 182 222 280 342 398
#     4  10  21  40  64  87 128 171 211 280 329 393
#     4  11  21  41  65  94 131 171 222 277 336 397
#     4  11  19  41  65  89 128 177 212 268 344 390
#     4  10  21  39  63  94 127 168 230 270 335 403
#
# _framework density 22.527815
#
# number of rings (size 3 to 8) (size 9 to 14) (size 15 to 20)
#    0.000    1.667    7.500    1.000    0.000    1.333 
#    1.500    6.667    0.000    0.000    0.000    0.000 
#    0.000    0.000    0.000    0.000    0.000    0.000 
#
# Total GULP energy -297328.773124 kJ/mol
# GULP energy per Si atom -12388.698880 kJ/mol
# Density = 2.247654 g / cm^3
# Si number density = 22.527815 Si / 1000 Ang^3
#
#
#
# Elastic Constant Matrix: (Units=GPa)
#
#
# Indices 1 2 3 4 5 6 
#
# 1 134.8653 14.4147 57.7657 0.0000 0.0000 0.0000
# 2 14.4147 45.8676 40.0802 0.0000 0.0000 0.0000
# 3 57.7657 40.0802 190.4694 0.0000 0.0000 0.0000
# 4 0.0000 0.0000 0.0000 40.4459 0.0000 0.0000
# 5 0.0000 0.0000 0.0000 0.0000 43.2778 0.0000
# 6 0.0000 0.0000 0.0000 0.0000 0.0000 8.9923
#
#
#
# Elastic Compliance Matrix: (Units=1/GPa)
#
#
# Indices 1 2 3 4 5 6 
#
# 1 0.008532 -0.000515 -0.002479 0.000000 0.000000 0.000000
# 2 -0.000515 0.026745 -0.005472 0.000000 0.000000 0.000000
# 3 -0.002479 -0.005472 0.007153 0.000000 0.000000 0.000000
# 4 0.000000 0.000000 0.000000 0.024724 0.000000 0.000000
# 5 0.000000 0.000000 0.000000 0.000000 0.023107 0.000000
# 6 0.000000 0.000000 0.000000 0.000000 0.000000 0.111206
#
#
# Mechanical properties :
#
#
# Convention : Reuss Voigt Hill
#
# Bulk Modulus (GPa) = 39.21777 66.19149 52.70463
# Shear Modulus (GPa) = 22.03628 35.80598 28.92113
#
# Velocity S-wave (km/s) = 3.13098 3.99107 3.58690
# Velocity P-wave (km/s) = 5.52423 7.11927 6.37186
#
# Compressibility (1/GPa) = 0.02549865
#
# Stress axis : x y z
#
# Youngs Moduli (GPa) = 117.20969 37.39004 139.79195
#
# Poissons Ratio (x) = 0.01925 0.34657
# Poissons Ratio (y) = 0.06035 0.76491
# Poissons Ratio (z) = 0.29058 0.20459
#
# Static dielectric constant tensor:
#      x y z
#    x 4.446070 0.000000 0.000000 
#    y 0.000000 3.368420 0.000000 
#    z 0.000000 0.000000 4.512270 
# 
# 
# High freq. dielectric constant tensor:
#      x y z
#    x 1.902340 0.000000 0.000000 
#    y 0.000000 1.821460 0.000000 
#    z 0.000000 0.000000 1.913900 
# 
# From -- ./inp_files/14171.got.cif
#   From: 2010.03.12/outbox.cif.g09.slc.cpg/sg40_8_cif.got.tgz:14171.got - 2010.04.14 01:38:03.
