data_PCOD8183426
_publ_section_title
;
Structure prediction by ZEFSAII (Michael W. Deem and Ramdas Pophale) SiO2 
 PCOD8183426
Probable space group: A M A 2
;
_chemical_formula_sum "Si O2"
_cell_formula_units_Z 64
_cell_length_a 18.884248
_cell_length_b 22.345900
_cell_length_c 7.362790
_cell_angle_alpha 90.000000
_cell_angle_beta 90.000000
_cell_angle_gamma 90.000000
_cell_volume 3106.990748
_symmetry_space_group_name_H-M "A M A 2"
_symmetry_group_IT_number 40
_symmetry_cell_setting 'orthorhombic'
loop_
_space_group_symop_operation_xyz
x,y,z
-x,-y,z
1/2-x,y,z
1/2+x,-y,z
x,1/2+y,1/2+z
-x,1/2-y,1/2+z
1/2-x,1/2+y,1/2+z
1/2+x,1/2-y,1/2+z
loop_
_atom_site_type_symbol
_atom_site_label
_atom_site_fract_x
_atom_site_fract_y
_atom_site_fract_z
Si Si1 0.436676 0.155439 0.178240
Si Si2 0.525648 0.344938 0.264115
Si Si3 0.370835 0.842171 0.876467
Si Si4 0.170803 0.255854 0.091522
Si Si5 0.420939 0.783362 0.242256
Si Si6 0.331023 0.975465 0.960826
Si Si7 0.929263 0.969686 0.675701
Si Si8 0.576755 0.978602 0.272146
O O1 0.370748 0.200669 0.183625
O O2 0.505513 0.181522 0.285274
O O3 0.413522 0.092599 0.261909
O O4 0.456651 0.143570 0.972209
O O5 0.441247 0.343811 0.253242
O O6 0.558639 0.284152 0.185356
O O7 0.558274 0.398932 0.148027
O O8 0.318035 0.804472 0.750609
O O9 0.338868 0.907316 0.902193
O O10 0.380097 0.812377 0.073823
O O11 0.250000 0.236014 0.029451
O O12 0.128782 0.283147 0.919009
O O13 0.250000 0.993974 0.974771
O O14 0.365463 0.019233 0.812923
O O15 0.365380 0.985994 0.156931
O O16 0.911682 0.998511 0.480491
O O17 0.000000 0.000000 0.758474
O O18 0.500000 0.000000 0.202287
#
# Coordination Sequence:
#
# PCOD8183426 Si02
#       8
#     8   8   8   8   8   8   8   8
#     4  10  21  39  67  95 131 170 216 267 328 391
#     4  10  19  38  68  97 128 162 217 273 317 385
#     4  11  23  41  69  94 130 174 218 261 331 397
#     4  11  25  41  62  98 137 171 216 272 333 393
#     4  10  23  40  66  98 130 171 214 270 322 398
#     4  12  26  45  64  90 136 179 218 268 325 394
#     4  11  23  40  68  98 125 165 220 279 330 381
#     4  11  24  41  68  99 125 165 224 281 327 384
#
# _framework density 20.598710000000001
#
# number of rings (size 3 to 8) (size 9 to 14) (size 15 to 20)
#    0.000    1.250    3.750    2.250    3.500    3.000 
#    0.000    0.000    0.000    0.000    0.000    0.000 
#    0.000    0.000    0.000    0.000    0.000    0.000 
#
# Total GULP energy -396890.769274 kJ/mol
# GULP energy per Si atom -12402.836540 kJ/mol
# Density = 2.055183 g / cm^3
# Si number density = 20.598710 Si / 1000 Ang^3
#
#
#
# Elastic Constant Matrix: (Units=GPa)
#
#
# Indices 1 2 3 4 5 6 
#
# 1 126.5211 18.1471 39.0301 0.0000 0.0000 0.0000
# 2 18.1471 96.5387 11.1160 0.0000 0.0000 0.0000
# 3 39.0301 11.1160 68.3487 0.0000 0.0000 0.0000
# 4 0.0000 0.0000 0.0000 30.0146 0.0000 0.0000
# 5 0.0000 0.0000 0.0000 0.0000 18.3219 0.0000
# 6 0.0000 0.0000 0.0000 0.0000 0.0000 13.5441
#
#
#
# Elastic Compliance Matrix: (Units=1/GPa)
#
#
# Indices 1 2 3 4 5 6 
#
# 1 0.009731 -0.001212 -0.005360 0.000000 0.000000 0.000000
# 2 -0.001212 0.010707 -0.001049 0.000000 0.000000 0.000000
# 3 -0.005360 -0.001049 0.017862 0.000000 0.000000 0.000000
# 4 0.000000 0.000000 0.000000 0.033317 0.000000 0.000000
# 5 0.000000 0.000000 0.000000 0.000000 0.054579 0.000000
# 6 0.000000 0.000000 0.000000 0.000000 0.000000 0.073833
#
#
# Mechanical properties :
#
#
# Convention : Reuss Voigt Hill
#
# Bulk Modulus (GPa) = 43.36829 47.55498 45.46163
# Shear Modulus (GPa) = 22.42577 27.25049 24.83813
#
# Velocity S-wave (km/s) = 3.30312 3.64115 3.47624
# Velocity P-wave (km/s) = 5.97052 6.38857 6.18308
#
# Compressibility (1/GPa) = 0.02305832
#
# Stress axis : x y z
#
# Youngs Moduli (GPa) = 102.76344 93.39513 55.98430
#
# Poissons Ratio (x) = 0.11320 0.30006
# Poissons Ratio (y) = 0.12456 0.05874
# Poissons Ratio (z) = 0.55079 0.09799
#
# Static dielectric constant tensor:
#      x y z
#    x 3.603060 0.000000 0.000000 
#    y 0.000000 3.822640 0.000000 
#    z 0.000000 0.000000 3.670510 
# 
# 
# High freq. dielectric constant tensor:
#      x y z
#    x 1.787230 0.000000 0.000000 
#    y 0.000000 1.813760 0.000000 
#    z 0.000000 0.000000 1.812440 
# 
# From -- ./inp_files/7830.got.cif
#   From: 2010.03.12/outbox.cif.g09.slc.cpg/sg40_4_cif.got.tgz:7830.got - 2010.04.14 01:38:03.
