data_PCOD8183584
_publ_section_title
;
Structure prediction by ZEFSAII (Michael W. Deem and Ramdas Pophale) SiO2 
 PCOD8183584
Probable space group: A M A 2
;
_chemical_formula_sum "Si O2"
_cell_formula_units_Z 56
_cell_length_a 16.703117
_cell_length_b 5.120970
_cell_length_c 31.821790
_cell_angle_alpha 90.000000
_cell_angle_beta 90.000000
_cell_angle_gamma 90.000000
_cell_volume 2721.913755
_symmetry_space_group_name_H-M "A M A 2"
_symmetry_group_IT_number 40
_symmetry_cell_setting 'orthorhombic'
loop_
_space_group_symop_operation_xyz
x,y,z
-x,-y,z
1/2-x,y,z
1/2+x,-y,z
x,1/2+y,1/2+z
-x,1/2-y,1/2+z
1/2-x,1/2+y,1/2+z
1/2+x,1/2-y,1/2+z
loop_
_atom_site_type_symbol
_atom_site_label
_atom_site_fract_x
_atom_site_fract_y
_atom_site_fract_z
Si Si1 0.155124 0.241919 0.040630
Si Si2 0.345181 0.241154 0.234491
Si Si3 0.345157 0.742820 0.090911
Si Si4 0.845627 0.759029 0.685466
Si Si5 0.446708 0.242989 0.959774
Si Si6 0.588072 0.397249 0.367446
Si Si7 0.157280 0.115593 0.327497
O O1 0.250000 0.234482 0.036393
O O2 0.124971 0.481757 0.068602
O O3 0.121557 0.985120 0.063865
O O4 0.121457 0.281102 0.994175
O O5 0.250000 0.249511 0.233812
O O6 0.380122 0.500233 0.212605
O O7 0.374851 0.213638 0.282321
O O8 0.377834 0.999932 0.207623
O O9 0.250000 0.759105 0.092741
O O10 0.379848 0.740422 0.138115
O O11 0.750000 0.770059 0.684563
O O12 0.500000 0.500000 0.954528
O O13 0.403131 0.181593 0.915963
O O14 0.500000 0.000000 0.974123
O O15 0.500000 0.500000 0.356116
O O16 0.352852 0.358970 0.359216
O O17 0.607956 0.141992 0.340080
O O18 0.250000 0.033165 0.326002
#
# Coordination Sequence:
#
# PCOD8183584 Si02
#       7
#     8   8   8   8   8   8   8
#     4  10  20  34  54  83 113 139 177 230 280 322
#     4   9  17  28  46  76 111 143 178 224 273 322
#     4   9  17  29  48  78 113 144 177 221 271 324
#     4   9  15  26  45  72 110 148 176 213 271 326
#     4  11  23  41  60  80 108 145 189 228 271 338
#     4  11  23  41  60  82 113 153 194 233 283 351
#     4  11  22  37  59  89 119 146 188 243 292 335
#
# _framework density 20.573761999999999
#
# number of rings (size 3 to 8) (size 9 to 14) (size 15 to 20)
#    0.000    2.000    0.000    5.143    0.000    6.857 
#    0.000    1.429    0.000    0.000    0.000   35.000 
#    0.000    0.000    0.000    0.000    0.000    0.000 
#
# Total GULP energy -347230.494319 kJ/mol
# GULP energy per Si atom -12401.089083 kJ/mol
# Density = 2.052694 g / cm^3
# Si number density = 20.573762 Si / 1000 Ang^3
#
#
#
# Elastic Constant Matrix: (Units=GPa)
#
#
# Indices 1 2 3 4 5 6 
#
# 1 24.9961 18.6038 37.0403 0.0000 0.0000 0.0000
# 2 18.6038 141.6366 52.3922 0.0000 0.0000 0.0000
# 3 37.0403 52.3922 151.1178 0.0000 0.0000 0.0000
# 4 0.0000 0.0000 0.0000 45.0773 0.0000 0.0000
# 5 0.0000 0.0000 0.0000 0.0000 9.0537 0.0000
# 6 0.0000 0.0000 0.0000 0.0000 0.0000 22.5486
#
#
#
# Elastic Compliance Matrix: (Units=1/GPa)
#
#
# Indices 1 2 3 4 5 6 
#
# 1 0.063905 -0.002982 -0.014630 0.000000 0.000000 0.000000
# 2 -0.002982 0.008238 -0.002125 0.000000 0.000000 0.000000
# 3 -0.014630 -0.002125 0.010940 0.000000 0.000000 0.000000
# 4 0.000000 0.000000 0.000000 0.022184 0.000000 0.000000
# 5 0.000000 0.000000 0.000000 0.000000 0.110452 0.000000
# 6 0.000000 0.000000 0.000000 0.000000 0.000000 0.044349
#
#
# Mechanical properties :
#
#
# Convention : Reuss Voigt Hill
#
# Bulk Modulus (GPa) = 22.93115 59.31369 41.12242
# Shear Modulus (GPa) = 15.91961 29.31687 22.61824
#
# Velocity S-wave (km/s) = 2.78471 3.77896 3.31928
# Velocity P-wave (km/s) = 4.63784 6.92338 5.89248
#
# Compressibility (1/GPa) = 0.04360880
#
# Stress axis : x y z
#
# Youngs Moduli (GPa) = 15.64825 121.38649 91.40742
#
# Poissons Ratio (x) = 0.36200 1.33727
# Poissons Ratio (y) = 0.04667 0.19426
# Poissons Ratio (z) = 0.22893 0.25797
#
# Static dielectric constant tensor:
#      x y z
#    x 3.196240 0.000000 0.000000 
#    y 0.000000 4.006320 0.000000 
#    z 0.000000 0.000000 3.904490 
# 
# 
# High freq. dielectric constant tensor:
#      x y z
#    x 1.754880 0.000000 0.000000 
#    y 0.000000 1.827340 0.000000 
#    z 0.000000 0.000000 1.819360 
# 
# From -- ./inp_files/26602.got.cif
#   From: 2010.03.12/outbox.cif.g09.slc.cpg/sg40_14_cif.got.tgz:26602.got - 2010.04.14 01:38:03.
