data_PCOD8183503
_publ_section_title
;
Structure prediction by ZEFSAII (Michael W. Deem and Ramdas Pophale) SiO2 
 PCOD8183503
Probable space group: A M A 2
;
_chemical_formula_sum "Si O2"
_cell_formula_units_Z 64
_cell_length_a 8.668560
_cell_length_b 14.536562
_cell_length_c 27.446999
_cell_angle_alpha 90.000000
_cell_angle_beta 90.000000
_cell_angle_gamma 90.000000
_cell_volume 3458.625435
_symmetry_space_group_name_H-M "A M A 2"
_symmetry_group_IT_number 40
_symmetry_cell_setting 'orthorhombic'
loop_
_space_group_symop_operation_xyz
x,y,z
-x,-y,z
1/2-x,y,z
1/2+x,-y,z
x,1/2+y,1/2+z
-x,1/2-y,1/2+z
1/2-x,1/2+y,1/2+z
1/2+x,1/2-y,1/2+z
loop_
_atom_site_type_symbol
_atom_site_label
_atom_site_fract_x
_atom_site_fract_y
_atom_site_fract_z
Si Si1 0.067972 0.096253 0.532550
Si Si2 0.067485 0.215781 0.721224
Si Si3 0.933188 0.597928 0.137509
Si Si4 0.079211 0.352601 0.315439
Si Si5 0.070353 0.788276 0.449596
Si Si6 0.431234 0.591289 0.411094
Si Si7 0.919055 0.849529 0.356985
Si Si8 0.932971 0.906181 0.254028
O O1 0.250000 0.086945 0.539633
O O2 0.989885 0.121992 0.583452
O O3 0.029388 0.176825 0.494717
O O4 0.000000 0.000000 0.512597
O O5 0.250000 0.213926 0.717640
O O6 0.993621 0.178761 0.671758
O O7 0.014581 0.148898 0.765035
O O8 0.011693 0.320261 0.727615
O O9 0.750000 0.593511 0.138656
O O10 0.000000 0.500000 0.154899
O O11 0.250000 0.394523 0.306374
O O12 0.096169 0.251030 0.335277
O O13 0.989350 0.411776 0.355425
O O14 0.250000 0.794592 0.462116
O O15 0.015679 0.683492 0.439286
O O16 0.037679 0.851740 0.402046
O O17 0.500000 0.500000 0.437408
O O18 0.250000 0.585685 0.411062
O O19 0.750000 0.882205 0.375599
O O20 0.977758 0.910425 0.311644
O O21 0.750000 0.898800 0.246799
O O22 0.000000 0.000000 0.230554
#
# Coordination Sequence:
#
# PCOD8183503 Si02
#       8
#     8   8   8   8   8   8   8   8
#     4  11  22  38  59  82 107 135 169 212 265 320
#     4  11  21  35  55  80 109 142 180 220 266 318
#     4  11  22  39  60  83 109 135 169 214 266 321
#     4   9  17  31  49  71 101 136 175 217 260 304
#     4  10  20  34  53  78 107 140 178 219 264 313
#     4  10  20  33  51  76 108 145 183 221 262 310
#     4   8  16  30  47  69 100 136 174 215 257 302
#     4  10  20  34  52  77 109 147 186 224 266 312
#
# _framework density 18.504462
#
# number of rings (size 3 to 8) (size 9 to 14) (size 15 to 20)
#    0.000    2.000    0.000    6.375    0.000    6.000 
#    0.000    3.750    0.000    0.750    0.000    3.500 
#    0.000    0.000    0.000    0.000    0.000    0.000 
#
# Total GULP energy -396745.092504 kJ/mol
# GULP energy per Si atom -12398.284141 kJ/mol
# Density = 1.846234 g / cm^3
# Si number density = 18.504462 Si / 1000 Ang^3
#
#
#
# Elastic Constant Matrix: (Units=GPa)
#
#
# Indices 1 2 3 4 5 6 
#
# 1 138.6883 50.1378 50.9560 0.0000 0.0000 0.0000
# 2 50.1378 100.7394 55.2169 0.0000 0.0000 0.0000
# 3 50.9560 55.2169 89.6189 0.0000 0.0000 0.0000
# 4 0.0000 0.0000 0.0000 24.9322 0.0000 0.0000
# 5 0.0000 0.0000 0.0000 0.0000 30.9311 0.0000
# 6 0.0000 0.0000 0.0000 0.0000 0.0000 28.6528
#
#
#
# Elastic Compliance Matrix: (Units=1/GPa)
#
#
# Indices 1 2 3 4 5 6 
#
# 1 0.009574 -0.002689 -0.003787 0.000000 0.000000 0.000000
# 2 -0.002689 0.015744 -0.008171 0.000000 0.000000 0.000000
# 3 -0.003787 -0.008171 0.018346 0.000000 0.000000 0.000000
# 4 0.000000 0.000000 0.000000 0.040109 0.000000 0.000000
# 5 0.000000 0.000000 0.000000 0.000000 0.032330 0.000000
# 6 0.000000 0.000000 0.000000 0.000000 0.000000 0.034901
#
#
# Mechanical properties :
#
#
# Convention : Reuss Voigt Hill
#
# Bulk Modulus (GPa) = 69.59231 71.29646 70.44439
# Shear Modulus (GPa) = 27.01437 28.41895 27.71666
#
# Velocity S-wave (km/s) = 3.82499 3.92317 3.87439
# Velocity P-wave (km/s) = 7.56290 7.68990 7.62667
#
# Compressibility (1/GPa) = 0.01436940
#
# Stress axis : x y z
#
# Youngs Moduli (GPa) = 104.45042 63.51692 54.50850
#
# Poissons Ratio (x) = 0.17083 0.20640
# Poissons Ratio (y) = 0.28092 0.44539
# Poissons Ratio (z) = 0.39550 0.51900
#
# Static dielectric constant tensor:
#      x y z
#    x 3.534550 0.000000 0.000000 
#    y 0.000000 3.519400 0.000000 
#    z 0.000000 0.000000 3.306270 
# 
# 
# High freq. dielectric constant tensor:
#      x y z
#    x 1.735310 0.000000 0.000000 
#    y 0.000000 1.713270 0.000000 
#    z 0.000000 0.000000 1.693230 
# 
# From -- ./inp_files/24339.got.cif
#   From: 2010.03.12/outbox.cif.g09.slc.cpg/sg40_13_cif.got.tgz:24339.got - 2010.04.14 01:38:03.
