data_PCOD8183091
_publ_section_title
;
Structure prediction by ZEFSAII (Michael W. Deem and Ramdas Pophale) SiO2 
 PCOD8183091
Probable space group: A M A 2
;
_chemical_formula_sum "Si O2"
_cell_formula_units_Z 64
_cell_length_a 8.892013
_cell_length_b 19.723432
_cell_length_c 20.352108
_cell_angle_alpha 90.000000
_cell_angle_beta 90.000000
_cell_angle_gamma 90.000000
_cell_volume 3569.373333
_symmetry_space_group_name_H-M "A M A 2"
_symmetry_group_IT_number 40
_symmetry_cell_setting 'orthorhombic'
loop_
_space_group_symop_operation_xyz
x,y,z
-x,-y,z
1/2-x,y,z
1/2+x,-y,z
x,1/2+y,1/2+z
-x,1/2-y,1/2+z
1/2-x,1/2+y,1/2+z
1/2+x,1/2-y,1/2+z
loop_
_atom_site_type_symbol
_atom_site_label
_atom_site_fract_x
_atom_site_fract_y
_atom_site_fract_z
Si Si1 0.422213 0.067760 0.203960
Si Si2 0.425839 0.068936 0.598108
Si Si3 0.927448 0.930060 0.749316
Si Si4 0.923370 0.705256 0.898468
Si Si5 0.422359 0.801755 0.547084
Si Si6 0.928643 0.703947 0.291154
Si Si7 0.571513 0.788321 0.166037
Si Si8 0.575376 0.930768 0.358848
O O1 0.250000 0.059844 0.184951
O O2 0.492884 0.134899 0.169913
O O3 0.445369 0.076899 0.281272
O O4 0.500000 0.000000 0.176961
O O5 0.250000 0.060886 0.589794
O O6 0.472082 0.082668 0.673515
O O7 0.481690 0.130210 0.553322
O O8 0.500000 0.000000 0.572053
O O9 0.750000 0.933204 0.759854
O O10 0.996940 0.869966 0.792491
O O11 0.000000 0.000000 0.774341
O O12 0.750000 0.706075 0.875356
O O13 0.020920 0.757062 0.856237
O O14 0.988145 0.629902 0.893435
O O15 0.938119 0.728332 0.974203
O O16 0.250000 0.819721 0.564077
O O17 0.483280 0.745338 0.598169
O O18 0.750000 0.696755 0.290875
O O19 0.988828 0.744518 0.227439
O O20 0.750000 0.792447 0.171410
O O21 0.750000 0.929561 0.379092
O O22 0.500000 0.000000 0.384091
#
# Coordination Sequence:
#
# PCOD8183091 Si02
#       8
#     8   8   8   8   8   8   8   8
#     4   9  17  31  51  78 104 131 167 211 261 311
#     4  10  20  33  52  78 109 144 180 221 265 320
#     4  10  20  34  54  84 114 141 177 224 275 325
#     4  11  23  36  52  78 110 144 183 227 272 323
#     4  10  21  37  55  75 105 145 183 222 270 322
#     4  11  20  35  59  81 106 143 182 228 274 320
#     4   9  17  33  56  78 101 135 179 219 265 318
#     4  10  19  33  52  76 106 143 181 218 265 318
#
# _framework density 17.930319999999998
#
# number of rings (size 3 to 8) (size 9 to 14) (size 15 to 20)
#    0.000    2.000    2.500    1.875    0.000    3.000 
#    0.000    0.625    0.000    0.750    0.000    1.750 
#    0.000    0.000    0.000    0.000    0.000    0.000 
#
# Total GULP energy -396879.451164 kJ/mol
# GULP energy per Si atom -12402.482849 kJ/mol
# Density = 1.788951 g / cm^3
# Si number density = 17.930320 Si / 1000 Ang^3
#
#
#
# Elastic Constant Matrix: (Units=GPa)
#
#
# Indices 1 2 3 4 5 6 
#
# 1 70.3541 40.8058 28.0111 0.0000 0.0000 0.0000
# 2 40.8058 143.0654 49.6053 0.0000 0.0000 0.0000
# 3 28.0111 49.6053 71.5324 0.0000 0.0000 0.0000
# 4 0.0000 0.0000 0.0000 21.9553 0.0000 0.0000
# 5 0.0000 0.0000 0.0000 0.0000 18.6865 0.0000
# 6 0.0000 0.0000 0.0000 0.0000 0.0000 34.5660
#
#
#
# Elastic Compliance Matrix: (Units=1/GPa)
#
#
# Indices 1 2 3 4 5 6 
#
# 1 0.018123 -0.003566 -0.004624 0.000000 0.000000 0.000000
# 2 -0.003566 0.009904 -0.005472 0.000000 0.000000 0.000000
# 3 -0.004624 -0.005472 0.019585 0.000000 0.000000 0.000000
# 4 0.000000 0.000000 0.000000 0.045547 0.000000 0.000000
# 5 0.000000 0.000000 0.000000 0.000000 0.053515 0.000000
# 6 0.000000 0.000000 0.000000 0.000000 0.000000 0.028930
#
#
# Mechanical properties :
#
#
# Convention : Reuss Voigt Hill
#
# Bulk Modulus (GPa) = 49.28831 57.97737 53.63284
# Shear Modulus (GPa) = 23.84472 26.14355 24.99413
#
# Velocity S-wave (km/s) = 3.65067 3.82260 3.73763
# Velocity P-wave (km/s) = 6.73189 7.20334 6.97160
#
# Compressibility (1/GPa) = 0.02028879
#
# Stress axis : x y z
#
# Youngs Moduli (GPa) = 55.17841 100.96774 51.05978
#
# Poissons Ratio (x) = 0.36004 0.23610
# Poissons Ratio (y) = 0.19676 0.27939
# Poissons Ratio (z) = 0.25514 0.55248
#
# Static dielectric constant tensor:
#      x y z
#    x 3.260280 0.000000 0.000000 
#    y 0.000000 3.484380 0.000000 
#    z 0.000000 0.000000 3.136380 
# 
# 
# High freq. dielectric constant tensor:
#      x y z
#    x 1.692320 0.000000 0.000000 
#    y 0.000000 1.700650 0.000000 
#    z 0.000000 0.000000 1.666490 
# 
# From -- ./inp_files/19567.got.cif
#   From: 2010.03.12/outbox.cif.g09.slc.cpg/sg40_10_cif.got.tgz:19567.got - 2010.04.14 01:38:03.
