data_PCOD8183716
_publ_section_title
;
Structure prediction by ZEFSAII (Michael W. Deem and Ramdas Pophale) SiO2 
 PCOD8183716
Probable space group: A M A 2
;
_chemical_formula_sum "Si O2"
_cell_formula_units_Z 64
_cell_length_a 14.812710
_cell_length_b 9.256138
_cell_length_c 23.204036
_cell_angle_alpha 90.000000
_cell_angle_beta 90.000000
_cell_angle_gamma 90.000000
_cell_volume 3181.470289
_symmetry_space_group_name_H-M "A M A 2"
_symmetry_group_IT_number 40
_symmetry_cell_setting 'orthorhombic'
loop_
_space_group_symop_operation_xyz
x,y,z
-x,-y,z
1/2-x,y,z
1/2+x,-y,z
x,1/2+y,1/2+z
-x,1/2-y,1/2+z
1/2-x,1/2+y,1/2+z
1/2+x,1/2-y,1/2+z
loop_
_atom_site_type_symbol
_atom_site_label
_atom_site_fract_x
_atom_site_fract_y
_atom_site_fract_z
Si Si1 0.147963 0.855407 0.965910
Si Si2 0.854065 0.872428 0.888307
Si Si3 0.148213 0.958874 0.092887
Si Si4 0.147572 0.775989 0.556100
Si Si5 0.351523 0.122194 0.759034
Si Si6 0.914543 0.093586 0.664996
Si Si7 0.031167 0.348624 0.697424
Si Si8 0.021633 0.337352 0.949116
O O1 0.250000 0.810233 0.946957
O O2 0.076408 0.735519 0.948974
O O3 0.120965 0.005012 0.934747
O O4 0.143561 0.869706 0.034283
O O5 0.750000 0.826333 0.894706
O O6 0.875269 0.928917 0.823796
O O7 0.916113 0.733699 0.900126
O O8 0.250000 0.961552 0.117523
O O9 0.084673 0.880062 0.138490
O O10 0.114849 0.120944 0.079694
O O11 0.250000 0.766095 0.530763
O O12 0.148682 0.890331 0.608934
O O13 0.075936 0.828169 0.509094
O O14 0.250000 0.176153 0.754735
O O15 0.409299 0.261831 0.742900
O O16 0.364685 0.985539 0.717352
O O17 0.942881 0.253614 0.684626
O O18 0.000000 0.000000 0.645682
O O19 0.000000 0.500000 0.725625
O O20 0.000000 0.500000 0.932004
#
# Coordination Sequence:
#
# PCOD8183716 Si02
#       8
#     8   8   8   8   8   8   8   8
#     4  10  22  40  65  92 118 161 212 255 300 365
#     4  10  22  44  69  88 115 163 217 258 300 365
#     4  10  20  35  59  89 122 160 206 250 299 361
#     4  11  21  36  59  90 129 168 206 249 306 372
#     4  10  23  43  63  87 121 161 207 256 306 364
#     4  10  21  36  57  86 122 164 207 252 303 361
#     4  11  21  35  58  88 123 159 203 253 304 364
#     4  12  25  38  61  95 128 161 194 256 324 376
#
# _framework density 20.116485999999998
#
# number of rings (size 3 to 8) (size 9 to 14) (size 15 to 20)
#    0.000    1.500    2.500    2.625    0.000    5.500 
#    0.000    2.500    0.000    3.000    0.000    0.000 
#    0.000    0.000    0.000    0.000    0.000    0.000 
#
# Total GULP energy -396800.740237 kJ/mol
# GULP energy per Si atom -12400.023132 kJ/mol
# Density = 2.007070 g / cm^3
# Si number density = 20.116486 Si / 1000 Ang^3
#
#
#
# Elastic Constant Matrix: (Units=GPa)
#
#
# Indices 1 2 3 4 5 6 
#
# 1 93.7107 42.7775 33.2185 0.0000 0.0000 0.0000
# 2 42.7775 106.6645 19.7248 0.0000 0.0000 0.0000
# 3 33.2185 19.7248 89.7124 0.0000 0.0000 0.0000
# 4 0.0000 0.0000 0.0000 28.5681 0.0000 0.0000
# 5 0.0000 0.0000 0.0000 0.0000 27.3813 0.0000
# 6 0.0000 0.0000 0.0000 0.0000 0.0000 22.9907
#
#
#
# Elastic Compliance Matrix: (Units=1/GPa)
#
#
# Indices 1 2 3 4 5 6 
#
# 1 0.014469 -0.005016 -0.004255 0.000000 0.000000 0.000000
# 2 -0.005016 0.011511 -0.000674 0.000000 0.000000 0.000000
# 3 -0.004255 -0.000674 0.012870 0.000000 0.000000 0.000000
# 4 0.000000 0.000000 0.000000 0.035004 0.000000 0.000000
# 5 0.000000 0.000000 0.000000 0.000000 0.036521 0.000000
# 6 0.000000 0.000000 0.000000 0.000000 0.000000 0.043496
#
#
# Mechanical properties :
#
#
# Convention : Reuss Voigt Hill
#
# Bulk Modulus (GPa) = 52.73705 53.50324 53.12015
# Shear Modulus (GPa) = 27.76522 28.74580 28.25551
#
# Velocity S-wave (km/s) = 3.71916 3.78427 3.75186
# Velocity P-wave (km/s) = 6.68698 6.76378 6.72549
#
# Compressibility (1/GPa) = 0.01896200
#
# Stress axis : x y z
#
# Youngs Moduli (GPa) = 69.11298 86.87033 77.69840
#
# Poissons Ratio (x) = 0.43574 0.33059
# Poissons Ratio (y) = 0.34667 0.05234
# Poissons Ratio (z) = 0.29406 0.05852
#
# Static dielectric constant tensor:
#      x y z
#    x 3.842590 0.000000 0.000000 
#    y 0.000000 3.631380 0.000000 
#    z 0.000000 0.000000 3.631590 
# 
# 
# High freq. dielectric constant tensor:
#      x y z
#    x 1.798960 0.000000 0.000000 
#    y 0.000000 1.775660 0.000000 
#    z 0.000000 0.000000 1.776270 
# 
# From -- ./inp_files/24769.got.cif
#   From: 2010.03.12/outbox.cif.g09.slc.cpg/sg40_13_cif.got.tgz:24769.got - 2010.04.14 01:38:03.
