data_PCOD8183946
_publ_section_title
;
Structure prediction by ZEFSAII (Michael W. Deem and Ramdas Pophale) SiO2 
 PCOD8183946
Probable space group: A M A 2
;
_chemical_formula_sum "Si O2"
_cell_formula_units_Z 60
_cell_length_a 9.674978
_cell_length_b 16.727111
_cell_length_c 18.428472
_cell_angle_alpha 90.000000
_cell_angle_beta 90.000000
_cell_angle_gamma 90.000000
_cell_volume 2982.361279
_symmetry_space_group_name_H-M "A M A 2"
_symmetry_group_IT_number 40
_symmetry_cell_setting 'orthorhombic'
loop_
_space_group_symop_operation_xyz
x,y,z
-x,-y,z
1/2-x,y,z
1/2+x,-y,z
x,1/2+y,1/2+z
-x,1/2-y,1/2+z
1/2-x,1/2+y,1/2+z
1/2+x,1/2-y,1/2+z
loop_
_atom_site_type_symbol
_atom_site_label
_atom_site_fract_x
_atom_site_fract_y
_atom_site_fract_z
Si Si1 0.904527 0.890599 0.931090
Si Si2 0.902765 0.361011 0.077925
Si Si3 0.000000 0.000000 0.678956
Si Si4 0.595271 0.432375 0.587553
Si Si5 0.408297 0.386491 0.301917
Si Si6 0.093117 0.267766 0.798482
Si Si7 0.908102 0.207021 0.455696
Si Si8 0.597231 0.693831 0.644342
O O1 0.750000 0.889391 0.896660
O O2 0.946341 0.801180 0.957927
O O3 0.013151 0.924400 0.871990
O O4 0.902911 0.947155 0.001304
O O5 0.750000 0.361950 0.043928
O O6 0.918797 0.441745 0.124408
O O7 0.920647 0.288344 0.133970
O O8 0.004709 0.348899 0.009766
O O9 0.906393 0.054228 0.732461
O O10 0.500000 0.500000 0.624879
O O11 0.750000 0.435062 0.620030
O O12 0.526349 0.347218 0.601723
O O13 0.250000 0.368988 0.323005
O O14 0.486589 0.304217 0.285536
O O15 0.250000 0.232672 0.803369
O O16 0.062423 0.318441 0.871757
O O17 0.080965 0.326233 0.729660
O O18 0.750000 0.193238 0.478621
O O19 0.750000 0.665497 0.616954
#
# Coordination Sequence:
#
# PCOD8183946 Si02
#       8
#     8   8   4   8   8   8   8   8
#     4   9  20  38  58  82 121 161 193 237 297 359
#     4  11  23  39  61  87 121 164 208 253 300 362
#     4  12  26  42  54  86 130 172 208 252 316 364
#     4  11  23  39  59  88 121 155 195 246 305 367
#     4  11  23  35  55  85 117 156 203 248 289 351
#     4   9  19  39  63  86 117 154 193 243 310 369
#     4   9  18  36  62  88 114 151 197 246 300 358
#     4  10  20  38  63  88 117 156 198 247 308 372
#
# _framework density 20.118286000000001
#
# number of rings (size 3 to 8) (size 9 to 14) (size 15 to 20)
#    0.000    1.867    2.667    2.000    0.933    6.400 
#    0.000    0.000    1.467    0.000    0.000    0.000 
#    0.000    0.000    0.000    0.000    0.000    0.000 
#
# Total GULP energy -371720.639331 kJ/mol
# GULP energy per Si atom -12390.687978 kJ/mol
# Density = 2.007250 g / cm^3
# Si number density = 20.118286 Si / 1000 Ang^3
#
#
#
# Elastic Constant Matrix: (Units=GPa)
#
#
# Indices 1 2 3 4 5 6 
#
# 1 158.1384 50.4697 60.2811 0.0000 0.0000 0.0000
# 2 50.4697 65.3670 29.8703 0.0000 0.0000 0.0000
# 3 60.2811 29.8703 114.6132 0.0000 0.0000 0.0000
# 4 0.0000 0.0000 0.0000 35.1762 0.0000 0.0000
# 5 0.0000 0.0000 0.0000 0.0000 24.8626 0.0000
# 6 0.0000 0.0000 0.0000 0.0000 0.0000 11.7302
#
#
#
# Elastic Compliance Matrix: (Units=1/GPa)
#
#
# Indices 1 2 3 4 5 6 
#
# 1 0.009483 -0.005724 -0.003496 0.000000 0.000000 0.000000
# 2 -0.005724 0.020822 -0.002416 0.000000 0.000000 0.000000
# 3 -0.003496 -0.002416 0.011193 0.000000 0.000000 0.000000
# 4 0.000000 0.000000 0.000000 0.028428 0.000000 0.000000
# 5 0.000000 0.000000 0.000000 0.000000 0.040221 0.000000
# 6 0.000000 0.000000 0.000000 0.000000 0.000000 0.085250
#
#
# Mechanical properties :
#
#
# Convention : Reuss Voigt Hill
#
# Bulk Modulus (GPa) = 54.86583 68.81788 61.84185
# Shear Modulus (GPa) = 22.24744 27.52032 24.88388
#
# Velocity S-wave (km/s) = 3.32901 3.70256 3.52074
# Velocity P-wave (km/s) = 6.48901 7.24979 6.87993
#
# Compressibility (1/GPa) = 0.01822628
#
# Stress axis : x y z
#
# Youngs Moduli (GPa) = 105.45094 48.02610 89.33992
#
# Poissons Ratio (x) = 0.27492 0.31231
# Poissons Ratio (y) = 0.60365 0.21583
# Poissons Ratio (z) = 0.36863 0.11602
#
# Static dielectric constant tensor:
#      x y z
#    x 3.641480 0.000000 0.000000 
#    y 0.000000 3.255240 0.000000 
#    z 0.000000 0.000000 3.798360 
# 
# 
# High freq. dielectric constant tensor:
#      x y z
#    x 1.787000 0.000000 0.000000 
#    y 0.000000 1.751160 0.000000 
#    z 0.000000 0.000000 1.786430 
# 
# From -- ./inp_files/19418.got.cif
#   From: 2010.03.12/outbox.cif.g09.slc.cpg/sg40_10_cif.got.tgz:19418.got - 2010.04.14 01:38:03.
