data_PCOD8183656
_publ_section_title
;
Structure prediction by ZEFSAII (Michael W. Deem and Ramdas Pophale) SiO2 
 PCOD8183656
Probable space group: A M A 2
;
_chemical_formula_sum "Si O2"
_cell_formula_units_Z 64
_cell_length_a 8.856642
_cell_length_b 20.073463
_cell_length_c 19.593471
_cell_angle_alpha 90.000000
_cell_angle_beta 90.000000
_cell_angle_gamma 90.000000
_cell_volume 3483.395371
_symmetry_space_group_name_H-M "A M A 2"
_symmetry_group_IT_number 40
_symmetry_cell_setting 'orthorhombic'
loop_
_space_group_symop_operation_xyz
x,y,z
-x,-y,z
1/2-x,y,z
1/2+x,-y,z
x,1/2+y,1/2+z
-x,1/2-y,1/2+z
1/2-x,1/2+y,1/2+z
1/2+x,1/2-y,1/2+z
loop_
_atom_site_type_symbol
_atom_site_label
_atom_site_fract_x
_atom_site_fract_y
_atom_site_fract_z
Si Si1 0.425880 0.684837 0.043430
Si Si2 0.925611 0.567801 0.290930
Si Si3 0.071348 0.930720 0.947750
Si Si4 0.427357 0.827563 0.190858
Si Si5 0.426170 0.567489 0.947093
Si Si6 0.078248 0.174138 0.698315
Si Si7 0.072063 0.068715 0.289873
Si Si8 0.571066 0.325134 0.547377
O O1 0.250000 0.703449 0.032249
O O2 0.450284 0.656237 0.119308
O O3 0.525013 0.749849 0.030100
O O4 0.485724 0.629596 0.990854
O O5 0.750000 0.556953 0.284007
O O6 0.972480 0.581691 0.368945
O O7 0.000000 0.500000 0.263276
O O8 0.971445 0.630443 0.245444
O O9 0.250000 0.932457 0.959539
O O10 0.000000 0.000000 0.973399
O O11 0.997836 0.871195 0.989280
O O12 0.250000 0.840656 0.183182
O O13 0.461629 0.751349 0.209980
O O14 0.497124 0.870660 0.250794
O O15 0.505527 0.847816 0.120111
O O16 0.500000 0.500000 0.974990
O O17 0.250000 0.559139 0.957508
O O18 0.469648 0.579999 0.868742
O O19 0.250000 0.159185 0.719206
O O20 0.250000 0.066954 0.276880
O O21 0.000000 0.000000 0.263175
O O22 0.750000 0.332146 0.548414
#
# Coordination Sequence:
#
# PCOD8183656 Si02
#       8
#     8   8   8   8   8   8   8   8
#     4   9  19  37  56  78 109 144 178 218 266 313
#     4  10  21  36  56  79 107 141 178 219 264 314
#     4  10  21  38  57  79 107 140 176 218 265 315
#     4  10  21  38  57  78 107 142 176 218 266 314
#     4   9  19  35  55  78 108 142 178 220 266 313
#     4   9  19  35  55  78 108 141 175 217 266 315
#     4  10  20  35  55  80 108 140 178 221 264 313
#     4  11  22  36  56  82 108 138 176 219 263 315
#
# _framework density 18.372878
#
# number of rings (size 3 to 8) (size 9 to 14) (size 15 to 20)
#    0.000    2.250    0.000    3.375    0.000    7.000 
#    0.000    7.500    0.000    0.000    0.000    0.000 
#    0.000    0.000    0.000    0.000    0.000    0.000 
#
# Total GULP energy -396914.199754 kJ/mol
# GULP energy per Si atom -12403.568742 kJ/mol
# Density = 1.833106 g / cm^3
# Si number density = 18.372878 Si / 1000 Ang^3
#
#
#
# Elastic Constant Matrix: (Units=GPa)
#
#
# Indices 1 2 3 4 5 6 
#
# 1 89.6916 50.0411 45.4965 0.0000 0.0000 0.0000
# 2 50.0411 104.6280 70.0834 0.0000 0.0000 0.0000
# 3 45.4965 70.0834 86.0205 0.0000 0.0000 0.0000
# 4 0.0000 0.0000 0.0000 21.5222 0.0000 0.0000
# 5 0.0000 0.0000 0.0000 0.0000 34.1688 0.0000
# 6 0.0000 0.0000 0.0000 0.0000 0.0000 38.4487
#
#
#
# Elastic Compliance Matrix: (Units=1/GPa)
#
#
# Indices 1 2 3 4 5 6 
#
# 1 0.016106 -0.004397 -0.004937 0.000000 0.000000 0.000000
# 2 -0.004397 0.022240 -0.015794 0.000000 0.000000 0.000000
# 3 -0.004937 -0.015794 0.027104 0.000000 0.000000 0.000000
# 4 0.000000 0.000000 0.000000 0.046464 0.000000 0.000000
# 5 0.000000 0.000000 0.000000 0.000000 0.029266 0.000000
# 6 0.000000 0.000000 0.000000 0.000000 0.000000 0.026009
#
#
# Mechanical properties :
#
#
# Convention : Reuss Voigt Hill
#
# Bulk Modulus (GPa) = 65.80849 67.95357 66.88103
# Shear Modulus (GPa) = 22.47096 26.47587 24.47342
#
# Velocity S-wave (km/s) = 3.50101 3.80021 3.65367
# Velocity P-wave (km/s) = 7.22764 7.50477 7.36751
#
# Compressibility (1/GPa) = 0.01519561
#
# Stress axis : x y z
#
# Youngs Moduli (GPa) = 62.08696 44.96427 36.89467
#
# Poissons Ratio (x) = 0.19769 0.18214
# Poissons Ratio (y) = 0.27297 0.58272
# Poissons Ratio (z) = 0.30651 0.71017
#
# Static dielectric constant tensor:
#      x y z
#    x 3.267950 0.000000 0.000000 
#    y 0.000000 3.437520 0.000000 
#    z 0.000000 0.000000 3.437780 
# 
# 
# High freq. dielectric constant tensor:
#      x y z
#    x 1.720100 0.000000 0.000000 
#    y 0.000000 1.717630 0.000000 
#    z 0.000000 0.000000 1.712030 
# 
# From -- ./inp_files/19643.got.cif
#   From: 2010.03.12/outbox.cif.g09.slc.cpg/sg40_10_cif.got.tgz:19643.got - 2010.04.14 01:38:03.
