data_PCOD8183759
_publ_section_title
;
Structure prediction by ZEFSAII (Michael W. Deem and Ramdas Pophale) SiO2 
 PCOD8183759
Probable space group: A M A 2
;
_chemical_formula_sum "Si O2"
_cell_formula_units_Z 48
_cell_length_a 9.028555
_cell_length_b 9.136628
_cell_length_c 30.333069
_cell_angle_alpha 90.000000
_cell_angle_beta 90.000000
_cell_angle_gamma 90.000000
_cell_volume 2502.191497
_symmetry_space_group_name_H-M "A M A 2"
_symmetry_group_IT_number 40
_symmetry_cell_setting 'orthorhombic'
loop_
_space_group_symop_operation_xyz
x,y,z
-x,-y,z
1/2-x,y,z
1/2+x,-y,z
x,1/2+y,1/2+z
-x,1/2-y,1/2+z
1/2-x,1/2+y,1/2+z
1/2+x,1/2-y,1/2+z
loop_
_atom_site_type_symbol
_atom_site_label
_atom_site_fract_x
_atom_site_fract_y
_atom_site_fract_z
Si Si1 0.424871 0.652614 0.548240
Si Si2 0.576257 0.153386 0.368721
Si Si3 0.577494 0.154791 0.203448
Si Si4 0.078057 0.648172 0.447146
Si Si5 0.075333 0.653104 0.118671
Si Si6 0.075369 0.655876 0.285638
O O1 0.500000 0.500000 0.562190
O O2 0.250000 0.642835 0.557882
O O3 0.459471 0.689275 0.497370
O O4 0.499405 0.783381 0.574969
O O5 0.750000 0.125941 0.367513
O O6 0.524430 0.220546 0.415573
O O7 0.526868 0.263422 0.330287
O O8 0.500000 0.000000 0.360829
O O9 0.750000 0.125654 0.208952
O O10 0.540481 0.238810 0.158632
O O11 0.517394 0.248961 0.244442
O O12 0.500000 0.000000 0.202230
O O13 0.250000 0.618740 0.440374
O O14 0.000000 0.500000 0.432195
O O15 0.250000 0.632169 0.110820
O O16 0.000000 0.500000 0.130231
O O17 0.250000 0.632204 0.282940
O O18 0.000000 0.500000 0.283846
#
# Coordination Sequence:
#
# PCOD8183759 Si02
#       6
#     8   8   8   8   8   8
#     4  10  20  36  57  81 110 143 182 226 272 323
#     4  10  21  36  54  79 110 142 179 220 264 316
#     4  10  22  38  57  82 110 141 178 220 266 318
#     4   9  19  35  55  80 108 140 179 222 267 318
#     4  11  23  38  56  80 110 144 183 225 272 323
#     4  10  21  37  57  82 110 140 177 219 264 316
#
# _framework density 19.183184000000001
#
# number of rings (size 3 to 8) (size 9 to 14) (size 15 to 20)
#    0.000    2.000    0.000    3.000    0.000    6.000 
#    0.000    1.667    0.000    0.000    0.000    0.000 
#    0.000    0.000    0.000    0.000    0.000    0.000 
#
# Total GULP energy -297702.916146 kJ/mol
# GULP energy per Si atom -12404.288173 kJ/mol
# Density = 1.913952 g / cm^3
# Si number density = 19.183184 Si / 1000 Ang^3
#
#
#
# Elastic Constant Matrix: (Units=GPa)
#
#
# Indices 1 2 3 4 5 6 
#
# 1 67.6957 68.8372 51.3660 0.0000 0.0000 0.0000
# 2 68.8372 171.7640 75.9006 0.0000 0.0000 0.0000
# 3 51.3660 75.9006 117.8370 0.0000 0.0000 0.0000
# 4 0.0000 0.0000 0.0000 30.1603 0.0000 0.0000
# 5 0.0000 0.0000 0.0000 0.0000 25.0865 0.0000
# 6 0.0000 0.0000 0.0000 0.0000 0.0000 42.0947
#
#
#
# Elastic Compliance Matrix: (Units=1/GPa)
#
#
# Indices 1 2 3 4 5 6 
#
# 1 0.028651 -0.008336 -0.007120 0.000000 0.000000 0.000000
# 2 -0.008336 0.010564 -0.003170 0.000000 0.000000 0.000000
# 3 -0.007120 -0.003170 0.013632 0.000000 0.000000 0.000000
# 4 0.000000 0.000000 0.000000 0.033156 0.000000 0.000000
# 5 0.000000 0.000000 0.000000 0.000000 0.039862 0.000000
# 6 0.000000 0.000000 0.000000 0.000000 0.000000 0.023756
#
#
# Mechanical properties :
#
#
# Convention : Reuss Voigt Hill
#
# Bulk Modulus (GPa) = 64.12722 83.27826 73.70274
# Shear Modulus (GPa) = 26.03188 30.21448 28.12318
#
# Velocity S-wave (km/s) = 3.68777 3.97300 3.83303
# Velocity P-wave (km/s) = 7.18570 8.03446 7.62191
#
# Compressibility (1/GPa) = 0.01559400
#
# Stress axis : x y z
#
# Youngs Moduli (GPa) = 34.90265 94.66246 73.35687
#
# Poissons Ratio (x) = 0.78913 0.52228
# Poissons Ratio (y) = 0.29096 0.23258
# Poissons Ratio (z) = 0.24850 0.30013
#
# Static dielectric constant tensor:
#      x y z
#    x 3.466320 0.000000 0.000000 
#    y 0.000000 3.459180 0.000000 
#    z 0.000000 0.000000 3.776140 
# 
# 
# High freq. dielectric constant tensor:
#      x y z
#    x 1.743900 0.000000 0.000000 
#    y 0.000000 1.751530 0.000000 
#    z 0.000000 0.000000 1.762830 
# 
# From -- ./inp_files/26109.got.cif
#   From: 2010.03.12/outbox.cif.g09.slc.cpg/sg40_14_cif.got.tgz:26109.got - 2010.04.14 01:38:03.
