data_PCOD8183190
_publ_section_title
;
Structure prediction by ZEFSAII (Michael W. Deem and Ramdas Pophale) SiO2 
 PCOD8183190
Probable space group: A M A 2
;
_chemical_formula_sum "Si O2"
_cell_formula_units_Z 64
_cell_length_a 8.625093
_cell_length_b 23.361876
_cell_length_c 18.828401
_cell_angle_alpha 90.000000
_cell_angle_beta 90.000000
_cell_angle_gamma 90.000000
_cell_volume 3793.891794
_symmetry_space_group_name_H-M "A M A 2"
_symmetry_group_IT_number 40
_symmetry_cell_setting 'orthorhombic'
loop_
_space_group_symop_operation_xyz
x,y,z
-x,-y,z
1/2-x,y,z
1/2+x,-y,z
x,1/2+y,1/2+z
-x,1/2-y,1/2+z
1/2-x,1/2+y,1/2+z
1/2+x,1/2-y,1/2+z
loop_
_atom_site_type_symbol
_atom_site_label
_atom_site_fract_x
_atom_site_fract_y
_atom_site_fract_z
Si Si1 0.929616 0.725967 0.917830
Si Si2 0.570141 0.737050 0.557408
Si Si3 0.567231 0.062530 0.203638
Si Si4 0.567602 0.886622 0.062371
Si Si5 0.069563 0.665806 0.321408
Si Si6 0.566864 0.938689 0.914194
Si Si7 0.570365 0.230606 0.698602
Si Si8 0.931479 0.339075 0.793829
O O1 0.750000 0.718914 0.936514
O O2 0.964856 0.786035 0.879857
O O3 0.982889 0.673961 0.867769
O O4 0.028578 0.723855 0.989904
O O5 0.750000 0.720226 0.556797
O O6 0.465186 0.680451 0.555896
O O7 0.530651 0.773685 0.627406
O O8 0.750000 0.061884 0.213146
O O9 0.526954 0.086032 0.126225
O O10 0.492535 0.101079 0.264814
O O11 0.500000 0.000000 0.213916
O O12 0.750000 0.895199 0.075985
O O13 0.508909 0.918382 0.991421
O O14 0.250000 0.664624 0.301747
O O15 0.010945 0.605901 0.354090
O O16 0.973757 0.677950 0.249910
O O17 0.750000 0.941176 0.915015
O O18 0.500000 0.000000 0.894097
O O19 0.750000 0.226861 0.678865
O O20 0.528125 0.290351 0.736443
O O21 0.750000 0.342158 0.808525
#
# Coordination Sequence:
#
# PCOD8183190 Si02
#       8
#     8   8   8   8   8   8   8   8
#     4  10  19  34  54  74 103 136 171 215 263 311
#     4  12  22  32  51  78 106 139 175 211 260 317
#     4  12  24  37  53  75 103 142 182 219 261 306
#     4  11  21  36  51  71 104 141 181 221 257 301
#     4   9  18  34  51  71 100 134 171 213 259 303
#     4  10  21  35  51  72 101 138 176 215 255 299
#     4  10  20  33  52  75 102 133 169 214 262 309
#     4  10  20  35  53  76 104 134 173 218 261 310
#
# _framework density 16.869221
#
# number of rings (size 3 to 8) (size 9 to 14) (size 15 to 20)
#    0.000    1.500    2.500    4.125    0.000    4.000 
#    0.000    0.000    0.000    0.000    0.000    0.875 
#    0.000    2.000    0.000    0.000    0.000    0.000 
#
# Total GULP energy -396960.895475 kJ/mol
# GULP energy per Si atom -12405.027984 kJ/mol
# Density = 1.683083 g / cm^3
# Si number density = 16.869221 Si / 1000 Ang^3
#
#
#
# Elastic Constant Matrix: (Units=GPa)
#
#
# Indices 1 2 3 4 5 6 
#
# 1 49.2264 7.9383 28.1239 0.0000 0.0000 0.0000
# 2 7.9383 80.7670 48.5935 0.0000 0.0000 0.0000
# 3 28.1239 48.5935 99.0034 0.0000 0.0000 0.0000
# 4 0.0000 0.0000 0.0000 25.2191 0.0000 0.0000
# 5 0.0000 0.0000 0.0000 0.0000 28.4412 0.0000
# 6 0.0000 0.0000 0.0000 0.0000 0.0000 27.4420
#
#
#
# Elastic Compliance Matrix: (Units=1/GPa)
#
#
# Indices 1 2 3 4 5 6 
#
# 1 0.024611 0.002536 -0.008236 0.000000 0.000000 0.000000
# 2 0.002536 0.017831 -0.009472 0.000000 0.000000 0.000000
# 3 -0.008236 -0.009472 0.017090 0.000000 0.000000 0.000000
# 4 0.000000 0.000000 0.000000 0.039652 0.000000 0.000000
# 5 0.000000 0.000000 0.000000 0.000000 0.035160 0.000000
# 6 0.000000 0.000000 0.000000 0.000000 0.000000 0.036441
#
#
# Mechanical properties :
#
#
# Convention : Reuss Voigt Hill
#
# Bulk Modulus (GPa) = 34.26181 44.25646 39.25913
# Shear Modulus (GPa) = 23.71263 25.84320 24.77791
#
# Velocity S-wave (km/s) = 3.75330 3.91829 3.83668
# Velocity P-wave (km/s) = 6.25599 6.83832 6.55362
#
# Compressibility (1/GPa) = 0.02918702
#
# Stress axis : x y z
#
# Youngs Moduli (GPa) = 40.63277 56.08171 58.51502
#
# Poissons Ratio (x) = -0.14224 0.48193
# Poissons Ratio (y) = -0.10306 0.55428
# Poissons Ratio (z) = 0.33465 0.53123
#
# Static dielectric constant tensor:
#      x y z
#    x 3.184480 0.000000 0.000000 
#    y 0.000000 2.602160 0.000000 
#    z 0.000000 0.000000 3.287510 
# 
# 
# High freq. dielectric constant tensor:
#      x y z
#    x 1.662620 0.000000 0.000000 
#    y 0.000000 1.623430 0.000000 
#    z 0.000000 0.000000 1.646870 
# 
# From -- ./inp_files/15683.got.cif
#   From: 2010.03.12/outbox.cif.g09.slc.cpg/sg40_8_cif.got.tgz:15683.got - 2010.04.14 01:38:03.
