data_PCOD8183729
_publ_section_title
;
Structure prediction by ZEFSAII (Michael W. Deem and Ramdas Pophale) SiO2 
 PCOD8183729
Probable space group: A M A 2
;
_chemical_formula_sum "Si O2"
_cell_formula_units_Z 64
_cell_length_a 8.588215
_cell_length_b 29.775378
_cell_length_c 12.622276
_cell_angle_alpha 90.000000
_cell_angle_beta 90.000000
_cell_angle_gamma 90.000000
_cell_volume 3227.734944
_symmetry_space_group_name_H-M "A M A 2"
_symmetry_group_IT_number 40
_symmetry_cell_setting 'orthorhombic'
loop_
_space_group_symop_operation_xyz
x,y,z
-x,-y,z
1/2-x,y,z
1/2+x,-y,z
x,1/2+y,1/2+z
-x,1/2-y,1/2+z
1/2-x,1/2+y,1/2+z
1/2+x,1/2-y,1/2+z
loop_
_atom_site_type_symbol
_atom_site_label
_atom_site_fract_x
_atom_site_fract_y
_atom_site_fract_z
Si Si1 0.068184 0.798084 0.127860
Si Si2 0.424445 0.213639 0.513553
Si Si3 0.065712 0.549069 0.671811
Si Si4 0.433938 0.950660 0.394222
Si Si5 0.931707 0.878484 0.000639
Si Si6 0.075245 0.253213 0.288230
Si Si7 0.065613 0.355580 0.277578
Si Si8 0.565549 0.382381 0.060712
O O1 0.250000 0.806303 0.103713
O O2 0.028019 0.790575 0.250976
O O3 0.001426 0.748023 0.097430
O O4 0.966824 0.834950 0.070614
O O5 0.250000 0.202903 0.550980
O O6 0.425032 0.244670 0.411872
O O7 0.503089 0.164587 0.511668
O O8 0.250000 0.547426 0.683395
O O9 0.013911 0.579519 0.572403
O O10 0.000000 0.500000 0.648891
O O11 0.997950 0.568907 0.782251
O O12 0.250000 0.952893 0.386513
O O13 0.483408 0.921134 0.494196
O O14 0.500000 0.000000 0.413188
O O15 0.750000 0.880435 0.975402
O O16 0.022462 0.878200 0.889913
O O17 0.250000 0.250132 0.242604
O O18 0.006566 0.303781 0.272333
O O19 0.250000 0.357987 0.264515
O O20 0.983758 0.384181 0.184270
O O21 0.750000 0.388815 0.049233
#
# Coordination Sequence:
#
# PCOD8183729 Si02
#       8
#     8   8   8   8   8   8   8   8
#     4  11  21  36  55  83 116 156 203 246 292 347
#     4   9  19  35  54  78 114 157 199 242 290 343
#     4  10  22  42  67  93 121 153 192 241 302 362
#     4  11  23  42  67  95 123 153 194 243 302 362
#     4  11  24  40  60  88 120 159 201 246 304 363
#     4  10  20  36  53  77 115 158 199 247 298 347
#     4  11  22  38  60  86 120 161 206 253 299 352
#     4  11  22  39  62  88 123 163 203 248 300 357
#
# _framework density 19.828144999999999
#
# number of rings (size 3 to 8) (size 9 to 14) (size 15 to 20)
#    0.000    1.500    2.500    3.750    1.750    2.500 
#    0.000    1.250    0.000    1.500    0.000    0.000 
#    0.000    0.000    0.000    0.000    0.000    0.000 
#
# Total GULP energy -396555.552305 kJ/mol
# GULP energy per Si atom -12392.361010 kJ/mol
# Density = 1.978302 g / cm^3
# Si number density = 19.828145 Si / 1000 Ang^3
#
#
#
# Elastic Constant Matrix: (Units=GPa)
#
#
# Indices 1 2 3 4 5 6 
#
# 1 72.7432 30.8580 34.8697 0.0000 0.0000 0.0000
# 2 30.8580 90.9057 55.8887 0.0000 0.0000 0.0000
# 3 34.8697 55.8887 105.8473 0.0000 0.0000 0.0000
# 4 0.0000 0.0000 0.0000 36.6414 0.0000 0.0000
# 5 0.0000 0.0000 0.0000 0.0000 30.5990 0.0000
# 6 0.0000 0.0000 0.0000 0.0000 0.0000 26.3430
#
#
#
# Elastic Compliance Matrix: (Units=1/GPa)
#
#
# Indices 1 2 3 4 5 6 
#
# 1 0.017026 -0.003452 -0.003787 0.000000 0.000000 0.000000
# 2 -0.003452 0.016987 -0.007833 0.000000 0.000000 0.000000
# 3 -0.003787 -0.007833 0.014831 0.000000 0.000000 0.000000
# 4 0.000000 0.000000 0.000000 0.027292 0.000000 0.000000
# 5 0.000000 0.000000 0.000000 0.000000 0.032681 0.000000
# 6 0.000000 0.000000 0.000000 0.000000 0.000000 0.037961
#
#
# Mechanical properties :
#
#
# Convention : Reuss Voigt Hill
#
# Bulk Modulus (GPa) = 53.46722 56.96990 55.21856
# Shear Modulus (GPa) = 27.29954 28.57532 27.93743
#
# Velocity S-wave (km/s) = 3.71456 3.80037 3.75771
# Velocity P-wave (km/s) = 6.73952 6.93190 6.83639
#
# Compressibility (1/GPa) = 0.01870305
#
# Stress axis : x y z
#
# Youngs Moduli (GPa) = 58.73276 58.86686 67.42796
#
# Poissons Ratio (x) = 0.20319 0.25532
# Poissons Ratio (y) = 0.20272 0.52813
# Poissons Ratio (z) = 0.22239 0.46108
#
# Static dielectric constant tensor:
#      x y z
#    x 3.656710 0.000000 0.000000 
#    y 0.000000 3.682680 0.000000 
#    z 0.000000 0.000000 3.719110 
# 
# 
# High freq. dielectric constant tensor:
#      x y z
#    x 1.771580 0.000000 0.000000 
#    y 0.000000 1.763760 0.000000 
#    z 0.000000 0.000000 1.786390 
# 
# From -- ./inp_files/10708.got.cif
#   From: 2010.03.12/outbox.cif.g09.slc.cpg/sg40_6_cif.got.tgz:10708.got - 2010.04.14 01:38:03.
