data_PCOD8183647
_publ_section_title
;
Structure prediction by ZEFSAII (Michael W. Deem and Ramdas Pophale) SiO2 
 PCOD8183647
Probable space group: A M A 2
;
_chemical_formula_sum "Si O2"
_cell_formula_units_Z 48
_cell_length_a 8.682184
_cell_length_b 9.481077
_cell_length_c 31.090197
_cell_angle_alpha 90.000000
_cell_angle_beta 90.000000
_cell_angle_gamma 90.000000
_cell_volume 2559.234803
_symmetry_space_group_name_H-M "A M A 2"
_symmetry_group_IT_number 40
_symmetry_cell_setting 'orthorhombic'
loop_
_space_group_symop_operation_xyz
x,y,z
-x,-y,z
1/2-x,y,z
1/2+x,-y,z
x,1/2+y,1/2+z
-x,1/2-y,1/2+z
1/2-x,1/2+y,1/2+z
1/2+x,1/2-y,1/2+z
loop_
_atom_site_type_symbol
_atom_site_label
_atom_site_fract_x
_atom_site_fract_y
_atom_site_fract_z
Si Si1 0.069498 0.153776 0.970130
Si Si2 0.930046 0.847062 0.876231
Si Si3 0.432996 0.847651 0.300327
Si Si4 0.430333 0.650851 0.710915
Si Si5 0.069337 0.845175 0.630590
Si Si6 0.068200 0.843401 0.056167
O O1 0.250000 0.146915 0.980217
O O2 0.035698 0.223902 0.923350
O O3 0.000000 0.000000 0.966835
O O4 0.985121 0.227287 0.010632
O O5 0.750000 0.865543 0.870212
O O6 0.997946 0.749585 0.838656
O O7 0.000000 0.000000 0.871458
O O8 0.250000 0.853172 0.299581
O O9 0.493819 0.790454 0.254663
O O10 0.500000 0.000000 0.309521
O O11 0.500000 0.500000 0.697268
O O12 0.250000 0.629246 0.718294
O O13 0.467269 0.765217 0.674785
O O14 0.250000 0.854021 0.621369
O O15 0.989219 0.759999 0.592773
O O16 0.000000 0.000000 0.633785
O O17 0.250000 0.855123 0.057952
O O18 0.000000 0.000000 0.062408
#
# Coordination Sequence:
#
# PCOD8183647 Si02
#       6
#     8   8   8   8   8   8
#     4   9  16  30  51  76 106 138 177 222 264 308
#     4   9  19  33  52  78 107 140 177 219 264 312
#     4  10  20  35  54  78 107 139 176 217 262 311
#     4  10  21  37  58  81 104 136 178 219 261 312
#     4  11  24  40  57  80 110 142 176 218 270 323
#     4  11  21  35  57  83 109 141 182 223 266 316
#
# _framework density 18.755606
#
# number of rings (size 3 to 8) (size 9 to 14) (size 15 to 20)
#    0.000    2.000    0.000    6.000    0.000    6.667 
#    0.000    4.167    0.000    2.000    0.000    0.000 
#    0.000    0.000    0.000    0.000    0.000    0.000 
#
# Total GULP energy -297503.677788 kJ/mol
# GULP energy per Si atom -12395.986574 kJ/mol
# Density = 1.871292 g / cm^3
# Si number density = 18.755606 Si / 1000 Ang^3
#
#
#
# Elastic Constant Matrix: (Units=GPa)
#
#
# Indices 1 2 3 4 5 6 
#
# 1 118.4315 51.6117 80.1571 0.0000 0.0000 0.0000
# 2 51.6117 92.0242 85.4796 0.0000 0.0000 0.0000
# 3 80.1571 85.4796 177.1870 0.0000 0.0000 0.0000
# 4 0.0000 0.0000 0.0000 29.6219 0.0000 0.0000
# 5 0.0000 0.0000 0.0000 0.0000 38.0449 0.0000
# 6 0.0000 0.0000 0.0000 0.0000 0.0000 21.6604
#
#
#
# Elastic Compliance Matrix: (Units=1/GPa)
#
#
# Indices 1 2 3 4 5 6 
#
# 1 0.012679 -0.003231 -0.004177 0.000000 0.000000 0.000000
# 2 -0.003231 0.020514 -0.008435 0.000000 0.000000 0.000000
# 3 -0.004177 -0.008435 0.011602 0.000000 0.000000 0.000000
# 4 0.000000 0.000000 0.000000 0.033759 0.000000 0.000000
# 5 0.000000 0.000000 0.000000 0.000000 0.026285 0.000000
# 6 0.000000 0.000000 0.000000 0.000000 0.000000 0.046167
#
#
# Mechanical properties :
#
#
# Convention : Reuss Voigt Hill
#
# Bulk Modulus (GPa) = 76.27977 91.34884 83.81431
# Shear Modulus (GPa) = 26.72925 29.22503 27.97714
#
# Velocity S-wave (km/s) = 3.77919 3.95169 3.86640
# Velocity P-wave (km/s) = 7.73316 8.34456 8.04467
#
# Compressibility (1/GPa) = 0.01310964
#
# Stress axis : x y z
#
# Youngs Moduli (GPa) = 78.87148 48.74821 86.18835
#
# Poissons Ratio (x) = 0.15750 0.36001
# Poissons Ratio (y) = 0.25483 0.72697
# Poissons Ratio (z) = 0.32945 0.41117
#
# Static dielectric constant tensor:
#      x y z
#    x 3.555190 0.000000 0.000000 
#    y 0.000000 3.273200 0.000000 
#    z 0.000000 0.000000 4.325510 
# 
# 
# High freq. dielectric constant tensor:
#      x y z
#    x 1.743680 0.000000 0.000000 
#    y 0.000000 1.697280 0.000000 
#    z 0.000000 0.000000 1.754010 
# 
# From -- ./inp_files/26160.got.cif
#   From: 2010.03.12/outbox.cif.g09.slc.cpg/sg40_14_cif.got.tgz:26160.got - 2010.04.14 01:38:03.
