data_PCOD8183458
_publ_section_title
;
Structure prediction by ZEFSAII (Michael W. Deem and Ramdas Pophale) SiO2 
 PCOD8183458
Probable space group: A M A 2
;
_chemical_formula_sum "Si O2"
_cell_formula_units_Z 64
_cell_length_a 8.968631
_cell_length_b 14.722412
_cell_length_c 27.249091
_cell_angle_alpha 90.000000
_cell_angle_beta 90.000000
_cell_angle_gamma 90.000000
_cell_volume 3597.966724
_symmetry_space_group_name_H-M "A M A 2"
_symmetry_group_IT_number 40
_symmetry_cell_setting 'orthorhombic'
loop_
_space_group_symop_operation_xyz
x,y,z
-x,-y,z
1/2-x,y,z
1/2+x,-y,z
x,1/2+y,1/2+z
-x,1/2-y,1/2+z
1/2-x,1/2+y,1/2+z
1/2+x,1/2-y,1/2+z
loop_
_atom_site_type_symbol
_atom_site_label
_atom_site_fract_x
_atom_site_fract_y
_atom_site_fract_z
Si Si1 0.575375 0.592236 0.871900
Si Si2 0.923012 0.784681 0.448621
Si Si3 0.074993 0.407201 0.758953
Si Si4 0.075890 0.269193 0.228776
Si Si5 0.574641 0.590973 0.309412
Si Si6 0.073731 0.905509 0.641963
Si Si7 0.077145 0.910702 0.920776
Si Si8 0.073632 0.093991 0.540263
O O1 0.500000 0.500000 0.891165
O O2 0.750000 0.580970 0.878900
O O3 0.518038 0.675273 0.904196
O O4 0.531312 0.610848 0.815582
O O5 0.750000 0.798721 0.435201
O O6 0.961684 0.677709 0.453146
O O7 0.964417 0.830046 0.500116
O O8 0.250000 0.416138 0.751432
O O9 0.000000 0.500000 0.740272
O O10 0.014043 0.324654 0.726188
O O11 0.250000 0.246386 0.231729
O O12 0.021805 0.324331 0.276722
O O13 0.037150 0.327542 0.180848
O O14 0.500000 0.500000 0.288315
O O15 0.750000 0.578082 0.304374
O O16 0.521985 0.608100 0.365166
O O17 0.250000 0.920443 0.635631
O O18 0.001163 0.873820 0.590800
O O19 0.000000 0.000000 0.659374
O O20 0.250000 0.932248 0.920777
O O21 0.000000 0.000000 0.943458
O O22 0.250000 0.080555 0.547287
O O23 0.000000 0.000000 0.522427
#
# Coordination Sequence:
#
# PCOD8183458 Si02
#       8
#     8   8   8   8   8   8   8   8
#     4  10  20  32  48  73 103 134 167 202 244 294
#     4  10  20  33  51  73  98 131 169 208 250 296
#     4  10  21  35  51  72 100 134 169 206 246 290
#     4  10  20  33  51  74  99 130 167 204 244 292
#     4   9  17  29  46  69  99 131 160 195 237 284
#     4  10  20  34  53  77 104 132 162 200 248 299
#     4   9  18  32  48  68  96 129 163 199 240 283
#     4  10  20  34  52  74 100 129 161 200 249 302
#
# _framework density 17.787825000000002
#
# number of rings (size 3 to 8) (size 9 to 14) (size 15 to 20)
#    0.000    2.250    0.000    3.750    0.000    6.500 
#    0.000    2.500    0.000    0.750    0.000    3.500 
#    0.000    0.000    0.000    0.000    0.000    0.000 
#
# Total GULP energy -396864.280249 kJ/mol
# GULP energy per Si atom -12402.008758 kJ/mol
# Density = 1.774734 g / cm^3
# Si number density = 17.787825 Si / 1000 Ang^3
#
#
#
# Elastic Constant Matrix: (Units=GPa)
#
#
# Indices 1 2 3 4 5 6 
#
# 1 74.0551 58.2065 41.2382 0.0000 0.0000 0.0000
# 2 58.2065 153.1979 67.7635 0.0000 0.0000 0.0000
# 3 41.2382 67.7635 76.9351 0.0000 0.0000 0.0000
# 4 0.0000 0.0000 0.0000 28.2719 0.0000 0.0000
# 5 0.0000 0.0000 0.0000 0.0000 8.5336 0.0000
# 6 0.0000 0.0000 0.0000 0.0000 0.0000 34.1876
#
#
#
# Elastic Compliance Matrix: (Units=1/GPa)
#
#
# Indices 1 2 3 4 5 6 
#
# 1 0.021354 -0.004997 -0.007044 0.000000 0.000000 0.000000
# 2 -0.004997 0.011863 -0.007770 0.000000 0.000000 0.000000
# 3 -0.007044 -0.007770 0.023618 0.000000 0.000000 0.000000
# 4 0.000000 0.000000 0.000000 0.035371 0.000000 0.000000
# 5 0.000000 0.000000 0.000000 0.000000 0.117184 0.000000
# 6 0.000000 0.000000 0.000000 0.000000 0.000000 0.029250
#
#
# Mechanical properties :
#
#
# Convention : Reuss Voigt Hill
#
# Bulk Modulus (GPa) = 58.10265 70.95606 64.52935
# Shear Modulus (GPa) = 17.60551 23.33061 20.46806
#
# Velocity S-wave (km/s) = 3.14944 3.62554 3.39584
# Velocity P-wave (km/s) = 6.77942 7.58306 7.19247
#
# Compressibility (1/GPa) = 0.01721092
#
# Stress axis : x y z
#
# Youngs Moduli (GPa) = 46.82937 84.29379 42.34079
#
# Poissons Ratio (x) = 0.42125 0.29827
# Poissons Ratio (y) = 0.23403 0.32900
# Poissons Ratio (z) = 0.32989 0.65499
#
# Static dielectric constant tensor:
#      x y z
#    x 3.287810 0.000000 0.000000 
#    y 0.000000 3.339480 0.000000 
#    z 0.000000 0.000000 3.169330 
# 
# 
# High freq. dielectric constant tensor:
#      x y z
#    x 1.693280 0.000000 0.000000 
#    y 0.000000 1.689680 0.000000 
#    z 0.000000 0.000000 1.664690 
# 
# From -- ./inp_files/26466.got.cif
#   From: 2010.03.12/outbox.cif.g09.slc.cpg/sg40_14_cif.got.tgz:26466.got - 2010.04.14 01:38:03.
