data_PCOD8183724
_publ_section_title
;
Structure prediction by ZEFSAII (Michael W. Deem and Ramdas Pophale) SiO2 
 PCOD8183724
Probable space group: A M A 2
;
_chemical_formula_sum "Si O2"
_cell_formula_units_Z 56
_cell_length_a 13.661655
_cell_length_b 14.902793
_cell_length_c 13.551125
_cell_angle_alpha 90.000000
_cell_angle_beta 90.000000
_cell_angle_gamma 90.000000
_cell_volume 2758.965910
_symmetry_space_group_name_H-M "A M A 2"
_symmetry_group_IT_number 40
_symmetry_cell_setting 'orthorhombic'
loop_
_space_group_symop_operation_xyz
x,y,z
-x,-y,z
1/2-x,y,z
1/2+x,-y,z
x,1/2+y,1/2+z
-x,1/2-y,1/2+z
1/2-x,1/2+y,1/2+z
1/2+x,1/2-y,1/2+z
loop_
_atom_site_type_symbol
_atom_site_label
_atom_site_fract_x
_atom_site_fract_y
_atom_site_fract_z
Si Si1 0.363874 0.333614 0.937750
Si Si2 0.034727 0.687582 0.069066
Si Si3 0.861118 0.955887 0.439083
Si Si4 0.639527 0.956494 0.021939
Si Si5 0.361142 0.619249 0.728313
Si Si6 0.951300 0.639886 0.461068
Si Si7 0.008379 0.735619 0.276830
O O1 0.250000 0.307197 0.944251
O O2 0.381318 0.439382 0.939171
O O3 0.409828 0.289823 0.838526
O O4 0.421067 0.299089 0.034861
O O5 0.053536 0.677563 0.186504
O O6 0.075133 0.597579 0.018600
O O7 0.087094 0.778421 0.029476
O O8 0.750000 0.933004 0.464662
O O9 0.890632 0.926592 0.330074
O O10 0.750000 0.930378 0.990859
O O11 0.625852 0.953107 0.140403
O O12 0.565987 0.885075 0.974297
O O13 0.617896 0.056198 0.983396
O O14 0.250000 0.655554 0.730155
O O15 0.435890 0.700484 0.714855
O O16 0.943955 0.671309 0.347241
#
# Coordination Sequence:
#
# PCOD8183724 Si02
#       7
#     8   8   8   8   8   8   8
#     4  10  23  41  63  91 123 163 209 251 304 374
#     4  11  22  39  64  89 125 166 201 256 308 365
#     4  10  21  39  61  92 125 160 203 253 307 364
#     4  10  22  40  62  86 122 164 204 253 304 365
#     4  10  20  35  62  93 119 156 203 251 308 364
#     4  10  22  39  59  92 120 158 209 251 306 365
#     4  11  23  40  64  93 123 164 202 259 309 360
#
# _framework density 20.297460000000001
#
# number of rings (size 3 to 8) (size 9 to 14) (size 15 to 20)
#    0.000    1.714    4.286    0.429    2.000    4.571 
#    5.143    0.000    0.000    0.000    0.000    0.000 
#    0.000    0.000    0.000    0.000    0.000    0.000 
#
# Total GULP energy -347073.401890 kJ/mol
# GULP energy per Si atom -12395.478639 kJ/mol
# Density = 2.025126 g / cm^3
# Si number density = 20.297460 Si / 1000 Ang^3
#
#
#
# Elastic Constant Matrix: (Units=GPa)
#
#
# Indices 1 2 3 4 5 6 
#
# 1 83.7287 21.7076 24.2128 0.0000 0.0000 0.0000
# 2 21.7076 64.6460 40.1508 0.0000 0.0000 0.0000
# 3 24.2128 40.1508 136.5278 0.0000 0.0000 0.0000
# 4 0.0000 0.0000 0.0000 27.8359 0.0000 0.0000
# 5 0.0000 0.0000 0.0000 0.0000 21.2591 0.0000
# 6 0.0000 0.0000 0.0000 0.0000 0.0000 23.7829
#
#
#
# Elastic Compliance Matrix: (Units=1/GPa)
#
#
# Indices 1 2 3 4 5 6 
#
# 1 0.013261 -0.003661 -0.001275 0.000000 0.000000 0.000000
# 2 -0.003661 0.019936 -0.005214 0.000000 0.000000 0.000000
# 3 -0.001275 -0.005214 0.009084 0.000000 0.000000 0.000000
# 4 0.000000 0.000000 0.000000 0.035925 0.000000 0.000000
# 5 0.000000 0.000000 0.000000 0.000000 0.047039 0.000000
# 6 0.000000 0.000000 0.000000 0.000000 0.000000 0.042047
#
#
# Mechanical properties :
#
#
# Convention : Reuss Voigt Hill
#
# Bulk Modulus (GPa) = 45.49236 50.78277 48.13756
# Shear Modulus (GPa) = 25.65165 27.83099 26.74132
#
# Velocity S-wave (km/s) = 3.55883 3.70693 3.63364
# Velocity P-wave (km/s) = 6.27284 6.58752 6.43210
#
# Compressibility (1/GPa) = 0.02198172
#
# Stress axis : x y z
#
# Youngs Moduli (GPa) = 75.40758 50.15953 110.08429
#
# Poissons Ratio (x) = 0.18364 0.14038
# Poissons Ratio (y) = 0.27607 0.57395
# Poissons Ratio (z) = 0.09616 0.26152
#
# Static dielectric constant tensor:
#      x y z
#    x 3.730580 0.000000 0.000000 
#    y 0.000000 3.730130 0.000000 
#    z 0.000000 0.000000 3.645330 
# 
# 
# High freq. dielectric constant tensor:
#      x y z
#    x 1.787720 0.000000 0.000000 
#    y 0.000000 1.796930 0.000000 
#    z 0.000000 0.000000 1.788010 
# 
# From -- ./inp_files/17162.got.cif
#   From: 2010.03.12/outbox.cif.g09.slc.cpg/sg40_9_cif.got.tgz:17162.got - 2010.04.14 01:38:03.
