data_PCOD8183605
_publ_section_title
;
Structure prediction by ZEFSAII (Michael W. Deem and Ramdas Pophale) SiO2 
 PCOD8183605
Probable space group: A M A 2
;
_chemical_formula_sum "Si O2"
_cell_formula_units_Z 56
_cell_length_a 8.785737
_cell_length_b 14.466152
_cell_length_c 21.458667
_cell_angle_alpha 90.000000
_cell_angle_beta 90.000000
_cell_angle_gamma 90.000000
_cell_volume 2727.306597
_symmetry_space_group_name_H-M "A M A 2"
_symmetry_group_IT_number 40
_symmetry_cell_setting 'orthorhombic'
loop_
_space_group_symop_operation_xyz
x,y,z
-x,-y,z
1/2-x,y,z
1/2+x,-y,z
x,1/2+y,1/2+z
-x,1/2-y,1/2+z
1/2-x,1/2+y,1/2+z
1/2+x,1/2-y,1/2+z
loop_
_atom_site_type_symbol
_atom_site_label
_atom_site_fract_x
_atom_site_fract_y
_atom_site_fract_z
Si Si1 0.930570 0.782962 0.392330
Si Si2 0.071151 0.900070 0.502383
Si Si3 0.927951 0.595629 0.791684
Si Si4 0.572710 0.720517 0.122799
Si Si5 0.427767 0.594731 0.221765
Si Si6 0.426853 0.905180 0.145960
Si Si7 0.071364 0.595691 0.366630
O O1 0.750000 0.780507 0.392507
O O2 0.990588 0.850466 0.445257
O O3 0.991323 0.819419 0.326036
O O4 0.994831 0.680004 0.403889
O O5 0.250000 0.907615 0.488851
O O6 0.035197 0.843616 0.564525
O O7 0.000000 0.000000 0.511624
O O8 0.750000 0.595815 0.807523
O O9 0.959833 0.608192 0.718944
O O10 0.000000 0.500000 0.816174
O O11 0.750000 0.729743 0.135555
O O12 0.495378 0.680666 0.184710
O O13 0.504027 0.821332 0.108792
O O14 0.500000 0.500000 0.196268
O O15 0.250000 0.589927 0.209361
O O16 0.467225 0.608525 0.293958
O O17 0.250000 0.907237 0.130550
O O18 0.500000 0.000000 0.121563
O O19 0.250000 0.595049 0.379805
O O20 0.000000 0.500000 0.391363
#
# Coordination Sequence:
#
# PCOD8183605 Si02
#       7
#     8   8   8   8   8   8   8
#     4  12  24  38  59  85 114 152 193 237 287 339
#     4  11  25  44  63  85 114 149 190 237 285 337
#     4  10  20  35  56  85 119 154 190 233 285 341
#     4  11  23  38  59  85 115 152 193 237 286 338
#     4  10  20  34  56  86 120 155 190 232 284 339
#     4  10  21  37  59  86 118 153 190 234 284 338
#     4  10  21  38  59  86 119 153 190 234 283 338
#
# _framework density 20.533078
#
# number of rings (size 3 to 8) (size 9 to 14) (size 15 to 20)
#    0.000    1.429    0.000    5.571    0.000   10.286 
#    0.000    0.714    0.000    3.429    0.000    0.000 
#    0.000    0.000    0.000    0.000    0.000    0.000 
#
# Total GULP energy -347396.750547 kJ/mol
# GULP energy per Si atom -12407.026805 kJ/mol
# Density = 2.048634 g / cm^3
# Si number density = 20.533078 Si / 1000 Ang^3
#
#
#
# Elastic Constant Matrix: (Units=GPa)
#
#
# Indices 1 2 3 4 5 6 
#
# 1 128.0750 72.2375 42.0268 0.0000 0.0000 0.0000
# 2 72.2375 176.7748 34.5289 0.0000 0.0000 0.0000
# 3 42.0268 34.5289 38.0831 0.0000 0.0000 0.0000
# 4 0.0000 0.0000 0.0000 23.3672 0.0000 0.0000
# 5 0.0000 0.0000 0.0000 0.0000 6.5381 0.0000
# 6 0.0000 0.0000 0.0000 0.0000 0.0000 44.9725
#
#
#
# Elastic Compliance Matrix: (Units=1/GPa)
#
#
# Indices 1 2 3 4 5 6 
#
# 1 0.013571 -0.003184 -0.012089 0.000000 0.000000 0.000000
# 2 -0.003184 0.007622 -0.003396 0.000000 0.000000 0.000000
# 3 -0.012089 -0.003396 0.042678 0.000000 0.000000 0.000000
# 4 0.000000 0.000000 0.000000 0.042795 0.000000 0.000000
# 5 0.000000 0.000000 0.000000 0.000000 0.152949 0.000000
# 6 0.000000 0.000000 0.000000 0.000000 0.000000 0.022236
#
#
# Mechanical properties :
#
#
# Convention : Reuss Voigt Hill
#
# Bulk Modulus (GPa) = 37.69062 71.16881 54.42972
# Shear Modulus (GPa) = 15.24232 27.91823 21.58027
#
# Velocity S-wave (km/s) = 2.72753 3.69137 3.24543
# Velocity P-wave (km/s) = 5.32120 7.27352 6.37257
#
# Compressibility (1/GPa) = 0.02653180
#
# Stress axis : x y z
#
# Youngs Moduli (GPa) = 73.68722 131.20753 23.43101
#
# Poissons Ratio (x) = 0.41780 0.28326
# Poissons Ratio (y) = 0.23464 0.07958
# Poissons Ratio (z) = 0.89081 0.44560
#
# Static dielectric constant tensor:
#      x y z
#    x 3.805760 0.000000 0.000000 
#    y 0.000000 3.961980 0.000000 
#    z 0.000000 0.000000 3.495460 
# 
# 
# High freq. dielectric constant tensor:
#      x y z
#    x 1.818560 0.000000 0.000000 
#    y 0.000000 1.822970 0.000000 
#    z 0.000000 0.000000 1.779000 
# 
# From -- ./inp_files/22121.got.cif
#   From: 2010.03.12/outbox.cif.g09.slc.cpg/sg40_12_cif.got.tgz:22121.got - 2010.04.14 01:38:03.
