data_PCOD8183119
_publ_section_title
;
Structure prediction by ZEFSAII (Michael W. Deem and Ramdas Pophale) SiO2 
 PCOD8183119
Probable space group: A M A 2
;
_chemical_formula_sum "Si O2"
_cell_formula_units_Z 64
_cell_length_a 9.173910
_cell_length_b 32.975683
_cell_length_c 11.666279
_cell_angle_alpha 90.000000
_cell_angle_beta 90.000000
_cell_angle_gamma 90.000000
_cell_volume 3529.235452
_symmetry_space_group_name_H-M "A M A 2"
_symmetry_group_IT_number 40
_symmetry_cell_setting 'orthorhombic'
loop_
_space_group_symop_operation_xyz
x,y,z
-x,-y,z
1/2-x,y,z
1/2+x,-y,z
x,1/2+y,1/2+z
-x,1/2-y,1/2+z
1/2-x,1/2+y,1/2+z
1/2+x,1/2-y,1/2+z
loop_
_atom_site_type_symbol
_atom_site_label
_atom_site_fract_x
_atom_site_fract_y
_atom_site_fract_z
Si Si1 0.088133 0.174627 0.143510
Si Si2 0.920198 0.307543 0.387400
Si Si3 0.080251 0.959439 0.095866
Si Si4 0.420692 0.891328 0.269496
Si Si5 0.420618 0.643985 0.971120
Si Si6 0.076745 0.457142 0.334847
Si Si7 0.588749 0.273474 0.854623
Si Si8 0.577930 0.380859 0.229073
O O1 0.250000 0.153868 0.141021
O O2 0.096914 0.214395 0.221463
O O3 0.962271 0.147296 0.195084
O O4 0.035614 0.185555 0.017731
O O5 0.750000 0.303697 0.366930
O O6 0.979229 0.345246 0.312626
O O7 0.986092 0.264952 0.352633
O O8 0.250000 0.967511 0.105429
O O9 0.025433 0.928637 0.192461
O O10 0.041911 0.944903 0.966704
O O11 0.000000 0.000000 0.127771
O O12 0.250000 0.892356 0.292374
O O13 0.500875 0.889851 0.392233
O O14 0.250000 0.640487 0.945388
O O15 0.472064 0.689427 0.934282
O O16 0.459932 0.634299 0.101558
O O17 0.250000 0.460890 0.312618
O O18 0.000000 0.500000 0.304841
O O19 0.009167 0.422160 0.254880
O O20 0.750000 0.261492 0.899187
O O21 0.750000 0.389197 0.244332
#
# Coordination Sequence:
#
# PCOD8183119 Si02
#       8
#     8   8   8   8   8   8   8   8
#     4   9  19  35  51  72 102 135 170 211 264 319
#     4  10  21  34  53  79 105 137 179 224 267 321
#     4   9  19  33  52  81 112 137 168 214 268 321
#     4  10  19  33  54  79 103 132 175 221 260 312
#     4   9  20  38  55  73 106 148 182 220 273 326
#     4  10  20  36  58  84 114 145 178 222 275 328
#     4   9  19  34  51  72 103 141 176 219 271 318
#     4  10  21  37  56  80 109 145 188 229 272 327
#
# _framework density 18.134239000000001
#
# number of rings (size 3 to 8) (size 9 to 14) (size 15 to 20)
#    0.000    2.500    0.000    2.250    1.750    5.000 
#    0.000    0.625    0.000    1.500    0.000    0.000 
#    0.000    0.000    0.000    0.000    0.000    0.000 
#
# Total GULP energy -396683.723688 kJ/mol
# GULP energy per Si atom -12396.366365 kJ/mol
# Density = 1.809296 g / cm^3
# Si number density = 18.134239 Si / 1000 Ang^3
#
#
#
# Elastic Constant Matrix: (Units=GPa)
#
#
# Indices 1 2 3 4 5 6 
#
# 1 45.1286 42.3460 38.5855 0.0000 0.0000 0.0000
# 2 42.3460 113.1714 68.2220 0.0000 0.0000 0.0000
# 3 38.5855 68.2220 128.5006 0.0000 0.0000 0.0000
# 4 0.0000 0.0000 0.0000 -17.1005 0.0000 0.0000
# 5 0.0000 0.0000 0.0000 0.0000 27.4464 0.0000
# 6 0.0000 0.0000 0.0000 0.0000 0.0000 35.8904
#
#
#
# Elastic Compliance Matrix: (Units=1/GPa)
#
#
# Indices 1 2 3 4 5 6 
#
# 1 0.036587 -0.010394 -0.005468 0.000000 0.000000 0.000000
# 2 -0.010394 0.015948 -0.005346 0.000000 0.000000 0.000000
# 3 -0.005468 -0.005346 0.012262 0.000000 0.000000 0.000000
# 4 0.000000 0.000000 0.000000 -0.058478 0.000000 0.000000
# 5 0.000000 0.000000 0.000000 0.000000 0.036435 0.000000
# 6 0.000000 0.000000 0.000000 0.000000 0.000000 0.027863
#
#
# Mechanical properties :
#
#
# Convention : Reuss Voigt Hill
#
# Bulk Modulus (GPa) = 44.67934 65.01195 54.84564
# Shear Modulus (GPa) = 41.49653 18.42375 29.96014
#
# Velocity S-wave (km/s) = 4.78880 3.19088 4.06905
# Velocity P-wave (km/s) = 7.43428 7.03590 7.23783
#
# Compressibility (1/GPa) = 0.02238171
#
# Stress axis : x y z
#
# Youngs Moduli (GPa) = 27.33213 62.70448 81.55183
#
# Poissons Ratio (x) = 0.65173 0.44593
# Poissons Ratio (y) = 0.28408 0.43596
# Poissons Ratio (z) = 0.14945 0.33521
#
# Static dielectric constant tensor:
#      x y z
#    x 3.144950 0.000000 0.000000 
#    y 0.000000 3.304320 0.000000 
#    z 0.000000 0.000000 3.578040 
# 
# 
# High freq. dielectric constant tensor:
#      x y z
#    x 1.700110 0.000000 0.000000 
#    y 0.000000 1.694440 0.000000 
#    z 0.000000 0.000000 1.706590 
# 
# From -- ./inp_files/10609.got.cif
#   From: 2010.03.12/outbox.cif.g09.slc.cpg/sg40_6_cif.got.tgz:10609.got - 2010.04.14 01:38:03.
