data_PCOD8183599
_publ_section_title
;
Structure prediction by ZEFSAII (Michael W. Deem and Ramdas Pophale) SiO2 
 PCOD8183599
Probable space group: A M A 2
;
_chemical_formula_sum "Si O2"
_cell_formula_units_Z 56
_cell_length_a 14.588710
_cell_length_b 11.606258
_cell_length_c 16.546217
_cell_angle_alpha 90.000000
_cell_angle_beta 90.000000
_cell_angle_gamma 90.000000
_cell_volume 2801.610958
_symmetry_space_group_name_H-M "A M A 2"
_symmetry_group_IT_number 40
_symmetry_cell_setting 'orthorhombic'
loop_
_space_group_symop_operation_xyz
x,y,z
-x,-y,z
1/2-x,y,z
1/2+x,-y,z
x,1/2+y,1/2+z
-x,1/2-y,1/2+z
1/2-x,1/2+y,1/2+z
1/2+x,1/2-y,1/2+z
loop_
_atom_site_type_symbol
_atom_site_label
_atom_site_fract_x
_atom_site_fract_y
_atom_site_fract_z
Si Si1 0.349464 0.176124 0.538460
Si Si2 0.647709 0.755479 0.211764
Si Si3 0.145813 0.592611 0.553715
Si Si4 0.037731 0.771753 0.466490
Si Si5 0.145653 0.376925 0.651441
Si Si6 0.014969 0.871372 0.302457
Si Si7 0.595157 0.556685 0.102086
O O1 0.250000 0.210004 0.501084
O O2 0.428106 0.206645 0.473915
O O3 0.369187 0.248577 0.619456
O O4 0.340975 0.044974 0.568909
O O5 0.750000 0.763358 0.248904
O O6 0.636646 0.838399 0.136276
O O7 0.575945 0.799664 0.278506
O O8 0.632020 0.623730 0.181212
O O9 0.250000 0.599387 0.519479
O O10 0.074136 0.642976 0.487512
O O11 0.117892 0.462238 0.577509
O O12 0.063875 0.799616 0.374026
O O13 0.088992 0.856160 0.527502
O O14 0.250000 0.403020 0.678025
O O15 0.081836 0.390846 0.727859
O O16 0.000000 0.000000 0.337150
O O17 0.500000 0.500000 0.127696
#
# Coordination Sequence:
#
# PCOD8183599 Si02
#       7
#     8   8   8   8   8   8   8
#     4  10  20  35  58  83 111 152 199 244 288 354
#     4  10  20  34  56  84 115 156 200 240 294 364
#     4   9  18  37  60  83 110 151 201 244 292 358
#     4  10  22  35  55  87 118 151 188 241 307 359
#     4  10  21  37  62  88 111 152 208 255 298 355
#     4  12  22  34  56  88 126 155 191 256 321 362
#     4   9  17  35  58  82 110 147 200 245 294 357
#
# _framework density 19.988499999999998
#
# number of rings (size 3 to 8) (size 9 to 14) (size 15 to 20)
#    0.000    2.000    1.429    4.286    0.000    1.714 
#    0.000    1.429    9.429    0.000    0.000    0.000 
#    0.000    0.000    0.000    0.000    0.000    0.000 
#
# Total GULP energy -347049.818617 kJ/mol
# GULP energy per Si atom -12394.636379 kJ/mol
# Density = 1.994301 g / cm^3
# Si number density = 19.988500 Si / 1000 Ang^3
#
#
#
# Elastic Constant Matrix: (Units=GPa)
#
#
# Indices 1 2 3 4 5 6 
#
# 1 82.4640 39.9829 40.0293 0.0000 0.0000 0.0000
# 2 39.9829 78.6357 37.9793 0.0000 0.0000 0.0000
# 3 40.0293 37.9793 76.4444 0.0000 0.0000 0.0000
# 4 0.0000 0.0000 0.0000 22.3011 0.0000 0.0000
# 5 0.0000 0.0000 0.0000 0.0000 14.0215 0.0000
# 6 0.0000 0.0000 0.0000 0.0000 0.0000 24.4033
#
#
#
# Elastic Compliance Matrix: (Units=1/GPa)
#
#
# Indices 1 2 3 4 5 6 
#
# 1 0.018266 -0.006142 -0.006514 0.000000 0.000000 0.000000
# 2 -0.006142 0.018797 -0.006123 0.000000 0.000000 0.000000
# 3 -0.006514 -0.006123 0.019534 0.000000 0.000000 0.000000
# 4 0.000000 0.000000 0.000000 0.044841 0.000000 0.000000
# 5 0.000000 0.000000 0.000000 0.000000 0.071319 0.000000
# 6 0.000000 0.000000 0.000000 0.000000 0.000000 0.040978
#
#
# Mechanical properties :
#
#
# Convention : Reuss Voigt Hill
#
# Bulk Modulus (GPa) = 52.51767 52.61411 52.56589
# Shear Modulus (GPa) = 19.40713 20.11536 19.76125
#
# Velocity S-wave (km/s) = 3.11933 3.17574 3.14766
# Velocity P-wave (km/s) = 6.26934 6.31082 6.29011
#
# Compressibility (1/GPa) = 0.01904121
#
# Stress axis : x y z
#
# Youngs Moduli (GPa) = 54.74644 53.20080 51.19274
#
# Poissons Ratio (x) = 0.32674 0.33345
# Poissons Ratio (y) = 0.33623 0.31344
# Poissons Ratio (z) = 0.35659 0.32573
#
# Static dielectric constant tensor:
#      x y z
#    x 3.821590 0.000000 0.000000 
#    y 0.000000 4.125850 0.000000 
#    z 0.000000 0.000000 3.200770 
# 
# 
# High freq. dielectric constant tensor:
#      x y z
#    x 1.788320 0.000000 0.000000 
#    y 0.000000 1.790390 0.000000 
#    z 0.000000 0.000000 1.735230 
# 
# From -- ./inp_files/17077.got.cif
#   From: 2010.03.12/outbox.cif.g09.slc.cpg/sg40_9_cif.got.tgz:17077.got - 2010.04.14 01:38:03.
