data_PCOD8183721
_publ_section_title
;
Structure prediction by ZEFSAII (Michael W. Deem and Ramdas Pophale) SiO2 
 PCOD8183721
Probable space group: A M A 2
;
_chemical_formula_sum "Si O2"
_cell_formula_units_Z 64
_cell_length_a 16.421801
_cell_length_b 16.554265
_cell_length_c 11.777914
_cell_angle_alpha 90.000000
_cell_angle_beta 90.000000
_cell_angle_gamma 90.000000
_cell_volume 3201.835879
_symmetry_space_group_name_H-M "A M A 2"
_symmetry_group_IT_number 40
_symmetry_cell_setting 'orthorhombic'
loop_
_space_group_symop_operation_xyz
x,y,z
-x,-y,z
1/2-x,y,z
1/2+x,-y,z
x,1/2+y,1/2+z
-x,1/2-y,1/2+z
1/2-x,1/2+y,1/2+z
1/2+x,1/2-y,1/2+z
loop_
_atom_site_type_symbol
_atom_site_label
_atom_site_fract_x
_atom_site_fract_y
_atom_site_fract_z
Si Si1 0.159785 0.110480 0.113360
Si Si2 0.082411 0.789039 0.998410
Si Si3 0.845594 0.570880 0.630827
Si Si4 0.415138 0.882111 0.373501
Si Si5 0.340557 0.526479 0.995618
Si Si6 0.899372 0.296022 0.413614
Si Si7 0.651969 0.338344 0.169327
Si Si8 0.400276 0.656090 0.839334
O O1 0.250000 0.108686 0.164871
O O2 0.103022 0.157168 0.203601
O O3 0.129411 0.019217 0.094231
O O4 0.162085 0.158886 0.996772
O O5 0.122158 0.745038 0.888063
O O6 0.988219 0.805194 0.969906
O O7 0.123899 0.874161 0.026504
O O8 0.100573 0.731034 0.105551
O O9 0.750000 0.583311 0.648136
O O10 0.889692 0.589775 0.748854
O O11 0.371602 0.797217 0.402049
O O12 0.510602 0.867910 0.381240
O O13 0.396461 0.949034 0.469448
O O14 0.250000 0.492079 0.008815
O O15 0.366190 0.575222 0.109438
O O16 0.340246 0.588432 0.889485
O O17 0.888059 0.341098 0.293510
O O18 0.750000 0.320137 0.170123
#
# Coordination Sequence:
#
# PCOD8183721 Si02
#       8
#     8   8   8   8   8   8   8   8
#     4  11  24  39  60  90 127 163 204 257 318 375
#     4  10  22  38  64  90 123 160 210 260 308 371
#     4  11  22  38  63  91 119 157 212 260 305 371
#     4  11  21  36  62  93 117 157 207 262 300 361
#     4  10  20  35  60  92 120 156 204 252 302 363
#     4  11  24  39  63  91 126 164 208 254 315 378
#     4  10  21  40  64  91 126 168 207 252 316 379
#     4  10  21  37  60  89 127 160 198 254 319 367
#
# _framework density 19.988531999999999
#
# number of rings (size 3 to 8) (size 9 to 14) (size 15 to 20)
#    0.000    1.500    2.500    2.625    1.750    4.500 
#    0.000    1.250    8.250    0.000    0.000    0.000 
#    0.000    0.000    0.000    0.000    0.000    0.000 
#
# Total GULP energy -396693.266094 kJ/mol
# GULP energy per Si atom -12396.664565 kJ/mol
# Density = 1.994304 g / cm^3
# Si number density = 19.988532 Si / 1000 Ang^3
#
#
#
# Elastic Constant Matrix: (Units=GPa)
#
#
# Indices 1 2 3 4 5 6 
#
# 1 68.0892 28.7544 39.5992 0.0000 0.0000 0.0000
# 2 28.7544 136.0908 73.1637 0.0000 0.0000 0.0000
# 3 39.5992 73.1637 137.0004 0.0000 0.0000 0.0000
# 4 0.0000 0.0000 0.0000 37.9978 0.0000 0.0000
# 5 0.0000 0.0000 0.0000 0.0000 28.2091 0.0000
# 6 0.0000 0.0000 0.0000 0.0000 0.0000 26.9128
#
#
#
# Elastic Compliance Matrix: (Units=1/GPa)
#
#
# Indices 1 2 3 4 5 6 
#
# 1 0.017842 -0.001399 -0.004410 0.000000 0.000000 0.000000
# 2 -0.001399 0.010417 -0.005159 0.000000 0.000000 0.000000
# 3 -0.004410 -0.005159 0.011329 0.000000 0.000000 0.000000
# 4 0.000000 0.000000 0.000000 0.026317 0.000000 0.000000
# 5 0.000000 0.000000 0.000000 0.000000 0.035450 0.000000
# 6 0.000000 0.000000 0.000000 0.000000 0.000000 0.037157
#
#
# Mechanical properties :
#
#
# Convention : Reuss Voigt Hill
#
# Bulk Modulus (GPa) = 56.64893 69.35724 63.00309
# Shear Modulus (GPa) = 30.06039 31.93481 30.99760
#
# Velocity S-wave (km/s) = 3.88220 4.00141 3.94225
# Velocity P-wave (km/s) = 6.96402 7.49147 7.23256
#
# Compressibility (1/GPa) = 0.01765258
#
# Stress axis : x y z
#
# Youngs Moduli (GPa) = 56.04688 95.99696 88.26951
#
# Poissons Ratio (x) = 0.13429 0.38928
# Poissons Ratio (y) = 0.07841 0.45536
# Poissons Ratio (z) = 0.24717 0.49522
#
# Static dielectric constant tensor:
#      x y z
#    x 3.599920 0.000000 0.000000 
#    y 0.000000 3.850580 0.000000 
#    z 0.000000 0.000000 3.560260 
# 
# 
# High freq. dielectric constant tensor:
#      x y z
#    x 1.781700 0.000000 0.000000 
#    y 0.000000 1.780200 0.000000 
#    z 0.000000 0.000000 1.771670 
# 
# From -- ./inp_files/12481.got.cif
#   From: 2010.03.12/outbox.cif.g09.slc.cpg/sg40_7_cif.got.tgz:12481.got - 2010.04.14 01:38:03.
