data_PCOD8183731
_publ_section_title
;
Structure prediction by ZEFSAII (Michael W. Deem and Ramdas Pophale) SiO2 
 PCOD8183731
Probable space group: A M A 2
;
_chemical_formula_sum "Si O2"
_cell_formula_units_Z 64
_cell_length_a 8.968263
_cell_length_b 27.895161
_cell_length_c 14.425368
_cell_angle_alpha 90.000000
_cell_angle_beta 90.000000
_cell_angle_gamma 90.000000
_cell_volume 3608.810761
_symmetry_space_group_name_H-M "A M A 2"
_symmetry_group_IT_number 40
_symmetry_cell_setting 'orthorhombic'
loop_
_space_group_symop_operation_xyz
x,y,z
-x,-y,z
1/2-x,y,z
1/2+x,-y,z
x,1/2+y,1/2+z
-x,1/2-y,1/2+z
1/2-x,1/2+y,1/2+z
1/2+x,1/2-y,1/2+z
loop_
_atom_site_type_symbol
_atom_site_label
_atom_site_fract_x
_atom_site_fract_y
_atom_site_fract_z
Si Si1 0.425570 0.358608 0.103930
Si Si2 0.924403 0.548981 0.999518
Si Si3 0.584846 0.730031 0.748729
Si Si4 0.572600 0.862689 0.181819
Si Si5 0.426135 0.950029 0.285832
Si Si6 0.912548 0.770179 0.545046
Si Si7 0.576548 0.167504 0.999009
Si Si8 0.923212 0.679501 0.299075
O O1 0.250000 0.359691 0.097691
O O2 0.478026 0.315437 0.036653
O O3 0.481245 0.350959 0.210201
O O4 0.489526 0.408477 0.064096
O O5 0.750000 0.542370 0.014031
O O6 0.962033 0.561198 0.893053
O O7 0.000000 0.500000 0.032260
O O8 0.750000 0.717414 0.787857
O O9 0.487548 0.681814 0.742032
O O10 0.599911 0.754377 0.650344
O O11 0.504965 0.769448 0.812647
O O12 0.750000 0.864081 0.187643
O O13 0.502855 0.910490 0.222629
O O14 0.524075 0.859972 0.073600
O O15 0.250000 0.951615 0.266605
O O16 0.500000 0.000000 0.256539
O O17 0.750000 0.786030 0.507773
O O18 0.971345 0.723524 0.490904
O O19 0.750000 0.163389 0.030151
O O20 0.551882 0.148251 0.893566
O O21 0.750000 0.691467 0.284654
#
# Coordination Sequence:
#
# PCOD8183731 Si02
#       8
#     8   8   8   8   8   8   8   8
#     4   9  17  30  48  71  97 125 160 199 241 291
#     4   9  19  34  52  74  98 124 156 196 245 298
#     4   9  17  30  46  66  96 131 166 205 245 285
#     4  11  21  33  51  74  99 131 170 209 250 298
#     4  10  20  36  55  75  99 125 156 200 253 306
#     4   8  15  27  42  62  90 124 161 197 234 276
#     4   9  18  32  48  70 101 136 170 204 243 288
#     4   9  17  30  49  72 101 136 171 206 244 290
#
# _framework density 17.734375
#
# number of rings (size 3 to 8) (size 9 to 14) (size 15 to 20)
#    0.000    2.750    0.000    2.625    0.000    5.500 
#    0.000    2.500    0.000    0.750    0.000    1.750 
#    0.000    0.000    0.000    0.000    0.000    0.000 
#
# Total GULP energy -396583.033550 kJ/mol
# GULP energy per Si atom -12393.219798 kJ/mol
# Density = 1.769401 g / cm^3
# Si number density = 17.734375 Si / 1000 Ang^3
#
#
#
# Elastic Constant Matrix: (Units=GPa)
#
#
# Indices 1 2 3 4 5 6 
#
# 1 82.5045 55.3089 39.5371 0.0000 0.0000 0.0000
# 2 55.3089 130.1925 57.0226 0.0000 0.0000 0.0000
# 3 39.5371 57.0226 80.8638 0.0000 0.0000 0.0000
# 4 0.0000 0.0000 0.0000 24.7304 0.0000 0.0000
# 5 0.0000 0.0000 0.0000 0.0000 17.2124 0.0000
# 6 0.0000 0.0000 0.0000 0.0000 0.0000 30.2945
#
#
#
# Elastic Compliance Matrix: (Units=1/GPa)
#
#
# Indices 1 2 3 4 5 6 
#
# 1 0.018244 -0.005561 -0.004999 0.000000 0.000000 0.000000
# 2 -0.005561 0.012809 -0.006313 0.000000 0.000000 0.000000
# 3 -0.004999 -0.006313 0.019262 0.000000 0.000000 0.000000
# 4 0.000000 0.000000 0.000000 0.040436 0.000000 0.000000
# 5 0.000000 0.000000 0.000000 0.000000 0.058098 0.000000
# 6 0.000000 0.000000 0.000000 0.000000 0.000000 0.033009
#
#
# Mechanical properties :
#
#
# Convention : Reuss Voigt Hill
#
# Bulk Modulus (GPa) = 60.35342 66.36645 63.35994
# Shear Modulus (GPa) = 22.61150 23.89360 23.25255
#
# Velocity S-wave (km/s) = 3.57460 3.67455 3.62492
# Velocity P-wave (km/s) = 7.15142 7.45029 7.30238
#
# Compressibility (1/GPa) = 0.01656907
#
# Stress axis : x y z
#
# Youngs Moduli (GPa) = 54.81260 78.07307 51.91502
#
# Poissons Ratio (x) = 0.43418 0.25950
# Poissons Ratio (y) = 0.30482 0.32775
# Poissons Ratio (z) = 0.27398 0.49288
#
# Static dielectric constant tensor:
#      x y z
#    x 3.423510 0.000000 0.000000 
#    y 0.000000 3.308420 0.000000 
#    z 0.000000 0.000000 3.462520 
# 
# 
# High freq. dielectric constant tensor:
#      x y z
#    x 1.685840 0.000000 0.000000 
#    y 0.000000 1.663610 0.000000 
#    z 0.000000 0.000000 1.679350 
# 
# From -- ./inp_files/15631.got.cif
#   From: 2010.03.12/outbox.cif.g09.slc.cpg/sg40_8_cif.got.tgz:15631.got - 2010.04.14 01:38:03.
