data_PCOD8183032
_publ_section_title
;
Structure prediction by ZEFSAII (Michael W. Deem and Ramdas Pophale) SiO2 
 PCOD8183032
Probable space group: A M A 2
;
_chemical_formula_sum "Si O2"
_cell_formula_units_Z 64
_cell_length_a 8.959459
_cell_length_b 27.946751
_cell_length_c 14.415927
_cell_angle_alpha 90.000000
_cell_angle_beta 90.000000
_cell_angle_gamma 90.000000
_cell_volume 3609.571811
_symmetry_space_group_name_H-M "A M A 2"
_symmetry_group_IT_number 40
_symmetry_cell_setting 'orthorhombic'
loop_
_space_group_symop_operation_xyz
x,y,z
-x,-y,z
1/2-x,y,z
1/2+x,-y,z
x,1/2+y,1/2+z
-x,1/2-y,1/2+z
1/2-x,1/2+y,1/2+z
1/2+x,1/2-y,1/2+z
loop_
_atom_site_type_symbol
_atom_site_label
_atom_site_fract_x
_atom_site_fract_y
_atom_site_fract_z
Si Si1 0.574089 0.951445 0.381180
Si Si2 0.578365 0.280778 0.867655
Si Si3 0.925247 0.451431 0.670128
Si Si4 0.573322 0.722277 0.678678
Si Si5 0.424484 0.636085 0.006541
Si Si6 0.420770 0.329109 0.384053
Si Si7 0.924713 0.176536 0.674238
Si Si8 0.574281 0.858417 0.058769
O O1 0.750000 0.957238 0.387089
O O2 0.523791 0.940475 0.275670
O O3 0.517997 0.908477 0.446057
O O4 0.500000 0.000000 0.418033
O O5 0.750000 0.287333 0.835805
O O6 0.476374 0.294737 0.780549
O O7 0.548011 0.227027 0.900833
O O8 0.537936 0.315395 0.951793
O O9 0.750000 0.458808 0.664205
O O10 0.978051 0.407779 0.605893
O O11 0.000000 0.500000 0.633060
O O12 0.750000 0.724706 0.672056
O O13 0.509052 0.774132 0.654719
O O14 0.513862 0.685154 0.603841
O O15 0.250000 0.631711 0.028501
O O16 0.515420 0.636774 0.102679
O O17 0.250000 0.341646 0.407728
O O18 0.458422 0.342440 0.277779
O O19 0.528877 0.359813 0.450329
O O20 0.750000 0.185805 0.660946
O O21 0.750000 0.850609 0.070596
#
# Coordination Sequence:
#
# PCOD8183032 Si02
#       8
#     8   8   8   8   8   8   8   8
#     4   9  18  33  52  75 104 134 162 198 246 298
#     4   9  18  33  50  71 103 136 166 206 253 296
#     4   9  19  35  54  77 104 132 161 197 246 299
#     4  11  21  32  49  74 104 137 172 207 245 295
#     4  10  19  32  53  77 102 133 168 208 253 300
#     4   9  19  34  50  71 100 134 169 207 251 295
#     4  10  21  36  52  71 100 135 170 211 254 295
#     4  11  21  33  52  76 102 133 169 208 251 300
#
# _framework density 17.730634999999999
#
# number of rings (size 3 to 8) (size 9 to 14) (size 15 to 20)
#    0.000    2.250    0.000    4.125    0.000    7.500 
#    0.000    2.500    0.000    0.750    0.000    0.000 
#    0.000    0.000    0.000    0.000    0.000    0.000 
#
# Total GULP energy -396887.759680 kJ/mol
# GULP energy per Si atom -12402.742490 kJ/mol
# Density = 1.769028 g / cm^3
# Si number density = 17.730635 Si / 1000 Ang^3
#
#
#
# Elastic Constant Matrix: (Units=GPa)
#
#
# Indices 1 2 3 4 5 6 
#
# 1 74.8421 38.7760 50.8934 0.0000 0.0000 0.0000
# 2 38.7760 83.5338 68.3112 0.0000 0.0000 0.0000
# 3 50.8934 68.3112 118.4704 0.0000 0.0000 0.0000
# 4 0.0000 0.0000 0.0000 26.7997 0.0000 0.0000
# 5 0.0000 0.0000 0.0000 0.0000 33.8531 0.0000
# 6 0.0000 0.0000 0.0000 0.0000 0.0000 28.0106
#
#
#
# Elastic Compliance Matrix: (Units=1/GPa)
#
#
# Indices 1 2 3 4 5 6 
#
# 1 0.019622 -0.004192 -0.006012 0.000000 0.000000 0.000000
# 2 -0.004192 0.023548 -0.011777 0.000000 0.000000 0.000000
# 3 -0.006012 -0.011777 0.017815 0.000000 0.000000 0.000000
# 4 0.000000 0.000000 0.000000 0.037314 0.000000 0.000000
# 5 0.000000 0.000000 0.000000 0.000000 0.029539 0.000000
# 6 0.000000 0.000000 0.000000 0.000000 0.000000 0.035701
#
#
# Mechanical properties :
#
#
# Convention : Reuss Voigt Hill
#
# Bulk Modulus (GPa) = 58.74818 65.86750 62.30784
# Shear Modulus (GPa) = 23.45492 25.65706 24.55599
#
# Velocity S-wave (km/s) = 3.64104 3.80813 3.72552
# Velocity P-wave (km/s) = 7.13315 7.52100 7.32964
#
# Compressibility (1/GPa) = 0.01702180
#
# Stress axis : x y z
#
# Youngs Moduli (GPa) = 50.96446 42.46621 56.13342
#
# Poissons Ratio (x) = 0.17800 0.33749
# Poissons Ratio (y) = 0.21362 0.66111
# Poissons Ratio (z) = 0.30641 0.50014
#
# Static dielectric constant tensor:
#      x y z
#    x 3.228080 0.000000 0.000000 
#    y 0.000000 3.186000 0.000000 
#    z 0.000000 0.000000 3.390400 
# 
# 
# High freq. dielectric constant tensor:
#      x y z
#    x 1.685030 0.000000 0.000000 
#    y 0.000000 1.664580 0.000000 
#    z 0.000000 0.000000 1.687410 
# 
# From -- ./inp_files/15918.got.cif
#   From: 2010.03.12/outbox.cif.g09.slc.cpg/sg40_8_cif.got.tgz:15918.got - 2010.04.14 01:38:03.
