data_PCOD8183813
_publ_section_title
;
Structure prediction by ZEFSAII (Michael W. Deem and Ramdas Pophale) SiO2 
 PCOD8183813
Probable space group: A M A 2
;
_chemical_formula_sum "Si O2"
_cell_formula_units_Z 40
_cell_length_a 8.919774
_cell_length_b 17.167918
_cell_length_c 12.670358
_cell_angle_alpha 90.000000
_cell_angle_beta 90.000000
_cell_angle_gamma 90.000000
_cell_volume 1940.261951
_symmetry_space_group_name_H-M "A M A 2"
_symmetry_group_IT_number 40
_symmetry_cell_setting 'orthorhombic'
loop_
_space_group_symop_operation_xyz
x,y,z
-x,-y,z
1/2-x,y,z
1/2+x,-y,z
x,1/2+y,1/2+z
-x,1/2-y,1/2+z
1/2-x,1/2+y,1/2+z
1/2+x,1/2-y,1/2+z
loop_
_atom_site_type_symbol
_atom_site_label
_atom_site_fract_x
_atom_site_fract_y
_atom_site_fract_z
Si Si1 0.583260 0.683900 0.273080
Si Si2 0.417008 0.422105 0.473154
Si Si3 0.927217 0.085977 0.571855
Si Si4 0.073233 0.081817 0.165348
Si Si5 0.574047 0.163171 0.352099
O O1 0.750000 0.717615 0.244901
O O2 0.597276 0.626441 0.368614
O O3 0.517384 0.636857 0.172330
O O4 0.475493 0.752333 0.312075
O O5 0.500000 0.500000 0.436448
O O6 0.250000 0.440835 0.516793
O O7 0.510245 0.371049 0.562802
O O8 0.750000 0.072635 0.577087
O O9 0.973202 0.138423 0.470307
O O10 0.000000 0.000000 0.568862
O O11 0.250000 0.083183 0.171340
O O12 0.007840 0.102016 0.277784
O O13 0.000000 0.000000 0.132441
O O14 0.750000 0.155912 0.336999
#
# Coordination Sequence:
#
# PCOD8183813 Si02
#       5
#     8   8   8   8   8
#     4  10  23  41  61  90 127 162 203 257 309 368
#     4  10  20  36  60  89 121 157 202 248 302 365
#     4  10  23  43  66  93 126 165 211 259 312 376
#     4  11  22  38  61  87 120 158 201 251 306 363
#     4  11  24  40  61  91 125 162 207 255 311 372
#
# _framework density 20.615773000000001
#
# number of rings (size 3 to 8) (size 9 to 14) (size 15 to 20)
#    0.000    1.600    0.000    5.400    2.800    5.600 
#    0.000    0.000    0.000    0.000    0.000    0.000 
#    0.000    0.000    0.000    0.000    0.000    0.000 
#
# Total GULP energy -247824.402166 kJ/mol
# GULP energy per Si atom -12391.220108 kJ/mol
# Density = 2.056885 g / cm^3
# Si number density = 20.615773 Si / 1000 Ang^3
#
#
#
# Elastic Constant Matrix: (Units=GPa)
#
#
# Indices 1 2 3 4 5 6 
#
# 1 128.1947 43.9627 61.2616 0.0000 0.0000 0.0000
# 2 43.9627 93.2032 51.2550 0.0000 0.0000 0.0000
# 3 61.2616 51.2550 164.2880 0.0000 0.0000 0.0000
# 4 0.0000 0.0000 0.0000 2.3525 0.0000 0.0000
# 5 0.0000 0.0000 0.0000 0.0000 30.3229 0.0000
# 6 0.0000 0.0000 0.0000 0.0000 0.0000 29.7879
#
#
#
# Elastic Compliance Matrix: (Units=1/GPa)
#
#
# Indices 1 2 3 4 5 6 
#
# 1 0.010272 -0.003306 -0.002799 0.000000 0.000000 0.000000
# 2 -0.003306 0.014015 -0.003140 0.000000 0.000000 0.000000
# 3 -0.002799 -0.003140 0.008110 0.000000 0.000000 0.000000
# 4 0.000000 0.000000 0.000000 0.425084 0.000000 0.000000
# 5 0.000000 0.000000 0.000000 0.000000 0.032978 0.000000
# 6 0.000000 0.000000 0.000000 0.000000 0.000000 0.033571
#
#
# Mechanical properties :
#
#
# Convention : Reuss Voigt Hill
#
# Bulk Modulus (GPa) = 71.90072 77.62716 74.76394
# Shear Modulus (GPa) = 9.13817 27.77311 18.45564
#
# Velocity S-wave (km/s) = 2.10766 3.67437 2.99527
# Velocity P-wave (km/s) = 6.39338 7.46575 6.95027
#
# Compressibility (1/GPa) = 0.01390807
#
# Stress axis : x y z
#
# Youngs Moduli (GPa) = 97.35298 71.35087 123.30282
#
# Poissons Ratio (x) = 0.23588 0.34511
# Poissons Ratio (y) = 0.32184 0.38714
# Poissons Ratio (z) = 0.27248 0.22403
#
# Static dielectric constant tensor:
#      x y z
#    x 3.994900 0.000000 0.000000 
#    y 0.000000 4.318850 0.000000 
#    z 0.000000 0.000000 4.172820 
# 
# 
# High freq. dielectric constant tensor:
#      x y z
#    x 1.811360 0.000000 0.000000 
#    y 0.000000 1.794440 0.000000 
#    z 0.000000 0.000000 1.835060 
# 
# From -- ./inp_files/10002.got.cif
#   From: 2010.03.12/outbox.cif.g09.slc.cpg/sg40_6_cif.got.tgz:10002.got - 2010.04.14 01:38:03.
