data_PCOD8183008
_publ_section_title
;
Structure prediction by ZEFSAII (Michael W. Deem and Ramdas Pophale) SiO2 
 PCOD8183008
Probable space group: A M A 2
;
_chemical_formula_sum "Si O2"
_cell_formula_units_Z 64
_cell_length_a 8.777901
_cell_length_b 19.636067
_cell_length_c 20.624055
_cell_angle_alpha 90.000000
_cell_angle_beta 90.000000
_cell_angle_gamma 90.000000
_cell_volume 3554.833317
_symmetry_space_group_name_H-M "A M A 2"
_symmetry_group_IT_number 40
_symmetry_cell_setting 'orthorhombic'
loop_
_space_group_symop_operation_xyz
x,y,z
-x,-y,z
1/2-x,y,z
1/2+x,-y,z
x,1/2+y,1/2+z
-x,1/2-y,1/2+z
1/2-x,1/2+y,1/2+z
1/2+x,1/2-y,1/2+z
loop_
_atom_site_type_symbol
_atom_site_label
_atom_site_fract_x
_atom_site_fract_y
_atom_site_fract_z
Si Si1 0.929582 0.703540 0.727270
Si Si2 0.069101 0.070664 0.271155
Si Si3 0.929951 0.069912 0.411206
Si Si4 0.575108 0.298920 0.111467
Si Si5 0.928367 0.715205 0.344585
Si Si6 0.071193 0.931425 0.659416
Si Si7 0.575478 0.302757 0.966576
Si Si8 0.572027 0.568140 0.306606
O O1 0.750000 0.690230 0.728966
O O2 0.982330 0.742438 0.662207
O O3 0.016648 0.631582 0.724516
O O4 0.975764 0.746589 0.790047
O O5 0.250000 0.065491 0.273669
O O6 0.005449 0.087118 0.342331
O O7 0.000000 0.000000 0.244580
O O8 0.750000 0.061925 0.402753
O O9 0.968905 0.131146 0.459634
O O10 0.000000 0.000000 0.439326
O O11 0.750000 0.316668 0.126182
O O12 0.479596 0.367590 0.117321
O O13 0.552278 0.271308 0.038250
O O14 0.750000 0.723845 0.327600
O O15 0.970481 0.745124 0.414785
O O16 0.974689 0.635524 0.346577
O O17 0.250000 0.938126 0.655735
O O18 0.012639 0.921646 0.733138
O O19 0.000000 0.000000 0.629363
O O20 0.750000 0.325628 0.955799
O O21 0.500000 0.500000 0.338004
O O22 0.750000 0.556746 0.307495
#
# Coordination Sequence:
#
# PCOD8183008 Si02
#       8
#     8   8   8   8   8   8   8   8
#     4  11  21  34  55  82 110 140 180 225 271 319
#     4  11  21  35  56  82 111 141 177 223 272 324
#     4  11  21  34  53  79 109 144 183 222 267 320
#     4  10  22  37  53  77 109 146 184 223 267 321
#     4  10  19  34  56  79 104 138 181 223 270 321
#     4  10  19  32  51  75 106 142 180 220 264 317
#     4  10  21  37  55  76 107 146 183 221 269 320
#     4   9  18  31  50  78 105 133 171 215 267 318
#
# _framework density 18.003658000000001
#
# number of rings (size 3 to 8) (size 9 to 14) (size 15 to 20)
#    0.000    1.750    2.500    3.750    0.000    2.500 
#    0.000    0.000    0.000    0.750    0.000    1.750 
#    0.000    0.000    0.000    0.000    0.000    0.000 
#
# Total GULP energy -396862.618986 kJ/mol
# GULP energy per Si atom -12401.956843 kJ/mol
# Density = 1.796268 g / cm^3
# Si number density = 18.003658 Si / 1000 Ang^3
#
#
#
# Elastic Constant Matrix: (Units=GPa)
#
#
# Indices 1 2 3 4 5 6 
#
# 1 87.9545 45.3355 35.0565 0.0000 0.0000 0.0000
# 2 45.3355 137.6698 61.9582 0.0000 0.0000 0.0000
# 3 35.0565 61.9582 99.9672 0.0000 0.0000 0.0000
# 4 0.0000 0.0000 0.0000 22.0296 0.0000 0.0000
# 5 0.0000 0.0000 0.0000 0.0000 17.5183 0.0000
# 6 0.0000 0.0000 0.0000 0.0000 0.0000 32.5920
#
#
#
# Elastic Compliance Matrix: (Units=1/GPa)
#
#
# Indices 1 2 3 4 5 6 
#
# 1 0.014276 -0.003395 -0.002902 0.000000 0.000000 0.000000
# 2 -0.003395 0.010881 -0.005553 0.000000 0.000000 0.000000
# 3 -0.002902 -0.005553 0.014463 0.000000 0.000000 0.000000
# 4 0.000000 0.000000 0.000000 0.045393 0.000000 0.000000
# 5 0.000000 0.000000 0.000000 0.000000 0.057083 0.000000
# 6 0.000000 0.000000 0.000000 0.000000 0.000000 0.030682
#
#
# Mechanical properties :
#
#
# Convention : Reuss Voigt Hill
#
# Bulk Modulus (GPa) = 62.81808 67.81022 65.31415
# Shear Modulus (GPa) = 24.77864 26.64407 25.71136
#
# Velocity S-wave (km/s) = 3.71389 3.85115 3.78315
# Velocity P-wave (km/s) = 7.30467 7.58430 7.44580
#
# Compressibility (1/GPa) = 0.01591898
#
# Stress axis : x y z
#
# Youngs Moduli (GPa) = 70.04645 91.90272 69.14260
#
# Poissons Ratio (x) = 0.31202 0.20066
# Poissons Ratio (y) = 0.23782 0.38397
# Poissons Ratio (z) = 0.20328 0.51037
#
# Static dielectric constant tensor:
#      x y z
#    x 3.329040 0.000000 0.000000 
#    y 0.000000 3.532630 0.000000 
#    z 0.000000 0.000000 3.186730 
# 
# 
# High freq. dielectric constant tensor:
#      x y z
#    x 1.702070 0.000000 0.000000 
#    y 0.000000 1.702150 0.000000 
#    z 0.000000 0.000000 1.667190 
# 
# From -- ./inp_files/19649.got.cif
#   From: 2010.03.12/outbox.cif.g09.slc.cpg/sg40_10_cif.got.tgz:19649.got - 2010.04.14 01:38:03.
