data_PCOD8183434
_publ_section_title
;
Structure prediction by ZEFSAII (Michael W. Deem and Ramdas Pophale) SiO2 
 PCOD8183434
Probable space group: A M A 2
;
_chemical_formula_sum "Si O2"
_cell_formula_units_Z 40
_cell_length_a 15.499186
_cell_length_b 7.738724
_cell_length_c 16.840931
_cell_angle_alpha 90.000000
_cell_angle_beta 90.000000
_cell_angle_gamma 90.000000
_cell_volume 2019.967326
_symmetry_space_group_name_H-M "A M A 2"
_symmetry_group_IT_number 40
_symmetry_cell_setting 'orthorhombic'
loop_
_space_group_symop_operation_xyz
x,y,z
-x,-y,z
1/2-x,y,z
1/2+x,-y,z
x,1/2+y,1/2+z
-x,1/2-y,1/2+z
1/2-x,1/2+y,1/2+z
1/2+x,1/2-y,1/2+z
loop_
_atom_site_type_symbol
_atom_site_label
_atom_site_fract_x
_atom_site_fract_y
_atom_site_fract_z
Si Si1 0.000000 0.000000 0.878911
Si Si2 0.934260 0.345926 0.118109
Si Si3 0.346096 0.020261 0.762994
Si Si4 0.500000 0.500000 0.681952
Si Si5 0.067688 0.151896 0.440953
Si Si6 0.654799 0.373072 0.780057
O O1 0.080162 0.068164 0.826105
O O2 0.023229 0.838615 0.933513
O O3 0.858902 0.367981 0.182907
O O4 0.000000 0.500000 0.133922
O O5 0.893424 0.357577 0.029872
O O6 0.986511 0.166748 0.127122
O O7 0.250000 0.062834 0.796478
O O8 0.353215 0.817549 0.743201
O O9 0.583723 0.490511 0.738272
O O10 0.142144 0.133465 0.375355
O O11 0.000000 0.000000 0.427301
O O12 0.750000 0.450210 0.763742
#
# Coordination Sequence:
#
# PCOD8183434 Si02
#       6
#     4   8   8   4   8   8
#     4  10  19  40  57  86 114 154 192 238 285 342
#     4  11  21  37  58  87 115 151 190 236 291 344
#     4  10  20  37  62  86 117 154 195 242 287 340
#     4  12  21  38  61  88 116 154 194 244 283 346
#     4  10  21  36  59  83 115 150 188 236 291 341
#     4  10  21  38  60  87 117 152 198 244 283 341
#
# _framework density 19.802301
#
# number of rings (size 3 to 8) (size 9 to 14) (size 15 to 20)
#    0.000    1.600    4.000    1.800    0.000    1.600 
#    0.000    0.000    0.000    4.800    0.000    0.000 
#    0.000    0.000    0.000    0.000    0.000    0.000 
#
# Total GULP energy -247964.508599 kJ/mol
# GULP energy per Si atom -12398.225430 kJ/mol
# Density = 1.975723 g / cm^3
# Si number density = 19.802301 Si / 1000 Ang^3
#
#
#
# Elastic Constant Matrix: (Units=GPa)
#
#
# Indices 1 2 3 4 5 6 
#
# 1 107.6174 15.8914 29.9116 0.0000 0.0000 0.0000
# 2 15.8914 92.8189 26.0659 0.0000 0.0000 0.0000
# 3 29.9116 26.0659 91.8553 0.0000 0.0000 0.0000
# 4 0.0000 0.0000 0.0000 17.6791 0.0000 0.0000
# 5 0.0000 0.0000 0.0000 0.0000 10.1255 0.0000
# 6 0.0000 0.0000 0.0000 0.0000 0.0000 21.3820
#
#
#
# Elastic Compliance Matrix: (Units=1/GPa)
#
#
# Indices 1 2 3 4 5 6 
#
# 1 0.010284 -0.000891 -0.003096 0.000000 0.000000 0.000000
# 2 -0.000891 0.011784 -0.003054 0.000000 0.000000 0.000000
# 3 -0.003096 -0.003054 0.012761 0.000000 0.000000 0.000000
# 4 0.000000 0.000000 0.000000 0.056564 0.000000 0.000000
# 5 0.000000 0.000000 0.000000 0.000000 0.098761 0.000000
# 6 0.000000 0.000000 0.000000 0.000000 0.000000 0.046768
#
#
# Mechanical properties :
#
#
# Convention : Reuss Voigt Hill
#
# Bulk Modulus (GPa) = 48.19854 48.44771 48.32312
# Shear Modulus (GPa) = 19.38582 24.53216 21.95899
#
# Velocity S-wave (km/s) = 3.13224 3.52355 3.33364
# Velocity P-wave (km/s) = 6.12160 6.40880 6.26684
#
# Compressibility (1/GPa) = 0.02074752
#
# Stress axis : x y z
#
# Youngs Moduli (GPa) = 97.23542 84.86220 78.36120
#
# Poissons Ratio (x) = 0.07564 0.24261
# Poissons Ratio (y) = 0.08667 0.23929
# Poissons Ratio (z) = 0.30104 0.25914
#
# Static dielectric constant tensor:
#      x y z
#    x 3.526430 0.000000 0.000000 
#    y 0.000000 3.636150 0.000000 
#    z 0.000000 0.000000 3.551830 
# 
# 
# High freq. dielectric constant tensor:
#      x y z
#    x 1.755640 0.000000 0.000000 
#    y 0.000000 1.781630 0.000000 
#    z 0.000000 0.000000 1.764780 
# 
# From -- ./inp_files/16832.got.cif
#   From: 2010.03.12/outbox.cif.g09.slc.cpg/sg40_9_cif.got.tgz:16832.got - 2010.04.14 01:38:03.
