data_PCOD8183745
_publ_section_title
;
Structure prediction by ZEFSAII (Michael W. Deem and Ramdas Pophale) SiO2 
 PCOD8183745
Probable space group: A M A 2
;
_chemical_formula_sum "Si O2"
_cell_formula_units_Z 48
_cell_length_a 16.720221
_cell_length_b 9.601312
_cell_length_c 15.329780
_cell_angle_alpha 90.000000
_cell_angle_beta 90.000000
_cell_angle_gamma 90.000000
_cell_volume 2460.982459
_symmetry_space_group_name_H-M "A M A 2"
_symmetry_group_IT_number 40
_symmetry_cell_setting 'orthorhombic'
loop_
_space_group_symop_operation_xyz
x,y,z
-x,-y,z
1/2-x,y,z
1/2+x,-y,z
x,1/2+y,1/2+z
-x,1/2-y,1/2+z
1/2-x,1/2+y,1/2+z
1/2+x,1/2-y,1/2+z
loop_
_atom_site_type_symbol
_atom_site_label
_atom_site_fract_x
_atom_site_fract_y
_atom_site_fract_z
Si Si1 0.076880 0.080849 0.065060
Si Si2 0.657917 0.917383 0.237802
Si Si3 0.424174 0.903960 0.550171
Si Si4 0.341843 0.887737 0.725870
Si Si5 0.087424 0.060075 0.870926
Si Si6 0.844932 0.140456 0.374648
O O1 0.145234 0.047289 0.135672
O O2 0.052168 0.242185 0.057404
O O3 0.106410 0.022515 0.971593
O O4 0.000000 0.000000 0.098910
O O5 0.750000 0.916712 0.260556
O O6 0.621427 0.762992 0.252895
O O7 0.621042 0.030528 0.303658
O O8 0.385719 0.953014 0.641628
O O9 0.360875 0.921136 0.471182
O O10 0.500000 0.000000 0.529969
O O11 0.250000 0.868899 0.699132
O O12 0.348609 0.987528 0.808588
O O13 0.099488 0.224801 0.857627
O O14 0.000000 0.000000 0.845075
O O15 0.750000 0.174227 0.365350
#
# Coordination Sequence:
#
# PCOD8183745 Si02
#       6
#     8   8   8   8   8   8
#     4   9  20  36  54  76 106 141 177 219 273 328
#     4   9  20  36  55  79 107 140 181 225 273 332
#     4  10  21  36  56  80 109 144 184 230 278 332
#     4  10  20  36  56  79 109 146 185 229 282 340
#     4  10  21  36  55  82 112 144 186 233 281 335
#     4  10  21  38  58  82 112 149 190 234 285 343
#
# _framework density 19.504404999999998
#
# number of rings (size 3 to 8) (size 9 to 14) (size 15 to 20)
#    0.000    2.333    0.000    1.500    0.000   13.333 
#    0.000    0.000    0.000    5.000    0.000    0.000 
#    0.000    0.000    0.000    0.000    0.000    0.000 
#
# Total GULP energy -297488.113089 kJ/mol
# GULP energy per Si atom -12395.338045 kJ/mol
# Density = 1.946001 g / cm^3
# Si number density = 19.504405 Si / 1000 Ang^3
#
#
#
# Elastic Constant Matrix: (Units=GPa)
#
#
# Indices 1 2 3 4 5 6 
#
# 1 53.8776 32.4813 25.2364 0.0000 0.0000 0.0000
# 2 32.4813 78.1785 64.8499 0.0000 0.0000 0.0000
# 3 25.2364 64.8499 127.1631 0.0000 0.0000 0.0000
# 4 0.0000 0.0000 0.0000 35.6000 0.0000 0.0000
# 5 0.0000 0.0000 0.0000 0.0000 34.3358 0.0000
# 6 0.0000 0.0000 0.0000 0.0000 0.0000 31.9929
#
#
#
# Elastic Compliance Matrix: (Units=1/GPa)
#
#
# Indices 1 2 3 4 5 6 
#
# 1 0.024788 -0.010777 0.000577 0.000000 0.000000 0.000000
# 2 -0.010777 0.026855 -0.011557 0.000000 0.000000 0.000000
# 3 0.000577 -0.011557 0.013643 0.000000 0.000000 0.000000
# 4 0.000000 0.000000 0.000000 0.028090 0.000000 0.000000
# 5 0.000000 0.000000 0.000000 0.000000 0.029124 0.000000
# 6 0.000000 0.000000 0.000000 0.000000 0.000000 0.031257
#
#
# Mechanical properties :
#
#
# Convention : Reuss Voigt Hill
#
# Bulk Modulus (GPa) = 45.93075 56.03937 50.98506
# Shear Modulus (GPa) = 24.44649 29.49586 26.97118
#
# Velocity S-wave (km/s) = 3.54416 3.89301 3.72267
# Velocity P-wave (km/s) = 6.35201 7.00010 6.68391
#
# Compressibility (1/GPa) = 0.02177191
#
# Stress axis : x y z
#
# Youngs Moduli (GPa) = 40.34269 37.23662 73.29724
#
# Poissons Ratio (x) = 0.40130 -0.04228
# Poissons Ratio (y) = 0.43478 0.84708
# Poissons Ratio (z) = -0.02327 0.43033
#
# Static dielectric constant tensor:
#      x y z
#    x 3.318290 0.000000 0.000000 
#    y 0.000000 3.631570 0.000000 
#    z 0.000000 0.000000 3.726660 
# 
# 
# High freq. dielectric constant tensor:
#      x y z
#    x 1.742400 0.000000 0.000000 
#    y 0.000000 1.755780 0.000000 
#    z 0.000000 0.000000 1.773710 
# 
# From -- ./inp_files/17625.got.cif
#   From: 2010.03.12/outbox.cif.g09.slc.cpg/sg40_9_cif.got.tgz:17625.got - 2010.04.14 01:38:03.
