data_PCOD8183125
_publ_section_title
;
Structure prediction by ZEFSAII (Michael W. Deem and Ramdas Pophale) SiO2 
 PCOD8183125
Probable space group: A M A 2
;
_chemical_formula_sum "Si O2"
_cell_formula_units_Z 40
_cell_length_a 9.002982
_cell_length_b 9.168794
_cell_length_c 26.116880
_cell_angle_alpha 90.000000
_cell_angle_beta 90.000000
_cell_angle_gamma 90.000000
_cell_volume 2155.856704
_symmetry_space_group_name_H-M "A M A 2"
_symmetry_group_IT_number 40
_symmetry_cell_setting 'orthorhombic'
loop_
_space_group_symop_operation_xyz
x,y,z
-x,-y,z
1/2-x,y,z
1/2+x,-y,z
x,1/2+y,1/2+z
-x,1/2-y,1/2+z
1/2-x,1/2+y,1/2+z
1/2+x,1/2-y,1/2+z
loop_
_atom_site_type_symbol
_atom_site_label
_atom_site_fract_x
_atom_site_fract_y
_atom_site_fract_z
Si Si1 0.424886 0.156749 0.681340
Si Si2 0.922868 0.152969 0.274486
Si Si3 0.919949 0.849652 0.570781
Si Si4 0.924536 0.345866 0.373035
Si Si5 0.074655 0.658517 0.959422
O O1 0.250000 0.134002 0.689598
O O2 0.487687 0.266828 0.724059
O O3 0.462121 0.228508 0.624897
O O4 0.500000 0.000000 0.687833
O O5 0.750000 0.123082 0.268063
O O6 0.958464 0.250493 0.323414
O O7 0.000000 0.000000 0.282492
O O8 0.750000 0.891827 0.573271
O O9 0.953325 0.770382 0.516510
O O10 0.000000 0.000000 0.568699
O O11 0.750000 0.365467 0.382883
O O12 0.000000 0.500000 0.363574
O O13 0.998474 0.270793 0.421692
O O14 0.250000 0.643464 0.947582
O O15 0.000000 0.500000 0.953647
#
# Coordination Sequence:
#
# PCOD8183125 Si02
#       5
#     8   8   8   8   8
#     4   9  17  32  53  78 105 134 169 210 252 299
#     4  10  22  37  54  76 103 134 170 210 256 307
#     4   8  15  28  49  75 104 135 169 207 249 296
#     4  11  23  38  55  77 103 135 173 215 262 313
#     4  10  19  33  54  80 108 140 175 214 256 303
#
# _framework density 18.554110000000001
#
# number of rings (size 3 to 8) (size 9 to 14) (size 15 to 20)
#    0.000    2.400    0.000    2.400    0.000    4.800 
#    0.000    1.000    0.000    2.400    0.000    0.000 
#    0.000    0.000    0.000    0.000    0.000    0.000 
#
# Total GULP energy -247791.690655 kJ/mol
# GULP energy per Si atom -12389.584533 kJ/mol
# Density = 1.851188 g / cm^3
# Si number density = 18.554110 Si / 1000 Ang^3
#
#
#
# Elastic Constant Matrix: (Units=GPa)
#
#
# Indices 1 2 3 4 5 6 
#
# 1 71.3908 55.1594 69.0850 0.0000 0.0000 0.0000
# 2 55.1594 111.4743 70.5197 0.0000 0.0000 0.0000
# 3 69.0850 70.5197 169.9746 0.0000 0.0000 0.0000
# 4 0.0000 0.0000 0.0000 43.0843 0.0000 0.0000
# 5 0.0000 0.0000 0.0000 0.0000 25.7571 0.0000
# 6 0.0000 0.0000 0.0000 0.0000 0.0000 29.4920
#
#
#
# Elastic Compliance Matrix: (Units=1/GPa)
#
#
# Indices 1 2 3 4 5 6 
#
# 1 0.028759 -0.009268 -0.007843 0.000000 0.000000 0.000000
# 2 -0.009268 0.015150 -0.002518 0.000000 0.000000 0.000000
# 3 -0.007843 -0.002518 0.010116 0.000000 0.000000 0.000000
# 4 0.000000 0.000000 0.000000 0.023210 0.000000 0.000000
# 5 0.000000 0.000000 0.000000 0.000000 0.038824 0.000000
# 6 0.000000 0.000000 0.000000 0.000000 0.000000 0.033908
#
#
# Mechanical properties :
#
#
# Convention : Reuss Voigt Hill
#
# Bulk Modulus (GPa) = 67.73178 82.48533 75.10856
# Shear Modulus (GPa) = 25.75341 30.20503 27.97922
#
# Velocity S-wave (km/s) = 3.72965 4.03915 3.88748
# Velocity P-wave (km/s) = 7.42505 8.14286 7.79222
#
# Compressibility (1/GPa) = 0.01476412
#
# Stress axis : x y z
#
# Youngs Moduli (GPa) = 34.77202 66.00638 98.85333
#
# Poissons Ratio (x) = 0.61178 0.77535
# Poissons Ratio (y) = 0.32228 0.24895
# Poissons Ratio (z) = 0.27273 0.16623
#
# Static dielectric constant tensor:
#      x y z
#    x 3.486060 0.000000 0.000000 
#    y 0.000000 2.689900 0.000000 
#    z 0.000000 0.000000 4.352190 
# 
# 
# High freq. dielectric constant tensor:
#      x y z
#    x 1.724550 0.000000 0.000000 
#    y 0.000000 1.685750 0.000000 
#    z 0.000000 0.000000 1.752720 
# 
# From -- ./inp_files/23813.got.cif
#   From: 2010.03.12/outbox.cif.g09.slc.cpg/sg40_12_cif.got.tgz:23813.got - 2010.04.14 01:38:03.
