data_PCOD8183579
_publ_section_title
;
Structure prediction by ZEFSAII (Michael W. Deem and Ramdas Pophale) SiO2 
 PCOD8183579
Probable space group: A M A 2
;
_chemical_formula_sum "Si O2"
_cell_formula_units_Z 64
_cell_length_a 8.754470
_cell_length_b 20.584597
_cell_length_c 19.339364
_cell_angle_alpha 90.000000
_cell_angle_beta 90.000000
_cell_angle_gamma 90.000000
_cell_volume 3485.093350
_symmetry_space_group_name_H-M "A M A 2"
_symmetry_group_IT_number 40
_symmetry_cell_setting 'orthorhombic'
loop_
_space_group_symop_operation_xyz
x,y,z
-x,-y,z
1/2-x,y,z
1/2+x,-y,z
x,1/2+y,1/2+z
-x,1/2-y,1/2+z
1/2-x,1/2+y,1/2+z
1/2+x,1/2-y,1/2+z
loop_
_atom_site_type_symbol
_atom_site_label
_atom_site_fract_x
_atom_site_fract_y
_atom_site_fract_z
Si Si1 0.426345 0.731076 0.621550
Si Si2 0.570472 0.432991 0.254916
Si Si3 0.569437 0.431823 0.831266
Si Si4 0.071579 0.313335 0.332518
Si Si5 0.926281 0.116667 0.619775
Si Si6 0.925328 0.232083 0.981661
Si Si7 0.926125 0.380982 0.979324
Si Si8 0.570228 0.190393 0.257600
O O1 0.250000 0.715342 0.635036
O O2 0.461801 0.807343 0.628568
O O3 0.471194 0.706939 0.544850
O O4 0.528995 0.693053 0.676630
O O5 0.500000 0.500000 0.282665
O O6 0.750000 0.437194 0.260262
O O7 0.513211 0.375530 0.303442
O O8 0.523684 0.422290 0.175545
O O9 0.500000 0.500000 0.807106
O O10 0.750000 0.428888 0.818063
O O11 0.530220 0.422044 0.911974
O O12 0.487525 0.377739 0.785958
O O13 0.250000 0.318944 0.315434
O O14 0.039826 0.311165 0.414465
O O15 0.013058 0.248281 0.297039
O O16 0.750000 0.100584 0.632044
O O17 0.973718 0.093150 0.543324
O O18 0.750000 0.226002 0.004550
O O19 0.965342 0.306244 0.962578
O O20 0.750000 0.389211 0.999610
O O21 0.750000 0.197074 0.268328
#
# Coordination Sequence:
#
# PCOD8183579 Si02
#       8
#     8   8   8   8   8   8   8   8
#     4  10  20  34  56  85 118 150 187 237 286 336
#     4  12  25  40  58  82 114 154 195 239 286 343
#     4  11  23  40  58  82 116 154 194 239 289 342
#     4  11  21  38  61  87 117 150 189 238 288 337
#     4  10  20  34  54  81 115 153 192 235 281 336
#     4   9  18  34  57  84 115 149 186 232 286 340
#     4   9  18  34  54  78 113 155 193 232 279 336
#     4  12  23  36  59  87 115 152 195 238 285 340
#
# _framework density 18.363928000000001
#
# number of rings (size 3 to 8) (size 9 to 14) (size 15 to 20)
#    0.000    1.500    2.500    3.750    0.000    3.500 
#    0.000    1.250    0.000    0.750    0.000    1.750 
#    0.000    0.000    0.000    0.000    0.000    0.000 
#
# Total GULP energy -396954.653779 kJ/mol
# GULP energy per Si atom -12404.832931 kJ/mol
# Density = 1.832213 g / cm^3
# Si number density = 18.363928 Si / 1000 Ang^3
#
#
#
# Elastic Constant Matrix: (Units=GPa)
#
#
# Indices 1 2 3 4 5 6 
#
# 1 103.9723 34.3384 40.2764 0.0000 0.0000 0.0000
# 2 34.3384 88.8823 35.8175 0.0000 0.0000 0.0000
# 3 40.2764 35.8175 82.3733 0.0000 0.0000 0.0000
# 4 0.0000 0.0000 0.0000 27.3257 0.0000 0.0000
# 5 0.0000 0.0000 0.0000 0.0000 33.4657 0.0000
# 6 0.0000 0.0000 0.0000 0.0000 0.0000 29.6085
#
#
#
# Elastic Compliance Matrix: (Units=1/GPa)
#
#
# Indices 1 2 3 4 5 6 
#
# 1 0.012435 -0.002854 -0.004839 0.000000 0.000000 0.000000
# 2 -0.002854 0.014296 -0.004821 0.000000 0.000000 0.000000
# 3 -0.004839 -0.004821 0.016602 0.000000 0.000000 0.000000
# 4 0.000000 0.000000 0.000000 0.036596 0.000000 0.000000
# 5 0.000000 0.000000 0.000000 0.000000 0.029881 0.000000
# 6 0.000000 0.000000 0.000000 0.000000 0.000000 0.033774
#
#
# Mechanical properties :
#
#
# Convention : Reuss Voigt Hill
#
# Bulk Modulus (GPa) = 54.62855 55.12138 54.87497
# Shear Modulus (GPa) = 28.61819 29.06635 28.84227
#
# Velocity S-wave (km/s) = 3.95193 3.98275 3.96737
# Velocity P-wave (km/s) = 7.11590 7.15759 7.13677
#
# Compressibility (1/GPa) = 0.01830545
#
# Stress axis : x y z
#
# Youngs Moduli (GPa) = 80.41746 69.94912 60.23336
#
# Poissons Ratio (x) = 0.19964 0.29148
# Poissons Ratio (y) = 0.22952 0.29037
# Poissons Ratio (z) = 0.38915 0.33721
#
# Static dielectric constant tensor:
#      x y z
#    x 3.459550 0.000000 0.000000 
#    y 0.000000 3.243860 0.000000 
#    z 0.000000 0.000000 3.491490 
# 
# 
# High freq. dielectric constant tensor:
#      x y z
#    x 1.724120 0.000000 0.000000 
#    y 0.000000 1.689400 0.000000 
#    z 0.000000 0.000000 1.715100 
# 
# From -- ./inp_files/19583.got.cif
#   From: 2010.03.12/outbox.cif.g09.slc.cpg/sg40_10_cif.got.tgz:19583.got - 2010.04.14 01:38:03.
