data_PCOD8183020
_publ_section_title
;
Structure prediction by ZEFSAII (Michael W. Deem and Ramdas Pophale) SiO2 
 PCOD8183020
Probable space group: A M A 2
;
_chemical_formula_sum "Si O2"
_cell_formula_units_Z 64
_cell_length_a 8.941818
_cell_length_b 25.997553
_cell_length_c 14.038208
_cell_angle_alpha 90.000000
_cell_angle_beta 90.000000
_cell_angle_gamma 90.000000
_cell_volume 3263.397461
_symmetry_space_group_name_H-M "A M A 2"
_symmetry_group_IT_number 40
_symmetry_cell_setting 'orthorhombic'
loop_
_space_group_symop_operation_xyz
x,y,z
-x,-y,z
1/2-x,y,z
1/2+x,-y,z
x,1/2+y,1/2+z
-x,1/2-y,1/2+z
1/2-x,1/2+y,1/2+z
1/2+x,1/2-y,1/2+z
loop_
_atom_site_type_symbol
_atom_site_label
_atom_site_fract_x
_atom_site_fract_y
_atom_site_fract_z
Si Si1 0.428387 0.448435 0.604910
Si Si2 0.926609 0.223873 0.849967
Si Si3 0.577471 0.414152 0.787071
Si Si4 0.079874 0.051837 0.504102
Si Si5 0.073725 0.836975 0.034448
Si Si6 0.588307 0.143813 0.560003
Si Si7 0.426609 0.736823 0.147187
Si Si8 0.586484 0.176581 0.357551
O O1 0.500000 0.500000 0.555711
O O2 0.250000 0.452651 0.601329
O O3 0.486566 0.449550 0.713648
O O4 0.487075 0.394843 0.555977
O O5 0.750000 0.222746 0.830009
O O6 0.019023 0.221287 0.752278
O O7 0.978243 0.277984 0.893551
O O8 0.973439 0.179880 0.926583
O O9 0.750000 0.410026 0.755867
O O10 0.561514 0.436793 0.892357
O O11 0.501388 0.357597 0.779973
O O12 0.250000 0.046697 0.532912
O O13 0.012201 0.093809 0.577675
O O14 0.000000 0.000000 0.531338
O O15 0.250000 0.838820 0.039942
O O16 0.019961 0.793807 0.111961
O O17 0.750000 0.141184 0.613819
O O18 0.501541 0.195675 0.579545
O O19 0.620742 0.141690 0.447816
O O20 0.250000 0.731072 0.138388
O O21 0.750000 0.194771 0.314550
#
# Coordination Sequence:
#
# PCOD8183020 Si02
#       8
#     8   8   8   8   8   8   8   8
#     4  11  22  38  57  80 111 151 195 244 297 351
#     4  11  21  36  57  82 111 149 192 235 285 347
#     4  10  20  33  52  80 112 151 193 235 284 344
#     4  10  20  33  51  76 109 149 192 236 287 344
#     4   9  21  39  59  81 115 155 191 234 293 354
#     4  10  20  34  53  78 110 147 185 228 278 338
#     4  11  21  37  59  86 116 150 189 237 295 353
#     4  10  19  32  51  79 113 148 183 227 280 335
#
# _framework density 19.611463000000001
#
# number of rings (size 3 to 8) (size 9 to 14) (size 15 to 20)
#    0.000    1.750    1.250    3.750    0.000    4.500 
#    0.000    4.375    0.000    0.750    0.000    3.500 
#    0.000    0.000    0.000    0.000    0.000    0.000 
#
# Total GULP energy -396431.368127 kJ/mol
# GULP energy per Si atom -12388.480254 kJ/mol
# Density = 1.956683 g / cm^3
# Si number density = 19.611463 Si / 1000 Ang^3
#
#
#
# Elastic Constant Matrix: (Units=GPa)
#
#
# Indices 1 2 3 4 5 6 
#
# 1 119.8489 61.2472 23.8106 0.0000 0.0000 0.0000
# 2 61.2472 162.3485 34.0219 0.0000 0.0000 0.0000
# 3 23.8106 34.0219 53.3257 0.0000 0.0000 0.0000
# 4 0.0000 0.0000 0.0000 28.2281 0.0000 0.0000
# 5 0.0000 0.0000 0.0000 0.0000 22.7480 0.0000
# 6 0.0000 0.0000 0.0000 0.0000 0.0000 34.6047
#
#
#
# Elastic Compliance Matrix: (Units=1/GPa)
#
#
# Indices 1 2 3 4 5 6 
#
# 1 0.010623 -0.003479 -0.002524 0.000000 0.000000 0.000000
# 2 -0.003479 0.008249 -0.003710 0.000000 0.000000 0.000000
# 3 -0.002524 -0.003710 0.022247 0.000000 0.000000 0.000000
# 4 0.000000 0.000000 0.000000 0.035426 0.000000 0.000000
# 5 0.000000 0.000000 0.000000 0.000000 0.043960 0.000000
# 6 0.000000 0.000000 0.000000 0.000000 0.000000 0.028898
#
#
# Mechanical properties :
#
#
# Convention : Reuss Voigt Hill
#
# Bulk Modulus (GPa) = 46.09561 63.74250 54.91906
# Shear Modulus (GPa) = 28.39964 31.54572 29.97268
#
# Velocity S-wave (km/s) = 3.80954 4.01501 3.91362
# Velocity P-wave (km/s) = 6.55023 7.35302 6.96321
#
# Compressibility (1/GPa) = 0.02169404
#
# Stress axis : x y z
#
# Youngs Moduli (GPa) = 94.13529 121.22099 44.95089
#
# Poissons Ratio (x) = 0.42169 0.11345
# Poissons Ratio (y) = 0.32747 0.16676
# Poissons Ratio (z) = 0.23759 0.44971
#
# Static dielectric constant tensor:
#      x y z
#    x 3.814570 0.000000 0.000000 
#    y 0.000000 3.844400 0.000000 
#    z 0.000000 0.000000 3.407250 
# 
# 
# High freq. dielectric constant tensor:
#      x y z
#    x 1.771000 0.000000 0.000000 
#    y 0.000000 1.765590 0.000000 
#    z 0.000000 0.000000 1.728930 
# 
# From -- ./inp_files/15586.got.cif
#   From: 2010.03.12/outbox.cif.g09.slc.cpg/sg40_8_cif.got.tgz:15586.got - 2010.04.14 01:38:03.
