data_PCOD8183896
_publ_section_title
;
Structure prediction by ZEFSAII (Michael W. Deem and Ramdas Pophale) SiO2 
 PCOD8183896
Probable space group: A M A 2
;
_chemical_formula_sum "Si O2"
_cell_formula_units_Z 40
_cell_length_a 8.681505
_cell_length_b 23.206517
_cell_length_c 10.069524
_cell_angle_alpha 90.000000
_cell_angle_beta 90.000000
_cell_angle_gamma 90.000000
_cell_volume 2028.681760
_symmetry_space_group_name_H-M "A M A 2"
_symmetry_group_IT_number 40
_symmetry_cell_setting 'orthorhombic'
loop_
_space_group_symop_operation_xyz
x,y,z
-x,-y,z
1/2-x,y,z
1/2+x,-y,z
x,1/2+y,1/2+z
-x,1/2-y,1/2+z
1/2-x,1/2+y,1/2+z
1/2+x,1/2-y,1/2+z
loop_
_atom_site_type_symbol
_atom_site_label
_atom_site_fract_x
_atom_site_fract_y
_atom_site_fract_z
Si Si1 0.068462 0.940267 0.178790
Si Si2 0.068637 0.647306 0.883982
Si Si3 0.424673 0.367801 0.159692
Si Si4 0.075433 0.777037 0.863052
Si Si5 0.568920 0.388675 0.422409
O O1 0.250000 0.944683 0.173769
O O2 0.019463 0.889228 0.275244
O O3 0.000000 0.000000 0.233937
O O4 0.004452 0.929765 0.031815
O O5 0.250000 0.642612 0.858594
O O6 0.007961 0.712834 0.868741
O O7 0.027763 0.624213 0.029730
O O8 0.250000 0.387846 0.130124
O O9 0.428096 0.300955 0.210554
O O10 0.497583 0.406557 0.278633
O O11 0.250000 0.777742 0.918649
O O12 0.974102 0.821274 0.952744
O O13 0.750000 0.397269 0.422020
#
# Coordination Sequence:
#
# PCOD8183896 Si02
#       5
#     8   8   8   8   8
#     4  12  26  45  65  89 123 167 214 262 314 374
#     4  11  22  38  61  92 127 166 208 258 313 372
#     4   9  19  37  57  88 124 160 200 248 305 366
#     4   8  19  35  56  88 127 162 201 248 308 371
#     4  10  20  37  62  89 120 159 205 256 307 368
#
# _framework density 19.717237999999998
#
# number of rings (size 3 to 8) (size 9 to 14) (size 15 to 20)
#    1.200    0.800    0.000    4.200    2.800    1.600 
#    0.000    1.000    0.000    0.000    0.000    0.000 
#    0.000    0.000    0.000    0.000    0.000    0.000 
#
# Total GULP energy -247896.517478 kJ/mol
# GULP energy per Si atom -12394.825874 kJ/mol
# Density = 1.967236 g / cm^3
# Si number density = 19.717238 Si / 1000 Ang^3
#
#
#
# Elastic Constant Matrix: (Units=GPa)
#
#
# Indices 1 2 3 4 5 6 
#
# 1 129.6073 29.4142 24.6042 0.0000 0.0000 0.0000
# 2 29.4142 52.7118 3.0328 0.0000 0.0000 0.0000
# 3 24.6042 3.0328 84.0038 0.0000 0.0000 0.0000
# 4 0.0000 0.0000 0.0000 24.2793 0.0000 0.0000
# 5 0.0000 0.0000 0.0000 0.0000 34.1898 0.0000
# 6 0.0000 0.0000 0.0000 0.0000 0.0000 27.6327
#
#
#
# Elastic Compliance Matrix: (Units=1/GPa)
#
#
# Indices 1 2 3 4 5 6 
#
# 1 0.009352 -0.005071 -0.002556 0.000000 0.000000 0.000000
# 2 -0.005071 0.021761 0.000700 0.000000 0.000000 0.000000
# 3 -0.002556 0.000700 0.012628 0.000000 0.000000 0.000000
# 4 0.000000 0.000000 0.000000 0.041187 0.000000 0.000000
# 5 0.000000 0.000000 0.000000 0.000000 0.029249 0.000000
# 6 0.000000 0.000000 0.000000 0.000000 0.000000 0.036189
#
#
# Mechanical properties :
#
#
# Convention : Reuss Voigt Hill
#
# Bulk Modulus (GPa) = 33.46177 42.26948 37.86563
# Shear Modulus (GPa) = 28.70559 31.17178 29.93868
#
# Velocity S-wave (km/s) = 3.81972 3.98042 3.90089
# Velocity P-wave (km/s) = 6.03832 6.52758 6.28771
#
# Compressibility (1/GPa) = 0.02988485
#
# Stress axis : x y z
#
# Youngs Moduli (GPa) = 106.93137 45.95421 79.19166
#
# Poissons Ratio (x) = 0.23305 0.20241
# Poissons Ratio (y) = 0.54229 -0.05541
# Poissons Ratio (z) = 0.27332 -0.03216
#
# Static dielectric constant tensor:
#      x y z
#    x 3.549010 0.000000 0.000000 
#    y 0.000000 3.209290 0.000000 
#    z 0.000000 0.000000 3.439720 
# 
# 
# High freq. dielectric constant tensor:
#      x y z
#    x 1.778640 0.000000 0.000000 
#    y 0.000000 1.744800 0.000000 
#    z 0.000000 0.000000 1.760330 
# 
# From -- ./inp_files/4361.got.cif
#   From: 2010.03.12/outbox.cif.g09.slc.cpg/sg40_3_cif.got.tgz:4361.got - 2010.04.14 01:38:03.
