data_PCOD8183786
_publ_section_title
;
Structure prediction by ZEFSAII (Michael W. Deem and Ramdas Pophale) SiO2 
 PCOD8183786
Probable space group: A M A 2
;
_chemical_formula_sum "Si O2"
_cell_formula_units_Z 64
_cell_length_a 15.874149
_cell_length_b 8.649016
_cell_length_c 23.763237
_cell_angle_alpha 90.000000
_cell_angle_beta 90.000000
_cell_angle_gamma 90.000000
_cell_volume 3262.591890
_symmetry_space_group_name_H-M "A M A 2"
_symmetry_group_IT_number 40
_symmetry_cell_setting 'orthorhombic'
loop_
_space_group_symop_operation_xyz
x,y,z
-x,-y,z
1/2-x,y,z
1/2+x,-y,z
x,1/2+y,1/2+z
-x,1/2-y,1/2+z
1/2-x,1/2+y,1/2+z
1/2+x,1/2-y,1/2+z
loop_
_atom_site_type_symbol
_atom_site_label
_atom_site_fract_x
_atom_site_fract_y
_atom_site_fract_z
Si Si1 0.599535 0.332722 0.324320
Si Si2 0.344007 0.315094 0.713195
Si Si3 0.844214 0.826147 0.212113
Si Si4 0.080029 0.107062 0.426724
Si Si5 0.000078 0.816664 0.139272
Si Si6 0.405459 0.315373 0.322655
Si Si7 0.489238 0.182351 0.012215
Si Si8 0.344443 0.303010 0.940948
O O1 0.654813 0.275409 0.272092
O O2 0.503319 0.305995 0.306459
O O3 0.619755 0.510396 0.338849
O O4 0.618314 0.235890 0.379851
O O5 0.250000 0.291654 0.687139
O O6 0.361828 0.494677 0.725282
O O7 0.415887 0.252375 0.670454
O O8 0.750000 0.802049 0.186920
O O9 0.914354 0.758709 0.169420
O O10 0.849535 0.734525 0.270160
O O11 0.115027 0.201690 0.373910
O O12 0.058704 0.229865 0.475253
O O13 0.152162 0.989437 0.447875
O O14 0.000000 0.000000 0.411011
O O15 0.999732 0.755047 0.075600
O O16 0.000000 0.000000 0.138251
O O17 0.396081 0.220559 0.990312
O O18 0.500000 0.000000 0.006767
O O19 0.250000 0.242717 0.946687
#
# Coordination Sequence:
#
# PCOD8183786 Si02
#       8
#     8   8   8   8   8   8   8   8
#     4  11  21  35  57  87 119 152 188 234 295 348
#     4  10  20  36  59  86 115 152 193 234 282 347
#     4  10  21  35  57  87 117 150 195 236 280 343
#     4  10  20  36  59  80 112 150 189 232 282 351
#     4   9  19  36  60  84 113 151 193 239 290 334
#     4  11  21  34  57  86 116 153 189 236 291 348
#     4  10  20  39  63  87 110 152 198 239 293 347
#     4  11  23  38  59  88 117 151 192 240 292 349
#
# _framework density 19.616305000000001
#
# number of rings (size 3 to 8) (size 9 to 14) (size 15 to 20)
#    0.000    1.750    3.750    1.875    0.000    3.000 
#    0.000    8.125    0.000    0.000    0.000    0.000 
#    0.000    0.000    0.000    0.000    0.000    0.000 
#
# Total GULP energy -396799.334731 kJ/mol
# GULP energy per Si atom -12399.979210 kJ/mol
# Density = 1.957166 g / cm^3
# Si number density = 19.616305 Si / 1000 Ang^3
#
#
#
# Elastic Constant Matrix: (Units=GPa)
#
#
# Indices 1 2 3 4 5 6 
#
# 1 107.6540 26.2666 40.5130 0.0000 0.0000 0.0000
# 2 26.2666 87.8041 37.8750 0.0000 0.0000 0.0000
# 3 40.5130 37.8750 127.9313 0.0000 0.0000 0.0000
# 4 0.0000 0.0000 0.0000 27.1782 0.0000 0.0000
# 5 0.0000 0.0000 0.0000 0.0000 14.1314 0.0000
# 6 0.0000 0.0000 0.0000 0.0000 0.0000 18.3020
#
#
#
# Elastic Compliance Matrix: (Units=1/GPa)
#
#
# Indices 1 2 3 4 5 6 
#
# 1 0.010850 -0.002022 -0.002837 0.000000 0.000000 0.000000
# 2 -0.002022 0.013433 -0.003337 0.000000 0.000000 0.000000
# 3 -0.002837 -0.003337 0.009703 0.000000 0.000000 0.000000
# 4 0.000000 0.000000 0.000000 0.036794 0.000000 0.000000
# 5 0.000000 0.000000 0.000000 0.000000 0.070764 0.000000
# 6 0.000000 0.000000 0.000000 0.000000 0.000000 0.054639
#
#
# Mechanical properties :
#
#
# Convention : Reuss Voigt Hill
#
# Bulk Modulus (GPa) = 56.83623 59.18871 58.01247
# Shear Modulus (GPa) = 22.88952 26.50464 24.69708
#
# Velocity S-wave (km/s) = 3.41964 3.67979 3.55210
# Velocity P-wave (km/s) = 6.68048 6.94933 6.81623
#
# Compressibility (1/GPa) = 0.01759441
#
# Stress axis : x y z
#
# Youngs Moduli (GPa) = 92.16481 74.44271 103.06000
#
# Poissons Ratio (x) = 0.15051 0.29242
# Poissons Ratio (y) = 0.18635 0.34388
# Poissons Ratio (z) = 0.26151 0.24839
#
# Static dielectric constant tensor:
#      x y z
#    x 3.638720 0.000000 0.000000 
#    y 0.000000 3.626460 0.000000 
#    z 0.000000 0.000000 3.531850 
# 
# 
# High freq. dielectric constant tensor:
#      x y z
#    x 1.760500 0.000000 0.000000 
#    y 0.000000 1.759960 0.000000 
#    z 0.000000 0.000000 1.752560 
# 
# From -- ./inp_files/24940.got.cif
#   From: 2010.03.12/outbox.cif.g09.slc.cpg/sg40_13_cif.got.tgz:24940.got - 2010.04.14 01:38:03.
