data_PCOD8183047
_publ_section_title
;
Structure prediction by ZEFSAII (Michael W. Deem and Ramdas Pophale) SiO2 
 PCOD8183047
Probable space group: A M A 2
;
_chemical_formula_sum "Si O2"
_cell_formula_units_Z 48
_cell_length_a 8.969145
_cell_length_b 28.109725
_cell_length_c 10.377424
_cell_angle_alpha 90.000000
_cell_angle_beta 90.000000
_cell_angle_gamma 90.000000
_cell_volume 2616.358209
_symmetry_space_group_name_H-M "A M A 2"
_symmetry_group_IT_number 40
_symmetry_cell_setting 'orthorhombic'
loop_
_space_group_symop_operation_xyz
x,y,z
-x,-y,z
1/2-x,y,z
1/2+x,-y,z
x,1/2+y,1/2+z
-x,1/2-y,1/2+z
1/2-x,1/2+y,1/2+z
1/2+x,1/2-y,1/2+z
loop_
_atom_site_type_symbol
_atom_site_label
_atom_site_fract_x
_atom_site_fract_y
_atom_site_fract_z
Si Si1 0.077027 0.147116 0.448920
Si Si2 0.077038 0.852265 0.961335
Si Si3 0.073682 0.309067 0.194318
Si Si4 0.573367 0.799142 0.195270
Si Si5 0.924294 0.452916 0.835626
Si Si6 0.576045 0.546955 0.563574
O O1 0.250000 0.158770 0.468778
O O2 0.014769 0.175649 0.325173
O O3 0.048830 0.090980 0.431106
O O4 0.989571 0.162800 0.574004
O O5 0.250000 0.839549 0.979027
O O6 0.016429 0.834532 0.823999
O O7 0.049545 0.908872 0.968249
O O8 0.989123 0.825542 0.071936
O O9 0.250000 0.310820 0.185706
O O10 0.015609 0.254964 0.194857
O O11 0.750000 0.802441 0.188998
O O12 0.750000 0.461938 0.812484
O O13 0.000000 0.500000 0.896957
O O14 0.999848 0.441131 0.699455
O O15 0.500000 0.500000 0.501799
O O16 0.750000 0.537260 0.586470
#
# Coordination Sequence:
#
# PCOD8183047 Si02
#       6
#     8   8   8   8   8   8
#     4  10  21  37  56  80 111 144 179 221 270 320
#     4  10  21  37  56  80 110 143 180 222 270 321
#     4  10  22  37  54  78 111 147 181 220 268 320
#     4  10  20  36  57  80 107 142 183 226 268 314
#     4  10  19  33  55  81 108 138 175 222 270 316
#     4  10  19  32  54  81 107 138 176 221 270 317
#
# _framework density 18.346112000000002
#
# number of rings (size 3 to 8) (size 9 to 14) (size 15 to 20)
#    0.000    2.000    1.667    3.000    0.000    5.333 
#    0.000    0.833    0.000    4.000    0.000    0.000 
#    0.000    0.000    0.000    0.000    0.000    0.000 
#
# Total GULP energy -297637.276769 kJ/mol
# GULP energy per Si atom -12401.553199 kJ/mol
# Density = 1.830436 g / cm^3
# Si number density = 18.346112 Si / 1000 Ang^3
#
#
#
# Elastic Constant Matrix: (Units=GPa)
#
#
# Indices 1 2 3 4 5 6 
#
# 1 60.8433 46.2585 34.8786 0.0000 0.0000 0.0000
# 2 46.2585 146.1466 69.7713 0.0000 0.0000 0.0000
# 3 34.8786 69.7713 129.6847 0.0000 0.0000 0.0000
# 4 0.0000 0.0000 0.0000 13.7158 0.0000 0.0000
# 5 0.0000 0.0000 0.0000 0.0000 28.7037 0.0000
# 6 0.0000 0.0000 0.0000 0.0000 0.0000 11.4842
#
#
#
# Elastic Compliance Matrix: (Units=1/GPa)
#
#
# Indices 1 2 3 4 5 6 
#
# 1 0.022470 -0.005688 -0.002983 0.000000 0.000000 0.000000
# 2 -0.005688 0.010647 -0.004198 0.000000 0.000000 0.000000
# 3 -0.002983 -0.004198 0.010772 0.000000 0.000000 0.000000
# 4 0.000000 0.000000 0.000000 0.072909 0.000000 0.000000
# 5 0.000000 0.000000 0.000000 0.000000 0.034839 0.000000
# 6 0.000000 0.000000 0.000000 0.000000 0.000000 0.087076
#
#
# Mechanical properties :
#
#
# Convention : Reuss Voigt Hill
#
# Bulk Modulus (GPa) = 55.09571 70.94349 63.01960
# Shear Modulus (GPa) = 18.48409 23.16515 20.82462
#
# Velocity S-wave (km/s) = 3.17759 3.55727 3.37278
# Velocity P-wave (km/s) = 6.59994 7.45826 7.04219
#
# Compressibility (1/GPa) = 0.01815023
#
# Stress axis : x y z
#
# Youngs Moduli (GPa) = 44.50298 93.92094 92.83233
#
# Poissons Ratio (x) = 0.53424 0.27693
# Poissons Ratio (y) = 0.25314 0.38975
# Poissons Ratio (z) = 0.13276 0.39432
#
# Static dielectric constant tensor:
#      x y z
#    x 3.339900 0.000000 0.000000 
#    y 0.000000 3.963470 0.000000 
#    z 0.000000 0.000000 3.277120 
# 
# 
# High freq. dielectric constant tensor:
#      x y z
#    x 1.710060 0.000000 0.000000 
#    y 0.000000 1.731270 0.000000 
#    z 0.000000 0.000000 1.694130 
# 
# From -- ./inp_files/4600.got.cif
#   From: 2010.03.12/outbox.cif.g09.slc.cpg/sg40_3_cif.got.tgz:4600.got - 2010.04.14 01:38:03.
