data_PCOD8183207
_publ_section_title
;
Structure prediction by ZEFSAII (Michael W. Deem and Ramdas Pophale) SiO2 
 PCOD8183207
Probable space group: A M A 2
;
_chemical_formula_sum "Si O2"
_cell_formula_units_Z 64
_cell_length_a 8.892537
_cell_length_b 20.602233
_cell_length_c 19.499085
_cell_angle_alpha 90.000000
_cell_angle_beta 90.000000
_cell_angle_gamma 90.000000
_cell_volume 3572.351691
_symmetry_space_group_name_H-M "A M A 2"
_symmetry_group_IT_number 40
_symmetry_cell_setting 'orthorhombic'
loop_
_space_group_symop_operation_xyz
x,y,z
-x,-y,z
1/2-x,y,z
1/2+x,-y,z
x,1/2+y,1/2+z
-x,1/2-y,1/2+z
1/2-x,1/2+y,1/2+z
1/2+x,1/2-y,1/2+z
loop_
_atom_site_type_symbol
_atom_site_label
_atom_site_fract_x
_atom_site_fract_y
_atom_site_fract_z
Si Si1 0.076815 0.734002 0.082900
Si Si2 0.070773 0.932657 0.931172
Si Si3 0.073655 0.768171 0.719553
Si Si4 0.072779 0.565757 0.857068
Si Si5 0.425357 0.194523 0.433359
Si Si6 0.073933 0.618173 0.713881
Si Si7 0.424958 0.882772 0.076718
Si Si8 0.928306 0.312603 0.354844
O O1 0.250000 0.729810 0.105643
O O2 0.030810 0.807797 0.065855
O O3 0.975079 0.705886 0.144470
O O4 0.045817 0.692436 0.014728
O O5 0.250000 0.933452 0.924155
O O6 0.005681 0.876427 0.884130
O O7 0.019414 0.921215 0.009844
O O8 0.000000 0.000000 0.905720
O O9 0.250000 0.779273 0.730868
O O10 0.027384 0.692835 0.725073
O O11 0.981259 0.806935 0.776437
O O12 0.250000 0.558190 0.859066
O O13 0.021557 0.625188 0.904895
O O14 0.015212 0.578405 0.779536
O O15 0.000000 0.500000 0.885651
O O16 0.250000 0.208275 0.416379
O O17 0.521906 0.250173 0.397942
O O18 0.250000 0.612061 0.705785
O O19 0.002380 0.588709 0.644909
O O20 0.250000 0.891691 0.087397
O O21 0.750000 0.319751 0.358438
#
# Coordination Sequence:
#
# PCOD8183207 Si02
#       8
#     8   8   8   8   8   8   8   8
#     4   9  17  32  55  82 108 139 180 226 277 332
#     4  11  23  40  57  79 112 151 188 230 281 333
#     4  10  19  34  55  80 112 144 177 227 281 329
#     4  10  21  36  53  76 108 148 186 223 273 323
#     4  10  19  37  59  79 110 148 183 227 283 331
#     4   9  18  32  51  74 107 147 185 222 267 324
#     4   9  18  32  52  76 107 144 180 221 268 320
#     4  12  23  35  57  86 111 143 188 233 275 331
#
# _framework density 17.915368999999998
#
# number of rings (size 3 to 8) (size 9 to 14) (size 15 to 20)
#    0.000    2.000    2.500    1.875    0.000    3.500 
#    0.000    2.500    0.000    0.750    0.000    3.500 
#    0.000    0.000    0.000    0.000    0.000    0.000 
#
# Total GULP energy -396861.520224 kJ/mol
# GULP energy per Si atom -12401.922507 kJ/mol
# Density = 1.787459 g / cm^3
# Si number density = 17.915369 Si / 1000 Ang^3
#
#
#
# Elastic Constant Matrix: (Units=GPa)
#
#
# Indices 1 2 3 4 5 6 
#
# 1 67.1336 40.7423 42.9060 0.0000 0.0000 0.0000
# 2 40.7423 108.7634 55.2856 0.0000 0.0000 0.0000
# 3 42.9060 55.2856 104.6417 0.0000 0.0000 0.0000
# 4 0.0000 0.0000 0.0000 20.6614 0.0000 0.0000
# 5 0.0000 0.0000 0.0000 0.0000 30.0209 0.0000
# 6 0.0000 0.0000 0.0000 0.0000 0.0000 26.7905
#
#
#
# Elastic Compliance Matrix: (Units=1/GPa)
#
#
# Indices 1 2 3 4 5 6 
#
# 1 0.022010 -0.005000 -0.006383 0.000000 0.000000 0.000000
# 2 -0.005000 0.013706 -0.005191 0.000000 0.000000 0.000000
# 3 -0.006383 -0.005191 0.014916 0.000000 0.000000 0.000000
# 4 0.000000 0.000000 0.000000 0.048399 0.000000 0.000000
# 5 0.000000 0.000000 0.000000 0.000000 0.033310 0.000000
# 6 0.000000 0.000000 0.000000 0.000000 0.000000 0.037327
#
#
# Mechanical properties :
#
#
# Convention : Reuss Voigt Hill
#
# Bulk Modulus (GPa) = 57.19665 62.04519 59.62092
# Shear Modulus (GPa) = 23.96427 24.93488 24.44958
#
# Velocity S-wave (km/s) = 3.66134 3.73475 3.69823
# Velocity P-wave (km/s) = 7.06181 7.30105 7.18243
#
# Compressibility (1/GPa) = 0.01748354
#
# Stress axis : x y z
#
# Youngs Moduli (GPa) = 45.43482 72.96054 67.04148
#
# Poissons Ratio (x) = 0.36482 0.42791
# Poissons Ratio (y) = 0.22719 0.34802
# Poissons Ratio (z) = 0.29000 0.37875
#
# Static dielectric constant tensor:
#      x y z
#    x 3.252820 0.000000 0.000000 
#    y 0.000000 3.180400 0.000000 
#    z 0.000000 0.000000 3.502200 
# 
# 
# High freq. dielectric constant tensor:
#      x y z
#    x 1.691760 0.000000 0.000000 
#    y 0.000000 1.669220 0.000000 
#    z 0.000000 0.000000 1.699130 
# 
# From -- ./inp_files/19598.got.cif
#   From: 2010.03.12/outbox.cif.g09.slc.cpg/sg40_10_cif.got.tgz:19598.got - 2010.04.14 01:38:03.
