data_PCOD8183921
_publ_section_title
;
Structure prediction by ZEFSAII (Michael W. Deem and Ramdas Pophale) SiO2 
 PCOD8183921
Probable space group: A M A 2
;
_chemical_formula_sum "Si O2"
_cell_formula_units_Z 60
_cell_length_a 9.538305
_cell_length_b 30.229210
_cell_length_c 10.872430
_cell_angle_alpha 90.000000
_cell_angle_beta 90.000000
_cell_angle_gamma 90.000000
_cell_volume 3134.906724
_symmetry_space_group_name_H-M "A M A 2"
_symmetry_group_IT_number 40
_symmetry_cell_setting 'orthorhombic'
loop_
_space_group_symop_operation_xyz
x,y,z
-x,-y,z
1/2-x,y,z
1/2+x,-y,z
x,1/2+y,1/2+z
-x,1/2-y,1/2+z
1/2-x,1/2+y,1/2+z
1/2+x,1/2-y,1/2+z
loop_
_atom_site_type_symbol
_atom_site_label
_atom_site_fract_x
_atom_site_fract_y
_atom_site_fract_z
Si Si1 0.000000 0.500000 0.786990
Si Si2 0.407581 0.084157 0.163678
Si Si3 0.090206 0.112689 0.641300
Si Si4 0.091610 0.460911 0.025185
Si Si5 0.587342 0.370975 0.414283
Si Si6 0.090631 0.196485 0.488470
Si Si7 0.089645 0.844316 0.278094
Si Si8 0.908328 0.203287 0.023268
O O1 0.914466 0.467788 0.695862
O O2 0.901940 0.529614 0.877714
O O3 0.250000 0.101254 0.187093
O O4 0.510681 0.109670 0.255105
O O5 0.449460 0.093446 0.021299
O O6 0.250000 0.095842 0.620037
O O7 0.045140 0.107449 0.783780
O O8 0.077674 0.164310 0.606066
O O9 0.985562 0.085129 0.554436
O O10 0.250000 0.459958 0.077161
O O11 0.000000 0.500000 0.090273
O O12 0.750000 0.358350 0.413497
O O13 0.505512 0.325119 0.432985
O O14 0.250000 0.195312 0.437049
O O15 0.045985 0.245707 0.526627
O O16 0.981690 0.181540 0.387366
O O17 0.250000 0.855202 0.311991
O O18 0.075858 0.813177 0.161205
O O19 0.750000 0.197557 0.975437
#
# Coordination Sequence:
#
# PCOD8183921 Si02
#       8
#     4   8   8   8   8   8   8   8
#     4  10  22  34  60  84 116 140 186 230 280 334
#     4  10  20  38  60  83 113 149 186 229 282 337
#     4  10  21  38  59  83 115 153 190 230 280 336
#     4  10  22  38  59  84 113 146 184 232 283 336
#     4   9  20  38  61  83 112 153 193 229 277 337
#     4  10  21  35  55  81 113 153 189 229 284 336
#     4  10  21  36  56  83 114 143 187 239 281 330
#     4   9  20  37  55  80 114 150 188 235 285 329
#
# _framework density 19.139326000000001
#
# number of rings (size 3 to 8) (size 9 to 14) (size 15 to 20)
#    0.400    1.867    0.000    2.000    1.867    5.333 
#    1.200    0.000    0.000    0.000    0.000    0.000 
#    0.000    0.000    0.000    0.000    0.000    0.000 
#
# Total GULP energy -371916.148732 kJ/mol
# GULP energy per Si atom -12397.204958 kJ/mol
# Density = 1.909576 g / cm^3
# Si number density = 19.139326 Si / 1000 Ang^3
#
#
#
# Elastic Constant Matrix: (Units=GPa)
#
#
# Indices 1 2 3 4 5 6 
#
# 1 105.5850 51.2278 42.4432 0.0000 0.0000 0.0000
# 2 51.2278 123.8078 50.9450 0.0000 0.0000 0.0000
# 3 42.4432 50.9450 75.4795 0.0000 0.0000 0.0000
# 4 0.0000 0.0000 0.0000 22.1426 0.0000 0.0000
# 5 0.0000 0.0000 0.0000 0.0000 24.1071 0.0000
# 6 0.0000 0.0000 0.0000 0.0000 0.0000 32.3350
#
#
#
# Elastic Compliance Matrix: (Units=1/GPa)
#
#
# Indices 1 2 3 4 5 6 
#
# 1 0.013155 -0.003322 -0.005155 0.000000 0.000000 0.000000
# 2 -0.003322 0.012022 -0.006246 0.000000 0.000000 0.000000
# 3 -0.005155 -0.006246 0.020363 0.000000 0.000000 0.000000
# 4 0.000000 0.000000 0.000000 0.045162 0.000000 0.000000
# 5 0.000000 0.000000 0.000000 0.000000 0.041481 0.000000
# 6 0.000000 0.000000 0.000000 0.000000 0.000000 0.030926
#
#
# Mechanical properties :
#
#
# Convention : Reuss Voigt Hill
#
# Bulk Modulus (GPa) = 62.13614 66.01159 64.07386
# Shear Modulus (GPa) = 25.26268 26.40071 25.83170
#
# Velocity S-wave (km/s) = 3.63703 3.71805 3.67777
# Velocity P-wave (km/s) = 7.08329 7.27989 7.18226
#
# Compressibility (1/GPa) = 0.01609369
#
# Stress axis : x y z
#
# Youngs Moduli (GPa) = 76.01656 83.18289 49.10800
#
# Poissons Ratio (x) = 0.27632 0.25316
# Poissons Ratio (y) = 0.25252 0.30673
# Poissons Ratio (z) = 0.39188 0.51957
#
# Static dielectric constant tensor:
#      x y z
#    x 3.519090 0.000000 0.000000 
#    y 0.000000 3.504550 0.000000 
#    z 0.000000 0.000000 3.418420 
# 
# 
# High freq. dielectric constant tensor:
#      x y z
#    x 1.744330 0.000000 0.000000 
#    y 0.000000 1.743630 0.000000 
#    z 0.000000 0.000000 1.732150 
# 
# From -- ./inp_files/10528.got.cif
#   From: 2010.03.12/outbox.cif.g09.slc.cpg/sg40_6_cif.got.tgz:10528.got - 2010.04.14 01:38:03.
