data_PCOD8183675
_publ_section_title
;
Structure prediction by ZEFSAII (Michael W. Deem and Ramdas Pophale) SiO2 
 PCOD8183675
Probable space group: A M A 2
;
_chemical_formula_sum "Si O2"
_cell_formula_units_Z 64
_cell_length_a 8.884389
_cell_length_b 24.738726
_cell_length_c 15.112669
_cell_angle_alpha 90.000000
_cell_angle_beta 90.000000
_cell_angle_gamma 90.000000
_cell_volume 3321.590324
_symmetry_space_group_name_H-M "A M A 2"
_symmetry_group_IT_number 40
_symmetry_cell_setting 'orthorhombic'
loop_
_space_group_symop_operation_xyz
x,y,z
-x,-y,z
1/2-x,y,z
1/2+x,-y,z
x,1/2+y,1/2+z
-x,1/2-y,1/2+z
1/2-x,1/2+y,1/2+z
1/2+x,1/2-y,1/2+z
loop_
_atom_site_type_symbol
_atom_site_label
_atom_site_fract_x
_atom_site_fract_y
_atom_site_fract_z
Si Si1 0.071535 0.942673 0.533440
Si Si2 0.928866 0.556962 0.399421
Si Si3 0.572393 0.354038 0.521890
Si Si4 0.420092 0.214424 0.683225
Si Si5 0.076486 0.852765 0.395623
Si Si6 0.072906 0.893258 0.716413
Si Si7 0.077467 0.742764 0.984586
Si Si8 0.576654 0.664796 0.701012
O O1 0.250000 0.948823 0.535914
O O2 0.019230 0.902271 0.455516
O O3 0.007587 0.920652 0.627194
O O4 0.000000 0.000000 0.511588
O O5 0.750000 0.553849 0.405339
O O6 0.983891 0.573301 0.301033
O O7 0.000000 0.500000 0.424389
O O8 0.988576 0.599294 0.469855
O O9 0.750000 0.360273 0.511585
O O10 0.521295 0.296831 0.481946
O O11 0.527631 0.360242 0.625077
O O12 0.250000 0.201445 0.710908
O O13 0.522100 0.168626 0.727060
O O14 0.440832 0.212859 0.577928
O O15 0.469838 0.272952 0.719389
O O16 0.250000 0.839713 0.417505
O O17 0.055930 0.868408 0.292122
O O18 0.980956 0.798836 0.411661
O O19 0.250000 0.892876 0.711188
O O20 0.250000 0.758526 0.965490
O O21 0.750000 0.663788 0.667507
#
# Coordination Sequence:
#
# PCOD8183675 Si02
#       8
#     8   8   8   8   8   8   8   8
#     4  10  21  37  57  83 116 155 196 236 284 342
#     4  11  24  42  62  87 117 154 199 253 302 355
#     4  11  23  40  62  86 115 156 199 247 301 356
#     4   9  18  32  52  81 117 153 191 232 284 344
#     4  10  20  36  59  86 119 157 197 242 295 352
#     4  10  21  36  56  84 119 154 191 238 290 347
#     4  10  20  35  56  86 120 155 193 240 292 349
#     4   9  20  38  58  85 120 156 194 244 298 350
#
# _framework density 19.267878
#
# number of rings (size 3 to 8) (size 9 to 14) (size 15 to 20)
#    0.000    2.000    1.250    3.000    1.750    4.500 
#    0.000    0.625    0.000    1.500    0.000    0.000 
#    0.000    0.000    0.000    0.000    0.000    0.000 
#
# Total GULP energy -396877.115824 kJ/mol
# GULP energy per Si atom -12402.409870 kJ/mol
# Density = 1.922402 g / cm^3
# Si number density = 19.267878 Si / 1000 Ang^3
#
#
#
# Elastic Constant Matrix: (Units=GPa)
#
#
# Indices 1 2 3 4 5 6 
#
# 1 49.1256 31.6998 31.2561 0.0000 0.0000 0.0000
# 2 31.6998 114.8503 63.2979 0.0000 0.0000 0.0000
# 3 31.2561 63.2979 103.5907 0.0000 0.0000 0.0000
# 4 0.0000 0.0000 0.0000 23.6056 0.0000 0.0000
# 5 0.0000 0.0000 0.0000 0.0000 21.3660 0.0000
# 6 0.0000 0.0000 0.0000 0.0000 0.0000 35.9742
#
#
#
# Elastic Compliance Matrix: (Units=1/GPa)
#
#
# Indices 1 2 3 4 5 6 
#
# 1 0.026589 -0.004398 -0.005335 0.000000 0.000000 0.000000
# 2 -0.004398 0.013856 -0.007139 0.000000 0.000000 0.000000
# 3 -0.005335 -0.007139 0.015625 0.000000 0.000000 0.000000
# 4 0.000000 0.000000 0.000000 0.042363 0.000000 0.000000
# 5 0.000000 0.000000 0.000000 0.000000 0.046803 0.000000
# 6 0.000000 0.000000 0.000000 0.000000 0.000000 0.027798
#
#
# Mechanical properties :
#
#
# Convention : Reuss Voigt Hill
#
# Bulk Modulus (GPa) = 44.79379 57.78601 51.28990
# Shear Modulus (GPa) = 23.34051 25.61003 24.47527
#
# Velocity S-wave (km/s) = 3.48425 3.64972 3.56794
# Velocity P-wave (km/s) = 6.28371 6.91495 6.60687
#
# Compressibility (1/GPa) = 0.02232452
#
# Stress axis : x y z
#
# Youngs Moduli (GPa) = 37.61021 72.17265 63.99849
#
# Poissons Ratio (x) = 0.31745 0.34142
# Poissons Ratio (y) = 0.16543 0.45690
# Poissons Ratio (z) = 0.20064 0.51526
#
# Static dielectric constant tensor:
#      x y z
#    x 3.439790 0.000000 0.000000 
#    y 0.000000 3.403600 0.000000 
#    z 0.000000 0.000000 3.646710 
# 
# 
# High freq. dielectric constant tensor:
#      x y z
#    x 1.744400 0.000000 0.000000 
#    y 0.000000 1.740020 0.000000 
#    z 0.000000 0.000000 1.753000 
# 
# From -- ./inp_files/15549.got.cif
#   From: 2010.03.12/outbox.cif.g09.slc.cpg/sg40_8_cif.got.tgz:15549.got - 2010.04.14 01:38:03.
