data_PCOD8183315
_publ_section_title
;
Structure prediction by ZEFSAII (Michael W. Deem and Ramdas Pophale) SiO2 
 PCOD8183315
Probable space group: A M A 2
;
_chemical_formula_sum "Si O2"
_cell_formula_units_Z 48
_cell_length_a 8.821809
_cell_length_b 20.405731
_cell_length_c 14.463592
_cell_angle_alpha 90.000000
_cell_angle_beta 90.000000
_cell_angle_gamma 90.000000
_cell_volume 2603.670187
_symmetry_space_group_name_H-M "A M A 2"
_symmetry_group_IT_number 40
_symmetry_cell_setting 'orthorhombic'
loop_
_space_group_symop_operation_xyz
x,y,z
-x,-y,z
1/2-x,y,z
1/2+x,-y,z
x,1/2+y,1/2+z
-x,1/2-y,1/2+z
1/2-x,1/2+y,1/2+z
1/2+x,1/2-y,1/2+z
loop_
_atom_site_type_symbol
_atom_site_label
_atom_site_fract_x
_atom_site_fract_y
_atom_site_fract_z
Si Si1 0.928089 0.195070 0.085000
Si Si2 0.072180 0.933422 0.196154
Si Si3 0.428507 0.568579 0.077545
Si Si4 0.428303 0.767515 0.884121
Si Si5 0.429653 0.120331 0.378427
Si Si6 0.071205 0.815353 0.688789
O O1 0.750000 0.211145 0.096343
O O2 0.970605 0.124395 0.125482
O O3 0.024423 0.249004 0.138040
O O4 0.979012 0.195872 0.977715
O O5 0.250000 0.942627 0.204781
O O6 0.006958 0.920052 0.297330
O O7 0.000000 0.000000 0.156243
O O8 0.500000 0.500000 0.107037
O O9 0.250000 0.563820 0.085837
O O10 0.485098 0.622892 0.148454
O O11 0.479103 0.587030 0.974200
O O12 0.250000 0.758614 0.883336
O O13 0.496502 0.694141 0.879105
O O14 0.480239 0.809735 0.795939
O O15 0.250000 0.118769 0.364263
O O16 0.250000 0.825367 0.678279
#
# Coordination Sequence:
#
# PCOD8183315 Si02
#       6
#     8   8   8   8   8   8
#     4  10  20  38  59  81 111 150 190 231 278 329
#     4  11  23  36  56  83 116 151 188 233 280 335
#     4  11  23  39  58  82 116 153 189 230 280 335
#     4   9  18  35  58  84 113 146 182 227 281 331
#     4  10  19  35  59  84 115 149 182 228 282 337
#     4  11  21  35  59  86 113 147 187 231 278 334
#
# _framework density 18.435514000000001
#
# number of rings (size 3 to 8) (size 9 to 14) (size 15 to 20)
#    0.000    1.667    3.333    2.000    0.000    3.333 
#    0.000    2.500    0.000    2.000    0.000    0.000 
#    0.000    0.000    0.000    0.000    0.000    0.000 
#
# Total GULP energy -297664.111485 kJ/mol
# GULP energy per Si atom -12402.671312 kJ/mol
# Density = 1.839355 g / cm^3
# Si number density = 18.435514 Si / 1000 Ang^3
#
#
#
# Elastic Constant Matrix: (Units=GPa)
#
#
# Indices 1 2 3 4 5 6 
#
# 1 43.7222 34.5350 33.2411 0.0000 0.0000 0.0000
# 2 34.5350 139.1386 59.8157 0.0000 0.0000 0.0000
# 3 33.2411 59.8157 131.8749 0.0000 0.0000 0.0000
# 4 0.0000 0.0000 0.0000 54.0973 0.0000 0.0000
# 5 0.0000 0.0000 0.0000 0.0000 18.1979 0.0000
# 6 0.0000 0.0000 0.0000 0.0000 0.0000 32.6690
#
#
#
# Elastic Compliance Matrix: (Units=1/GPa)
#
#
# Indices 1 2 3 4 5 6 
#
# 1 0.031286 -0.005435 -0.005421 0.000000 0.000000 0.000000
# 2 -0.005435 0.009872 -0.003108 0.000000 0.000000 0.000000
# 3 -0.005421 -0.003108 0.010359 0.000000 0.000000 0.000000
# 4 0.000000 0.000000 0.000000 0.018485 0.000000 0.000000
# 5 0.000000 0.000000 0.000000 0.000000 0.054952 0.000000
# 6 0.000000 0.000000 0.000000 0.000000 0.000000 0.030610
#
#
# Mechanical properties :
#
#
# Convention : Reuss Voigt Hill
#
# Bulk Modulus (GPa) = 42.39125 63.32434 52.85779
# Shear Modulus (GPa) = 26.12950 33.46909 29.79930
#
# Velocity S-wave (km/s) = 3.76885 4.26545 4.02482
# Velocity P-wave (km/s) = 6.47945 7.66045 7.09456
#
# Compressibility (1/GPa) = 0.02358977
#
# Stress axis : x y z
#
# Youngs Moduli (GPa) = 31.96318 101.29555 96.53416
#
# Poissons Ratio (x) = 0.55053 0.52331
# Poissons Ratio (y) = 0.17372 0.30001
# Poissons Ratio (z) = 0.17327 0.31481
#
# Static dielectric constant tensor:
#      x y z
#    x 3.266510 0.000000 0.000000 
#    y 0.000000 3.415980 0.000000 
#    z 0.000000 0.000000 3.734150 
# 
# 
# High freq. dielectric constant tensor:
#      x y z
#    x 1.705540 0.000000 0.000000 
#    y 0.000000 1.718880 0.000000 
#    z 0.000000 0.000000 1.718130 
# 
# From -- ./inp_files/15023.got.cif
#   From: 2010.03.12/outbox.cif.g09.slc.cpg/sg40_8_cif.got.tgz:15023.got - 2010.04.14 01:38:03.
