data_PCOD8183766
_publ_section_title
;
Structure prediction by ZEFSAII (Michael W. Deem and Ramdas Pophale) SiO2 
 PCOD8183766
Probable space group: A M A 2
;
_chemical_formula_sum "Si O2"
_cell_formula_units_Z 40
_cell_length_a 9.096685
_cell_length_b 28.330606
_cell_length_c 7.730895
_cell_angle_alpha 90.000000
_cell_angle_beta 90.000000
_cell_angle_gamma 90.000000
_cell_volume 1992.364502
_symmetry_space_group_name_H-M "A M A 2"
_symmetry_group_IT_number 40
_symmetry_cell_setting 'orthorhombic'
loop_
_space_group_symop_operation_xyz
x,y,z
-x,-y,z
1/2-x,y,z
1/2+x,-y,z
x,1/2+y,1/2+z
-x,1/2-y,1/2+z
1/2-x,1/2+y,1/2+z
1/2+x,1/2-y,1/2+z
loop_
_atom_site_type_symbol
_atom_site_label
_atom_site_fract_x
_atom_site_fract_y
_atom_site_fract_z
Si Si1 0.576119 0.549572 0.838560
Si Si2 0.418929 0.199822 0.175249
Si Si3 0.580171 0.399770 0.523843
Si Si4 0.919294 0.703404 0.021979
Si Si5 0.918224 0.106291 0.681497
O O1 0.500000 0.500000 0.872396
O O2 0.750000 0.543375 0.815889
O O3 0.512407 0.572557 0.665770
O O4 0.536169 0.582039 0.001993
O O5 0.250000 0.208779 0.221320
O O6 0.439840 0.156415 0.044825
O O7 0.499831 0.186773 0.350527
O O8 0.486684 0.247439 0.092068
O O9 0.750000 0.414946 0.538923
O O10 0.520631 0.413433 0.334336
O O11 0.750000 0.710172 0.972364
O O12 0.940734 0.662637 0.164268
O O13 0.750000 0.094415 0.728261
#
# Coordination Sequence:
#
# PCOD8183766 Si02
#       5
#     8   8   8   8   8
#     4  11  24  44  68  93 122 162 208 261 315 370
#     4  10  21  35  55  87 124 162 207 254 305 362
#     4  11  23  39  62  93 128 165 205 256 311 370
#     4  10  20  36  57  85 122 165 209 253 305 364
#     4  10  22  40  63  90 123 165 210 256 309 370
#
# _framework density 20.076649
#
# number of rings (size 3 to 8) (size 9 to 14) (size 15 to 20)
#    0.000    1.600    2.000    2.400    0.000    4.800 
#    0.000    2.000    0.000    0.000    0.000    0.000 
#    0.000    0.000    0.000    0.000    0.000    0.000 
#
# Total GULP energy -248082.028946 kJ/mol
# GULP energy per Si atom -12404.101447 kJ/mol
# Density = 2.003095 g / cm^3
# Si number density = 20.076649 Si / 1000 Ang^3
#
#
#
# Elastic Constant Matrix: (Units=GPa)
#
#
# Indices 1 2 3 4 5 6 
#
# 1 89.6678 35.9264 57.6246 0.0000 0.0000 0.0000
# 2 35.9264 92.0986 19.8095 0.0000 0.0000 0.0000
# 3 57.6246 19.8095 118.6015 0.0000 0.0000 0.0000
# 4 0.0000 0.0000 0.0000 25.7771 0.0000 0.0000
# 5 0.0000 0.0000 0.0000 0.0000 37.0822 0.0000
# 6 0.0000 0.0000 0.0000 0.0000 0.0000 29.1999
#
#
#
# Elastic Compliance Matrix: (Units=1/GPa)
#
#
# Indices 1 2 3 4 5 6 
#
# 1 0.018560 -0.005498 -0.008099 0.000000 0.000000 0.000000
# 2 -0.005498 0.012891 0.000518 0.000000 0.000000 0.000000
# 3 -0.008099 0.000518 0.012280 0.000000 0.000000 0.000000
# 4 0.000000 0.000000 0.000000 0.038794 0.000000 0.000000
# 5 0.000000 0.000000 0.000000 0.000000 0.026967 0.000000
# 6 0.000000 0.000000 0.000000 0.000000 0.000000 0.034247
#
#
# Mechanical properties :
#
#
# Convention : Reuss Voigt Hill
#
# Bulk Modulus (GPa) = 56.90534 58.56542 57.73538
# Shear Modulus (GPa) = 28.44855 30.87900 29.66378
#
# Velocity S-wave (km/s) = 3.76839 3.92606 3.84803
# Velocity P-wave (km/s) = 6.88040 7.05593 6.96872
#
# Compressibility (1/GPa) = 0.01757304
#
# Stress axis : x y z
#
# Youngs Moduli (GPa) = 53.87882 77.57258 81.43105
#
# Poissons Ratio (x) = 0.42649 0.65955
# Poissons Ratio (y) = 0.29622 -0.04219
# Poissons Ratio (z) = 0.43639 -0.04019
#
# Static dielectric constant tensor:
#      x y z
#    x 3.614130 0.000000 0.000000 
#    y 0.000000 3.827370 0.000000 
#    z 0.000000 0.000000 3.501380 
# 
# 
# High freq. dielectric constant tensor:
#      x y z
#    x 1.781800 0.000000 0.000000 
#    y 0.000000 1.788450 0.000000 
#    z 0.000000 0.000000 1.785270 
# 
# From -- ./inp_files/4235.got.cif
#   From: 2010.03.12/outbox.cif.g09.slc.cpg/sg40_3_cif.got.tgz:4235.got - 2010.04.14 01:38:03.
