data_PCOD8183198
_publ_section_title
;
Structure prediction by ZEFSAII (Michael W. Deem and Ramdas Pophale) SiO2 
 PCOD8183198
Probable space group: A M A 2
;
_chemical_formula_sum "Si O2"
_cell_formula_units_Z 44
_cell_length_a 10.802182
_cell_length_b 24.669094
_cell_length_c 8.281838
_cell_angle_alpha 90.000000
_cell_angle_beta 90.000000
_cell_angle_gamma 90.000000
_cell_volume 2206.944548
_symmetry_space_group_name_H-M "A M A 2"
_symmetry_group_IT_number 40
_symmetry_cell_setting 'orthorhombic'
loop_
_space_group_symop_operation_xyz
x,y,z
-x,-y,z
1/2-x,y,z
1/2+x,-y,z
x,1/2+y,1/2+z
-x,1/2-y,1/2+z
1/2-x,1/2+y,1/2+z
1/2+x,1/2-y,1/2+z
loop_
_atom_site_type_symbol
_atom_site_label
_atom_site_fract_x
_atom_site_fract_y
_atom_site_fract_z
Si Si1 0.962780 0.818940 0.682000
Si Si2 0.885506 0.727463 0.455932
Si Si3 0.000000 0.500000 0.156838
Si Si4 0.386330 0.584265 0.382306
Si Si5 0.104857 0.384745 0.613893
Si Si6 0.892862 0.098340 0.473307
O O1 0.891038 0.784550 0.548401
O O2 0.875569 0.860138 0.779620
O O3 0.021254 0.775847 0.806530
O O4 0.065439 0.854648 0.593389
O O5 0.750000 0.722416 0.379246
O O6 0.908484 0.679051 0.582315
O O7 0.097432 0.533284 0.264159
O O8 0.077240 0.460450 0.042331
O O9 0.250000 0.578130 0.467936
O O10 0.506966 0.584038 0.498455
O O11 0.250000 0.403447 0.585439
O O12 0.053040 0.396123 0.792810
O O13 0.750000 0.106721 0.453759
#
# Coordination Sequence:
#
# PCOD8183198 Si02
#       6
#     8   8   4   8   8   8
#     4  10  20  34  55  82 111 144 182 224 271 323
#     4  10  19  34  54  80 111 146 182 222 268 321
#     4  10  22  36  58  82 108 142 182 228 282 332
#     4  10  21  38  57  82 112 146 184 229 276 325
#     4   9  20  37  59  83 112 146 184 225 272 327
#     4  10  20  38  58  80 108 143 184 229 276 330
#
# _framework density 19.937063999999999
#
# number of rings (size 3 to 8) (size 9 to 14) (size 15 to 20)
#    0.000    2.182    0.000    2.727    0.000    5.818 
#    0.000   19.091    0.000    0.000    0.000    0.000 
#    0.000    0.000    0.000    0.000    0.000    0.000 
#
# Total GULP energy -272660.364067 kJ/mol
# GULP energy per Si atom -12393.652912 kJ/mol
# Density = 1.989169 g / cm^3
# Si number density = 19.937064 Si / 1000 Ang^3
#
#
#
# Elastic Constant Matrix: (Units=GPa)
#
#
# Indices 1 2 3 4 5 6 
#
# 1 92.5860 21.4193 37.6431 0.0000 0.0000 0.0000
# 2 21.4193 74.0342 29.5537 0.0000 0.0000 0.0000
# 3 37.6431 29.5537 96.5575 0.0000 0.0000 0.0000
# 4 0.0000 0.0000 0.0000 28.3545 0.0000 0.0000
# 5 0.0000 0.0000 0.0000 0.0000 -4.5628 0.0000
# 6 0.0000 0.0000 0.0000 0.0000 0.0000 8.8071
#
#
#
# Elastic Compliance Matrix: (Units=1/GPa)
#
#
# Indices 1 2 3 4 5 6 
#
# 1 0.013088 -0.001993 -0.004492 0.000000 0.000000 0.000000
# 2 -0.001993 0.015691 -0.004025 0.000000 0.000000 0.000000
# 3 -0.004492 -0.004025 0.013340 0.000000 0.000000 0.000000
# 4 0.000000 0.000000 0.000000 0.035268 0.000000 0.000000
# 5 0.000000 0.000000 0.000000 0.000000 -0.219164 0.000000
# 6 0.000000 0.000000 0.000000 0.000000 0.000000 0.113545
#
#
# Mechanical properties :
#
#
# Convention : Reuss Voigt Hill
#
# Bulk Modulus (GPa) = 47.40049 48.93443 48.16746
# Shear Modulus (GPa) = -28175.36542 18.15718 -14078.60412
#
# Velocity S-wave (km/s) = -119.00770 3.02110 -84.12403
# Velocity P-wave (km/s) = 137.33154 6.06359 97.01336
#
# Compressibility (1/GPa) = 0.02109683
#
# Stress axis : x y z
#
# Youngs Moduli (GPa) = 76.40334 63.73111 74.96252
#
# Poissons Ratio (x) = 0.12704 0.33676
# Poissons Ratio (y) = 0.15230 0.30176
# Poissons Ratio (z) = 0.34324 0.25655
#
# Static dielectric constant tensor:
#      x y z
#    x 3.549290 0.000000 0.000000 
#    y 0.000000 3.664340 0.000000 
#    z 0.000000 0.000000 3.753770 
# 
# 
# High freq. dielectric constant tensor:
#      x y z
#    x 1.773990 0.000000 0.000000 
#    y 0.000000 1.778330 0.000000 
#    z 0.000000 0.000000 1.775280 
# 
# From -- ./inp_files/5367.got.cif
#   From: 2010.03.12/outbox.cif.g09.slc.cpg/sg40_3_cif.got.tgz:5367.got - 2010.04.14 01:38:03.
