data_PCOD8183130
_publ_section_title
;
Structure prediction by ZEFSAII (Michael W. Deem and Ramdas Pophale) SiO2 
 PCOD8183130
Probable space group: A M A 2
;
_chemical_formula_sum "Si O2"
_cell_formula_units_Z 48
_cell_length_a 8.748296
_cell_length_b 9.575800
_cell_length_c 30.685308
_cell_angle_alpha 90.000000
_cell_angle_beta 90.000000
_cell_angle_gamma 90.000000
_cell_volume 2570.567561
_symmetry_space_group_name_H-M "A M A 2"
_symmetry_group_IT_number 40
_symmetry_cell_setting 'orthorhombic'
loop_
_space_group_symop_operation_xyz
x,y,z
-x,-y,z
1/2-x,y,z
1/2+x,-y,z
x,1/2+y,1/2+z
-x,1/2-y,1/2+z
1/2-x,1/2+y,1/2+z
1/2+x,1/2-y,1/2+z
loop_
_atom_site_type_symbol
_atom_site_label
_atom_site_fract_x
_atom_site_fract_y
_atom_site_fract_z
Si Si1 0.431723 0.346247 0.525950
Si Si2 0.931184 0.654895 0.951988
Si Si3 0.926352 0.648316 0.857249
Si Si4 0.071991 0.856173 0.695770
Si Si5 0.429836 0.847526 0.263659
Si Si6 0.070049 0.352787 0.095129
O O1 0.500000 0.500000 0.522949
O O2 0.250000 0.354896 0.526767
O O3 0.486548 0.258022 0.484790
O O4 0.491288 0.273461 0.569791
O O5 0.750000 0.648933 0.961571
O O6 0.967041 0.721030 0.903560
O O7 0.000000 0.500000 0.957080
O O8 0.750000 0.615936 0.856437
O O9 0.969145 0.724890 0.811292
O O10 0.000000 0.500000 0.857530
O O11 0.250000 0.866120 0.703621
O O12 0.031667 0.826545 0.645590
O O13 0.004534 0.734148 0.724436
O O14 0.000000 0.000000 0.711861
O O15 0.250000 0.855105 0.255534
O O16 0.500000 0.000000 0.262853
O O17 0.250000 0.355097 0.085636
O O18 0.000000 0.500000 0.079276
#
# Coordination Sequence:
#
# PCOD8183130 Si02
#       6
#     8   8   8   8   8   8
#     4  12  25  40  57  80 110 142 177 220 272 323
#     4  10  19  35  58  83 110 142 182 223 265 315
#     4   8  16  30  51  78 107 140 179 222 263 309
#     4  10  21  37  57  81 109 142 180 222 268 318
#     4  10  19  33  54  81 112 145 182 223 268 316
#     4  10  21  39  61  83 107 139 180 222 265 317
#
# _framework density 18.672920000000001
#
# number of rings (size 3 to 8) (size 9 to 14) (size 15 to 20)
#    0.000    2.000    0.000    4.000    0.000    4.000 
#    0.000    0.833    0.000    0.000    0.000    0.000 
#    0.000    0.000    0.000    0.000    0.000    0.000 
#
# Total GULP energy -297413.905497 kJ/mol
# GULP energy per Si atom -12392.246062 kJ/mol
# Density = 1.863042 g / cm^3
# Si number density = 18.672920 Si / 1000 Ang^3
#
#
#
# Elastic Constant Matrix: (Units=GPa)
#
#
# Indices 1 2 3 4 5 6 
#
# 1 100.4476 48.7598 59.9489 0.0000 0.0000 0.0000
# 2 48.7598 104.7353 67.3390 0.0000 0.0000 0.0000
# 3 59.9489 67.3390 126.6801 0.0000 0.0000 0.0000
# 4 0.0000 0.0000 0.0000 11.6920 0.0000 0.0000
# 5 0.0000 0.0000 0.0000 0.0000 25.3461 0.0000
# 6 0.0000 0.0000 0.0000 0.0000 0.0000 34.9502
#
#
#
# Elastic Compliance Matrix: (Units=1/GPa)
#
#
# Indices 1 2 3 4 5 6 
#
# 1 0.014719 -0.003607 -0.005048 0.000000 0.000000 0.000000
# 2 -0.003607 0.015389 -0.006474 0.000000 0.000000 0.000000
# 3 -0.005048 -0.006474 0.013724 0.000000 0.000000 0.000000
# 4 0.000000 0.000000 0.000000 0.085528 0.000000 0.000000
# 5 0.000000 0.000000 0.000000 0.000000 0.039454 0.000000
# 6 0.000000 0.000000 0.000000 0.000000 0.000000 0.028612
#
#
# Mechanical properties :
#
#
# Convention : Reuss Voigt Hill
#
# Bulk Modulus (GPa) = 73.66418 75.99536 74.82977
# Shear Modulus (GPa) = 21.53235 24.78537 23.15886
#
# Velocity S-wave (km/s) = 3.39946 3.64722 3.52552
# Velocity P-wave (km/s) = 7.41241 7.65002 7.53215
#
# Compressibility (1/GPa) = 0.01357512
#
# Stress axis : x y z
#
# Youngs Moduli (GPa) = 67.93853 64.98093 72.86477
#
# Poissons Ratio (x) = 0.23437 0.36785
# Poissons Ratio (y) = 0.24504 0.47169
# Poissons Ratio (z) = 0.34298 0.42066
#
# Static dielectric constant tensor:
#      x y z
#    x 3.642690 0.000000 0.000000 
#    y 0.000000 3.199240 0.000000 
#    z 0.000000 0.000000 4.105600 
# 
# 
# High freq. dielectric constant tensor:
#      x y z
#    x 1.743400 0.000000 0.000000 
#    y 0.000000 1.695290 0.000000 
#    z 0.000000 0.000000 1.750660 
# 
# From -- ./inp_files/26126.got.cif
#   From: 2010.03.12/outbox.cif.g09.slc.cpg/sg40_14_cif.got.tgz:26126.got - 2010.04.14 01:38:03.
