data_PCOD8183905
_publ_section_title
;
Structure prediction by ZEFSAII (Michael W. Deem and Ramdas Pophale) SiO2 
 PCOD8183905
Probable space group: A M A 2
;
_chemical_formula_sum "Si O2"
_cell_formula_units_Z 48
_cell_length_a 9.639120
_cell_length_b 9.033571
_cell_length_c 27.001669
_cell_angle_alpha 90.000000
_cell_angle_beta 90.000000
_cell_angle_gamma 90.000000
_cell_volume 2351.188552
_symmetry_space_group_name_H-M "A M A 2"
_symmetry_group_IT_number 40
_symmetry_cell_setting 'orthorhombic'
loop_
_space_group_symop_operation_xyz
x,y,z
-x,-y,z
1/2-x,y,z
1/2+x,-y,z
x,1/2+y,1/2+z
-x,1/2-y,1/2+z
1/2-x,1/2+y,1/2+z
1/2+x,1/2-y,1/2+z
loop_
_atom_site_type_symbol
_atom_site_label
_atom_site_fract_x
_atom_site_fract_y
_atom_site_fract_z
Si Si1 0.599388 0.752079 0.872600
Si Si2 0.500000 0.000000 0.305721
Si Si3 0.000000 0.500000 0.303682
Si Si4 0.413147 0.850714 0.956195
Si Si5 0.911963 0.852869 0.657444
Si Si6 0.407286 0.640153 0.045490
Si Si7 0.099598 0.745304 0.736552
O O1 0.750000 0.753302 0.899337
O O2 0.594204 0.604713 0.839717
O O3 0.474082 0.748772 0.912273
O O4 0.595572 0.898141 0.838411
O O5 0.595799 0.897559 0.271540
O O6 0.091904 0.394245 0.269196
O O7 0.250000 0.879724 0.946856
O O8 0.500000 0.000000 0.956269
O O9 0.440451 0.773359 0.008618
O O10 0.750000 0.878096 0.669778
O O11 0.933521 0.799438 0.601015
O O12 0.977403 0.733597 0.695296
O O13 0.000000 0.000000 0.666766
O O14 0.500000 0.500000 0.032215
O O15 0.250000 0.585136 0.039522
O O16 0.250000 0.746230 0.710025
#
# Coordination Sequence:
#
# PCOD8183905 Si02
#       7
#     8   4   4   8   8   8   8
#     4  11  23  41  63  89 121 161 203 250 302 358
#     4  10  26  42  58  88 128 160 208 246 308 356
#     4  10  22  36  62  90 122 150 206 246 302 352
#     4  11  24  42  64  92 124 158 201 250 303 364
#     4  10  20  37  63  92 124 158 202 251 299 358
#     4   9  21  41  64  92 124 158 198 248 303 361
#     4  11  22  39  62  90 123 161 203 250 300 358
#
# _framework density 20.415206999999999
#
# number of rings (size 3 to 8) (size 9 to 14) (size 15 to 20)
#    0.000    1.667    1.667    2.000    1.167    8.667 
#    1.500    0.000    0.000    0.000    0.000    0.000 
#    0.000    0.000    0.000    0.000    0.000    0.000 
#
# Total GULP energy -297561.616143 kJ/mol
# GULP energy per Si atom -12398.400673 kJ/mol
# Density = 2.036874 g / cm^3
# Si number density = 20.415207 Si / 1000 Ang^3
#
#
#
# Elastic Constant Matrix: (Units=GPa)
#
#
# Indices 1 2 3 4 5 6 
#
# 1 165.2411 49.5610 70.1143 0.0000 0.0000 0.0000
# 2 49.5610 107.6005 50.8892 0.0000 0.0000 0.0000
# 3 70.1143 50.8892 126.8289 0.0000 0.0000 0.0000
# 4 0.0000 0.0000 0.0000 21.0235 0.0000 0.0000
# 5 0.0000 0.0000 0.0000 0.0000 22.6895 0.0000
# 6 0.0000 0.0000 0.0000 0.0000 0.0000 15.0290
#
#
#
# Elastic Compliance Matrix: (Units=1/GPa)
#
#
# Indices 1 2 3 4 5 6 
#
# 1 0.008250 -0.002028 -0.003747 0.000000 0.000000 0.000000
# 2 -0.002028 0.011969 -0.003681 0.000000 0.000000 0.000000
# 3 -0.003747 -0.003681 0.011433 0.000000 0.000000 0.000000
# 4 0.000000 0.000000 0.000000 0.047566 0.000000 0.000000
# 5 0.000000 0.000000 0.000000 0.000000 0.044073 0.000000
# 6 0.000000 0.000000 0.000000 0.000000 0.000000 0.066538
#
#
# Mechanical properties :
#
#
# Convention : Reuss Voigt Hill
#
# Bulk Modulus (GPa) = 78.49673 82.31107 80.40390
# Shear Modulus (GPa) = 23.47549 27.02213 25.24881
#
# Velocity S-wave (km/s) = 3.39470 3.64212 3.52058
# Velocity P-wave (km/s) = 7.34159 7.62186 7.48304
#
# Compressibility (1/GPa) = 0.01273938
#
# Stress axis : x y z
#
# Youngs Moduli (GPa) = 121.21343 83.55125 87.46393
#
# Poissons Ratio (x) = 0.16942 0.32774
# Poissons Ratio (y) = 0.24579 0.32199
# Poissons Ratio (z) = 0.45420 0.30758
#
# Static dielectric constant tensor:
#      x y z
#    x 3.635180 0.000000 0.000000 
#    y 0.000000 3.666810 0.000000 
#    z 0.000000 0.000000 4.003920 
# 
# 
# High freq. dielectric constant tensor:
#      x y z
#    x 1.805280 0.000000 0.000000 
#    y 0.000000 1.785730 0.000000 
#    z 0.000000 0.000000 1.802460 
# 
# From -- ./inp_files/26202.got.cif
#   From: 2010.03.12/outbox.cif.g09.slc.cpg/sg40_14_cif.got.tgz:26202.got - 2010.04.14 01:38:03.
