data_PCOD8183659
_publ_section_title
;
Structure prediction by ZEFSAII (Michael W. Deem and Ramdas Pophale) SiO2 
 PCOD8183659
Probable space group: A M A 2
;
_chemical_formula_sum "Si O2"
_cell_formula_units_Z 64
_cell_length_a 8.950972
_cell_length_b 29.325697
_cell_length_c 12.679886
_cell_angle_alpha 90.000000
_cell_angle_beta 90.000000
_cell_angle_gamma 90.000000
_cell_volume 3328.387564
_symmetry_space_group_name_H-M "A M A 2"
_symmetry_group_IT_number 40
_symmetry_cell_setting 'orthorhombic'
loop_
_space_group_symop_operation_xyz
x,y,z
-x,-y,z
1/2-x,y,z
1/2+x,-y,z
x,1/2+y,1/2+z
-x,1/2-y,1/2+z
1/2-x,1/2+y,1/2+z
1/2+x,1/2-y,1/2+z
loop_
_atom_site_type_symbol
_atom_site_label
_atom_site_fract_x
_atom_site_fract_y
_atom_site_fract_z
Si Si1 0.425618 0.547315 0.976860
Si Si2 0.578909 0.259160 0.344098
Si Si3 0.426546 0.624479 0.140979
Si Si4 0.925293 0.377226 0.570616
Si Si5 0.415733 0.706873 0.999315
Si Si6 0.074172 0.547428 0.738238
Si Si7 0.072210 0.355673 0.357339
Si Si8 0.913181 0.209149 0.135516
O O1 0.500000 0.500000 0.009833
O O2 0.250000 0.540634 0.983046
O O3 0.473392 0.561960 0.857715
O O4 0.478694 0.584897 0.061136
O O5 0.750000 0.270552 0.372693
O O6 0.527799 0.211894 0.401305
O O7 0.482414 0.303889 0.366731
O O8 0.555346 0.246745 0.223489
O O9 0.250000 0.623572 0.163233
O O10 0.476118 0.672070 0.087123
O O11 0.510341 0.619616 0.252339
O O12 0.750000 0.380555 0.547903
O O13 0.979949 0.415360 0.653513
O O14 0.013550 0.382922 0.460421
O O15 0.959918 0.328784 0.625576
O O16 0.250000 0.690245 0.963711
O O17 0.410969 0.759648 0.032778
O O18 0.250000 0.540976 0.732537
O O19 0.000000 0.500000 0.706132
O O20 0.250000 0.357192 0.356179
O O21 0.750000 0.185614 0.150636
#
# Coordination Sequence:
#
# PCOD8183659 Si02
#       8
#     8   8   8   8   8   8   8   8
#     4   9  19  38  64  90 118 148 181 229 288 343
#     4  11  22  37  54  76 112 154 195 237 284 336
#     4  10  21  39  61  83 115 155 192 236 287 339
#     4  11  23  38  60  86 115 151 195 236 283 346
#     4  10  20  35  55  80 113 150 192 237 279 331
#     4   9  20  39  63  91 117 147 184 229 286 344
#     4  12  24  38  57  81 115 154 196 240 285 336
#     4  10  21  36  53  79 114 151 192 235 281 329
#
# _framework density 19.228529000000002
#
# number of rings (size 3 to 8) (size 9 to 14) (size 15 to 20)
#    0.000    1.750    2.500    1.875    1.750    3.000 
#    0.000    0.625    0.000    0.000    0.000    0.000 
#    0.000    0.000    0.000    0.000    0.000    0.000 
#
# Total GULP energy -396658.539638 kJ/mol
# GULP energy per Si atom -12395.579364 kJ/mol
# Density = 1.918476 g / cm^3
# Si number density = 19.228529 Si / 1000 Ang^3
#
#
#
# Elastic Constant Matrix: (Units=GPa)
#
#
# Indices 1 2 3 4 5 6 
#
# 1 79.5806 41.4229 50.6229 0.0000 0.0000 0.0000
# 2 41.4229 108.1744 67.7656 0.0000 0.0000 0.0000
# 3 50.6229 67.7656 115.1411 0.0000 0.0000 0.0000
# 4 0.0000 0.0000 0.0000 36.5859 0.0000 0.0000
# 5 0.0000 0.0000 0.0000 0.0000 30.5079 0.0000
# 6 0.0000 0.0000 0.0000 0.0000 0.0000 27.7633
#
#
#
# Elastic Compliance Matrix: (Units=1/GPa)
#
#
# Indices 1 2 3 4 5 6 
#
# 1 0.018069 -0.003077 -0.006133 0.000000 0.000000 0.000000
# 2 -0.003077 0.015167 -0.007574 0.000000 0.000000 0.000000
# 3 -0.006133 -0.007574 0.015839 0.000000 0.000000 0.000000
# 4 0.000000 0.000000 0.000000 0.027333 0.000000 0.000000
# 5 0.000000 0.000000 0.000000 0.000000 0.032778 0.000000
# 6 0.000000 0.000000 0.000000 0.000000 0.000000 0.036019
#
#
# Mechanical properties :
#
#
# Convention : Reuss Voigt Hill
#
# Bulk Modulus (GPa) = 64.48594 69.16876 66.82735
# Shear Modulus (GPa) = 27.18246 28.51040 27.84643
#
# Velocity S-wave (km/s) = 3.76394 3.85478 3.80963
# Velocity P-wave (km/s) = 7.24562 7.47412 7.36076
#
# Compressibility (1/GPa) = 0.01550726
#
# Stress axis : x y z
#
# Youngs Moduli (GPa) = 55.34347 65.93226 63.13519
#
# Poissons Ratio (x) = 0.20287 0.38723
# Poissons Ratio (y) = 0.17029 0.47817
# Poissons Ratio (z) = 0.33944 0.49935
#
# Static dielectric constant tensor:
#      x y z
#    x 3.475950 0.000000 0.000000 
#    y 0.000000 3.347850 0.000000 
#    z 0.000000 0.000000 3.907780 
# 
# 
# High freq. dielectric constant tensor:
#      x y z
#    x 1.742300 0.000000 0.000000 
#    y 0.000000 1.728890 0.000000 
#    z 0.000000 0.000000 1.761650 
# 
# From -- ./inp_files/10686.got.cif
#   From: 2010.03.12/outbox.cif.g09.slc.cpg/sg40_6_cif.got.tgz:10686.got - 2010.04.14 01:38:03.
