data_PCOD8183144
_publ_section_title
;
Structure prediction by ZEFSAII (Michael W. Deem and Ramdas Pophale) SiO2 
 PCOD8183144
Probable space group: A M A 2
;
_chemical_formula_sum "Si O2"
_cell_formula_units_Z 56
_cell_length_a 22.210454
_cell_length_b 25.921563
_cell_length_c 4.987104
_cell_angle_alpha 90.000000
_cell_angle_beta 90.000000
_cell_angle_gamma 90.000000
_cell_volume 2871.223803
_symmetry_space_group_name_H-M "A M A 2"
_symmetry_group_IT_number 40
_symmetry_cell_setting 'orthorhombic'
loop_
_space_group_symop_operation_xyz
x,y,z
-x,-y,z
1/2-x,y,z
1/2+x,-y,z
x,1/2+y,1/2+z
-x,1/2-y,1/2+z
1/2-x,1/2+y,1/2+z
1/2+x,1/2-y,1/2+z
loop_
_atom_site_type_symbol
_atom_site_label
_atom_site_fract_x
_atom_site_fract_y
_atom_site_fract_z
Si Si1 0.638066 0.606006 0.819100
Si Si2 0.323105 0.335558 0.295348
Si Si3 0.250000 0.513529 0.372925
Si Si4 0.122993 0.051121 0.859280
Si Si5 0.931196 0.003523 0.352810
Si Si6 0.318782 0.721117 0.895056
Si Si7 0.250000 0.454984 0.871467
Si Si8 0.179088 0.155542 0.905012
O O1 0.654174 0.625645 0.525079
O O2 0.583464 0.564536 0.808953
O O3 0.691982 0.575605 0.961209
O O4 0.635404 0.652913 0.031774
O O5 0.250000 0.338953 0.255652
O O6 0.345854 0.278375 0.373187
O O7 0.189959 0.541203 0.469594
O O8 0.250000 0.461466 0.550271
O O9 0.250000 0.506743 0.051703
O O10 0.109743 0.022915 0.579772
O O11 0.128012 0.112920 0.828404
O O12 0.076824 0.029460 0.080460
O O13 0.000000 0.000000 0.443827
O O14 0.250000 0.726707 0.812692
O O15 0.344041 0.678821 0.686501
O O16 0.328303 0.701620 0.194446
O O17 0.250000 0.136069 0.904441
#
# Coordination Sequence:
#
# PCOD8183144 Si02
#       8
#     8   8   4   8   8   8   4   8
#     4  12  21  33  55  78 110 152 186 225 276 336
#     4  11  20  32  53  84 116 150 180 219 282 343
#     4  12  20  34  54  87 112 145 180 232 288 336
#     4  12  22  38  61  84 114 151 190 232 283 343
#     4  12  27  42  56  81 116 156 198 237 279 335
#     4   9  19  32  48  79 123 149 173 216 275 351
#     4  12  20  32  52  81 122 143 184 230 282 340
#     4  10  19  33  54  84 116 149 180 222 283 341
#
# _framework density 19.503876999999999
#
# number of rings (size 3 to 8) (size 9 to 14) (size 15 to 20)
#    0.000    0.857    5.000    3.857    0.000    2.286 
#    0.000    0.000    0.000    0.000    0.000   20.000 
#    0.000    0.000    0.000    0.000    0.000    0.000 
#
# Total GULP energy -346890.392558 kJ/mol
# GULP energy per Si atom -12388.942591 kJ/mol
# Density = 1.945949 g / cm^3
# Si number density = 19.503877 Si / 1000 Ang^3
#
#
#
# Elastic Constant Matrix: (Units=GPa)
#
#
# Indices 1 2 3 4 5 6 
#
# 1 53.1882 19.5989 -2.5563 0.0000 0.0000 0.0000
# 2 19.5989 92.5654 11.0973 0.0000 0.0000 0.0000
# 3 -2.5563 11.0973 84.2934 0.0000 0.0000 0.0000
# 4 0.0000 0.0000 0.0000 32.9830 0.0000 0.0000
# 5 0.0000 0.0000 0.0000 0.0000 14.9159 0.0000
# 6 0.0000 0.0000 0.0000 0.0000 0.0000 9.4043
#
#
#
# Elastic Compliance Matrix: (Units=1/GPa)
#
#
# Indices 1 2 3 4 5 6 
#
# 1 0.020514 -0.004489 0.001213 0.000000 0.000000 0.000000
# 2 -0.004489 0.011959 -0.001711 0.000000 0.000000 0.000000
# 3 0.001213 -0.001711 0.012125 0.000000 0.000000 0.000000
# 4 0.000000 0.000000 0.000000 0.030319 0.000000 0.000000
# 5 0.000000 0.000000 0.000000 0.000000 0.067042 0.000000
# 6 0.000000 0.000000 0.000000 0.000000 0.000000 0.106334
#
#
# Mechanical properties :
#
#
# Convention : Reuss Voigt Hill
#
# Bulk Modulus (GPa) = 28.88083 31.81409 30.34746
# Shear Modulus (GPa) = 18.53176 24.92112 21.72644
#
# Velocity S-wave (km/s) = 3.08581 3.57844 3.34122
# Velocity P-wave (km/s) = 5.24749 5.78107 5.52073
#
# Compressibility (1/GPa) = 0.03462504
#
# Stress axis : x y z
#
# Youngs Moduli (GPa) = 48.74835 83.62143 82.47217
#
# Poissons Ratio (x) = 0.37536 -0.10004
# Poissons Ratio (y) = 0.21882 0.14107
# Poissons Ratio (z) = -0.05913 0.14303
#
# Static dielectric constant tensor:
#      x y z
#    x 3.591750 0.000000 0.000000 
#    y 0.000000 3.874190 0.000000 
#    z 0.000000 0.000000 3.498460 
# 
# 
# High freq. dielectric constant tensor:
#      x y z
#    x 1.696480 0.000000 0.000000 
#    y 0.000000 1.768770 0.000000 
#    z 0.000000 0.000000 1.776920 
# 
# From -- ./inp_files/2409.got.cif
#   From: 2010.03.12/outbox.cif.g09.slc.cpg/sg40_2_cif.got.tgz:2409.got - 2010.04.14 01:38:03.
