data_PCOD8183073
_publ_section_title
;
Structure prediction by ZEFSAII (Michael W. Deem and Ramdas Pophale) SiO2 
 PCOD8183073
Probable space group: A M A 2
;
_chemical_formula_sum "Si O2"
_cell_formula_units_Z 48
_cell_length_a 8.447075
_cell_length_b 13.729082
_cell_length_c 23.645194
_cell_angle_alpha 90.000000
_cell_angle_beta 90.000000
_cell_angle_gamma 90.000000
_cell_volume 2742.146989
_symmetry_space_group_name_H-M "A M A 2"
_symmetry_group_IT_number 40
_symmetry_cell_setting 'orthorhombic'
loop_
_space_group_symop_operation_xyz
x,y,z
-x,-y,z
1/2-x,y,z
1/2+x,-y,z
x,1/2+y,1/2+z
-x,1/2-y,1/2+z
1/2-x,1/2+y,1/2+z
1/2+x,1/2-y,1/2+z
loop_
_atom_site_type_symbol
_atom_site_label
_atom_site_fract_x
_atom_site_fract_y
_atom_site_fract_z
Si Si1 0.935824 0.277724 0.119450
Si Si2 0.435107 0.604053 0.684211
Si Si3 0.062332 0.105357 0.386550
Si Si4 0.934894 0.721301 0.785822
Si Si5 0.564356 0.604562 0.220986
Si Si6 0.563865 0.396642 0.013930
O O1 0.750000 0.255052 0.121432
O O2 0.992149 0.313182 0.057467
O O3 0.030963 0.179569 0.133597
O O4 0.974372 0.361957 0.164457
O O5 0.500000 0.500000 0.664808
O O6 0.250000 0.599423 0.696856
O O7 0.523335 0.636771 0.741217
O O8 0.250000 0.108139 0.379997
O O9 0.005092 0.127900 0.450597
O O10 0.984005 0.187951 0.348176
O O11 0.000000 0.000000 0.367231
O O12 0.750000 0.743765 0.783207
O O13 0.029464 0.819788 0.771461
O O14 0.500000 0.500000 0.239937
O O15 0.750000 0.600858 0.208814
O O16 0.500000 0.500000 0.034967
O O17 0.750000 0.404984 0.014869
#
# Coordination Sequence:
#
# PCOD8183073 Si02
#       6
#     8   8   8   8   8   8
#     4  10  19  33  51  75 102 131 164 202 243 290
#     4  11  21  34  51  73  99 131 164 202 246 293
#     4  10  19  33  50  73 101 132 165 202 244 291
#     4  11  21  34  51  74 100 130 164 203 245 292
#     4  11  21  34  51  74 101 132 164 201 244 291
#     4   9  19  32  50  73 101 132 164 200 242 287
#
# _framework density 17.504531
#
# number of rings (size 3 to 8) (size 9 to 14) (size 15 to 20)
#    0.000    1.667    0.000    8.500    0.000    3.333 
#    0.000    0.000    0.000    1.000    0.000    4.667 
#    0.000    0.000    0.000    0.000    0.000    0.000 
#
# Total GULP energy -297676.472453 kJ/mol
# GULP energy per Si atom -12403.186352 kJ/mol
# Density = 1.746469 g / cm^3
# Si number density = 17.504531 Si / 1000 Ang^3
#
#
#
# Elastic Constant Matrix: (Units=GPa)
#
#
# Indices 1 2 3 4 5 6 
#
# 1 60.7044 14.5942 11.0593 0.0000 0.0000 0.0000
# 2 14.5942 112.2528 51.6165 0.0000 0.0000 0.0000
# 3 11.0593 51.6165 96.3844 0.0000 0.0000 0.0000
# 4 0.0000 0.0000 0.0000 28.3136 0.0000 0.0000
# 5 0.0000 0.0000 0.0000 0.0000 24.8625 0.0000
# 6 0.0000 0.0000 0.0000 0.0000 0.0000 31.2898
#
#
#
# Elastic Compliance Matrix: (Units=1/GPa)
#
#
# Indices 1 2 3 4 5 6 
#
# 1 0.017080 -0.001751 -0.001022 0.000000 0.000000 0.000000
# 2 -0.001751 0.011998 -0.006225 0.000000 0.000000 0.000000
# 3 -0.001022 -0.006225 0.013826 0.000000 0.000000 0.000000
# 4 0.000000 0.000000 0.000000 0.035319 0.000000 0.000000
# 5 0.000000 0.000000 0.000000 0.000000 0.040221 0.000000
# 6 0.000000 0.000000 0.000000 0.000000 0.000000 0.031959
#
#
# Mechanical properties :
#
#
# Convention : Reuss Voigt Hill
#
# Bulk Modulus (GPa) = 40.14516 47.09793 43.62154
# Shear Modulus (GPa) = 28.29626 29.69795 28.99710
#
# Velocity S-wave (km/s) = 4.02495 4.12343 4.07449
# Velocity P-wave (km/s) = 6.67714 7.04520 6.86364
#
# Compressibility (1/GPa) = 0.02490960
#
# Stress axis : x y z
#
# Youngs Moduli (GPa) = 58.54668 83.34548 72.32830
#
# Poissons Ratio (x) = 0.14590 0.07395
# Poissons Ratio (y) = 0.10249 0.45021
# Poissons Ratio (z) = 0.05986 0.51879
#
# Static dielectric constant tensor:
#      x y z
#    x 3.359790 0.000000 0.000000 
#    y 0.000000 3.816380 0.000000 
#    z 0.000000 0.000000 3.411050 
# 
# 
# High freq. dielectric constant tensor:
#      x y z
#    x 1.693500 0.000000 0.000000 
#    y 0.000000 1.667000 0.000000 
#    z 0.000000 0.000000 1.665000 
# 
# From -- ./inp_files/24051.got.cif
#   From: 2010.03.12/outbox.cif.g09.slc.cpg/sg40_13_cif.got.tgz:24051.got - 2010.04.14 01:38:03.
