data_PCOD8183836
_publ_section_title
;
Structure prediction by ZEFSAII (Michael W. Deem and Ramdas Pophale) SiO2 
 PCOD8183836
Probable space group: A M A 2
;
_chemical_formula_sum "Si O2"
_cell_formula_units_Z 64
_cell_length_a 18.600568
_cell_length_b 14.315234
_cell_length_c 11.652753
_cell_angle_alpha 90.000000
_cell_angle_beta 90.000000
_cell_angle_gamma 90.000000
_cell_volume 3102.795828
_symmetry_space_group_name_H-M "A M A 2"
_symmetry_group_IT_number 40
_symmetry_cell_setting 'orthorhombic'
loop_
_space_group_symop_operation_xyz
x,y,z
-x,-y,z
1/2-x,y,z
1/2+x,-y,z
x,1/2+y,1/2+z
-x,1/2-y,1/2+z
1/2-x,1/2+y,1/2+z
1/2+x,1/2-y,1/2+z
loop_
_atom_site_type_symbol
_atom_site_label
_atom_site_fract_x
_atom_site_fract_y
_atom_site_fract_z
Si Si1 0.050455 0.228078 0.471500
Si Si2 0.071350 0.555203 0.807362
Si Si3 0.665684 0.861042 0.125698
Si Si4 0.829897 0.528639 0.991720
Si Si5 0.912246 0.178526 0.616672
Si Si6 0.666974 0.923508 0.871487
Si Si7 0.331499 0.654071 0.136079
Si Si8 0.559279 0.578392 0.344930
O O1 0.056564 0.156149 0.365262
O O2 0.116668 0.219288 0.560863
O O3 0.050001 0.334412 0.429396
O O4 0.976398 0.210762 0.535756
O O5 0.122260 0.560793 0.695929
O O6 0.000000 0.500000 0.770343
O O7 0.112191 0.489630 0.895102
O O8 0.750000 0.866323 0.156320
O O9 0.631085 0.764882 0.170351
O O10 0.650767 0.872116 0.990808
O O11 0.750000 0.535466 0.938660
O O12 0.850668 0.626507 0.046217
O O13 0.833250 0.450464 0.088796
O O14 0.946084 0.113378 0.714483
O O15 0.750000 0.941952 0.852062
O O16 0.639931 0.855230 0.767964
O O17 0.634398 0.027274 0.868608
O O18 0.250000 0.695002 0.130302
O O19 0.500000 0.500000 0.369114
#
# Coordination Sequence:
#
# PCOD8183836 Si02
#       8
#     8   8   8   8   8   8   8   8
#     4  11  24  41  63 100 132 171 226 281 341 400
#     4  11  22  42  66  96 137 177 215 277 335 404
#     4  11  25  44  66  98 139 181 222 274 341 410
#     4  10  20  36  64  96 125 165 219 275 332 393
#     4  12  23  39  66  95 130 173 229 282 337 395
#     4  10  22  43  67  95 132 174 219 271 331 403
#     4   9  19  38  66  97 131 169 216 276 333 395
#     4  12  25  42  66  96 132 175 222 279 334 401
#
# _framework density 20.626557999999999
#
# number of rings (size 3 to 8) (size 9 to 14) (size 15 to 20)
#    0.000    1.250    3.750    2.250    1.750    3.000 
#    0.000    1.250    0.000    3.000    0.000    0.000 
#    0.000    0.000    0.000    0.000    0.000    0.000 
#
# Total GULP energy -396819.137466 kJ/mol
# GULP energy per Si atom -12400.598046 kJ/mol
# Density = 2.057961 g / cm^3
# Si number density = 20.626558 Si / 1000 Ang^3
#
#
#
# Elastic Constant Matrix: (Units=GPa)
#
#
# Indices 1 2 3 4 5 6 
#
# 1 125.7167 48.1629 55.7356 0.0000 0.0000 0.0000
# 2 48.1629 97.9999 41.3424 0.0000 0.0000 0.0000
# 3 55.7356 41.3424 100.1601 0.0000 0.0000 0.0000
# 4 0.0000 0.0000 0.0000 30.8702 0.0000 0.0000
# 5 0.0000 0.0000 0.0000 0.0000 34.4529 0.0000
# 6 0.0000 0.0000 0.0000 0.0000 0.0000 32.1192
#
#
#
# Elastic Compliance Matrix: (Units=1/GPa)
#
#
# Indices 1 2 3 4 5 6 
#
# 1 0.011510 -0.003578 -0.004928 0.000000 0.000000 0.000000
# 2 -0.003578 0.013468 -0.003568 0.000000 0.000000 0.000000
# 3 -0.004928 -0.003568 0.014199 0.000000 0.000000 0.000000
# 4 0.000000 0.000000 0.000000 0.032394 0.000000 0.000000
# 5 0.000000 0.000000 0.000000 0.000000 0.029025 0.000000
# 6 0.000000 0.000000 0.000000 0.000000 0.000000 0.031134
#
#
# Mechanical properties :
#
#
# Convention : Reuss Voigt Hill
#
# Bulk Modulus (GPa) = 66.53861 68.26207 67.40034
# Shear Modulus (GPa) = 31.07775 31.39751 31.23763
#
# Velocity S-wave (km/s) = 3.88582 3.90576 3.89580
# Velocity P-wave (km/s) = 7.24303 7.31478 7.27899
#
# Compressibility (1/GPa) = 0.01502887
#
# Stress axis : x y z
#
# Youngs Moduli (GPa) = 86.88204 74.25223 70.42683
#
# Poissons Ratio (x) = 0.26565 0.34707
# Poissons Ratio (y) = 0.31083 0.25129
# Poissons Ratio (z) = 0.42817 0.26494
#
# Static dielectric constant tensor:
#      x y z
#    x 3.923670 0.000000 0.000000 
#    y 0.000000 3.613510 0.000000 
#    z 0.000000 0.000000 3.804670 
# 
# 
# High freq. dielectric constant tensor:
#      x y z
#    x 1.822650 0.000000 0.000000 
#    y 0.000000 1.795230 0.000000 
#    z 0.000000 0.000000 1.810750 
# 
# From -- ./inp_files/13146.got.cif
#   From: 2010.03.12/outbox.cif.g09.slc.cpg/sg40_7_cif.got.tgz:13146.got - 2010.04.14 01:38:03.
