data_PCOD8183217
_publ_section_title
;
Structure prediction by ZEFSAII (Michael W. Deem and Ramdas Pophale) SiO2 
 PCOD8183217
Probable space group: A M A 2
;
_chemical_formula_sum "Si O2"
_cell_formula_units_Z 56
_cell_length_a 8.546208
_cell_length_b 15.483429
_cell_length_c 19.455405
_cell_angle_alpha 90.000000
_cell_angle_beta 90.000000
_cell_angle_gamma 90.000000
_cell_volume 2574.428778
_symmetry_space_group_name_H-M "A M A 2"
_symmetry_group_IT_number 40
_symmetry_cell_setting 'orthorhombic'
loop_
_space_group_symop_operation_xyz
x,y,z
-x,-y,z
1/2-x,y,z
1/2+x,-y,z
x,1/2+y,1/2+z
-x,1/2-y,1/2+z
1/2-x,1/2+y,1/2+z
1/2+x,1/2-y,1/2+z
loop_
_atom_site_type_symbol
_atom_site_label
_atom_site_fract_x
_atom_site_fract_y
_atom_site_fract_z
Si Si1 0.572006 0.414964 0.507480
Si Si2 0.575421 0.120273 0.136878
Si Si3 0.569668 0.744820 0.446548
Si Si4 0.565233 0.270586 0.304578
Si Si5 0.421643 0.917083 0.288961
Si Si6 0.565069 0.694527 0.165986
Si Si7 0.436331 0.094468 0.539598
O O1 0.500000 0.500000 0.469915
O O2 0.750000 0.401265 0.483990
O O3 0.554781 0.427375 0.589745
O O4 0.464100 0.330255 0.500801
O O5 0.750000 0.118793 0.103626
O O6 0.581013 0.068357 0.207679
O O7 0.529020 0.219516 0.149113
O O8 0.750000 0.750851 0.426285
O O9 0.472339 0.703799 0.382545
O O10 0.513299 0.836096 0.479988
O O11 0.750000 0.272972 0.289204
O O12 0.492052 0.173139 0.304040
O O13 0.479461 0.328581 0.246004
O O14 0.250000 0.911032 0.321340
O O15 0.500000 0.000000 0.324941
O O16 0.750000 0.707508 0.158818
O O17 0.510374 0.619923 0.113372
O O18 0.250000 0.092879 0.546786
O O19 0.500000 0.000000 0.518353
#
# Coordination Sequence:
#
# PCOD8183217 Si02
#       7
#     8   8   8   8   8   8   8
#     4  12  24  38  60  89 122 161 202 250 310 376
#     4  10  19  34  55  84 121 157 196 246 302 360
#     4  11  24  43  65  92 128 168 214 270 327 391
#     4  10  22  40  61  85 121 167 212 263 326 389
#     4   9  19  32  50  78 114 153 194 243 296 359
#     4  11  21  37  63  93 124 163 213 262 320 383
#     4  11  24  42  67  97 134 175 223 279 334 393
#
# _framework density 21.752397999999999
#
# number of rings (size 3 to 8) (size 9 to 14) (size 15 to 20)
#    0.000    1.429    1.429    5.571    0.000    6.857 
#    0.000    3.571    0.000    0.000    0.000    0.000 
#    0.000    0.000    0.000    0.000    0.000    0.000 
#
# Total GULP energy -346954.753149 kJ/mol
# GULP energy per Si atom -12391.241184 kJ/mol
# Density = 2.170289 g / cm^3
# Si number density = 21.752398 Si / 1000 Ang^3
#
#
#
# Elastic Constant Matrix: (Units=GPa)
#
#
# Indices 1 2 3 4 5 6 
#
# 1 102.3696 23.8247 20.4865 0.0000 0.0000 0.0000
# 2 23.8247 90.0820 3.9835 0.0000 0.0000 0.0000
# 3 20.4865 3.9835 75.4381 0.0000 0.0000 0.0000
# 4 0.0000 0.0000 0.0000 15.1944 0.0000 0.0000
# 5 0.0000 0.0000 0.0000 0.0000 27.0456 0.0000
# 6 0.0000 0.0000 0.0000 0.0000 0.0000 31.9363
#
#
#
# Elastic Compliance Matrix: (Units=1/GPa)
#
#
# Indices 1 2 3 4 5 6 
#
# 1 0.010983 -0.002779 -0.002836 0.000000 0.000000 0.000000
# 2 -0.002779 0.011830 0.000130 0.000000 0.000000 0.000000
# 3 -0.002836 0.000130 0.014019 0.000000 0.000000 0.000000
# 4 0.000000 0.000000 0.000000 0.065814 0.000000 0.000000
# 5 0.000000 0.000000 0.000000 0.000000 0.036975 0.000000
# 6 0.000000 0.000000 0.000000 0.000000 0.000000 0.031312
#
#
# Mechanical properties :
#
#
# Convention : Reuss Voigt Hill
#
# Bulk Modulus (GPa) = 38.66650 40.49768 39.58209
# Shear Modulus (GPa) = 26.24345 29.47494 27.85919
#
# Velocity S-wave (km/s) = 3.47718 3.68505 3.58263
# Velocity P-wave (km/s) = 5.82541 6.06334 5.94557
#
# Compressibility (1/GPa) = 0.02586218
#
# Stress axis : x y z
#
# Youngs Moduli (GPa) = 91.05089 84.52860 71.33102
#
# Poissons Ratio (x) = 0.23493 0.20228
# Poissons Ratio (y) = 0.25306 -0.00928
# Poissons Ratio (z) = 0.25820 -0.01099
#
# Static dielectric constant tensor:
#      x y z
#    x 3.782640 0.000000 0.000000 
#    y 0.000000 3.866610 0.000000 
#    z 0.000000 0.000000 3.956080 
# 
# 
# High freq. dielectric constant tensor:
#      x y z
#    x 1.854940 0.000000 0.000000 
#    y 0.000000 1.843960 0.000000 
#    z 0.000000 0.000000 1.847370 
# 
# From -- ./inp_files/22150.got.cif
#   From: 2010.03.12/outbox.cif.g09.slc.cpg/sg40_12_cif.got.tgz:22150.got - 2010.04.14 01:38:03.
