data_PCOD8183415
_publ_section_title
;
Structure prediction by ZEFSAII (Michael W. Deem and Ramdas Pophale) SiO2 
 PCOD8183415
Probable space group: A M A 2
;
_chemical_formula_sum "Si O2"
_cell_formula_units_Z 64
_cell_length_a 17.493711
_cell_length_b 13.317111
_cell_length_c 14.125836
_cell_angle_alpha 90.000000
_cell_angle_beta 90.000000
_cell_angle_gamma 90.000000
_cell_volume 3290.835147
_symmetry_space_group_name_H-M "A M A 2"
_symmetry_group_IT_number 40
_symmetry_cell_setting 'orthorhombic'
loop_
_space_group_symop_operation_xyz
x,y,z
-x,-y,z
1/2-x,y,z
1/2+x,-y,z
x,1/2+y,1/2+z
-x,1/2-y,1/2+z
1/2-x,1/2+y,1/2+z
1/2+x,1/2-y,1/2+z
loop_
_atom_site_type_symbol
_atom_site_label
_atom_site_fract_x
_atom_site_fract_y
_atom_site_fract_z
Si Si1 0.661315 0.792800 0.250000
Si Si2 0.903652 0.893996 0.637230
Si Si3 0.394042 0.725673 0.951386
Si Si4 0.839183 0.052695 0.967406
Si Si5 0.939498 0.258948 0.473709
Si Si6 0.662148 0.872755 0.836564
Si Si7 0.571152 0.433592 0.613427
Si Si8 0.082382 0.373968 0.139130
O O1 0.750000 0.798811 0.219619
O O2 0.654718 0.812363 0.362196
O O3 0.611319 0.878438 0.200526
O O4 0.627831 0.682227 0.223750
O O5 0.870610 0.836915 0.545089
O O6 0.853314 0.860699 0.726001
O O7 0.991545 0.865643 0.657667
O O8 0.891237 0.012459 0.626898
O O9 0.382991 0.843658 0.962550
O O10 0.483977 0.709062 0.931548
O O11 0.750000 0.075127 0.969159
O O12 0.861862 0.982452 0.877246
O O13 0.863162 0.999473 0.064565
O O14 0.884225 0.285146 0.388051
O O15 0.962225 0.355307 0.537153
O O16 0.895883 0.179724 0.540637
O O17 0.750000 0.853191 0.859521
O O18 0.500000 0.500000 0.650516
#
# Coordination Sequence:
#
# PCOD8183415 Si02
#       8
#     8   8   8   8   8   8   8   8
#     4  11  23  38  59  88 118 152 194 239 292 349
#     4  10  21  38  58  86 116 151 198 240 286 340
#     4  11  21  36  57  84 117 153 191 240 284 342
#     4  10  20  35  58  85 115 148 187 236 293 347
#     4   9  19  36  60  85 111 145 196 239 287 342
#     4  10  21  35  56  86 117 150 189 238 294 347
#     4  10  19  38  61  87 110 148 192 241 289 342
#     4   9  20  39  61  83 111 152 197 240 285 343
#
# _framework density 19.447949999999999
#
# number of rings (size 3 to 8) (size 9 to 14) (size 15 to 20)
#    0.000    2.000    1.250    2.250    0.000    6.500 
#    4.500    0.000    0.000    1.500    0.000    0.000 
#    0.000    0.000    0.000    0.000    0.000    0.000 
#
# Total GULP energy -396818.638456 kJ/mol
# GULP energy per Si atom -12400.582452 kJ/mol
# Density = 1.940369 g / cm^3
# Si number density = 19.447950 Si / 1000 Ang^3
#
#
#
# Elastic Constant Matrix: (Units=GPa)
#
#
# Indices 1 2 3 4 5 6 
#
# 1 72.4958 31.1265 39.4675 0.0000 0.0000 0.0000
# 2 31.1265 73.1019 62.0755 0.0000 0.0000 0.0000
# 3 39.4675 62.0755 121.1800 0.0000 0.0000 0.0000
# 4 0.0000 0.0000 0.0000 20.8223 0.0000 0.0000
# 5 0.0000 0.0000 0.0000 0.0000 23.8265 0.0000
# 6 0.0000 0.0000 0.0000 0.0000 0.0000 17.4652
#
#
#
# Elastic Compliance Matrix: (Units=1/GPa)
#
#
# Indices 1 2 3 4 5 6 
#
# 1 0.017618 -0.004653 -0.003354 0.000000 0.000000 0.000000
# 2 -0.004653 0.025440 -0.011516 0.000000 0.000000 0.000000
# 3 -0.003354 -0.011516 0.015244 0.000000 0.000000 0.000000
# 4 0.000000 0.000000 0.000000 0.048025 0.000000 0.000000
# 5 0.000000 0.000000 0.000000 0.000000 0.041970 0.000000
# 6 0.000000 0.000000 0.000000 0.000000 0.000000 0.057257
#
#
# Mechanical properties :
#
#
# Convention : Reuss Voigt Hill
#
# Bulk Modulus (GPa) = 51.93689 59.12407 55.53048
# Shear Modulus (GPa) = 19.91868 21.36335 20.64102
#
# Velocity S-wave (km/s) = 3.20379 3.31794 3.26137
# Velocity P-wave (km/s) = 6.35997 6.71904 6.54197
#
# Compressibility (1/GPa) = 0.01925414
#
# Stress axis : x y z
#
# Youngs Moduli (GPa) = 56.76027 39.30784 65.59921
#
# Poissons Ratio (x) = 0.18291 0.22005
# Poissons Ratio (y) = 0.26412 0.75547
# Poissons Ratio (z) = 0.19040 0.45269
#
# Static dielectric constant tensor:
#      x y z
#    x 3.422250 0.000000 0.000000 
#    y 0.000000 3.623050 0.000000 
#    z 0.000000 0.000000 3.504770 
# 
# 
# High freq. dielectric constant tensor:
#      x y z
#    x 1.755410 0.000000 0.000000 
#    y 0.000000 1.751170 0.000000 
#    z 0.000000 0.000000 1.751960 
# 
# From -- ./inp_files/17853.got.cif
#   From: 2010.03.12/outbox.cif.g09.slc.cpg/sg40_9_cif.got.tgz:17853.got - 2010.04.14 01:38:03.
