data_PCOD8183847
_publ_section_title
;
Structure prediction by ZEFSAII (Michael W. Deem and Ramdas Pophale) SiO2 
 PCOD8183847
Probable space group: A M A 2
;
_chemical_formula_sum "Si O2"
_cell_formula_units_Z 40
_cell_length_a 8.520116
_cell_length_b 9.734832
_cell_length_c 24.994602
_cell_angle_alpha 90.000000
_cell_angle_beta 90.000000
_cell_angle_gamma 90.000000
_cell_volume 2073.099727
_symmetry_space_group_name_H-M "A M A 2"
_symmetry_group_IT_number 40
_symmetry_cell_setting 'orthorhombic'
loop_
_space_group_symop_operation_xyz
x,y,z
-x,-y,z
1/2-x,y,z
1/2+x,-y,z
x,1/2+y,1/2+z
-x,1/2-y,1/2+z
1/2-x,1/2+y,1/2+z
1/2+x,1/2-y,1/2+z
loop_
_atom_site_type_symbol
_atom_site_label
_atom_site_fract_x
_atom_site_fract_y
_atom_site_fract_z
Si Si1 0.435623 0.152957 0.591150
Si Si2 0.065746 0.355283 0.387764
Si Si3 0.065801 0.353878 0.682245
Si Si4 0.934949 0.850170 0.002534
Si Si5 0.435926 0.852328 0.303924
O O1 0.250000 0.146394 0.590376
O O2 0.498365 0.234015 0.643597
O O3 0.493305 0.231708 0.538880
O O4 0.500000 0.000000 0.592283
O O5 0.250000 0.365047 0.399113
O O6 0.000000 0.500000 0.367746
O O7 0.979711 0.310578 0.442109
O O8 0.029390 0.251211 0.340784
O O9 0.250000 0.365937 0.677505
O O10 0.015742 0.319000 0.742839
O O11 0.000000 0.500000 0.663093
O O12 0.750000 0.852476 0.009496
O O13 0.000000 0.000000 0.018568
O O14 0.250000 0.842375 0.313175
O O15 0.500000 0.000000 0.320398
#
# Coordination Sequence:
#
# PCOD8183847 Si02
#       5
#     8   8   8   8   8
#     4  11  23  39  57  84 116 149 187 233 283 333
#     4  11  22  38  59  85 114 149 188 232 280 333
#     4   9  20  37  59  83 112 148 189 230 276 332
#     4  11  22  39  61  85 112 148 188 231 278 335
#     4  10  20  37  58  85 116 150 189 232 278 331
#
# _framework density 19.294779999999999
#
# number of rings (size 3 to 8) (size 9 to 14) (size 15 to 20)
#    0.000    1.600    0.000    6.600    0.000    5.600 
#    0.000    6.000    0.000    0.000    0.000    0.000 
#    0.000    0.000    0.000    0.000    0.000    0.000 
#
# Total GULP energy -248064.180926 kJ/mol
# GULP energy per Si atom -12403.209046 kJ/mol
# Density = 1.925086 g / cm^3
# Si number density = 19.294780 Si / 1000 Ang^3
#
#
#
# Elastic Constant Matrix: (Units=GPa)
#
#
# Indices 1 2 3 4 5 6 
#
# 1 63.9164 34.5070 19.4861 0.0000 0.0000 0.0000
# 2 34.5070 163.6364 95.6253 0.0000 0.0000 0.0000
# 3 19.4861 95.6253 107.1868 0.0000 0.0000 0.0000
# 4 0.0000 0.0000 0.0000 43.7475 0.0000 0.0000
# 5 0.0000 0.0000 0.0000 0.0000 38.3825 0.0000
# 6 0.0000 0.0000 0.0000 0.0000 0.0000 37.7150
#
#
#
# Elastic Compliance Matrix: (Units=1/GPa)
#
#
# Indices 1 2 3 4 5 6 
#
# 1 0.017658 -0.003860 0.000234 0.000000 0.000000 0.000000
# 2 -0.003860 0.013611 -0.011441 0.000000 0.000000 0.000000
# 3 0.000234 -0.011441 0.019494 0.000000 0.000000 0.000000
# 4 0.000000 0.000000 0.000000 0.022858 0.000000 0.000000
# 5 0.000000 0.000000 0.000000 0.000000 0.026054 0.000000
# 6 0.000000 0.000000 0.000000 0.000000 0.000000 0.026515
#
#
# Mechanical properties :
#
#
# Convention : Reuss Voigt Hill
#
# Bulk Modulus (GPa) = 48.47789 70.44183 59.45986
# Shear Modulus (GPa) = 30.63695 36.31042 33.47369
#
# Velocity S-wave (km/s) = 3.98909 4.34277 4.16968
# Velocity P-wave (km/s) = 6.81150 7.85708 7.35290
#
# Compressibility (1/GPa) = 0.02062796
#
# Stress axis : x y z
#
# Youngs Moduli (GPa) = 56.63073 73.46935 51.29751
#
# Poissons Ratio (x) = 0.28361 -0.01199
# Poissons Ratio (y) = 0.21861 0.58690
# Poissons Ratio (z) = -0.01323 0.84058
#
# Static dielectric constant tensor:
#      x y z
#    x 3.619980 0.000000 0.000000 
#    y 0.000000 3.508470 0.000000 
#    z 0.000000 0.000000 3.735160 
# 
# 
# High freq. dielectric constant tensor:
#      x y z
#    x 1.764560 0.000000 0.000000 
#    y 0.000000 1.752720 0.000000 
#    z 0.000000 0.000000 1.760810 
# 
# From -- ./inp_files/23803.got.cif
#   From: 2010.03.12/outbox.cif.g09.slc.cpg/sg40_12_cif.got.tgz:23803.got - 2010.04.14 01:38:03.
