data_PCOD8183848
_publ_section_title
;
Structure prediction by ZEFSAII (Michael W. Deem and Ramdas Pophale) SiO2 
 PCOD8183848
Probable space group: A M A 2
;
_chemical_formula_sum "Si O2"
_cell_formula_units_Z 64
_cell_length_a 32.060208
_cell_length_b 8.023463
_cell_length_c 11.310927
_cell_angle_alpha 90.000000
_cell_angle_beta 90.000000
_cell_angle_gamma 90.000000
_cell_volume 2909.553782
_symmetry_space_group_name_H-M "A M A 2"
_symmetry_group_IT_number 40
_symmetry_cell_setting 'orthorhombic'
loop_
_space_group_symop_operation_xyz
x,y,z
-x,-y,z
1/2-x,y,z
1/2+x,-y,z
x,1/2+y,1/2+z
-x,1/2-y,1/2+z
1/2-x,1/2+y,1/2+z
1/2+x,1/2-y,1/2+z
loop_
_atom_site_type_symbol
_atom_site_label
_atom_site_fract_x
_atom_site_fract_y
_atom_site_fract_z
Si Si1 0.104966 0.574241 0.740470
Si Si2 0.704111 0.385673 0.235388
Si Si3 0.018109 0.323082 0.002197
Si Si4 0.986105 0.313443 0.753760
Si Si5 0.674173 0.722065 0.142377
Si Si6 0.295793 0.999661 0.986823
Si Si7 0.107866 0.949820 0.490037
Si Si8 0.135946 0.791229 0.085435
O O1 0.063858 0.687092 0.752654
O O2 0.141895 0.708795 0.739603
O O3 0.109858 0.452035 0.850123
O O4 0.106770 0.445110 0.629111
O O5 0.750000 0.316811 0.197486
O O6 0.702701 0.579591 0.197235
O O7 0.699213 0.379812 0.375403
O O8 0.666862 0.273947 0.187205
O O9 0.998010 0.263644 0.127383
O O10 0.000000 0.500000 0.971250
O O11 0.067595 0.339073 0.024085
O O12 0.005036 0.227025 0.876459
O O13 0.000000 0.500000 0.745272
O O14 0.648367 0.644938 0.033759
O O15 0.701442 0.878391 0.099917
O O16 0.250000 0.913255 0.987499
O O17 0.332401 0.860841 0.985138
O O18 0.106590 0.141402 0.539090
#
# Coordination Sequence:
#
# PCOD8183848 Si02
#       8
#     8   8   8   8   8   8   8   8
#     4  11  21  39  60  85 119 156 199 251 294 359
#     4  10  20  37  58  86 121 157 197 243 293 352
#     4  11  24  43  64  90 122 159 200 251 309 366
#     4  11  24  43  64  90 122 159 200 251 309 366
#     4  10  21  36  59  88 118 156 204 242 303 344
#     4  10  20  37  58  86 121 157 197 243 293 352
#     4  11  21  39  60  85 119 156 199 251 294 359
#     4  10  23  36  59  90 118 156 200 242 303 342
#
# _framework density 21.996500000000001
#
# number of rings (size 3 to 8) (size 9 to 14) (size 15 to 20)
#    0.000    1.500    3.750    2.250    1.750    0.500 
#    0.000    0.000    0.000   12.000    0.000    0.000 
#    0.000    0.000    0.000    0.000    0.000    0.000 
#
# Total GULP energy -396450.890606 kJ/mol
# GULP energy per Si atom -12389.090331 kJ/mol
# Density = 2.194644 g / cm^3
# Si number density = 21.996500 Si / 1000 Ang^3
#
#
#
# Elastic Constant Matrix: (Units=GPa)
#
#
# Indices 1 2 3 4 5 6 
#
# 1 84.8360 4.1027 26.7818 0.0000 0.0000 0.0000
# 2 4.1027 48.1580 8.4274 0.0000 0.0000 0.0000
# 3 26.7818 8.4274 105.6818 0.0000 0.0000 0.0000
# 4 0.0000 0.0000 0.0000 34.1766 0.0000 0.0000
# 5 0.0000 0.0000 0.0000 0.0000 18.9240 0.0000
# 6 0.0000 0.0000 0.0000 0.0000 0.0000 11.7807
#
#
#
# Elastic Compliance Matrix: (Units=1/GPa)
#
#
# Indices 1 2 3 4 5 6 
#
# 1 0.012826 -0.000531 -0.003208 0.000000 0.000000 0.000000
# 2 -0.000531 0.021081 -0.001546 0.000000 0.000000 0.000000
# 3 -0.003208 -0.001546 0.010399 0.000000 0.000000 0.000000
# 4 0.000000 0.000000 0.000000 0.029260 0.000000 0.000000
# 5 0.000000 0.000000 0.000000 0.000000 0.052843 0.000000
# 6 0.000000 0.000000 0.000000 0.000000 0.000000 0.084884
#
#
# Mechanical properties :
#
#
# Convention : Reuss Voigt Hill
#
# Bulk Modulus (GPa) = 29.64366 35.25551 32.44958
# Shear Modulus (GPa) = 21.44924 26.26719 23.85822
#
# Velocity S-wave (km/s) = 3.12608 3.45940 3.29696
# Velocity P-wave (km/s) = 5.15127 5.65855 5.41086
#
# Compressibility (1/GPa) = 0.03373403
#
# Stress axis : x y z
#
# Youngs Moduli (GPa) = 77.96752 47.43645 96.16646
#
# Poissons Ratio (x) = 0.02520 0.30850
# Poissons Ratio (y) = 0.04142 0.14871
# Poissons Ratio (z) = 0.25012 0.07336
#
# Static dielectric constant tensor:
#      x y z
#    x 4.282060 0.000000 0.000000 
#    y 0.000000 3.728420 0.000000 
#    z 0.000000 0.000000 4.306600 
# 
# 
# High freq. dielectric constant tensor:
#      x y z
#    x 1.864530 0.000000 0.000000 
#    y 0.000000 1.845350 0.000000 
#    z 0.000000 0.000000 1.872580 
# 
# From -- ./inp_files/14422.got.cif
#   From: 2010.03.12/outbox.cif.g09.slc.cpg/sg40_8_cif.got.tgz:14422.got - 2010.04.14 01:38:03.
