data_PCOD8183694
_publ_section_title
;
Structure prediction by ZEFSAII (Michael W. Deem and Ramdas Pophale) SiO2 
 PCOD8183694
Probable space group: A M A 2
;
_chemical_formula_sum "Si O2"
_cell_formula_units_Z 64
_cell_length_a 8.842097
_cell_length_b 24.653119
_cell_length_c 15.214570
_cell_angle_alpha 90.000000
_cell_angle_beta 90.000000
_cell_angle_gamma 90.000000
_cell_volume 3316.552143
_symmetry_space_group_name_H-M "A M A 2"
_symmetry_group_IT_number 40
_symmetry_cell_setting 'orthorhombic'
loop_
_space_group_symop_operation_xyz
x,y,z
-x,-y,z
1/2-x,y,z
1/2+x,-y,z
x,1/2+y,1/2+z
-x,1/2-y,1/2+z
1/2-x,1/2+y,1/2+z
1/2+x,1/2-y,1/2+z
loop_
_atom_site_type_symbol
_atom_site_label
_atom_site_fract_x
_atom_site_fract_y
_atom_site_fract_z
Si Si1 0.576519 0.353831 0.465280
Si Si2 0.923632 0.328507 0.275651
Si Si3 0.423179 0.641798 0.084461
Si Si4 0.071075 0.891456 0.279947
Si Si5 0.072425 0.717888 0.748483
Si Si6 0.573236 0.556461 0.961498
Si Si7 0.071251 0.058018 0.106319
Si Si8 0.575984 0.234475 0.067020
O O1 0.750000 0.339313 0.486218
O O2 0.555742 0.366794 0.361205
O O3 0.524323 0.404982 0.523057
O O4 0.474198 0.301074 0.484009
O O5 0.750000 0.309596 0.263204
O O6 0.972440 0.360243 0.187400
O O7 0.022516 0.274752 0.289967
O O8 0.250000 0.623442 0.072685
O O9 0.448310 0.702236 0.046410
O O10 0.529497 0.601634 0.032086
O O11 0.250000 0.891432 0.266103
O O12 0.021150 0.926768 0.363884
O O13 0.012468 0.830793 0.298301
O O14 0.992408 0.916525 0.195011
O O15 0.250000 0.709864 0.760227
O O16 0.029350 0.714863 0.646321
O O17 0.500000 0.500000 0.988785
O O18 0.750000 0.548880 0.965203
O O19 0.250000 0.052238 0.115807
O O20 0.000000 0.000000 0.087945
O O21 0.750000 0.222989 0.091423
#
# Coordination Sequence:
#
# PCOD8183694 Si02
#       8
#     8   8   8   8   8   8   8   8
#     4  10  21  37  59  87 120 157 200 244 293 349
#     4   9  20  39  60  85 121 160 196 245 299 350
#     4   9  20  39  61  85 117 155 195 244 298 350
#     4  11  23  39  59  86 118 156 195 243 299 356
#     4  11  21  34  55  86 121 158 197 238 289 353
#     4  11  25  42  62  86 114 152 199 249 301 354
#     4  11  23  39  60  87 118 159 200 244 294 351
#     4  10  20  35  57  86 120 157 195 237 291 348
#
# _framework density 19.297149000000001
#
# number of rings (size 3 to 8) (size 9 to 14) (size 15 to 20)
#    0.000    1.750    1.250    3.750    1.750    6.500 
#    0.000    0.625    0.000    1.500    0.000    0.000 
#    0.000    0.000    0.000    0.000    0.000    0.000 
#
# Total GULP energy -396869.748067 kJ/mol
# GULP energy per Si atom -12402.179627 kJ/mol
# Density = 1.925323 g / cm^3
# Si number density = 19.297149 Si / 1000 Ang^3
#
#
#
# Elastic Constant Matrix: (Units=GPa)
#
#
# Indices 1 2 3 4 5 6 
#
# 1 69.2228 45.8721 44.7751 0.0000 0.0000 0.0000
# 2 45.8721 111.2795 65.4384 0.0000 0.0000 0.0000
# 3 44.7751 65.4384 125.9844 0.0000 0.0000 0.0000
# 4 0.0000 0.0000 0.0000 26.3473 0.0000 0.0000
# 5 0.0000 0.0000 0.0000 0.0000 25.4962 0.0000
# 6 0.0000 0.0000 0.0000 0.0000 0.0000 33.7253
#
#
#
# Elastic Compliance Matrix: (Units=1/GPa)
#
#
# Indices 1 2 3 4 5 6 
#
# 1 0.021417 -0.006267 -0.004357 0.000000 0.000000 0.000000
# 2 -0.006267 0.014772 -0.005446 0.000000 0.000000 0.000000
# 3 -0.004357 -0.005446 0.012314 0.000000 0.000000 0.000000
# 4 0.000000 0.000000 0.000000 0.037955 0.000000 0.000000
# 5 0.000000 0.000000 0.000000 0.000000 0.039222 0.000000
# 6 0.000000 0.000000 0.000000 0.000000 0.000000 0.029651
#
#
# Mechanical properties :
#
#
# Convention : Reuss Voigt Hill
#
# Bulk Modulus (GPa) = 61.10428 68.73977 64.92203
# Shear Modulus (GPa) = 25.91701 27.14048 26.52875
#
# Velocity S-wave (km/s) = 3.66874 3.75434 3.71178
# Velocity P-wave (km/s) = 7.04839 7.38190 7.21707
#
# Compressibility (1/GPa) = 0.01636547
#
# Stress axis : x y z
#
# Youngs Moduli (GPa) = 46.69234 67.69578 81.20586
#
# Poissons Ratio (x) = 0.42422 0.35378
# Poissons Ratio (y) = 0.29260 0.44222
# Poissons Ratio (z) = 0.20342 0.36865
#
# Static dielectric constant tensor:
#      x y z
#    x 3.521250 0.000000 0.000000 
#    y 0.000000 3.518640 0.000000 
#    z 0.000000 0.000000 3.577230 
# 
# 
# High freq. dielectric constant tensor:
#      x y z
#    x 1.755790 0.000000 0.000000 
#    y 0.000000 1.740440 0.000000 
#    z 0.000000 0.000000 1.753610 
# 
# From -- ./inp_files/15572.got.cif
#   From: 2010.03.12/outbox.cif.g09.slc.cpg/sg40_8_cif.got.tgz:15572.got - 2010.04.14 01:38:03.
