data_PCOD8183825
_publ_section_title
;
Structure prediction by ZEFSAII (Michael W. Deem and Ramdas Pophale) SiO2 
 PCOD8183825
Probable space group: A M A 2
;
_chemical_formula_sum "Si O2"
_cell_formula_units_Z 32
_cell_length_a 16.413299
_cell_length_b 8.858843
_cell_length_c 10.583604
_cell_angle_alpha 90.000000
_cell_angle_beta 90.000000
_cell_angle_gamma 90.000000
_cell_volume 1538.886068
_symmetry_space_group_name_H-M "A M A 2"
_symmetry_group_IT_number 40
_symmetry_cell_setting 'orthorhombic'
loop_
_space_group_symop_operation_xyz
x,y,z
-x,-y,z
1/2-x,y,z
1/2+x,-y,z
x,1/2+y,1/2+z
-x,1/2-y,1/2+z
1/2-x,1/2+y,1/2+z
1/2+x,1/2-y,1/2+z
loop_
_atom_site_type_symbol
_atom_site_label
_atom_site_fract_x
_atom_site_fract_y
_atom_site_fract_z
Si Si1 0.342509 0.616006 0.287490
Si Si2 0.412523 0.077914 0.527923
Si Si3 0.591094 0.063566 0.284128
Si Si4 0.588282 0.567266 0.507469
O O1 0.250000 0.675773 0.289452
O O2 0.360333 0.538601 0.152315
O O3 0.404508 0.755861 0.304676
O O4 0.352945 0.493092 0.397995
O O5 0.421476 0.254405 0.503790
O O6 0.500000 0.000000 0.545391
O O7 0.364296 0.012405 0.404599
O O8 0.626166 0.020940 0.145226
O O9 0.500000 0.000000 0.289277
O O10 0.500000 0.500000 0.485062
#
# Coordination Sequence:
#
# PCOD8183825 Si02
#       4
#     8   8   8   8
#     4  11  24  39  58  90 128 159 192 243 304 359
#     4  10  21  38  62  88 115 153 202 248 291 348
#     4   9  20  39  63  89 116 155 205 249 290 345
#     4  10  20  36  61  89 117 153 200 248 293 350
#
# _framework density 20.794262
#
# number of rings (size 3 to 8) (size 9 to 14) (size 15 to 20)
#    0.000    2.000    0.000    3.750    0.000   13.000 
#    0.000    0.000    0.000    0.000    0.000    0.000 
#    0.000    0.000    0.000    0.000    0.000    0.000 
#
# Total GULP energy -198262.987997 kJ/mol
# GULP energy per Si atom -12391.436750 kJ/mol
# Density = 2.074693 g / cm^3
# Si number density = 20.794262 Si / 1000 Ang^3
#
#
#
# Elastic Constant Matrix: (Units=GPa)
#
#
# Indices 1 2 3 4 5 6 
#
# 1 65.4433 38.1098 38.0742 0.0000 0.0000 0.0000
# 2 38.1098 106.5145 78.9568 0.0000 0.0000 0.0000
# 3 38.0742 78.9568 222.5973 0.0000 0.0000 0.0000
# 4 0.0000 0.0000 0.0000 39.6065 0.0000 0.0000
# 5 0.0000 0.0000 0.0000 0.0000 5.3747 0.0000
# 6 0.0000 0.0000 0.0000 0.0000 0.0000 17.0596
#
#
#
# Elastic Compliance Matrix: (Units=1/GPa)
#
#
# Indices 1 2 3 4 5 6 
#
# 1 0.019524 -0.006119 -0.001169 0.000000 0.000000 0.000000
# 2 -0.006119 0.014655 -0.004152 0.000000 0.000000 0.000000
# 3 -0.001169 -0.004152 0.006165 0.000000 0.000000 0.000000
# 4 0.000000 0.000000 0.000000 0.025248 0.000000 0.000000
# 5 0.000000 0.000000 0.000000 0.000000 0.186056 0.000000
# 6 0.000000 0.000000 0.000000 0.000000 0.000000 0.058618
#
#
# Mechanical properties :
#
#
# Convention : Reuss Voigt Hill
#
# Bulk Modulus (GPa) = 57.25798 78.31520 67.78659
# Shear Modulus (GPa) = 14.75068 28.36912 21.55990
#
# Velocity S-wave (km/s) = 2.66628 3.69762 3.22346
# Velocity P-wave (km/s) = 6.08884 7.48155 6.82083
#
# Compressibility (1/GPa) = 0.01746481
#
# Stress axis : x y z
#
# Youngs Moduli (GPa) = 51.21974 68.23513 162.20539
#
# Poissons Ratio (x) = 0.41752 0.18963
# Poissons Ratio (y) = 0.31340 0.67343
# Poissons Ratio (z) = 0.05988 0.28329
#
# Static dielectric constant tensor:
#      x y z
#    x 3.344280 0.000000 0.000000 
#    y 0.000000 3.718890 0.000000 
#    z 0.000000 0.000000 4.834660 
# 
# 
# High freq. dielectric constant tensor:
#      x y z
#    x 1.769800 0.000000 0.000000 
#    y 0.000000 1.809930 0.000000 
#    z 0.000000 0.000000 1.851420 
# 
# From -- ./inp_files/11697.got.cif
#   From: 2010.03.12/outbox.cif.g09.slc.cpg/sg40_6_cif.got.tgz:11697.got - 2010.04.14 01:38:03.
