data_PCOD8183985
_publ_section_title
;
Structure prediction by ZEFSAII (Michael W. Deem and Ramdas Pophale) SiO2 
 PCOD8183985
Probable space group: A M A 2
;
_chemical_formula_sum "Si O2"
_cell_formula_units_Z 64
_cell_length_a 24.944973
_cell_length_b 14.006444
_cell_length_c 8.107199
_cell_angle_alpha 90.000000
_cell_angle_beta 90.000000
_cell_angle_gamma 90.000000
_cell_volume 2832.577237
_symmetry_space_group_name_H-M "A M A 2"
_symmetry_group_IT_number 40
_symmetry_cell_setting 'orthorhombic'
loop_
_space_group_symop_operation_xyz
x,y,z
-x,-y,z
1/2-x,y,z
1/2+x,-y,z
x,1/2+y,1/2+z
-x,1/2-y,1/2+z
1/2-x,1/2+y,1/2+z
1/2+x,1/2-y,1/2+z
loop_
_atom_site_type_symbol
_atom_site_label
_atom_site_fract_x
_atom_site_fract_y
_atom_site_fract_z
Si Si1 0.890107 0.900847 0.952400
Si Si2 0.095215 0.391438 0.399064
Si Si3 0.692344 0.723080 0.466740
Si Si4 0.308625 0.222235 0.095697
Si Si5 0.476796 0.893898 0.382361
Si Si6 0.366692 0.900562 0.526249
Si Si7 0.688124 0.918603 0.642444
Si Si8 0.504709 0.295254 0.535702
O O1 0.853450 0.904530 0.790031
O O2 0.915154 0.005097 0.980386
O O3 0.848995 0.868066 0.096208
O O4 0.939641 0.827582 0.949364
O O5 0.144980 0.350170 0.506410
O O6 0.105810 0.392969 0.205373
O O7 0.043352 0.326992 0.418504
O O8 0.750000 0.684853 0.534195
O O9 0.696371 0.730801 0.271766
O O10 0.679851 0.827080 0.531460
O O11 0.250000 0.191458 0.028464
O O12 0.332962 0.305737 0.978924
O O13 0.412660 0.909201 0.387115
O O14 0.494551 0.821337 0.531187
O O15 0.496756 0.842402 0.214932
O O16 0.500000 0.000000 0.406514
O O17 0.327397 0.991522 0.528053
O O18 0.750000 0.930380 0.702584
#
# Coordination Sequence:
#
# PCOD8183985 Si02
#       8
#     8   8   8   8   8   8   8   8
#     4  11  23  41  64  97 135 176 235 288 359 428
#     4  10  23  40  67  92 131 183 226 292 347 424
#     4   9  21  39  61  93 130 174 224 281 352 421
#     4  10  20  39  63  90 130 174 222 286 351 418
#     4  12  28  47  73 104 142 194 240 296 364 430
#     4  10  22  42  64  97 131 179 236 279 363 427
#     4  10  22  40  67 101 137 179 234 296 361 438
#     4  12  27  46  69 102 143 182 239 296 358 437
#
# _framework density 22.594263999999999
#
# number of rings (size 3 to 8) (size 9 to 14) (size 15 to 20)
#    0.000    1.500    1.250    2.625    5.250    7.500 
#    0.000    0.625    0.000    3.750    0.000    0.000 
#    0.000    0.000    0.000    0.000    0.000    0.000 
#
# Total GULP energy -396583.090107 kJ/mol
# GULP energy per Si atom -12393.221566 kJ/mol
# Density = 2.254284 g / cm^3
# Si number density = 22.594264 Si / 1000 Ang^3
#
#
#
# Elastic Constant Matrix: (Units=GPa)
#
#
# Indices 1 2 3 4 5 6 
#
# 1 143.2449 47.6570 34.2695 0.0000 0.0000 0.0000
# 2 47.6570 135.3581 30.3827 0.0000 0.0000 0.0000
# 3 34.2695 30.3827 29.9261 0.0000 0.0000 0.0000
# 4 0.0000 0.0000 0.0000 30.1812 0.0000 0.0000
# 5 0.0000 0.0000 0.0000 0.0000 30.6717 0.0000
# 6 0.0000 0.0000 0.0000 0.0000 0.0000 -1.3368
#
#
#
# Elastic Compliance Matrix: (Units=1/GPa)
#
#
# Indices 1 2 3 4 5 6 
#
# 1 0.009764 -0.001202 -0.009961 0.000000 0.000000 0.000000
# 2 -0.001202 0.009716 -0.008488 0.000000 0.000000 0.000000
# 3 -0.009961 -0.008488 0.053440 0.000000 0.000000 0.000000
# 4 0.000000 0.000000 0.000000 0.033133 0.000000 0.000000
# 5 0.000000 0.000000 0.000000 0.000000 0.032603 0.000000
# 6 0.000000 0.000000 0.000000 0.000000 0.000000 -0.748082
#
#
# Mechanical properties :
#
#
# Convention : Reuss Voigt Hill
#
# Bulk Modulus (GPa) = 29.74569 59.23859 44.49214
# Shear Modulus (GPa) = -8.94587 24.98456 8.01935
#
# Velocity S-wave (km/s) = -1.99197 3.32895 1.88600
# Velocity P-wave (km/s) = 2.81125 6.40712 4.94744
#
# Compressibility (1/GPa) = 0.03361832
#
# Stress axis : x y z
#
# Youngs Moduli (GPa) = 102.41802 102.92059 18.71260
#
# Poissons Ratio (x) = 0.12370 0.18639
# Poissons Ratio (y) = 0.12309 0.15884
# Poissons Ratio (z) = 1.02017 0.87361
#
# Static dielectric constant tensor:
#      x y z
#    x 4.631760 0.000000 0.000000 
#    y 0.000000 4.426240 0.000000 
#    z 0.000000 0.000000 3.732450 
# 
# 
# High freq. dielectric constant tensor:
#      x y z
#    x 1.911930 0.000000 0.000000 
#    y 0.000000 1.901550 0.000000 
#    z 0.000000 0.000000 1.861740 
# 
# From -- ./inp_files/8930.got.cif
#   From: 2010.03.12/outbox.cif.g09.slc.cpg/sg40_5_cif.got.tgz:8930.got - 2010.04.14 01:38:03.
