data_PCOD8183639
_publ_section_title
;
Structure prediction by ZEFSAII (Michael W. Deem and Ramdas Pophale) SiO2 
 PCOD8183639
Probable space group: A M A 2
;
_chemical_formula_sum "Si O2"
_cell_formula_units_Z 56
_cell_length_a 8.675180
_cell_length_b 23.979679
_cell_length_c 13.828194
_cell_angle_alpha 90.000000
_cell_angle_beta 90.000000
_cell_angle_gamma 90.000000
_cell_volume 2876.651979
_symmetry_space_group_name_H-M "A M A 2"
_symmetry_group_IT_number 40
_symmetry_cell_setting 'orthorhombic'
loop_
_space_group_symop_operation_xyz
x,y,z
-x,-y,z
1/2-x,y,z
1/2+x,-y,z
x,1/2+y,1/2+z
-x,1/2-y,1/2+z
1/2-x,1/2+y,1/2+z
1/2+x,1/2-y,1/2+z
loop_
_atom_site_type_symbol
_atom_site_label
_atom_site_fract_x
_atom_site_fract_y
_atom_site_fract_z
Si Si1 0.569443 0.620697 0.486960
Si Si2 0.568007 0.666300 0.978319
Si Si3 0.068028 0.058293 0.157969
Si Si4 0.071238 0.441811 0.297265
Si Si5 0.933464 0.058800 0.366741
Si Si6 0.932012 0.777779 0.874992
Si Si7 0.433551 0.831262 0.695110
O O1 0.750000 0.622795 0.510316
O O2 0.475245 0.607122 0.583631
O O3 0.530634 0.573256 0.407868
O O4 0.517019 0.680230 0.447258
O O5 0.750000 0.662375 0.984912
O O6 0.505134 0.677914 0.086373
O O7 0.505469 0.607504 0.937574
O O8 0.517648 0.715893 0.907125
O O9 0.250000 0.053059 0.169017
O O10 0.994418 0.073212 0.260516
O O11 0.000000 0.000000 0.118782
O O12 0.250000 0.448290 0.282011
O O13 0.010269 0.392624 0.227990
O O14 0.000000 0.500000 0.265516
O O15 0.750000 0.055364 0.363582
O O16 0.000000 0.000000 0.404460
O O17 0.750000 0.787053 0.883118
O O18 0.987388 0.785615 0.764625
O O19 0.250000 0.824963 0.705665
#
# Coordination Sequence:
#
# PCOD8183639 Si02
#       7
#     8   8   8   8   8   8   8
#     4  10  20  35  53  77 109 148 185 223 272 327
#     4   9  20  38  60  80 106 143 181 220 271 327
#     4  11  21  34  53  80 112 148 186 229 275 326
#     4   9  18  30  49  74 103 137 174 212 259 310
#     4  10  20  37  57  80 110 144 181 227 274 325
#     4  10  20  36  56  82 109 138 179 228 273 322
#     4   9  19  38  56  75 106 144 177 215 268 325
#
# _framework density 19.467075999999999
#
# number of rings (size 3 to 8) (size 9 to 14) (size 15 to 20)
#    0.000    2.286    0.000    4.714    0.000    5.714 
#    0.000    8.571    0.000    0.000    0.000    0.000 
#    0.000    0.000    0.000    0.000    0.000    0.000 
#
# Total GULP energy -347210.821956 kJ/mol
# GULP energy per Si atom -12400.386498 kJ/mol
# Density = 1.942277 g / cm^3
# Si number density = 19.467076 Si / 1000 Ang^3
#
#
#
# Elastic Constant Matrix: (Units=GPa)
#
#
# Indices 1 2 3 4 5 6 
#
# 1 60.6488 31.7753 29.3203 0.0000 0.0000 0.0000
# 2 31.7753 131.2264 78.5593 0.0000 0.0000 0.0000
# 3 29.3203 78.5593 132.4340 0.0000 0.0000 0.0000
# 4 0.0000 0.0000 0.0000 25.4074 0.0000 0.0000
# 5 0.0000 0.0000 0.0000 0.0000 25.2654 0.0000
# 6 0.0000 0.0000 0.0000 0.0000 0.0000 28.2882
#
#
#
# Elastic Compliance Matrix: (Units=1/GPa)
#
#
# Indices 1 2 3 4 5 6 
#
# 1 0.019337 -0.003287 -0.002332 0.000000 0.000000 0.000000
# 2 -0.003287 0.012375 -0.006613 0.000000 0.000000 0.000000
# 3 -0.002332 -0.006613 0.011990 0.000000 0.000000 0.000000
# 4 0.000000 0.000000 0.000000 0.039359 0.000000 0.000000
# 5 0.000000 0.000000 0.000000 0.000000 0.039580 0.000000
# 6 0.000000 0.000000 0.000000 0.000000 0.000000 0.035350
#
#
# Mechanical properties :
#
#
# Convention : Reuss Voigt Hill
#
# Bulk Modulus (GPa) = 51.97547 67.06879 59.52213
# Shear Modulus (GPa) = 26.47347 28.10250 27.28799
#
# Velocity S-wave (km/s) = 3.69170 3.80358 3.74806
# Velocity P-wave (km/s) = 6.70288 7.33600 7.02657
#
# Compressibility (1/GPa) = 0.01923985
#
# Stress axis : x y z
#
# Youngs Moduli (GPa) = 51.71302 80.80578 83.40156
#
# Poissons Ratio (x) = 0.26557 0.19447
# Poissons Ratio (y) = 0.16996 0.55157
# Poissons Ratio (z) = 0.12058 0.53440
#
# Static dielectric constant tensor:
#      x y z
#    x 3.421650 0.000000 0.000000 
#    y 0.000000 3.848520 0.000000 
#    z 0.000000 0.000000 3.654730 
# 
# 
# High freq. dielectric constant tensor:
#      x y z
#    x 1.749060 0.000000 0.000000 
#    y 0.000000 1.757240 0.000000 
#    z 0.000000 0.000000 1.758260 
# 
# From -- ./inp_files/15313.got.cif
#   From: 2010.03.12/outbox.cif.g09.slc.cpg/sg40_8_cif.got.tgz:15313.got - 2010.04.14 01:38:03.
