data_PCOD8183065
_publ_section_title
;
Structure prediction by ZEFSAII (Michael W. Deem and Ramdas Pophale) SiO2 
 PCOD8183065
Probable space group: A M A 2
;
_chemical_formula_sum "Si O2"
_cell_formula_units_Z 64
_cell_length_a 8.562911
_cell_length_b 24.570694
_cell_length_c 15.167098
_cell_angle_alpha 90.000000
_cell_angle_beta 90.000000
_cell_angle_gamma 90.000000
_cell_volume 3191.106851
_symmetry_space_group_name_H-M "A M A 2"
_symmetry_group_IT_number 40
_symmetry_cell_setting 'orthorhombic'
loop_
_space_group_symop_operation_xyz
x,y,z
-x,-y,z
1/2-x,y,z
1/2+x,-y,z
x,1/2+y,1/2+z
-x,1/2-y,1/2+z
1/2-x,1/2+y,1/2+z
1/2+x,1/2-y,1/2+z
loop_
_atom_site_type_symbol
_atom_site_label
_atom_site_fract_x
_atom_site_fract_y
_atom_site_fract_z
Si Si1 0.429646 0.134198 0.153510
Si Si2 0.067239 0.645660 0.272816
Si Si3 0.565254 0.714976 0.935347
Si Si4 0.071890 0.240172 0.255802
Si Si5 0.566543 0.394282 0.976744
Si Si6 0.932705 0.558636 0.797461
Si Si7 0.932864 0.056242 0.647871
Si Si8 0.065470 0.165834 0.967963
O O1 0.250000 0.114859 0.164318
O O2 0.443601 0.198337 0.175235
O O3 0.538816 0.097170 0.213564
O O4 0.490009 0.129950 0.051716
O O5 0.250000 0.633433 0.260885
O O6 0.012115 0.639734 0.375017
O O7 0.033758 0.706764 0.238944
O O8 0.967894 0.603512 0.217058
O O9 0.750000 0.714220 0.923494
O O10 0.486448 0.706526 0.840329
O O11 0.512112 0.664471 0.995499
O O12 0.503885 0.771946 0.975512
O O13 0.250000 0.259362 0.268459
O O14 0.750000 0.386874 0.978358
O O15 0.516980 0.418581 0.883452
O O16 0.514627 0.434214 0.054117
O O17 0.750000 0.555150 0.817004
O O18 0.000000 0.500000 0.773235
O O19 0.750000 0.051846 0.632544
O O20 0.000000 0.000000 0.686833
O O21 0.250000 0.169072 0.969625
#
# Coordination Sequence:
#
# PCOD8183065 Si02
#       8
#     8   8   8   8   8   8   8   8
#     4  10  20  37  60  89 124 163 206 252 305 360
#     4  10  21  40  63  89 123 161 207 257 310 365
#     4  10  19  34  57  87 124 165 205 246 301 362
#     4  10  19  32  56  88 125 164 202 248 304 362
#     4  12  24  40  61  91 125 161 202 248 304 368
#     4  12  25  42  63  88 121 163 206 254 307 365
#     4  12  26  45  66  90 120 157 205 257 312 371
#     4   8  18  36  60  88 123 162 201 251 303 356
#
# _framework density 20.055738000000002
#
# number of rings (size 3 to 8) (size 9 to 14) (size 15 to 20)
#    0.000    1.500    1.250    5.625    1.750    0.500 
#    0.000    4.375    0.000    0.000    0.000    0.000 
#    0.000    0.000    0.000    0.000    0.000    0.000 
#
# Total GULP energy -396842.687690 kJ/mol
# GULP energy per Si atom -12401.333990 kJ/mol
# Density = 2.001009 g / cm^3
# Si number density = 20.055738 Si / 1000 Ang^3
#
#
#
# Elastic Constant Matrix: (Units=GPa)
#
#
# Indices 1 2 3 4 5 6 
#
# 1 49.4261 6.1097 27.3854 0.0000 0.0000 0.0000
# 2 6.1097 87.1376 41.2683 0.0000 0.0000 0.0000
# 3 27.3854 41.2683 104.8100 0.0000 0.0000 0.0000
# 4 0.0000 0.0000 0.0000 -48.8682 0.0000 0.0000
# 5 0.0000 0.0000 0.0000 0.0000 24.3343 0.0000
# 6 0.0000 0.0000 0.0000 0.0000 0.0000 34.3350
#
#
#
# Elastic Compliance Matrix: (Units=1/GPa)
#
#
# Indices 1 2 3 4 5 6 
#
# 1 0.023831 0.001571 -0.006845 0.000000 0.000000 0.000000
# 2 0.001571 0.014210 -0.006006 0.000000 0.000000 0.000000
# 3 -0.006845 -0.006006 0.013694 0.000000 0.000000 0.000000
# 4 0.000000 0.000000 0.000000 -0.020463 0.000000 0.000000
# 5 0.000000 0.000000 0.000000 0.000000 0.041094 0.000000
# 6 0.000000 0.000000 0.000000 0.000000 0.000000 0.029125
#
#
# Mechanical properties :
#
#
# Convention : Reuss Voigt Hill
#
# Bulk Modulus (GPa) = 34.27534 43.43339 38.85436
# Shear Modulus (GPa) = 37.37592 13.06760 25.22176
#
# Velocity S-wave (km/s) = 4.32163 2.55534 3.55009
# Velocity P-wave (km/s) = 6.48299 5.51450 6.01826
#
# Compressibility (1/GPa) = 0.02917549
#
# Stress axis : x y z
#
# Youngs Moduli (GPa) = 41.96263 70.37191 73.02299
#
# Poissons Ratio (x) = -0.11055 0.49986
# Poissons Ratio (y) = -0.06592 0.43855
# Poissons Ratio (z) = 0.28724 0.42263
#
# Static dielectric constant tensor:
#      x y z
#    x 3.582250 0.000000 0.000000 
#    y 0.000000 3.833550 0.000000 
#    z 0.000000 0.000000 3.819010 
# 
# 
# High freq. dielectric constant tensor:
#      x y z
#    x 1.781830 0.000000 0.000000 
#    y 0.000000 1.777250 0.000000 
#    z 0.000000 0.000000 1.781740 
# 
# From -- ./inp_files/15699.got.cif
#   From: 2010.03.12/outbox.cif.g09.slc.cpg/sg40_8_cif.got.tgz:15699.got - 2010.04.14 01:38:03.
