data_PCOD8183325
_publ_section_title
;
Structure prediction by ZEFSAII (Michael W. Deem and Ramdas Pophale) SiO2 
 PCOD8183325
Probable space group: A M A 2
;
_chemical_formula_sum "Si O2"
_cell_formula_units_Z 56
_cell_length_a 22.086222
_cell_length_b 9.356516
_cell_length_c 13.500161
_cell_angle_alpha 90.000000
_cell_angle_beta 90.000000
_cell_angle_gamma 90.000000
_cell_volume 2789.809479
_symmetry_space_group_name_H-M "A M A 2"
_symmetry_group_IT_number 40
_symmetry_cell_setting 'orthorhombic'
loop_
_space_group_symop_operation_xyz
x,y,z
-x,-y,z
1/2-x,y,z
1/2+x,-y,z
x,1/2+y,1/2+z
-x,1/2-y,1/2+z
1/2-x,1/2+y,1/2+z
1/2+x,1/2-y,1/2+z
loop_
_atom_site_type_symbol
_atom_site_label
_atom_site_fract_x
_atom_site_fract_y
_atom_site_fract_z
Si Si1 0.321309 0.574738 0.281010
Si Si2 0.096546 0.303942 0.265774
Si Si3 0.382112 0.155216 0.976696
Si Si4 0.573665 0.153973 0.981435
Si Si5 0.975210 0.655898 0.069849
Si Si6 0.182325 0.593005 0.670574
Si Si7 0.817857 0.217387 0.108742
O O1 0.250000 0.561129 0.299859
O O2 0.350747 0.420225 0.274933
O O3 0.351297 0.665091 0.369779
O O4 0.336230 0.650194 0.177409
O O5 0.061014 0.291197 0.369755
O O6 0.046807 0.343559 0.183419
O O7 0.130808 0.156522 0.241917
O O8 0.427984 0.018895 0.985501
O O9 0.420258 0.299820 0.996708
O O10 0.329246 0.143422 0.057893
O O11 0.526825 0.223866 0.057895
O O12 0.640249 0.208755 0.012495
O O13 0.000000 0.500000 0.040322
O O14 0.250000 0.642803 0.700802
O O15 0.176493 0.422572 0.677628
O O16 0.750000 0.234461 0.067506
#
# Coordination Sequence:
#
# PCOD8183325 Si02
#       7
#     8   8   8   8   8   8   8
#     4  10  19  35  60  88 115 146 183 231 284 337
#     4  10  22  36  56  82 107 144 190 233 277 334
#     4   9  20  36  57  81 108 146 190 224 270 339
#     4  10  21  38  57  78 108 148 188 226 275 337
#     4  11  23  38  55  79 111 145 185 238 285 326
#     4   9  17  33  54  80 112 142 176 225 277 329
#     4   9  19  34  55  82 113 145 180 225 279 334
#
# _framework density 20.073055
#
# number of rings (size 3 to 8) (size 9 to 14) (size 15 to 20)
#    0.000    2.286    0.000    2.143    0.000    8.571 
#    0.000    2.857    0.000    7.714    0.000    0.000 
#    0.000    0.000    0.000    0.000    0.000    0.000 
#
# Total GULP energy -347203.414662 kJ/mol
# GULP energy per Si atom -12400.121952 kJ/mol
# Density = 2.002737 g / cm^3
# Si number density = 20.073055 Si / 1000 Ang^3
#
#
#
# Elastic Constant Matrix: (Units=GPa)
#
#
# Indices 1 2 3 4 5 6 
#
# 1 75.8716 27.0874 37.0409 0.0000 0.0000 0.0000
# 2 27.0874 56.1961 25.6882 0.0000 0.0000 0.0000
# 3 37.0409 25.6882 99.6034 0.0000 0.0000 0.0000
# 4 0.0000 0.0000 0.0000 22.6228 0.0000 0.0000
# 5 0.0000 0.0000 0.0000 0.0000 32.1767 0.0000
# 6 0.0000 0.0000 0.0000 0.0000 0.0000 33.7743
#
#
#
# Elastic Compliance Matrix: (Units=1/GPa)
#
#
# Indices 1 2 3 4 5 6 
#
# 1 0.017891 -0.006328 -0.005021 0.000000 0.000000 0.000000
# 2 -0.006328 0.022412 -0.003427 0.000000 0.000000 0.000000
# 3 -0.005021 -0.003427 0.012791 0.000000 0.000000 0.000000
# 4 0.000000 0.000000 0.000000 0.044203 0.000000 0.000000
# 5 0.000000 0.000000 0.000000 0.000000 0.031078 0.000000
# 6 0.000000 0.000000 0.000000 0.000000 0.000000 0.029608
#
#
# Mechanical properties :
#
#
# Convention : Reuss Voigt Hill
#
# Bulk Modulus (GPa) = 42.47932 45.70045 44.08988
# Shear Modulus (GPa) = 25.59082 27.17174 26.38128
#
# Velocity S-wave (km/s) = 3.57443 3.68318 3.62921
# Velocity P-wave (km/s) = 6.18415 6.39564 6.29078
#
# Compressibility (1/GPa) = 0.02354087
#
# Stress axis : x y z
#
# Youngs Moduli (GPa) = 55.89447 44.61985 78.18084
#
# Poissons Ratio (x) = 0.28237 0.39256
# Poissons Ratio (y) = 0.35372 0.26790
# Poissons Ratio (z) = 0.28066 0.15290
#
# Static dielectric constant tensor:
#      x y z
#    x 3.664000 0.000000 0.000000 
#    y 0.000000 3.597420 0.000000 
#    z 0.000000 0.000000 3.567180 
# 
# 
# High freq. dielectric constant tensor:
#      x y z
#    x 1.790850 0.000000 0.000000 
#    y 0.000000 1.775510 0.000000 
#    z 0.000000 0.000000 1.772640 
# 
# From -- ./inp_files/18196.got.cif
#   From: 2010.03.12/outbox.cif.g09.slc.cpg/sg40_10_cif.got.tgz:18196.got - 2010.04.14 01:38:03.
