data_PCOD8183233
_publ_section_title
;
Structure prediction by ZEFSAII (Michael W. Deem and Ramdas Pophale) SiO2 
 PCOD8183233
Probable space group: A M A 2
;
_chemical_formula_sum "Si O2"
_cell_formula_units_Z 56
_cell_length_a 8.703579
_cell_length_b 14.479147
_cell_length_c 21.818036
_cell_angle_alpha 90.000000
_cell_angle_beta 90.000000
_cell_angle_gamma 90.000000
_cell_volume 2749.517619
_symmetry_space_group_name_H-M "A M A 2"
_symmetry_group_IT_number 40
_symmetry_cell_setting 'orthorhombic'
loop_
_space_group_symop_operation_xyz
x,y,z
-x,-y,z
1/2-x,y,z
1/2+x,-y,z
x,1/2+y,1/2+z
-x,1/2-y,1/2+z
1/2-x,1/2+y,1/2+z
1/2+x,1/2-y,1/2+z
loop_
_atom_site_type_symbol
_atom_site_label
_atom_site_fract_x
_atom_site_fract_y
_atom_site_fract_z
Si Si1 0.930758 0.100883 0.416710
Si Si2 0.567194 0.095642 0.628212
Si Si3 0.428837 0.711365 0.808658
Si Si4 0.567407 0.402984 0.555861
Si Si5 0.067827 0.216785 0.526619
Si Si6 0.427771 0.592750 0.694103
Si Si7 0.570571 0.092600 0.767285
O O1 0.750000 0.093729 0.428233
O O2 0.962482 0.159623 0.355849
O O3 0.009820 0.149858 0.473653
O O4 0.000000 0.000000 0.407618
O O5 0.750000 0.097487 0.621383
O O6 0.496373 0.180596 0.591176
O O7 0.509964 0.107200 0.698062
O O8 0.500000 0.000000 0.601088
O O9 0.250000 0.695151 0.825860
O O10 0.463293 0.676696 0.739744
O O11 0.472232 0.819745 0.809305
O O12 0.500000 0.500000 0.531357
O O13 0.750000 0.402708 0.549006
O O14 0.496489 0.320088 0.515573
O O15 0.509567 0.386527 0.625910
O O16 0.250000 0.218502 0.526583
O O17 0.500000 0.500000 0.722111
O O18 0.250000 0.573104 0.688444
O O19 0.750000 0.078626 0.764245
O O20 0.500000 0.000000 0.796959
#
# Coordination Sequence:
#
# PCOD8183233 Si02
#       7
#     8   8   8   8   8   8   8
#     4  12  26  44  63  85 112 146 187 235 285 340
#     4  10  19  34  56  86 120 154 189 232 284 341
#     4  10  20  37  58  83 114 151 191 234 281 333
#     4  10  20  37  59  87 120 154 190 233 282 337
#     4  12  24  39  59  84 113 151 194 239 286 337
#     4   9  18  32  54  83 117 151 185 226 279 336
#     4   9  19  35  57  84 118 153 188 231 281 334
#
# _framework density 20.36721
#
# number of rings (size 3 to 8) (size 9 to 14) (size 15 to 20)
#    0.000    1.714    0.000    5.143    0.000    5.714 
#    0.000    2.143    0.000    1.714    0.000    0.000 
#    0.000    0.000    0.000    0.000    0.000    0.000 
#
# Total GULP energy -347269.793263 kJ/mol
# GULP energy per Si atom -12402.492617 kJ/mol
# Density = 2.032085 g / cm^3
# Si number density = 20.367210 Si / 1000 Ang^3
#
#
#
# Elastic Constant Matrix: (Units=GPa)
#
#
# Indices 1 2 3 4 5 6 
#
# 1 103.6251 51.6701 23.8013 0.0000 0.0000 0.0000
# 2 51.6701 157.6884 35.8347 0.0000 0.0000 0.0000
# 3 23.8013 35.8347 49.3434 0.0000 0.0000 0.0000
# 4 0.0000 0.0000 0.0000 76.3393 0.0000 0.0000
# 5 0.0000 0.0000 0.0000 0.0000 28.5165 0.0000
# 6 0.0000 0.0000 0.0000 0.0000 0.0000 38.1432
#
#
#
# Elastic Compliance Matrix: (Units=1/GPa)
#
#
# Indices 1 2 3 4 5 6 
#
# 1 0.012024 -0.003140 -0.003520 0.000000 0.000000 0.000000
# 2 -0.003140 0.008415 -0.004597 0.000000 0.000000 0.000000
# 3 -0.003520 -0.004597 0.025302 0.000000 0.000000 0.000000
# 4 0.000000 0.000000 0.000000 0.013099 0.000000 0.000000
# 5 0.000000 0.000000 0.000000 0.000000 0.035067 0.000000
# 6 0.000000 0.000000 0.000000 0.000000 0.000000 0.026217
#
#
# Mechanical properties :
#
#
# Convention : Reuss Voigt Hill
#
# Bulk Modulus (GPa) = 43.05011 59.25213 51.15112
# Shear Modulus (GPa) = 33.24885 41.88985 37.56935
#
# Velocity S-wave (km/s) = 4.04477 4.54004 4.29954
# Velocity P-wave (km/s) = 6.55716 7.52580 7.05812
#
# Compressibility (1/GPa) = 0.02322874
#
# Stress axis : x y z
#
# Youngs Moduli (GPa) = 83.16450 118.83308 39.52253
#
# Poissons Ratio (x) = 0.37316 0.13910
# Poissons Ratio (y) = 0.26116 0.18167
# Poissons Ratio (z) = 0.29270 0.54623
#
# Static dielectric constant tensor:
#      x y z
#    x 3.666040 0.000000 0.000000 
#    y 0.000000 3.253580 0.000000 
#    z 0.000000 0.000000 3.570960 
# 
# 
# High freq. dielectric constant tensor:
#      x y z
#    x 1.795350 0.000000 0.000000 
#    y 0.000000 1.812820 0.000000 
#    z 0.000000 0.000000 1.773040 
# 
# From -- ./inp_files/22162.got.cif
#   From: 2010.03.12/outbox.cif.g09.slc.cpg/sg40_12_cif.got.tgz:22162.got - 2010.04.14 01:38:03.
