data_PCOD8183477
_publ_section_title
;
Structure prediction by ZEFSAII (Michael W. Deem and Ramdas Pophale) SiO2 
 PCOD8183477
Probable space group: A M A 2
;
_chemical_formula_sum "Si O2"
_cell_formula_units_Z 36
_cell_length_a 9.047596
_cell_length_b 18.177499
_cell_length_c 11.307233
_cell_angle_alpha 90.000000
_cell_angle_beta 90.000000
_cell_angle_gamma 90.000000
_cell_volume 1859.617698
_symmetry_space_group_name_H-M "A M A 2"
_symmetry_group_IT_number 40
_symmetry_cell_setting 'orthorhombic'
loop_
_space_group_symop_operation_xyz
x,y,z
-x,-y,z
1/2-x,y,z
1/2+x,-y,z
x,1/2+y,1/2+z
-x,1/2-y,1/2+z
1/2-x,1/2+y,1/2+z
1/2+x,1/2-y,1/2+z
loop_
_atom_site_type_symbol
_atom_site_label
_atom_site_fract_x
_atom_site_fract_y
_atom_site_fract_z
Si Si1 0.750000 0.234160 0.104491
Si Si2 0.250000 0.906926 0.680308
Si Si3 0.250000 0.102618 0.824507
Si Si4 0.250000 0.272632 0.871985
Si Si5 0.750000 0.091554 0.963009
Si Si6 0.995648 0.160880 0.535004
Si Si7 0.750000 0.434091 0.065949
Si Si8 0.000000 0.000000 0.927962
O O1 0.750000 0.202029 0.236238
O O2 0.597725 0.274737 0.081815
O O3 0.750000 0.173432 0.003030
O O4 0.250000 0.919797 0.819938
O O5 0.104658 0.862029 0.646181
O O6 0.250000 0.981143 0.601041
O O7 0.250000 0.183244 0.887310
O O8 0.250000 0.117560 0.684352
O O9 0.398125 0.055648 0.851195
O O10 0.103999 0.309287 0.927992
O O11 0.895362 0.049588 0.011207
O O12 0.101092 0.091414 0.495401
#
# Coordination Sequence:
#
# PCOD8183477 Si02
#       8
#     4   4   4   4   4   8   4   4
#     4  11  24  39  63  84 132 165 199 249 298 378
#     4  11  21  35  65  95 122 144 203 264 315 353
#     4  11  19  33  58  88 124 150 189 255 309 345
#     4  11  23  41  58  84 134 166 203 241 304 379
#     4  11  22  35  61  93 114 155 195 256 310 357
#     4  10  23  37  57  94 120 165 198 244 312 358
#     4  11  19  35  61  92 118 148 201 261 308 338
#     4  10  20  32  58  92 116 148 190 262 306 342
#
# _framework density 19.358817999999999
#
# number of rings (size 3 to 8) (size 9 to 14) (size 15 to 20)
#    0.000    1.333    4.444    3.333    3.111    0.000 
#    0.000    0.000    9.778    0.000    0.000    0.000 
#    0.000    0.000    0.000    0.000    0.000    0.000 
#
# Total GULP energy -223032.579899 kJ/mol
# GULP energy per Si atom -12390.698883 kJ/mol
# Density = 1.931476 g / cm^3
# Si number density = 19.358818 Si / 1000 Ang^3
#
#
#
# Elastic Constant Matrix: (Units=GPa)
#
#
# Indices 1 2 3 4 5 6 
#
# 1 162.6062 67.0659 36.9003 0.0000 0.0000 0.0000
# 2 67.0659 134.7607 39.1294 0.0000 0.0000 0.0000
# 3 36.9003 39.1294 60.2133 0.0000 0.0000 0.0000
# 4 0.0000 0.0000 0.0000 28.3804 0.0000 0.0000
# 5 0.0000 0.0000 0.0000 0.0000 -13.8828 0.0000
# 6 0.0000 0.0000 0.0000 0.0000 0.0000 31.2377
#
#
#
# Elastic Compliance Matrix: (Units=1/GPa)
#
#
# Indices 1 2 3 4 5 6 
#
# 1 0.008129 -0.003204 -0.002900 0.000000 0.000000 0.000000
# 2 -0.003204 0.010409 -0.004801 0.000000 0.000000 0.000000
# 3 -0.002900 -0.004801 0.021505 0.000000 0.000000 0.000000
# 4 0.000000 0.000000 0.000000 0.035236 0.000000 0.000000
# 5 0.000000 0.000000 0.000000 0.000000 -0.072031 0.000000
# 6 0.000000 0.000000 0.000000 0.000000 0.000000 0.032013
#
#
# Mechanical properties :
#
#
# Convention : Reuss Voigt Hill
#
# Bulk Modulus (GPa) = 54.84318 71.53015 63.18667
# Shear Modulus (GPa) = 79.18102 23.44602 51.31352
#
# Velocity S-wave (km/s) = 6.40239 3.48390 5.15404
# Velocity P-wave (km/s) = 9.11293 7.29474 8.25405
#
# Compressibility (1/GPa) = 0.01823381
#
# Stress axis : x y z
#
# Youngs Moduli (GPa) = 123.01300 96.07161 46.50152
#
# Poissons Ratio (x) = 0.30778 0.13485
# Poissons Ratio (y) = 0.39409 0.22325
# Poissons Ratio (z) = 0.35673 0.46123
#
# Static dielectric constant tensor:
#      x y z
#    x 4.127780 0.000000 0.000000 
#    y 0.000000 3.754450 0.000000 
#    z 0.000000 0.000000 3.126830 
# 
# 
# High freq. dielectric constant tensor:
#      x y z
#    x 1.789480 0.000000 0.000000 
#    y 0.000000 1.767800 0.000000 
#    z 0.000000 0.000000 1.695540 
# 
# From -- ./inp_files/4174.got.cif
#   From: 2010.03.12/outbox.cif.g09.slc.cpg/sg40_3_cif.got.tgz:4174.got - 2010.04.14 01:38:03.
