data_PCOD8183564
_publ_section_title
;
Structure prediction by ZEFSAII (Michael W. Deem and Ramdas Pophale) SiO2 
 PCOD8183564
Probable space group: A M A 2
;
_chemical_formula_sum "Si O2"
_cell_formula_units_Z 56
_cell_length_a 9.051173
_cell_length_b 23.660464
_cell_length_c 13.524595
_cell_angle_alpha 90.000000
_cell_angle_beta 90.000000
_cell_angle_gamma 90.000000
_cell_volume 2896.359006
_symmetry_space_group_name_H-M "A M A 2"
_symmetry_group_IT_number 40
_symmetry_cell_setting 'orthorhombic'
loop_
_space_group_symop_operation_xyz
x,y,z
-x,-y,z
1/2-x,y,z
1/2+x,-y,z
x,1/2+y,1/2+z
-x,1/2-y,1/2+z
1/2-x,1/2+y,1/2+z
1/2+x,1/2-y,1/2+z
loop_
_atom_site_type_symbol
_atom_site_label
_atom_site_fract_x
_atom_site_fract_y
_atom_site_fract_z
Si Si1 0.580876 0.660825 0.468650
Si Si2 0.923208 0.626190 0.986759
Si Si3 0.577930 0.170165 0.193383
Si Si4 0.078294 0.557290 0.376193
Si Si5 0.080524 0.942715 0.295511
Si Si6 0.077807 0.722543 0.869279
Si Si7 0.576685 0.942020 0.647700
O O1 0.750000 0.640295 0.462121
O O2 0.544385 0.681921 0.579211
O O3 0.477182 0.608922 0.441765
O O4 0.550158 0.712232 0.394773
O O5 0.750000 0.634369 0.007132
O O6 0.953508 0.576937 0.907098
O O7 0.988918 0.684801 0.947594
O O8 0.006046 0.609673 0.087414
O O9 0.750000 0.178933 0.220705
O O10 0.529338 0.106306 0.220263
O O11 0.482652 0.213766 0.258375
O O12 0.250000 0.548912 0.394775
O O13 0.042783 0.570339 0.262004
O O14 0.000000 0.500000 0.411182
O O15 0.250000 0.956270 0.280618
O O16 0.000000 0.000000 0.268121
O O17 0.250000 0.706559 0.875123
O O18 0.750000 0.946670 0.625442
O O19 0.500000 0.000000 0.613780
#
# Coordination Sequence:
#
# PCOD8183564 Si02
#       7
#     8   8   8   8   8   8   8
#     4  10  22  40  61  83 110 145 185 228 277 331
#     4  10  20  34  53  78 110 150 189 227 276 333
#     4   9  20  39  57  77 110 147 181 224 277 332
#     4  10  22  39  59  83 113 147 185 229 276 327
#     4   9  18  31  49  74 104 139 177 217 266 318
#     4  10  21  37  57  83 112 143 184 234 280 328
#     4  10  20  34  53  80 113 149 188 231 278 329
#
# _framework density 19.334620999999999
#
# number of rings (size 3 to 8) (size 9 to 14) (size 15 to 20)
#    0.000    2.286    0.000    3.000    0.000    9.143 
#    0.000    5.714    0.000    0.000    0.000    0.000 
#    0.000    0.000    0.000    0.000    0.000    0.000 
#
# Total GULP energy -347305.604657 kJ/mol
# GULP energy per Si atom -12403.771595 kJ/mol
# Density = 1.929061 g / cm^3
# Si number density = 19.334621 Si / 1000 Ang^3
#
#
#
# Elastic Constant Matrix: (Units=GPa)
#
#
# Indices 1 2 3 4 5 6 
#
# 1 98.4687 53.0853 45.8308 0.0000 0.0000 0.0000
# 2 53.0853 97.4050 46.5750 0.0000 0.0000 0.0000
# 3 45.8308 46.5750 79.9420 0.0000 0.0000 0.0000
# 4 0.0000 0.0000 0.0000 24.2838 0.0000 0.0000
# 5 0.0000 0.0000 0.0000 0.0000 31.8278 0.0000
# 6 0.0000 0.0000 0.0000 0.0000 0.0000 31.8125
#
#
#
# Elastic Compliance Matrix: (Units=1/GPa)
#
#
# Indices 1 2 3 4 5 6 
#
# 1 0.016055 -0.006028 -0.005692 0.000000 0.000000 0.000000
# 2 -0.006028 0.016494 -0.006154 0.000000 0.000000 0.000000
# 3 -0.005692 -0.006154 0.019358 0.000000 0.000000 0.000000
# 4 0.000000 0.000000 0.000000 0.041180 0.000000 0.000000
# 5 0.000000 0.000000 0.000000 0.000000 0.031419 0.000000
# 6 0.000000 0.000000 0.000000 0.000000 0.000000 0.031434
#
#
# Mechanical properties :
#
#
# Convention : Reuss Voigt Hill
#
# Bulk Modulus (GPa) = 61.88683 62.97754 62.43219
# Shear Modulus (GPa) = 25.37127 26.27312 25.82220
#
# Velocity S-wave (km/s) = 3.62639 3.69028 3.65847
# Velocity P-wave (km/s) = 7.04358 7.12746 7.08564
#
# Compressibility (1/GPa) = 0.01615853
#
# Stress axis : x y z
#
# Youngs Moduli (GPa) = 62.28774 60.62775 51.65912
#
# Poissons Ratio (x) = 0.36546 0.29405
# Poissons Ratio (y) = 0.37546 0.31790
# Poissons Ratio (z) = 0.35455 0.37309
#
# Static dielectric constant tensor:
#      x y z
#    x 3.557940 0.000000 0.000000 
#    y 0.000000 3.371240 0.000000 
#    z 0.000000 0.000000 3.525160 
# 
# 
# High freq. dielectric constant tensor:
#      x y z
#    x 1.758200 0.000000 0.000000 
#    y 0.000000 1.747160 0.000000 
#    z 0.000000 0.000000 1.749850 
# 
# From -- ./inp_files/15316.got.cif
#   From: 2010.03.12/outbox.cif.g09.slc.cpg/sg40_8_cif.got.tgz:15316.got - 2010.04.14 01:38:03.
