data_PCOD8183908
_publ_section_title
;
Structure prediction by ZEFSAII (Michael W. Deem and Ramdas Pophale) SiO2 
 PCOD8183908
Probable space group: A M A 2
;
_chemical_formula_sum "Si O2"
_cell_formula_units_Z 40
_cell_length_a 13.458631
_cell_length_b 16.905705
_cell_length_c 8.627964
_cell_angle_alpha 90.000000
_cell_angle_beta 90.000000
_cell_angle_gamma 90.000000
_cell_volume 1963.100333
_symmetry_space_group_name_H-M "A M A 2"
_symmetry_group_IT_number 40
_symmetry_cell_setting 'orthorhombic'
loop_
_space_group_symop_operation_xyz
x,y,z
-x,-y,z
1/2-x,y,z
1/2+x,-y,z
x,1/2+y,1/2+z
-x,1/2-y,1/2+z
1/2-x,1/2+y,1/2+z
1/2+x,1/2-y,1/2+z
loop_
_atom_site_type_symbol
_atom_site_label
_atom_site_fract_x
_atom_site_fract_y
_atom_site_fract_z
Si Si1 0.865011 0.202904 0.609540
Si Si2 0.527072 0.228295 0.289953
Si Si3 0.491823 0.411712 0.574399
Si Si4 0.362110 0.449202 0.286086
Si Si5 0.134335 0.622002 0.324596
O O1 0.750000 0.228905 0.578603
O O2 0.939995 0.219981 0.467868
O O3 0.868464 0.108497 0.638843
O O4 0.910250 0.250993 0.758368
O O5 0.553819 0.147072 0.202098
O O6 0.586666 0.305673 0.226892
O O7 0.500000 0.500000 0.646537
O O8 0.421216 0.410396 0.426065
O O9 0.597385 0.380302 0.505642
O O10 0.250000 0.457756 0.346262
O O11 0.399498 0.538468 0.245003
O O12 0.250000 0.636144 0.324785
#
# Coordination Sequence:
#
# PCOD8183908 Si02
#       5
#     8   8   8   8   8
#     4  11  23  40  63  93 129 159 205 262 310 371
#     4  12  22  38  62  93 123 168 204 256 320 356
#     4  10  21  39  59  91 122 164 205 253 307 378
#     4   9  19  38  63  87 117 162 205 254 314 374
#     4  10  20  37  64  88 117 160 209 251 302 370
#
# _framework density 20.375933
#
# number of rings (size 3 to 8) (size 9 to 14) (size 15 to 20)
#    0.000    1.600    4.000    0.600    0.000    1.600 
#    3.600    2.000    0.000    0.000    0.000    0.000 
#    0.000    0.000    0.000    0.000    0.000    0.000 
#
# Total GULP energy -247762.232164 kJ/mol
# GULP energy per Si atom -12388.111608 kJ/mol
# Density = 2.032956 g / cm^3
# Si number density = 20.375933 Si / 1000 Ang^3
#
#
#
# Elastic Constant Matrix: (Units=GPa)
#
#
# Indices 1 2 3 4 5 6 
#
# 1 85.7132 44.9193 47.8243 0.0000 0.0000 0.0000
# 2 44.9193 149.6210 49.0351 0.0000 0.0000 0.0000
# 3 47.8243 49.0351 64.9465 0.0000 0.0000 0.0000
# 4 0.0000 0.0000 0.0000 38.4504 0.0000 0.0000
# 5 0.0000 0.0000 0.0000 0.0000 16.4145 0.0000
# 6 0.0000 0.0000 0.0000 0.0000 0.0000 26.5176
#
#
#
# Elastic Compliance Matrix: (Units=1/GPa)
#
#
# Indices 1 2 3 4 5 6 
#
# 1 0.020077 -0.001571 -0.013598 0.000000 0.000000 0.000000
# 2 -0.001571 0.009004 -0.005641 0.000000 0.000000 0.000000
# 3 -0.013598 -0.005641 0.029669 0.000000 0.000000 0.000000
# 4 0.000000 0.000000 0.000000 0.026008 0.000000 0.000000
# 5 0.000000 0.000000 0.000000 0.000000 0.060922 0.000000
# 6 0.000000 0.000000 0.000000 0.000000 0.000000 0.037711
#
#
# Mechanical properties :
#
#
# Convention : Reuss Voigt Hill
#
# Bulk Modulus (GPa) = 58.37640 64.87090 61.62365
# Shear Modulus (GPa) = 21.67117 26.84331 24.25724
#
# Velocity S-wave (km/s) = 3.26478 3.63354 3.45408
# Velocity P-wave (km/s) = 6.55161 7.03631 6.79828
#
# Compressibility (1/GPa) = 0.01713021
#
# Stress axis : x y z
#
# Youngs Moduli (GPa) = 49.80759 111.06155 33.70474
#
# Poissons Ratio (x) = 0.17450 0.45831
# Poissons Ratio (y) = 0.07826 0.19013
# Poissons Ratio (z) = 0.67728 0.62651
#
# Static dielectric constant tensor:
#      x y z
#    x 3.919330 0.000000 0.000000 
#    y 0.000000 4.307640 0.000000 
#    z 0.000000 0.000000 3.316770 
# 
# 
# High freq. dielectric constant tensor:
#      x y z
#    x 1.803170 0.000000 0.000000 
#    y 0.000000 1.831000 0.000000 
#    z 0.000000 0.000000 1.739270 
# 
# From -- ./inp_files/6297.got.cif
#   From: 2010.03.12/outbox.cif.g09.slc.cpg/sg40_4_cif.got.tgz:6297.got - 2010.04.14 01:38:03.
