data_PCOD8183228
_publ_section_title
;
Structure prediction by ZEFSAII (Michael W. Deem and Ramdas Pophale) SiO2 
 PCOD8183228
Probable space group: A M A 2
;
_chemical_formula_sum "Si O2"
_cell_formula_units_Z 64
_cell_length_a 8.693105
_cell_length_b 32.594016
_cell_length_c 11.764266
_cell_angle_alpha 90.000000
_cell_angle_beta 90.000000
_cell_angle_gamma 90.000000
_cell_volume 3333.324815
_symmetry_space_group_name_H-M "A M A 2"
_symmetry_group_IT_number 40
_symmetry_cell_setting 'orthorhombic'
loop_
_space_group_symop_operation_xyz
x,y,z
-x,-y,z
1/2-x,y,z
1/2+x,-y,z
x,1/2+y,1/2+z
-x,1/2-y,1/2+z
1/2-x,1/2+y,1/2+z
1/2+x,1/2-y,1/2+z
loop_
_atom_site_type_symbol
_atom_site_label
_atom_site_fract_x
_atom_site_fract_y
_atom_site_fract_z
Si Si1 0.067420 0.045003 0.991530
Si Si2 0.930955 0.120276 0.116192
Si Si3 0.921020 0.401702 0.071153
Si Si4 0.930685 0.043793 0.754324
Si Si5 0.929673 0.222032 0.497403
Si Si6 0.932484 0.812812 0.951330
Si Si7 0.919545 0.816855 0.698241
Si Si8 0.431883 0.358520 0.871638
O O1 0.250000 0.042075 0.990290
O O2 0.009453 0.061398 0.868836
O O3 0.000000 0.000000 0.019168
O O4 0.014522 0.077595 0.086050
O O5 0.750000 0.112961 0.107408
O O6 0.981118 0.133831 0.242348
O O7 0.979546 0.156885 0.034278
O O8 0.750000 0.421308 0.060730
O O9 0.909728 0.359273 0.135002
O O10 0.034978 0.429652 0.143568
O O11 0.991329 0.394589 0.946300
O O12 0.750000 0.041124 0.776146
O O13 0.000000 0.000000 0.727144
O O14 0.750000 0.223528 0.482229
O O15 0.996206 0.266629 0.467582
O O16 0.994191 0.186304 0.413268
O O17 0.970379 0.213439 0.628685
O O18 0.750000 0.817018 0.972468
O O19 0.982391 0.824936 0.824155
O O20 0.750000 0.796360 0.705717
O O21 0.250000 0.361138 0.889203
#
# Coordination Sequence:
#
# PCOD8183228 Si02
#       8
#     8   8   8   8   8   8   8   8
#     4  11  22  39  62  88 121 154 191 238 292 348
#     4  11  23  38  59  86 115 152 198 242 294 353
#     4  10  19  34  56  82 110 146 188 231 282 338
#     4  11  21  35  58  88 120 150 185 231 283 341
#     4   9  19  35  54  77 107 145 187 234 287 339
#     4  10  21  35  54  80 112 147 186 235 291 343
#     4   9  19  34  53  75 103 139 179 224 277 332
#     4   9  20  38  57  78 110 153 196 241 291 346
#
# _framework density 19.200049
#
# number of rings (size 3 to 8) (size 9 to 14) (size 15 to 20)
#    0.000    2.000    0.000    4.500    1.750    3.500 
#    0.000    0.625    0.000    3.000    0.000    0.000 
#    0.000    0.000    0.000    0.000    0.000    0.000 
#
# Total GULP energy -396774.127577 kJ/mol
# GULP energy per Si atom -12399.191487 kJ/mol
# Density = 1.915635 g / cm^3
# Si number density = 19.200049 Si / 1000 Ang^3
#
#
#
# Elastic Constant Matrix: (Units=GPa)
#
#
# Indices 1 2 3 4 5 6 
#
# 1 89.2115 41.0788 41.7645 0.0000 0.0000 0.0000
# 2 41.0788 86.3422 57.5292 0.0000 0.0000 0.0000
# 3 41.7645 57.5292 148.4709 0.0000 0.0000 0.0000
# 4 0.0000 0.0000 0.0000 24.1221 0.0000 0.0000
# 5 0.0000 0.0000 0.0000 0.0000 31.8792 0.0000
# 6 0.0000 0.0000 0.0000 0.0000 0.0000 27.0987
#
#
#
# Elastic Compliance Matrix: (Units=1/GPa)
#
#
# Indices 1 2 3 4 5 6 
#
# 1 0.014752 -0.005734 -0.001928 0.000000 0.000000 0.000000
# 2 -0.005734 0.017841 -0.005300 0.000000 0.000000 0.000000
# 3 -0.001928 -0.005300 0.009331 0.000000 0.000000 0.000000
# 4 0.000000 0.000000 0.000000 0.041456 0.000000 0.000000
# 5 0.000000 0.000000 0.000000 0.000000 0.031368 0.000000
# 6 0.000000 0.000000 0.000000 0.000000 0.000000 0.036902
#
#
# Mechanical properties :
#
#
# Convention : Reuss Voigt Hill
#
# Bulk Modulus (GPa) = 62.49760 67.19662 64.84711
# Shear Modulus (GPa) = 27.33600 28.86349 28.09975
#
# Velocity S-wave (km/s) = 3.77735 3.88145 3.82975
# Velocity P-wave (km/s) = 7.18651 7.42709 7.30779
#
# Compressibility (1/GPa) = 0.01600061
#
# Stress axis : x y z
#
# Youngs Moduli (GPa) = 67.78645 56.04955 107.16566
#
# Poissons Ratio (x) = 0.32139 0.20661
# Poissons Ratio (y) = 0.38869 0.56799
# Poissons Ratio (z) = 0.13069 0.29707
#
# Static dielectric constant tensor:
#      x y z
#    x 3.679770 0.000000 0.000000 
#    y 0.000000 3.649750 0.000000 
#    z 0.000000 0.000000 3.644530 
# 
# 
# High freq. dielectric constant tensor:
#      x y z
#    x 1.747100 0.000000 0.000000 
#    y 0.000000 1.743870 0.000000 
#    z 0.000000 0.000000 1.747840 
# 
# From -- ./inp_files/10695.got.cif
#   From: 2010.03.12/outbox.cif.g09.slc.cpg/sg40_6_cif.got.tgz:10695.got - 2010.04.14 01:38:03.
