data_PCOD8183338
_publ_section_title
;
Structure prediction by ZEFSAII (Michael W. Deem and Ramdas Pophale) SiO2 
 PCOD8183338
Probable space group: A M A 2
;
_chemical_formula_sum "Si O2"
_cell_formula_units_Z 64
_cell_length_a 17.396530
_cell_length_b 16.227765
_cell_length_c 11.468883
_cell_angle_alpha 90.000000
_cell_angle_beta 90.000000
_cell_angle_gamma 90.000000
_cell_volume 3237.743667
_symmetry_space_group_name_H-M "A M A 2"
_symmetry_group_IT_number 40
_symmetry_cell_setting 'orthorhombic'
loop_
_space_group_symop_operation_xyz
x,y,z
-x,-y,z
1/2-x,y,z
1/2+x,-y,z
x,1/2+y,1/2+z
-x,1/2-y,1/2+z
1/2-x,1/2+y,1/2+z
1/2+x,1/2-y,1/2+z
loop_
_atom_site_type_symbol
_atom_site_label
_atom_site_fract_x
_atom_site_fract_y
_atom_site_fract_z
Si Si1 0.927213 0.548484 0.096480
Si Si2 0.092892 0.224005 0.859792
Si Si3 0.659406 0.991134 0.172307
Si Si4 0.659638 0.106753 0.377057
Si Si5 0.162275 0.927376 0.944055
Si Si6 0.342383 0.692047 0.615875
Si Si7 0.663284 0.433460 0.255500
Si Si8 0.429463 0.814996 0.781818
O O1 0.867975 0.480931 0.143384
O O2 0.955652 0.609978 0.198162
O O3 0.000000 0.500000 0.044714
O O4 0.885465 0.601064 0.997905
O O5 0.134451 0.307559 0.817578
O O6 0.118954 0.150899 0.776107
O O7 0.001613 0.233294 0.837291
O O8 0.114838 0.206703 0.993805
O O9 0.750000 0.993053 0.155873
O O10 0.635029 0.030303 0.295518
O O11 0.631691 0.897228 0.163474
O O12 0.625514 0.048171 0.068848
O O13 0.750000 0.107336 0.402211
O O14 0.250000 0.897673 0.953499
O O15 0.115497 0.851549 0.892045
O O16 0.155851 0.009989 0.868641
O O17 0.250000 0.700622 0.599465
O O18 0.371795 0.755991 0.711935
O O19 0.750000 0.409680 0.227852
#
# Coordination Sequence:
#
# PCOD8183338 Si02
#       8
#     8   8   8   8   8   8   8   8
#     4  11  22  40  60  88 131 166 206 265 325 384
#     4  12  23  38  61  95 128 164 214 271 322 375
#     4   9  20  40  64  93 121 154 211 265 310 377
#     4  11  24  42  65  92 128 175 219 260 315 391
#     4   9  18  36  63  91 121 158 205 262 321 380
#     4  11  22  43  70  94 127 173 223 264 315 396
#     4  10  19  35  63  91 116 156 210 261 313 375
#     4  11  24  38  60  96 132 162 211 273 327 381
#
# _framework density 19.766850999999999
#
# number of rings (size 3 to 8) (size 9 to 14) (size 15 to 20)
#    0.000    1.500    3.750    1.875    0.000    3.000 
#    0.000    2.500    0.000    3.000    0.000    0.000 
#    0.000    0.000    0.000    0.000    0.000    0.000 
#
# Total GULP energy -396822.434795 kJ/mol
# GULP energy per Si atom -12400.701087 kJ/mol
# Density = 1.972186 g / cm^3
# Si number density = 19.766851 Si / 1000 Ang^3
#
#
#
# Elastic Constant Matrix: (Units=GPa)
#
#
# Indices 1 2 3 4 5 6 
#
# 1 91.3445 25.7194 33.0954 0.0000 0.0000 0.0000
# 2 25.7194 98.3211 32.8394 0.0000 0.0000 0.0000
# 3 33.0954 32.8394 68.7453 0.0000 0.0000 0.0000
# 4 0.0000 0.0000 0.0000 32.0596 0.0000 0.0000
# 5 0.0000 0.0000 0.0000 0.0000 28.9014 0.0000
# 6 0.0000 0.0000 0.0000 0.0000 0.0000 31.6298
#
#
#
# Elastic Compliance Matrix: (Units=1/GPa)
#
#
# Indices 1 2 3 4 5 6 
#
# 1 0.013473 -0.001616 -0.005714 0.000000 0.000000 0.000000
# 2 -0.001616 0.012295 -0.005096 0.000000 0.000000 0.000000
# 3 -0.005714 -0.005096 0.019732 0.000000 0.000000 0.000000
# 4 0.000000 0.000000 0.000000 0.031192 0.000000 0.000000
# 5 0.000000 0.000000 0.000000 0.000000 0.034600 0.000000
# 6 0.000000 0.000000 0.000000 0.000000 0.000000 0.031616
#
#
# Mechanical properties :
#
#
# Convention : Reuss Voigt Hill
#
# Bulk Modulus (GPa) = 48.42955 49.07994 48.75475
# Shear Modulus (GPa) = 28.63001 29.63528 29.13264
#
# Velocity S-wave (km/s) = 3.80989 3.87620 3.84319
# Velocity P-wave (km/s) = 6.62626 6.70198 6.66423
#
# Compressibility (1/GPa) = 0.02064855
#
# Stress axis : x y z
#
# Youngs Moduli (GPa) = 74.22326 81.33156 50.68018
#
# Poissons Ratio (x) = 0.13141 0.28960
# Poissons Ratio (y) = 0.11993 0.25825
# Poissons Ratio (z) = 0.42413 0.41443
#
# Static dielectric constant tensor:
#      x y z
#    x 3.562340 0.000000 0.000000 
#    y 0.000000 3.710400 0.000000 
#    z 0.000000 0.000000 3.504400 
# 
# 
# High freq. dielectric constant tensor:
#      x y z
#    x 1.765770 0.000000 0.000000 
#    y 0.000000 1.777510 0.000000 
#    z 0.000000 0.000000 1.762330 
# 
# From -- ./inp_files/13156.got.cif
#   From: 2010.03.12/outbox.cif.g09.slc.cpg/sg40_7_cif.got.tgz:13156.got - 2010.04.14 01:38:03.
