data_PCOD8183488
_publ_section_title
;
Structure prediction by ZEFSAII (Michael W. Deem and Ramdas Pophale) SiO2 
 PCOD8183488
Probable space group: A M A 2
;
_chemical_formula_sum "Si O2"
_cell_formula_units_Z 64
_cell_length_a 8.710939
_cell_length_b 29.981998
_cell_length_c 14.368320
_cell_angle_alpha 90.000000
_cell_angle_beta 90.000000
_cell_angle_gamma 90.000000
_cell_volume 3752.593613
_symmetry_space_group_name_H-M "A M A 2"
_symmetry_group_IT_number 40
_symmetry_cell_setting 'orthorhombic'
loop_
_space_group_symop_operation_xyz
x,y,z
-x,-y,z
1/2-x,y,z
1/2+x,-y,z
x,1/2+y,1/2+z
-x,1/2-y,1/2+z
1/2-x,1/2+y,1/2+z
1/2+x,1/2-y,1/2+z
loop_
_atom_site_type_symbol
_atom_site_label
_atom_site_fract_x
_atom_site_fract_y
_atom_site_fract_z
Si Si1 0.076442 0.778166 0.299520
Si Si2 0.930827 0.803976 0.115421
Si Si3 0.429003 0.866725 0.628142
Si Si4 0.928703 0.953678 0.680972
Si Si5 0.432888 0.284430 0.008824
Si Si6 0.068965 0.547030 0.396144
Si Si7 0.068491 0.865320 0.973670
Si Si8 0.923255 0.825006 0.799480
O O1 0.250000 0.796992 0.294167
O O2 0.006838 0.784969 0.402799
O O3 0.076206 0.726418 0.274100
O O4 0.969814 0.802981 0.225001
O O5 0.750000 0.809815 0.101663
O O6 0.992960 0.758968 0.064618
O O7 0.019089 0.847018 0.074645
O O8 0.250000 0.873360 0.613551
O O9 0.509482 0.914484 0.613865
O O10 0.495208 0.829697 0.557006
O O11 0.462110 0.850865 0.732427
O O12 0.750000 0.957838 0.667605
O O13 0.973124 0.943641 0.788327
O O14 0.000000 0.000000 0.647088
O O15 0.250000 0.283032 0.010920
O O16 0.250000 0.547002 0.412639
O O17 0.000000 0.500000 0.428441
O O18 0.990639 0.584490 0.459687
O O19 0.250000 0.863647 0.960713
O O20 0.983915 0.831716 0.903254
O O21 0.750000 0.844722 0.790774
#
# Coordination Sequence:
#
# PCOD8183488 Si02
#       8
#     8   8   8   8   8   8   8   8
#     4  10  20  36  52  71 102 139 177 218 259 303
#     4  11  21  36  53  75 104 137 176 219 260 304
#     4  11  20  32  51  75 103 140 178 213 257 312
#     4  10  20  33  50  73 104 137 170 212 259 309
#     4   9  19  34  51  72 102 138 175 214 258 306
#     4  10  20  34  52  75 105 138 170 212 261 309
#     4  12  23  34  51  76 104 141 181 214 255 312
#     4  11  20  31  49  73 104 140 175 218 259 300
#
# _framework density 17.054870999999999
#
# number of rings (size 3 to 8) (size 9 to 14) (size 15 to 20)
#    0.000    1.500    3.750    3.000    0.000    1.500 
#    0.000    1.250    0.000    0.000    0.000    0.875 
#    0.000    2.000    0.000    0.000    0.000    0.000 
#
# Total GULP energy -396854.758988 kJ/mol
# GULP energy per Si atom -12401.711218 kJ/mol
# Density = 1.701605 g / cm^3
# Si number density = 17.054871 Si / 1000 Ang^3
#
#
#
# Elastic Constant Matrix: (Units=GPa)
#
#
# Indices 1 2 3 4 5 6 
#
# 1 69.2644 39.7517 18.4817 0.0000 0.0000 0.0000
# 2 39.7517 111.5980 34.2761 0.0000 0.0000 0.0000
# 3 18.4817 34.2761 72.0306 0.0000 0.0000 0.0000
# 4 0.0000 0.0000 0.0000 26.0831 0.0000 0.0000
# 5 0.0000 0.0000 0.0000 0.0000 23.4250 0.0000
# 6 0.0000 0.0000 0.0000 0.0000 0.0000 28.4068
#
#
#
# Elastic Compliance Matrix: (Units=1/GPa)
#
#
# Indices 1 2 3 4 5 6 
#
# 1 0.018360 -0.005965 -0.001872 0.000000 0.000000 0.000000
# 2 -0.005965 0.012432 -0.004386 0.000000 0.000000 0.000000
# 3 -0.001872 -0.004386 0.016450 0.000000 0.000000 0.000000
# 4 0.000000 0.000000 0.000000 0.038339 0.000000 0.000000
# 5 0.000000 0.000000 0.000000 0.000000 0.042690 0.000000
# 6 0.000000 0.000000 0.000000 0.000000 0.000000 0.035203
#
#
# Mechanical properties :
#
#
# Convention : Reuss Voigt Hill
#
# Bulk Modulus (GPa) = 43.86500 48.65690 46.26095
# Shear Modulus (GPa) = 25.57289 26.27521 25.92405
#
# Velocity S-wave (km/s) = 3.87647 3.92934 3.90300
# Velocity P-wave (km/s) = 6.76844 7.01269 6.89165
#
# Compressibility (1/GPa) = 0.02279722
#
# Stress axis : x y z
#
# Youngs Moduli (GPa) = 54.46499 80.43465 60.78910
#
# Poissons Ratio (x) = 0.47979 0.11383
# Poissons Ratio (y) = 0.32488 0.26659
# Poissons Ratio (z) = 0.10198 0.35275
#
# Static dielectric constant tensor:
#      x y z
#    x 3.133980 0.000000 0.000000 
#    y 0.000000 3.263030 0.000000 
#    z 0.000000 0.000000 3.042050 
# 
# 
# High freq. dielectric constant tensor:
#      x y z
#    x 1.660330 0.000000 0.000000 
#    y 0.000000 1.653520 0.000000 
#    z 0.000000 0.000000 1.627150 
# 
# From -- ./inp_files/15914.got.cif
#   From: 2010.03.12/outbox.cif.g09.slc.cpg/sg40_8_cif.got.tgz:15914.got - 2010.04.14 01:38:03.
