data_PCOD8183799
_publ_section_title
;
Structure prediction by ZEFSAII (Michael W. Deem and Ramdas Pophale) SiO2 
 PCOD8183799
Probable space group: A M A 2
;
_chemical_formula_sum "Si O2"
_cell_formula_units_Z 48
_cell_length_a 8.674423
_cell_length_b 30.792284
_cell_length_c 9.045471
_cell_angle_alpha 90.000000
_cell_angle_beta 90.000000
_cell_angle_gamma 90.000000
_cell_volume 2416.093214
_symmetry_space_group_name_H-M "A M A 2"
_symmetry_group_IT_number 40
_symmetry_cell_setting 'orthorhombic'
loop_
_space_group_symop_operation_xyz
x,y,z
-x,-y,z
1/2-x,y,z
1/2+x,-y,z
x,1/2+y,1/2+z
-x,1/2-y,1/2+z
1/2-x,1/2+y,1/2+z
1/2+x,1/2-y,1/2+z
loop_
_atom_site_type_symbol
_atom_site_label
_atom_site_fract_x
_atom_site_fract_y
_atom_site_fract_z
Si Si1 0.069470 0.213499 0.879310
Si Si2 0.071431 0.704984 0.035960
Si Si3 0.428737 0.372337 0.865234
Si Si4 0.431444 0.128395 0.047458
Si Si5 0.568652 0.044836 0.553717
Si Si6 0.433124 0.545774 0.372251
O O1 0.250000 0.221202 0.910984
O O2 0.033156 0.212104 0.706657
O O3 0.007702 0.169147 0.952891
O O4 0.971252 0.252254 0.946459
O O5 0.250000 0.694025 0.010917
O O6 0.970984 0.664786 0.980998
O O7 0.250000 0.369260 0.826599
O O8 0.522239 0.365793 0.716043
O O9 0.472024 0.418594 0.934856
O O10 0.250000 0.127041 0.034952
O O11 0.497477 0.083573 0.979584
O O12 0.750000 0.040160 0.580939
O O13 0.488886 0.056810 0.707844
O O14 0.500000 0.000000 0.490414
O O15 0.500000 0.500000 0.429018
O O16 0.250000 0.543136 0.372889
#
# Coordination Sequence:
#
# PCOD8183799 Si02
#       6
#     8   8   8   8   8   8
#     4  10  22  40  60  85 115 147 188 233 278 332
#     4  11  23  39  61  86 114 149 186 229 281 335
#     4  11  24  39  57  84 116 149 189 235 281 334
#     4  10  22  39  59  83 114 152 191 232 280 335
#     4  10  21  37  58  84 113 148 190 235 283 335
#     4  10  20  36  59  86 115 149 190 234 282 337
#
# _framework density 19.866783999999999
#
# number of rings (size 3 to 8) (size 9 to 14) (size 15 to 20)
#    0.000    1.667    0.000    5.000    0.000   10.667 
#    0.000    3.333    0.000    0.000    0.000    0.000 
#    0.000    0.000    0.000    0.000    0.000    0.000 
#
# Total GULP energy -297716.721247 kJ/mol
# GULP energy per Si atom -12404.863385 kJ/mol
# Density = 1.982157 g / cm^3
# Si number density = 19.866784 Si / 1000 Ang^3
#
#
#
# Elastic Constant Matrix: (Units=GPa)
#
#
# Indices 1 2 3 4 5 6 
#
# 1 26.7243 29.8645 7.8896 0.0000 0.0000 0.0000
# 2 29.8645 134.0369 51.1535 0.0000 0.0000 0.0000
# 3 7.8896 51.1535 94.5828 0.0000 0.0000 0.0000
# 4 0.0000 0.0000 0.0000 37.1844 0.0000 0.0000
# 5 0.0000 0.0000 0.0000 0.0000 27.0186 0.0000
# 6 0.0000 0.0000 0.0000 0.0000 0.0000 31.4977
#
#
#
# Elastic Compliance Matrix: (Units=1/GPa)
#
#
# Indices 1 2 3 4 5 6 
#
# 1 0.050235 -0.012089 0.002348 0.000000 0.000000 0.000000
# 2 -0.012089 0.012310 -0.005649 0.000000 0.000000 0.000000
# 3 0.002348 -0.005649 0.013432 0.000000 0.000000 0.000000
# 4 0.000000 0.000000 0.000000 0.026893 0.000000 0.000000
# 5 0.000000 0.000000 0.000000 0.000000 0.037012 0.000000
# 6 0.000000 0.000000 0.000000 0.000000 0.000000 0.031748
#
#
# Mechanical properties :
#
#
# Convention : Reuss Voigt Hill
#
# Bulk Modulus (GPa) = 22.12554 48.12881 35.12717
# Shear Modulus (GPa) = 22.99095 30.23590 26.61343
#
# Velocity S-wave (km/s) = 3.40554 3.90543 3.66402
# Velocity P-wave (km/s) = 5.15991 6.67943 5.96823
#
# Compressibility (1/GPa) = 0.04519663
#
# Stress axis : x y z
#
# Youngs Moduli (GPa) = 19.90637 81.23416 74.44762
#
# Poissons Ratio (x) = 0.98202 -0.17477
# Poissons Ratio (y) = 0.24064 0.42058
# Poissons Ratio (z) = -0.04673 0.45892
#
# Static dielectric constant tensor:
#      x y z
#    x 3.576290 0.000000 0.000000 
#    y 0.000000 3.972290 0.000000 
#    z 0.000000 0.000000 3.569590 
# 
# 
# High freq. dielectric constant tensor:
#      x y z
#    x 1.776270 0.000000 0.000000 
#    y 0.000000 1.793960 0.000000 
#    z 0.000000 0.000000 1.778420 
# 
# From -- ./inp_files/4565.got.cif
#   From: 2010.03.12/outbox.cif.g09.slc.cpg/sg40_3_cif.got.tgz:4565.got - 2010.04.14 01:38:03.
