data_PCOD8183178
_publ_section_title
;
Structure prediction by ZEFSAII (Michael W. Deem and Ramdas Pophale) SiO2 
 PCOD8183178
Probable space group: A M A 2
;
_chemical_formula_sum "Si O2"
_cell_formula_units_Z 52
_cell_length_a 24.340918
_cell_length_b 12.195949
_cell_length_c 8.439265
_cell_angle_alpha 90.000000
_cell_angle_beta 90.000000
_cell_angle_gamma 90.000000
_cell_volume 2505.285225
_symmetry_space_group_name_H-M "A M A 2"
_symmetry_group_IT_number 40
_symmetry_cell_setting 'orthorhombic'
loop_
_space_group_symop_operation_xyz
x,y,z
-x,-y,z
1/2-x,y,z
1/2+x,-y,z
x,1/2+y,1/2+z
-x,1/2-y,1/2+z
1/2-x,1/2+y,1/2+z
1/2+x,1/2-y,1/2+z
loop_
_atom_site_type_symbol
_atom_site_label
_atom_site_fract_x
_atom_site_fract_y
_atom_site_fract_z
Si Si1 0.446482 0.744004 0.445090
Si Si2 0.250000 0.364640 0.140062
Si Si3 0.357387 0.673242 0.873079
Si Si4 0.250000 0.551251 0.377554
Si Si5 0.028570 0.616302 0.747597
Si Si6 0.360897 0.620879 0.229493
Si Si7 0.250000 0.115522 0.218901
Si Si8 0.632709 0.619810 0.150556
O O1 0.470474 0.654519 0.565788
O O2 0.497271 0.792869 0.350131
O O3 0.404208 0.688097 0.328683
O O4 0.415037 0.840968 0.535850
O O5 0.250000 0.428005 0.309470
O O6 0.250000 0.236187 0.150093
O O7 0.308224 0.397101 0.057176
O O8 0.410173 0.604978 0.815940
O O9 0.304789 0.600119 0.822507
O O10 0.357617 0.794568 0.795140
O O11 0.355456 0.682952 0.062058
O O12 0.302831 0.620111 0.319875
O O13 0.250000 0.535437 0.567312
O O14 0.000000 0.500000 0.759255
O O15 0.385352 0.498167 0.215096
#
# Coordination Sequence:
#
# PCOD8183178 Si02
#       8
#     8   4   8   4   8   8   4   8
#     4  11  24  39  60  86 114 157 201 240 294 348
#     4   8  16  32  56  84 114 150 190 232 286 340
#     4  10  21  39  63  87 117 154 193 240 295 346
#     4  10  19  33  59  88 118 157 195 234 294 351
#     4  11  24  42  61  86 119 155 197 244 290 347
#     4  11  21  37  61  89 119 155 197 242 293 349
#     4  10  19  39  61  84 120 151 187 244 290 341
#     4   9  20  38  59  86 122 156 192 245 293 343
#
# _framework density 20.756119999999999
#
# number of rings (size 3 to 8) (size 9 to 14) (size 15 to 20)
#    0.000    1.846    0.000    5.077    0.000    3.692 
#    0.000    8.462    0.000   13.846    0.000    0.000 
#    0.000    0.000    0.000    0.000    0.000    0.000 
#
# Total GULP energy -322333.871929 kJ/mol
# GULP energy per Si atom -12397.456613 kJ/mol
# Density = 2.070888 g / cm^3
# Si number density = 20.756120 Si / 1000 Ang^3
#
#
#
# Elastic Constant Matrix: (Units=GPa)
#
#
# Indices 1 2 3 4 5 6 
#
# 1 137.8585 32.0947 39.5047 0.0000 0.0000 0.0000
# 2 32.0947 64.9211 18.0285 0.0000 0.0000 0.0000
# 3 39.5047 18.0285 112.9965 0.0000 0.0000 0.0000
# 4 0.0000 0.0000 0.0000 24.3818 0.0000 0.0000
# 5 0.0000 0.0000 0.0000 0.0000 64.0076 0.0000
# 6 0.0000 0.0000 0.0000 0.0000 0.0000 11.2231
#
#
#
# Elastic Compliance Matrix: (Units=1/GPa)
#
#
# Indices 1 2 3 4 5 6 
#
# 1 0.008824 -0.003668 -0.002500 0.000000 0.000000 0.000000
# 2 -0.003668 0.017642 -0.001532 0.000000 0.000000 0.000000
# 3 -0.002500 -0.001532 0.009968 0.000000 0.000000 0.000000
# 4 0.000000 0.000000 0.000000 0.041014 0.000000 0.000000
# 5 0.000000 0.000000 0.000000 0.000000 0.015623 0.000000
# 6 0.000000 0.000000 0.000000 0.000000 0.000000 0.089102
#
#
# Mechanical properties :
#
#
# Convention : Reuss Voigt Hill
#
# Bulk Modulus (GPa) = 47.54194 55.00355 51.27275
# Shear Modulus (GPa) = 24.43960 34.99904 29.71932
#
# Velocity S-wave (km/s) = 3.43514 4.11080 3.78806
# Velocity P-wave (km/s) = 6.22000 7.00635 6.62485
#
# Compressibility (1/GPa) = 0.02103406
#
# Stress axis : x y z
#
# Youngs Moduli (GPa) = 113.32566 56.68207 100.31837
#
# Poissons Ratio (x) = 0.20792 0.25077
# Poissons Ratio (y) = 0.41570 0.15373
# Poissons Ratio (z) = 0.28329 0.08686
#
# Static dielectric constant tensor:
#      x y z
#    x -0.293220 0.000000 0.000000 
#    y 0.000000 3.605640 0.000000 
#    z 0.000000 0.000000 3.712850 
# 
# 
# High freq. dielectric constant tensor:
#      x y z
#    x 1.835010 0.000000 0.000000 
#    y 0.000000 1.805020 0.000000 
#    z 0.000000 0.000000 1.802250 
# 
# From -- ./inp_files/9144.got.cif
#   From: 2010.03.12/outbox.cif.g09.slc.cpg/sg40_5_cif.got.tgz:9144.got - 2010.04.14 01:38:03.
