data_PCOD8183318
_publ_section_title
;
Structure prediction by ZEFSAII (Michael W. Deem and Ramdas Pophale) SiO2 
 PCOD8183318
Probable space group: A M A 2
;
_chemical_formula_sum "Si O2"
_cell_formula_units_Z 64
_cell_length_a 18.265662
_cell_length_b 11.669319
_cell_length_c 16.007817
_cell_angle_alpha 90.000000
_cell_angle_beta 90.000000
_cell_angle_gamma 90.000000
_cell_volume 3412.031563
_symmetry_space_group_name_H-M "A M A 2"
_symmetry_group_IT_number 40
_symmetry_cell_setting 'orthorhombic'
loop_
_space_group_symop_operation_xyz
x,y,z
-x,-y,z
1/2-x,y,z
1/2+x,-y,z
x,1/2+y,1/2+z
-x,1/2-y,1/2+z
1/2-x,1/2+y,1/2+z
1/2+x,1/2-y,1/2+z
loop_
_atom_site_type_symbol
_atom_site_label
_atom_site_fract_x
_atom_site_fract_y
_atom_site_fract_z
Si Si1 0.162934 0.211363 0.934120
Si Si2 0.663914 0.533182 0.888814
Si Si3 0.165865 0.584268 0.055495
Si Si4 0.333065 0.402838 0.197705
Si Si5 0.401380 0.194886 0.116460
Si Si6 0.427646 0.061227 0.806713
Si Si7 0.582913 0.519102 0.723379
Si Si8 0.561142 0.763159 0.657636
O O1 0.250000 0.190780 0.923634
O O2 0.138834 0.336933 0.904552
O O3 0.117219 0.121813 0.879731
O O4 0.140282 0.197436 0.029474
O O5 0.750000 0.527746 0.882976
O O6 0.631223 0.487124 0.803084
O O7 0.637459 0.450535 0.963719
O O8 0.250000 0.625993 0.055259
O O9 0.157050 0.471410 0.111543
O O10 0.116717 0.687524 0.089157
O O11 0.250000 0.399978 0.227577
O O12 0.360329 0.274245 0.183339
O O13 0.377068 0.461005 0.271822
O O14 0.485402 0.236933 0.110164
O O15 0.396697 0.064740 0.147804
O O16 0.451114 0.148273 0.733240
O O17 0.500000 0.000000 0.843853
O O18 0.500000 0.500000 0.751772
O O19 0.597681 0.648460 0.693981
#
# Coordination Sequence:
#
# PCOD8183318 Si02
#       8
#     8   8   8   8   8   8   8   8
#     4  11  23  40  63  90 124 165 206 248 302 369
#     4  10  20  37  59  89 118 153 201 247 299 359
#     4   9  19  35  59  89 120 152 200 257 304 358
#     4  10  19  35  59  88 119 153 197 250 301 359
#     4  11  22  39  61  86 124 162 205 247 307 373
#     4  11  21  37  64  91 121 155 204 258 307 356
#     4  10  23  40  59  83 120 160 198 243 305 367
#     4  10  21  39  59  89 120 158 206 256 310 361
#
# _framework density 18.757152999999999
#
# number of rings (size 3 to 8) (size 9 to 14) (size 15 to 20)
#    0.000    1.750    3.750    0.750    0.000    4.500 
#    0.000    1.250    0.000    1.500    0.000    0.000 
#    0.000    0.000    0.000    0.000    0.000    0.000 
#
# Total GULP energy -396886.182570 kJ/mol
# GULP energy per Si atom -12402.693205 kJ/mol
# Density = 1.871446 g / cm^3
# Si number density = 18.757153 Si / 1000 Ang^3
#
#
#
# Elastic Constant Matrix: (Units=GPa)
#
#
# Indices 1 2 3 4 5 6 
#
# 1 85.6673 48.9237 42.1781 0.0000 0.0000 0.0000
# 2 48.9237 100.7193 43.8498 0.0000 0.0000 0.0000
# 3 42.1781 43.8498 72.8953 0.0000 0.0000 0.0000
# 4 0.0000 0.0000 0.0000 26.2026 0.0000 0.0000
# 5 0.0000 0.0000 0.0000 0.0000 35.2400 0.0000
# 6 0.0000 0.0000 0.0000 0.0000 0.0000 27.7245
#
#
#
# Elastic Compliance Matrix: (Units=1/GPa)
#
#
# Indices 1 2 3 4 5 6 
#
# 1 0.018587 -0.005888 -0.007212 0.000000 0.000000 0.000000
# 2 -0.005888 0.015317 -0.005807 0.000000 0.000000 0.000000
# 3 -0.007212 -0.005807 0.021385 0.000000 0.000000 0.000000
# 4 0.000000 0.000000 0.000000 0.038164 0.000000 0.000000
# 5 0.000000 0.000000 0.000000 0.000000 0.028377 0.000000
# 6 0.000000 0.000000 0.000000 0.000000 0.000000 0.036069
#
#
# Mechanical properties :
#
#
# Convention : Reuss Voigt Hill
#
# Bulk Modulus (GPa) = 57.23056 58.79833 58.01445
# Shear Modulus (GPa) = 24.80922 26.12211 25.46567
#
# Velocity S-wave (km/s) = 3.64078 3.73587 3.68863
# Velocity P-wave (km/s) = 6.94631 7.07278 7.00983
#
# Compressibility (1/GPa) = 0.01747318
#
# Stress axis : x y z
#
# Youngs Moduli (GPa) = 53.80126 65.28753 46.76278
#
# Poissons Ratio (x) = 0.38444 0.33728
# Poissons Ratio (y) = 0.31680 0.27154
# Poissons Ratio (z) = 0.38804 0.37910
#
# Static dielectric constant tensor:
#      x y z
#    x 3.496320 0.000000 0.000000 
#    y 0.000000 3.551680 0.000000 
#    z 0.000000 0.000000 3.339520 
# 
# 
# High freq. dielectric constant tensor:
#      x y z
#    x 1.735910 0.000000 0.000000 
#    y 0.000000 1.729980 0.000000 
#    z 0.000000 0.000000 1.719830 
# 
# From -- ./inp_files/17833.got.cif
#   From: 2010.03.12/outbox.cif.g09.slc.cpg/sg40_9_cif.got.tgz:17833.got - 2010.04.14 01:38:03.
