data_PCOD8183548
_publ_section_title
;
Structure prediction by ZEFSAII (Michael W. Deem and Ramdas Pophale) SiO2 
 PCOD8183548
Probable space group: A M A 2
;
_chemical_formula_sum "Si O2"
_cell_formula_units_Z 64
_cell_length_a 27.963209
_cell_length_b 14.085317
_cell_length_c 9.202840
_cell_angle_alpha 90.000000
_cell_angle_beta 90.000000
_cell_angle_gamma 90.000000
_cell_volume 3624.728693
_symmetry_space_group_name_H-M "A M A 2"
_symmetry_group_IT_number 40
_symmetry_cell_setting 'orthorhombic'
loop_
_space_group_symop_operation_xyz
x,y,z
-x,-y,z
1/2-x,y,z
1/2+x,-y,z
x,1/2+y,1/2+z
-x,1/2-y,1/2+z
1/2-x,1/2+y,1/2+z
1/2+x,1/2-y,1/2+z
loop_
_atom_site_type_symbol
_atom_site_label
_atom_site_fract_x
_atom_site_fract_y
_atom_site_fract_z
Si Si1 0.131042 0.620247 0.979880
Si Si2 0.383326 0.405782 0.976476
Si Si3 0.196076 0.757583 0.817153
Si Si4 0.369586 0.120022 0.815963
Si Si5 0.616014 0.094409 0.816961
Si Si6 0.196038 0.756366 0.478779
Si Si7 0.049069 0.768348 0.976745
Si Si8 0.450829 0.269548 0.816846
O O1 0.123518 0.513425 0.924548
O O2 0.175839 0.665109 0.897005
O O3 0.144499 0.621703 0.148153
O O4 0.082860 0.678203 0.947913
O O5 0.334567 0.349721 0.940253
O O6 0.426798 0.363240 0.883928
O O7 0.396519 0.399251 0.146495
O O8 0.250000 0.777531 0.870212
O O9 0.164903 0.850364 0.854596
O O10 0.194307 0.734454 0.648152
O O11 0.324924 0.163841 0.900801
O O12 0.417652 0.178639 0.846847
O O13 0.377830 0.013156 0.870064
O O14 0.572289 0.137876 0.907365
O O15 0.250000 0.774604 0.424748
O O16 0.040249 0.785886 0.146687
O O17 0.999959 0.748088 0.897474
#
# Coordination Sequence:
#
# PCOD8183548 Si02
#       8
#     8   8   8   8   8   8   8   8
#     4   9  19  34  52  73  97 128 165 203 241 287
#     4   9  18  34  53  72  97 129 164 202 243 287
#     4   9  18  32  50  73 100 128 159 197 241 288
#     4   9  19  34  52  73  97 128 165 203 241 287
#     4   9  18  34  53  72  97 129 164 202 243 287
#     4   9  18  32  50  73 100 128 159 197 241 288
#     4  10  20  34  51  73 100 129 163 202 246 293
#     4  10  20  34  51  73 100 129 163 202 246 293
#
# _framework density 17.656493999999999
#
# number of rings (size 3 to 8) (size 9 to 14) (size 15 to 20)
#    0.000    2.750    0.000    0.750    0.000    4.500 
#    0.000    7.500    0.000    0.000    0.000    0.000 
#    0.000    0.000    0.000    0.000    0.000    0.000 
#
# Total GULP energy -396880.285340 kJ/mol
# GULP energy per Si atom -12402.508917 kJ/mol
# Density = 1.761631 g / cm^3
# Si number density = 17.656494 Si / 1000 Ang^3
#
#
#
# Elastic Constant Matrix: (Units=GPa)
#
#
# Indices 1 2 3 4 5 6 
#
# 1 12.8553 -47.9929 -8.9392 0.0000 0.0000 0.0000
# 2 -47.9929 55.1882 -9.4734 0.0000 0.0000 0.0000
# 3 -8.9392 -9.4734 28.1712 0.0000 0.0000 0.0000
# 4 0.0000 0.0000 0.0000 29.3535 0.0000 0.0000
# 5 0.0000 0.0000 0.0000 0.0000 32.0343 0.0000
# 6 0.0000 0.0000 0.0000 0.0000 0.0000 14.1579
#
#
#
# Elastic Compliance Matrix: (Units=1/GPa)
#
#
# Indices 1 2 3 4 5 6 
#
# 1 -0.025002 -0.024520 -0.016179 0.000000 0.000000 0.000000
# 2 -0.024520 -0.004817 -0.009400 0.000000 0.000000 0.000000
# 3 -0.016179 -0.009400 0.027202 0.000000 0.000000 0.000000
# 4 0.000000 0.000000 0.000000 0.034068 0.000000 0.000000
# 5 0.000000 0.000000 0.000000 0.000000 0.031217 0.000000
# 6 0.000000 0.000000 0.000000 0.000000 0.000000 0.070632
#
#
# Mechanical properties :
#
#
# Convention : Reuss Voigt Hill
#
# Bulk Modulus (GPa) = -9.72601 -4.06626 -6.89613
# Shear Modulus (GPa) = 25.09717 25.95050 25.52383
#
# Velocity S-wave (km/s) = 3.77425 3.83788 3.80620
# Velocity P-wave (km/s) = 3.67054 4.16307 3.92454
#
# Compressibility (1/GPa) = -0.10281706
#
# Stress axis : x y z
#
# Youngs Moduli (GPa) = -39.99603 -207.59996 36.76196
#
# Poissons Ratio (x) = -5.09035 0.59478
# Poissons Ratio (y) = -0.98070 0.34558
# Poissons Ratio (z) = -0.64711 -1.95154
#
# Static dielectric constant tensor:
#      x y z
#    x 3.355130 0.000000 0.000000 
#    y 0.000000 3.396770 0.000000 
#    z 0.000000 0.000000 3.854950 
# 
# 
# High freq. dielectric constant tensor:
#      x y z
#    x 1.684350 0.000000 0.000000 
#    y 0.000000 1.683980 0.000000 
#    z 0.000000 0.000000 1.682040 
# 
# From -- ./inp_files/9463.got.cif
#   From: 2010.03.12/outbox.cif.g09.slc.cpg/sg40_5_cif.got.tgz:9463.got - 2010.04.14 01:38:03.
