data_PCOD8183628
_publ_section_title
;
Structure prediction by ZEFSAII (Michael W. Deem and Ramdas Pophale) SiO2 
 PCOD8183628
Probable space group: A M A 2
;
_chemical_formula_sum "Si O2"
_cell_formula_units_Z 60
_cell_length_a 9.177666
_cell_length_b 30.108442
_cell_length_c 10.995906
_cell_angle_alpha 90.000000
_cell_angle_beta 90.000000
_cell_angle_gamma 90.000000
_cell_volume 3038.446194
_symmetry_space_group_name_H-M "A M A 2"
_symmetry_group_IT_number 40
_symmetry_cell_setting 'orthorhombic'
loop_
_space_group_symop_operation_xyz
x,y,z
-x,-y,z
1/2-x,y,z
1/2+x,-y,z
x,1/2+y,1/2+z
-x,1/2-y,1/2+z
1/2-x,1/2+y,1/2+z
1/2+x,1/2-y,1/2+z
loop_
_atom_site_type_symbol
_atom_site_label
_atom_site_fract_x
_atom_site_fract_y
_atom_site_fract_z
Si Si1 0.417724 0.292671 0.420750
Si Si2 0.419341 0.122869 0.023710
Si Si3 0.914617 0.659190 0.178386
Si Si4 0.914580 0.578376 0.325778
Si Si5 0.088295 0.540533 0.934558
Si Si6 0.000000 0.500000 0.171134
Si Si7 0.918191 0.372736 0.803008
Si Si8 0.424384 0.799794 0.434832
O O1 0.250000 0.286949 0.463965
O O2 0.491885 0.332465 0.495093
O O3 0.424072 0.301787 0.277138
O O4 0.510318 0.248875 0.441177
O O5 0.250000 0.129428 0.989696
O O6 0.438417 0.111035 0.165033
O O7 0.486049 0.081282 0.946987
O O8 0.750000 0.647582 0.143753
O O9 0.984932 0.614073 0.231570
O O10 0.988681 0.675572 0.054598
O O11 0.750000 0.592735 0.361503
O O12 0.906122 0.530352 0.262271
O O13 0.250000 0.538035 0.881621
O O14 0.023238 0.588075 0.893221
O O15 0.000000 0.500000 0.872650
O O16 0.090900 0.533108 0.081953
O O17 0.750000 0.360996 0.830462
O O18 0.014465 0.328473 0.822266
O O19 0.250000 0.796305 0.428717
#
# Coordination Sequence:
#
# PCOD8183628 Si02
#       8
#     8   8   8   8   8   4   8   8
#     4  10  21  39  59  83 117 156 194 239 294 346
#     4  10  22  40  61  82 117 159 198 242 290 347
#     4   8  18  36  56  78 111 148 186 235 289 340
#     4  10  20  38  61  85 114 154 194 239 295 344
#     4   9  20  37  60  87 117 152 191 239 293 347
#     4  10  20  34  64  90 122 146 192 236 292 348
#     4  10  22  41  59  83 120 159 193 237 297 349
#     4  11  22  35  58  90 116 149 197 240 288 348
#
# _framework density 19.746935000000001
#
# number of rings (size 3 to 8) (size 9 to 14) (size 15 to 20)
#    0.400    1.867    0.000    3.200    1.867    2.667 
#    1.200    7.333    0.000    0.000    0.000    0.000 
#    0.000    0.000    0.000    0.000    0.000    0.000 
#
# Total GULP energy -371774.877523 kJ/mol
# GULP energy per Si atom -12392.495917 kJ/mol
# Density = 1.970199 g / cm^3
# Si number density = 19.746935 Si / 1000 Ang^3
#
#
#
# Elastic Constant Matrix: (Units=GPa)
#
#
# Indices 1 2 3 4 5 6 
#
# 1 99.2085 40.4948 35.1158 0.0000 0.0000 0.0000
# 2 40.4948 101.9520 42.2829 0.0000 0.0000 0.0000
# 3 35.1158 42.2829 97.3658 0.0000 0.0000 0.0000
# 4 0.0000 0.0000 0.0000 25.8028 0.0000 0.0000
# 5 0.0000 0.0000 0.0000 0.0000 24.9396 0.0000
# 6 0.0000 0.0000 0.0000 0.0000 0.0000 30.7148
#
#
#
# Elastic Compliance Matrix: (Units=1/GPa)
#
#
# Indices 1 2 3 4 5 6 
#
# 1 0.012671 -0.003827 -0.002908 0.000000 0.000000 0.000000
# 2 -0.003827 0.013119 -0.004317 0.000000 0.000000 0.000000
# 3 -0.002908 -0.004317 0.013194 0.000000 0.000000 0.000000
# 4 0.000000 0.000000 0.000000 0.038756 0.000000 0.000000
# 5 0.000000 0.000000 0.000000 0.000000 0.040097 0.000000
# 6 0.000000 0.000000 0.000000 0.000000 0.000000 0.032558
#
#
# Mechanical properties :
#
#
# Convention : Reuss Voigt Hill
#
# Bulk Modulus (GPa) = 59.24023 59.36813 59.30418
# Shear Modulus (GPa) = 28.07022 28.33362 28.20192
#
# Velocity S-wave (km/s) = 3.77437 3.79203 3.78321
# Velocity P-wave (km/s) = 7.00423 7.02157 7.01291
#
# Compressibility (1/GPa) = 0.01688042
#
# Stress axis : x y z
#
# Youngs Moduli (GPa) = 78.91943 76.22581 75.79147
#
# Poissons Ratio (x) = 0.29170 0.22041
# Poissons Ratio (y) = 0.30201 0.32719
# Poissons Ratio (z) = 0.22950 0.32906
#
# Static dielectric constant tensor:
#      x y z
#    x 3.466780 0.000000 0.000000 
#    y 0.000000 3.564120 0.000000 
#    z 0.000000 0.000000 3.616530 
# 
# 
# High freq. dielectric constant tensor:
#      x y z
#    x 1.759390 0.000000 0.000000 
#    y 0.000000 1.768140 0.000000 
#    z 0.000000 0.000000 1.762730 
# 
# From -- ./inp_files/10514.got.cif
#   From: 2010.03.12/outbox.cif.g09.slc.cpg/sg40_6_cif.got.tgz:10514.got - 2010.04.14 01:38:03.
