data_PCOD8183222
_publ_section_title
;
Structure prediction by ZEFSAII (Michael W. Deem and Ramdas Pophale) SiO2 
 PCOD8183222
Probable space group: A M A 2
;
_chemical_formula_sum "Si O2"
_cell_formula_units_Z 64
_cell_length_a 8.791647
_cell_length_b 32.827396
_cell_length_c 11.731282
_cell_angle_alpha 90.000000
_cell_angle_beta 90.000000
_cell_angle_gamma 90.000000
_cell_volume 3385.728668
_symmetry_space_group_name_H-M "A M A 2"
_symmetry_group_IT_number 40
_symmetry_cell_setting 'orthorhombic'
loop_
_space_group_symop_operation_xyz
x,y,z
-x,-y,z
1/2-x,y,z
1/2+x,-y,z
x,1/2+y,1/2+z
-x,1/2-y,1/2+z
1/2-x,1/2+y,1/2+z
1/2+x,1/2-y,1/2+z
loop_
_atom_site_type_symbol
_atom_site_label
_atom_site_fract_x
_atom_site_fract_y
_atom_site_fract_z
Si Si1 0.428491 0.277493 0.662020
Si Si2 0.418952 0.101159 0.090673
Si Si3 0.931480 0.378784 0.035552
Si Si4 0.068982 0.357812 0.793150
Si Si5 0.428533 0.957368 0.911850
Si Si6 0.082953 0.184729 0.962642
Si Si7 0.569774 0.043736 0.652309
Si Si8 0.430417 0.688307 0.212069
O O1 0.250000 0.276100 0.669364
O O2 0.485763 0.313406 0.746664
O O3 0.474268 0.284909 0.531009
O O4 0.498487 0.233646 0.694115
O O5 0.250000 0.083222 0.116271
O O6 0.513334 0.106620 0.207317
O O7 0.510892 0.074014 0.003221
O O8 0.400496 0.144036 0.031963
O O9 0.750000 0.381811 0.036690
O O10 0.995234 0.344474 0.122634
O O11 0.999555 0.422442 0.069427
O O12 0.988575 0.365559 0.912307
O O13 0.250000 0.360370 0.805420
O O14 0.250000 0.960744 0.923521
O O15 0.474607 0.944970 0.782787
O O16 0.500000 0.000000 0.945189
O O17 0.250000 0.205302 0.949348
O O18 0.015321 0.175102 0.838020
O O19 0.750000 0.041817 0.635076
O O20 0.500000 0.000000 0.619036
O O21 0.250000 0.688636 0.199317
#
# Coordination Sequence:
#
# PCOD8183222 Si02
#       8
#     8   8   8   8   8   8   8   8
#     4   9  19  35  53  75 106 144 183 229 281 330
#     4  10  19  34  56  80 107 143 185 226 274 332
#     4  11  22  37  58  83 113 150 194 239 287 344
#     4  10  21  37  56  78 110 150 191 236 286 338
#     4  10  20  34  56  86 117 147 180 226 278 334
#     4   9  18  33  53  75 101 136 178 222 270 324
#     4  10  21  38  60  87 119 152 189 232 285 341
#     4   9  19  34  53  78 109 144 181 228 281 333
#
# _framework density 18.902871999999999
#
# number of rings (size 3 to 8) (size 9 to 14) (size 15 to 20)
#    0.000    2.250    0.000    2.625    1.750    3.500 
#    0.000    3.125    0.000    0.000    0.000    0.000 
#    0.000    0.000    0.000    0.000    0.000    0.000 
#
# Total GULP energy -396709.884485 kJ/mol
# GULP energy per Si atom -12397.183890 kJ/mol
# Density = 1.885985 g / cm^3
# Si number density = 18.902872 Si / 1000 Ang^3
#
#
#
# Elastic Constant Matrix: (Units=GPa)
#
#
# Indices 1 2 3 4 5 6 
#
# 1 62.2309 38.5068 34.7862 0.0000 0.0000 0.0000
# 2 38.5068 93.3009 56.3187 0.0000 0.0000 0.0000
# 3 34.7862 56.3187 137.6668 0.0000 0.0000 0.0000
# 4 0.0000 0.0000 0.0000 25.1221 0.0000 0.0000
# 5 0.0000 0.0000 0.0000 0.0000 33.3815 0.0000
# 6 0.0000 0.0000 0.0000 0.0000 0.0000 22.3276
#
#
#
# Elastic Compliance Matrix: (Units=1/GPa)
#
#
# Indices 1 2 3 4 5 6 
#
# 1 0.022196 -0.007669 -0.002471 0.000000 0.000000 0.000000
# 2 -0.007669 0.016882 -0.004969 0.000000 0.000000 0.000000
# 3 -0.002471 -0.004969 0.009921 0.000000 0.000000 0.000000
# 4 0.000000 0.000000 0.000000 0.039806 0.000000 0.000000
# 5 0.000000 0.000000 0.000000 0.000000 0.029957 0.000000
# 6 0.000000 0.000000 0.000000 0.000000 0.000000 0.044788
#
#
# Mechanical properties :
#
#
# Convention : Reuss Voigt Hill
#
# Bulk Modulus (GPa) = 53.24355 61.38020 57.31187
# Shear Modulus (GPa) = 24.99660 27.07203 26.03431
#
# Velocity S-wave (km/s) = 3.64039 3.78850 3.71518
# Velocity P-wave (km/s) = 6.77480 7.18880 6.98487
#
# Compressibility (1/GPa) = 0.01878162
#
# Stress axis : x y z
#
# Youngs Moduli (GPa) = 45.05339 59.23369 100.79627
#
# Poissons Ratio (x) = 0.45426 0.24909
# Poissons Ratio (y) = 0.34551 0.50082
# Poissons Ratio (z) = 0.11134 0.29431
#
# Static dielectric constant tensor:
#      x y z
#    x 3.200770 0.000000 0.000000 
#    y 0.000000 3.660600 0.000000 
#    z 0.000000 0.000000 3.557300 
# 
# 
# High freq. dielectric constant tensor:
#      x y z
#    x 1.729950 0.000000 0.000000 
#    y 0.000000 1.730600 0.000000 
#    z 0.000000 0.000000 1.738020 
# 
# From -- ./inp_files/10674.got.cif
#   From: 2010.03.12/outbox.cif.g09.slc.cpg/sg40_6_cif.got.tgz:10674.got - 2010.04.14 01:38:03.
