data_PCOD8183603
_publ_section_title
;
Structure prediction by ZEFSAII (Michael W. Deem and Ramdas Pophale) SiO2 
 PCOD8183603
Probable space group: A M A 2
;
_chemical_formula_sum "Si O2"
_cell_formula_units_Z 56
_cell_length_a 8.879057
_cell_length_b 14.152434
_cell_length_c 22.376371
_cell_angle_alpha 90.000000
_cell_angle_beta 90.000000
_cell_angle_gamma 90.000000
_cell_volume 2811.820781
_symmetry_space_group_name_H-M "A M A 2"
_symmetry_group_IT_number 40
_symmetry_cell_setting 'orthorhombic'
loop_
_space_group_symop_operation_xyz
x,y,z
-x,-y,z
1/2-x,y,z
1/2+x,-y,z
x,1/2+y,1/2+z
-x,1/2-y,1/2+z
1/2-x,1/2+y,1/2+z
1/2+x,1/2-y,1/2+z
loop_
_atom_site_type_symbol
_atom_site_label
_atom_site_fract_x
_atom_site_fract_y
_atom_site_fract_z
Si Si1 0.070859 0.094188 0.403030
Si Si2 0.927854 0.593522 0.196563
Si Si3 0.413682 0.644772 0.775462
Si Si4 0.914356 0.646888 0.323684
Si Si5 0.422872 0.786416 0.166188
Si Si6 0.927845 0.290114 0.436269
Si Si7 0.074024 0.398595 0.545221
O O1 0.250000 0.097229 0.411867
O O2 0.024654 0.087790 0.332759
O O3 0.001642 0.186563 0.433957
O O4 0.000000 0.000000 0.433200
O O5 0.750000 0.592074 0.188087
O O6 0.974771 0.588302 0.266853
O O7 0.000000 0.500000 0.166218
O O8 0.987628 0.687961 0.164831
O O9 0.250000 0.605575 0.754679
O O10 0.391383 0.749436 0.798810
O O11 0.526135 0.642642 0.719386
O O12 0.750000 0.609691 0.345829
O O13 0.031366 0.645741 0.378394
O O14 0.250000 0.761477 0.176684
O O15 0.452506 0.839443 0.104890
O O16 0.750000 0.279061 0.440176
O O17 0.990295 0.343226 0.493313
O O18 0.250000 0.409610 0.530034
O O19 0.000000 0.500000 0.553826
#
# Coordination Sequence:
#
# PCOD8183603 Si02
#       7
#     8   8   8   8   8   8   8
#     4  10  20  35  56  85 120 155 190 230 278 336
#     4  10  20  34  56  85 118 153 187 226 276 333
#     4   8  16  31  52  78 111 148 182 221 271 323
#     4   8  16  32  52  77 111 149 184 223 271 323
#     4  10  21  37  58  83 113 148 188 234 281 331
#     4  11  22  37  59  85 114 150 189 235 286 336
#     4  11  25  44  63  83 108 143 188 237 285 336
#
# _framework density 19.91592
#
# number of rings (size 3 to 8) (size 9 to 14) (size 15 to 20)
#    0.000    2.286    0.000    4.714    0.000    9.714 
#    0.000    5.000    0.000    3.429    0.000    0.000 
#    0.000    0.000    0.000    0.000    0.000    0.000 
#
# Total GULP energy -347044.570103 kJ/mol
# GULP energy per Si atom -12394.448932 kJ/mol
# Density = 1.987059 g / cm^3
# Si number density = 19.915920 Si / 1000 Ang^3
#
#
#
# Elastic Constant Matrix: (Units=GPa)
#
#
# Indices 1 2 3 4 5 6 
#
# 1 136.6732 61.7724 55.8174 0.0000 0.0000 0.0000
# 2 61.7724 106.9844 26.4568 0.0000 0.0000 0.0000
# 3 55.8174 26.4568 74.5692 0.0000 0.0000 0.0000
# 4 0.0000 0.0000 0.0000 20.7758 0.0000 0.0000
# 5 0.0000 0.0000 0.0000 0.0000 30.5577 0.0000
# 6 0.0000 0.0000 0.0000 0.0000 0.0000 -27.3744
#
#
#
# Elastic Compliance Matrix: (Units=1/GPa)
#
#
# Indices 1 2 3 4 5 6 
#
# 1 0.013013 -0.005596 -0.007755 0.000000 0.000000 0.000000
# 2 -0.005596 0.012652 -0.000300 0.000000 0.000000 0.000000
# 3 -0.007755 -0.000300 0.019322 0.000000 0.000000 0.000000
# 4 0.000000 0.000000 0.000000 0.048133 0.000000 0.000000
# 5 0.000000 0.000000 0.000000 0.000000 0.032725 0.000000
# 6 0.000000 0.000000 0.000000 0.000000 0.000000 -0.036530
#
#
# Mechanical properties :
#
#
# Convention : Reuss Voigt Hill
#
# Bulk Modulus (GPa) = 56.54666 67.36887 61.95777
# Shear Modulus (GPa) = 40.81191 16.40384 28.60787
#
# Velocity S-wave (km/s) = 4.53173 2.87305 3.79414
# Velocity P-wave (km/s) = 7.47238 6.70119 7.09727
#
# Compressibility (1/GPa) = 0.01768451
#
# Stress axis : x y z
#
# Youngs Moduli (GPa) = 76.84488 79.03590 51.75425
#
# Poissons Ratio (x) = 0.44228 0.40138
# Poissons Ratio (y) = 0.43002 0.01554
# Poissons Ratio (z) = 0.59596 0.02374
#
# Static dielectric constant tensor:
#      x y z
#    x 3.706480 0.000000 0.000000 
#    y 0.000000 4.181340 0.000000 
#    z 0.000000 0.000000 3.794580 
# 
# 
# High freq. dielectric constant tensor:
#      x y z
#    x 1.786400 0.000000 0.000000 
#    y 0.000000 1.778410 0.000000 
#    z 0.000000 0.000000 1.756140 
# 
# From -- ./inp_files/22178.got.cif
#   From: 2010.03.12/outbox.cif.g09.slc.cpg/sg40_12_cif.got.tgz:22178.got - 2010.04.14 01:38:03.
