data_PCOD8183448
_publ_section_title
;
Structure prediction by ZEFSAII (Michael W. Deem and Ramdas Pophale) SiO2 
 PCOD8183448
Probable space group: A M A 2
;
_chemical_formula_sum "Si O2"
_cell_formula_units_Z 64
_cell_length_a 9.005070
_cell_length_b 32.946797
_cell_length_c 11.799933
_cell_angle_alpha 90.000000
_cell_angle_beta 90.000000
_cell_angle_gamma 90.000000
_cell_volume 3500.901038
_symmetry_space_group_name_H-M "A M A 2"
_symmetry_group_IT_number 40
_symmetry_cell_setting 'orthorhombic'
loop_
_space_group_symop_operation_xyz
x,y,z
-x,-y,z
1/2-x,y,z
1/2+x,-y,z
x,1/2+y,1/2+z
-x,1/2-y,1/2+z
1/2-x,1/2+y,1/2+z
1/2+x,1/2-y,1/2+z
loop_
_atom_site_type_symbol
_atom_site_label
_atom_site_fract_x
_atom_site_fract_y
_atom_site_fract_z
Si Si1 0.079831 0.175011 0.143510
Si Si2 0.926137 0.307595 0.400110
Si Si3 0.420240 0.958672 0.110237
Si Si4 0.573871 0.901367 0.273310
Si Si5 0.425890 0.644409 0.989724
Si Si6 0.423772 0.455840 0.358457
Si Si7 0.579521 0.275914 0.862150
Si Si8 0.573031 0.380691 0.239111
O O1 0.250000 0.165135 0.118327
O O2 0.009080 0.134715 0.195760
O O3 0.064113 0.211358 0.231590
O O4 0.003095 0.185230 0.024402
O O5 0.750000 0.305496 0.399919
O O6 0.980510 0.343958 0.319338
O O7 0.982942 0.264120 0.362910
O O8 0.250000 0.965087 0.140636
O O9 0.495112 0.940234 0.221922
O O10 0.500000 0.000000 0.087923
O O11 0.441248 0.937394 0.986694
O O12 0.750000 0.906487 0.264704
O O13 0.525684 0.891407 0.402520
O O14 0.250000 0.647983 0.986565
O O15 0.484203 0.688635 0.946173
O O16 0.483535 0.632111 0.113611
O O17 0.500000 0.500000 0.341830
O O18 0.250000 0.460875 0.328650
O O19 0.497776 0.423023 0.274408
O O20 0.750000 0.266448 0.893363
O O21 0.750000 0.386578 0.242537
#
# Coordination Sequence:
#
# PCOD8183448 Si02
#       8
#     8   8   8   8   8   8   8   8
#     4   8  16  31  48  68  95 130 166 203 254 309
#     4  10  20  31  48  75 104 133 171 219 264 309
#     4  10  20  33  52  80 110 134 164 210 261 313
#     4   9  16  32  56  74  95 132 174 210 255 311
#     4   8  17  34  54  75 102 140 180 219 264 317
#     4  10  21  37  57  82 111 141 175 217 269 322
#     4   9  18  33  51  69  97 137 177 215 260 311
#     4  10  20  35  55  79 108 141 181 225 269 320
#
# _framework density 18.281008
#
# number of rings (size 3 to 8) (size 9 to 14) (size 15 to 20)
#    0.000    2.750    0.000    3.000    1.750    3.000 
#    0.000    5.000    0.000    0.000    0.000    0.000 
#    0.000    0.000    0.000    0.000    0.000    0.000 
#
# Total GULP energy -396489.667761 kJ/mol
# GULP energy per Si atom -12390.302118 kJ/mol
# Density = 1.823940 g / cm^3
# Si number density = 18.281008 Si / 1000 Ang^3
#
#
#
# Elastic Constant Matrix: (Units=GPa)
#
#
# Indices 1 2 3 4 5 6 
#
# 1 48.1574 33.2672 36.6050 0.0000 0.0000 0.0000
# 2 33.2672 94.5335 59.6785 0.0000 0.0000 0.0000
# 3 36.6050 59.6785 135.6624 0.0000 0.0000 0.0000
# 4 0.0000 0.0000 0.0000 24.6660 0.0000 0.0000
# 5 0.0000 0.0000 0.0000 0.0000 24.4499 0.0000
# 6 0.0000 0.0000 0.0000 0.0000 0.0000 33.5332
#
#
#
# Elastic Compliance Matrix: (Units=1/GPa)
#
#
# Indices 1 2 3 4 5 6 
#
# 1 0.029441 -0.007401 -0.004688 0.000000 0.000000 0.000000
# 2 -0.007401 0.016506 -0.005264 0.000000 0.000000 0.000000
# 3 -0.004688 -0.005264 0.010952 0.000000 0.000000 0.000000
# 4 0.000000 0.000000 0.000000 0.040542 0.000000 0.000000
# 5 0.000000 0.000000 0.000000 0.000000 0.040900 0.000000
# 6 0.000000 0.000000 0.000000 0.000000 0.000000 0.029821
#
#
# Mechanical properties :
#
#
# Convention : Reuss Voigt Hill
#
# Bulk Modulus (GPa) = 45.06007 59.71721 52.38864
# Shear Modulus (GPa) = 23.77937 26.45001 25.11469
#
# Velocity S-wave (km/s) = 3.61053 3.80788 3.71052
# Velocity P-wave (km/s) = 6.48717 7.21599 6.86126
#
# Compressibility (1/GPa) = 0.02219260
#
# Stress axis : x y z
#
# Youngs Moduli (GPa) = 33.96569 60.58433 91.30813
#
# Poissons Ratio (x) = 0.44839 0.42808
# Poissons Ratio (y) = 0.25138 0.48065
# Poissons Ratio (z) = 0.15924 0.31892
#
# Static dielectric constant tensor:
#      x y z
#    x 3.031780 0.000000 0.000000 
#    y 0.000000 3.292820 0.000000 
#    z 0.000000 0.000000 3.745050 
# 
# 
# High freq. dielectric constant tensor:
#      x y z
#    x 1.679310 0.000000 0.000000 
#    y 0.000000 1.705390 0.000000 
#    z 0.000000 0.000000 1.715740 
# 
# From -- ./inp_files/10663.got.cif
#   From: 2010.03.12/outbox.cif.g09.slc.cpg/sg40_6_cif.got.tgz:10663.got - 2010.04.14 01:38:03.
