data_PCOD8183101
_publ_section_title
;
Structure prediction by ZEFSAII (Michael W. Deem and Ramdas Pophale) SiO2 
 PCOD8183101
Probable space group: A M A 2
;
_chemical_formula_sum "Si O2"
_cell_formula_units_Z 48
_cell_length_a 16.539531
_cell_length_b 8.870597
_cell_length_c 16.396271
_cell_angle_alpha 90.000000
_cell_angle_beta 90.000000
_cell_angle_gamma 90.000000
_cell_volume 2405.587329
_symmetry_space_group_name_H-M "A M A 2"
_symmetry_group_IT_number 40
_symmetry_cell_setting 'orthorhombic'
loop_
_space_group_symop_operation_xyz
x,y,z
-x,-y,z
1/2-x,y,z
1/2+x,-y,z
x,1/2+y,1/2+z
-x,1/2-y,1/2+z
1/2-x,1/2+y,1/2+z
1/2+x,1/2-y,1/2+z
loop_
_atom_site_type_symbol
_atom_site_label
_atom_site_fract_x
_atom_site_fract_y
_atom_site_fract_z
Si Si1 0.840270 0.817613 0.482610
Si Si2 0.093320 0.459556 0.553159
Si Si3 0.590102 0.564166 0.889472
Si Si4 0.843202 0.382902 0.397578
Si Si5 0.341356 0.829719 0.806162
Si Si6 0.590585 0.439503 0.725849
O O1 0.750000 0.816559 0.517869
O O2 0.896163 0.722421 0.545191
O O3 0.846919 0.748079 0.393369
O O4 0.869200 0.990579 0.470122
O O5 0.148045 0.534371 0.483844
O O6 0.130104 0.516312 0.639414
O O7 0.000000 0.500000 0.541043
O O8 0.500000 0.500000 0.884021
O O9 0.594511 0.743922 0.896644
O O10 0.633883 0.520727 0.803242
O O11 0.750000 0.329705 0.389189
O O12 0.866236 0.495398 0.322333
O O13 0.250000 0.821360 0.771847
O O14 0.400344 0.742090 0.742219
O O15 0.500000 0.500000 0.719375
#
# Coordination Sequence:
#
# PCOD8183101 Si02
#       6
#     8   8   8   8   8   8
#     4   9  17  31  50  74 102 136 174 214 259 315
#     4  10  19  33  53  77 106 142 180 219 265 325
#     4  10  19  34  55  79 106 139 180 225 274 326
#     4  10  20  35  55  81 107 139 184 232 276 328
#     4   8  16  31  52  74 101 137 177 218 266 321
#     4   9  19  34  52  77 107 139 178 220 271 329
#
# _framework density 19.953545999999999
#
# number of rings (size 3 to 8) (size 9 to 14) (size 15 to 20)
#    0.000    2.667    0.000    3.000    0.000    3.333 
#    0.000    1.667    0.000    8.000    0.000    0.000 
#    0.000    0.000    0.000    0.000    0.000    0.000 
#
# Total GULP energy -297314.781309 kJ/mol
# GULP energy per Si atom -12388.115888 kJ/mol
# Density = 1.990813 g / cm^3
# Si number density = 19.953546 Si / 1000 Ang^3
#
#
#
# Elastic Constant Matrix: (Units=GPa)
#
#
# Indices 1 2 3 4 5 6 
#
# 1 77.3102 44.5257 22.7391 0.0000 0.0000 0.0000
# 2 44.5257 154.2375 52.4328 0.0000 0.0000 0.0000
# 3 22.7391 52.4328 96.2691 0.0000 0.0000 0.0000
# 4 0.0000 0.0000 0.0000 28.1477 0.0000 0.0000
# 5 0.0000 0.0000 0.0000 0.0000 10.0996 0.0000
# 6 0.0000 0.0000 0.0000 0.0000 0.0000 31.0086
#
#
#
# Elastic Compliance Matrix: (Units=1/GPa)
#
#
# Indices 1 2 3 4 5 6 
#
# 1 0.015694 -0.004013 -0.001521 0.000000 0.000000 0.000000
# 2 -0.004013 0.008983 -0.003945 0.000000 0.000000 0.000000
# 3 -0.001521 -0.003945 0.012895 0.000000 0.000000 0.000000
# 4 0.000000 0.000000 0.000000 0.035527 0.000000 0.000000
# 5 0.000000 0.000000 0.000000 0.000000 0.099014 0.000000
# 6 0.000000 0.000000 0.000000 0.000000 0.000000 0.032249
#
#
# Mechanical properties :
#
#
# Convention : Reuss Voigt Hill
#
# Bulk Modulus (GPa) = 53.72320 63.02355 58.37337
# Shear Modulus (GPa) = 21.78415 27.72580 24.75497
#
# Velocity S-wave (km/s) = 3.30774 3.73167 3.52608
# Velocity P-wave (km/s) = 6.44754 7.08667 6.77464
#
# Compressibility (1/GPa) = 0.01861393
#
# Stress axis : x y z
#
# Youngs Moduli (GPa) = 63.71958 111.32027 77.54794
#
# Poissons Ratio (x) = 0.44678 0.11795
# Poissons Ratio (y) = 0.25574 0.30590
# Poissons Ratio (z) = 0.09692 0.43912
#
# Static dielectric constant tensor:
#      x y z
#    x 3.444690 0.000000 0.000000 
#    y 0.000000 3.960790 0.000000 
#    z 0.000000 0.000000 3.808730 
# 
# 
# High freq. dielectric constant tensor:
#      x y z
#    x 1.764840 0.000000 0.000000 
#    y 0.000000 1.777980 0.000000 
#    z 0.000000 0.000000 1.749990 
# 
# From -- ./inp_files/18076.got.cif
#   From: 2010.03.12/outbox.cif.g09.slc.cpg/sg40_10_cif.got.tgz:18076.got - 2010.04.14 01:38:03.
