data_PCOD8183305
_publ_section_title
;
Structure prediction by ZEFSAII (Michael W. Deem and Ramdas Pophale) SiO2 
 PCOD8183305
Probable space group: A M A 2
;
_chemical_formula_sum "Si O2"
_cell_formula_units_Z 60
_cell_length_a 11.370849
_cell_length_b 27.583412
_cell_length_c 9.281530
_cell_angle_alpha 90.000000
_cell_angle_beta 90.000000
_cell_angle_gamma 90.000000
_cell_volume 2911.122302
_symmetry_space_group_name_H-M "A M A 2"
_symmetry_group_IT_number 40
_symmetry_cell_setting 'orthorhombic'
loop_
_space_group_symop_operation_xyz
x,y,z
-x,-y,z
1/2-x,y,z
1/2+x,-y,z
x,1/2+y,1/2+z
-x,1/2-y,1/2+z
1/2-x,1/2+y,1/2+z
1/2+x,1/2-y,1/2+z
loop_
_atom_site_type_symbol
_atom_site_label
_atom_site_fract_x
_atom_site_fract_y
_atom_site_fract_z
Si Si1 0.613140 0.697107 0.035600
Si Si2 0.885486 0.807133 0.033138
Si Si3 0.000000 0.500000 0.929883
Si Si4 0.120611 0.943511 0.202337
Si Si5 0.516428 0.134344 0.790294
Si Si6 0.876202 0.914684 0.560271
Si Si7 0.886799 0.532842 0.379992
Si Si8 0.464229 0.641440 0.807943
O O1 0.750000 0.696403 0.011377
O O2 0.586005 0.671170 0.187125
O O3 0.567221 0.752231 0.036078
O O4 0.560434 0.671014 0.896863
O O5 0.750000 0.810904 0.981570
O O6 0.970826 0.838037 0.931006
O O7 0.894216 0.825630 0.196418
O O8 0.892438 0.515730 0.826968
O O9 0.971469 0.456295 0.036786
O O10 0.250000 0.920408 0.215441
O O11 0.024956 0.901732 0.219401
O O12 0.104886 0.970633 0.051606
O O13 0.403864 0.115140 0.703626
O O14 0.598628 0.088854 0.832137
O O15 0.750000 0.939116 0.581027
O O16 0.871456 0.879631 0.421848
O O17 0.750000 0.516729 0.333964
O O18 0.000000 0.500000 0.321930
#
# Coordination Sequence:
#
# PCOD8183305 Si02
#       8
#     8   8   4   8   8   8   8   8
#     4  10  22  40  63  90 122 163 210 267 328 398
#     4  11  22  38  63  93 124 163 212 264 330 394
#     4  10  20  36  56  84 114 156 212 250 312 358
#     4  10  19  35  58  83 115 152 203 256 304 362
#     4  11  23  42  62  91 131 169 207 266 330 390
#     4  10  22  38  58  84 120 162 208 256 316 382
#     4  11  24  42  63  94 128 169 218 268 326 386
#     4  10  20  38  59  85 117 155 207 256 318 376
#
# _framework density 20.610607000000002
#
# number of rings (size 3 to 8) (size 9 to 14) (size 15 to 20)
#    0.000    1.600    2.000    2.800    0.933    1.067 
#    0.000    1.333    0.000    6.400    0.000    0.000 
#    0.000    0.000    0.000    0.000    0.000    0.000 
#
# Total GULP energy -371849.425543 kJ/mol
# GULP energy per Si atom -12394.980851 kJ/mol
# Density = 2.056370 g / cm^3
# Si number density = 20.610607 Si / 1000 Ang^3
#
#
#
# Elastic Constant Matrix: (Units=GPa)
#
#
# Indices 1 2 3 4 5 6 
#
# 1 95.5288 29.7476 19.8196 0.0000 0.0000 0.0000
# 2 29.7476 111.7897 35.3088 0.0000 0.0000 0.0000
# 3 19.8196 35.3088 82.5693 0.0000 0.0000 0.0000
# 4 0.0000 0.0000 0.0000 27.4434 0.0000 0.0000
# 5 0.0000 0.0000 0.0000 0.0000 -11.6880 0.0000
# 6 0.0000 0.0000 0.0000 0.0000 0.0000 24.9418
#
#
#
# Elastic Compliance Matrix: (Units=1/GPa)
#
#
# Indices 1 2 3 4 5 6 
#
# 1 0.011616 -0.002555 -0.001695 0.000000 0.000000 0.000000
# 2 -0.002555 0.010904 -0.004050 0.000000 0.000000 0.000000
# 3 -0.001695 -0.004050 0.014250 0.000000 0.000000 0.000000
# 4 0.000000 0.000000 0.000000 0.036439 0.000000 0.000000
# 5 0.000000 0.000000 0.000000 0.000000 -0.085558 0.000000
# 6 0.000000 0.000000 0.000000 0.000000 0.000000 0.040093
#
#
# Mechanical properties :
#
#
# Convention : Reuss Voigt Hill
#
# Bulk Modulus (GPa) = 49.58150 51.07111 50.32630
# Shear Modulus (GPa) = 97.90908 21.80688 59.85798
#
# Velocity S-wave (km/s) = 6.89981 3.25628 5.39494
# Velocity P-wave (km/s) = 9.35869 6.24265 7.95474
#
# Compressibility (1/GPa) = 0.02016881
#
# Stress axis : x y z
#
# Youngs Moduli (GPa) = 86.09145 91.70555 70.17677
#
# Poissons Ratio (x) = 0.23435 0.11898
# Poissons Ratio (y) = 0.22000 0.28419
# Poissons Ratio (z) = 0.14596 0.37137
#
# Static dielectric constant tensor:
#      x y z
#    x 3.670650 0.000000 0.000000 
#    y 0.000000 3.868040 0.000000 
#    z 0.000000 0.000000 3.738710 
# 
# 
# High freq. dielectric constant tensor:
#      x y z
#    x 1.801240 0.000000 0.000000 
#    y 0.000000 1.807630 0.000000 
#    z 0.000000 0.000000 1.816840 
# 
# From -- ./inp_files/5584.got.cif
#   From: 2010.03.12/outbox.cif.g09.slc.cpg/sg40_3_cif.got.tgz:5584.got - 2010.04.14 01:38:03.
