data_PCOD8183618
_publ_section_title
;
Structure prediction by ZEFSAII (Michael W. Deem and Ramdas Pophale) SiO2 
 PCOD8183618
Probable space group: A M A 2
;
_chemical_formula_sum "Si O2"
_cell_formula_units_Z 64
_cell_length_a 8.668076
_cell_length_b 24.621526
_cell_length_c 15.110135
_cell_angle_alpha 90.000000
_cell_angle_beta 90.000000
_cell_angle_gamma 90.000000
_cell_volume 3224.824029
_symmetry_space_group_name_H-M "A M A 2"
_symmetry_group_IT_number 40
_symmetry_cell_setting 'orthorhombic'
loop_
_space_group_symop_operation_xyz
x,y,z
-x,-y,z
1/2-x,y,z
1/2+x,-y,z
x,1/2+y,1/2+z
-x,1/2-y,1/2+z
1/2-x,1/2+y,1/2+z
1/2+x,1/2-y,1/2+z
loop_
_atom_site_type_symbol
_atom_site_label
_atom_site_fract_x
_atom_site_fract_y
_atom_site_fract_z
Si Si1 0.068364 0.941166 0.514400
Si Si2 0.930365 0.558008 0.380374
Si Si3 0.569198 0.354372 0.508859
Si Si4 0.428619 0.217153 0.652135
Si Si5 0.929253 0.860867 0.373011
Si Si6 0.070338 0.888713 0.696956
Si Si7 0.928920 0.733594 0.969275
Si Si8 0.571026 0.661521 0.694720
O O1 0.250000 0.946556 0.517243
O O2 0.007737 0.917677 0.608048
O O3 0.021941 0.901949 0.434727
O O4 0.000000 0.000000 0.496438
O O5 0.750000 0.559469 0.402628
O O6 0.963463 0.571287 0.278138
O O7 0.000000 0.500000 0.402806
O O8 0.019168 0.600070 0.441327
O O9 0.750000 0.356957 0.528688
O O10 0.524153 0.296682 0.465224
O O11 0.480453 0.362608 0.600860
O O12 0.250000 0.214040 0.624364
O O13 0.475458 0.166961 0.714969
O O14 0.534765 0.210029 0.565977
O O15 0.463843 0.273965 0.700276
O O16 0.750000 0.872230 0.385387
O O17 0.971183 0.798824 0.397602
O O18 0.976508 0.869424 0.270972
O O19 0.250000 0.874224 0.690037
O O20 0.750000 0.724242 0.947469
O O21 0.750000 0.649222 0.708744
#
# Coordination Sequence:
#
# PCOD8183618 Si02
#       8
#     8   8   8   8   8   8   8   8
#     4  11  23  41  63  88 123 165 207 256 306 363
#     4  11  24  42  63  90 121 161 209 258 308 365
#     4  10  22  41  64  90 121 160 204 256 311 365
#     4  10  20  34  57  88 122 160 203 244 296 363
#     4  12  24  38  60  91 124 164 209 253 303 364
#     4  10  22  38  59  88 124 164 203 248 303 361
#     4  10  20  36  58  86 123 161 199 246 302 360
#     4  10  22  40  61  89 125 163 202 253 309 366
#
# _framework density 19.846043000000002
#
# number of rings (size 3 to 8) (size 9 to 14) (size 15 to 20)
#    0.000    1.500    1.250    3.750    1.750    4.500 
#    0.000    0.625    0.000    0.000    0.000    0.000 
#    0.000    0.000    0.000    0.000    0.000    0.000 
#
# Total GULP energy -396967.845356 kJ/mol
# GULP energy per Si atom -12405.245167 kJ/mol
# Density = 1.980087 g / cm^3
# Si number density = 19.846043 Si / 1000 Ang^3
#
#
#
# Elastic Constant Matrix: (Units=GPa)
#
#
# Indices 1 2 3 4 5 6 
#
# 1 50.0451 20.3809 18.3402 0.0000 0.0000 0.0000
# 2 20.3809 99.9080 42.2679 0.0000 0.0000 0.0000
# 3 18.3402 42.2679 89.9676 0.0000 0.0000 0.0000
# 4 0.0000 0.0000 0.0000 29.6805 0.0000 0.0000
# 5 0.0000 0.0000 0.0000 0.0000 30.0518 0.0000
# 6 0.0000 0.0000 0.0000 0.0000 0.0000 34.7925
#
#
#
# Elastic Compliance Matrix: (Units=1/GPa)
#
#
# Indices 1 2 3 4 5 6 
#
# 1 0.022433 -0.003297 -0.003024 0.000000 0.000000 0.000000
# 2 -0.003297 0.012977 -0.005425 0.000000 0.000000 0.000000
# 3 -0.003024 -0.005425 0.014280 0.000000 0.000000 0.000000
# 4 0.000000 0.000000 0.000000 0.033692 0.000000 0.000000
# 5 0.000000 0.000000 0.000000 0.000000 0.033276 0.000000
# 6 0.000000 0.000000 0.000000 0.000000 0.000000 0.028742
#
#
# Mechanical properties :
#
#
# Convention : Reuss Voigt Hill
#
# Bulk Modulus (GPa) = 38.16984 44.65541 41.41262
# Shear Modulus (GPa) = 28.14942 29.50039 28.82490
#
# Velocity S-wave (km/s) = 3.77024 3.85965 3.81520
# Velocity P-wave (km/s) = 6.18285 6.51247 6.34980
#
# Compressibility (1/GPa) = 0.02619870
#
# Stress axis : x y z
#
# Youngs Moduli (GPa) = 44.57738 77.06116 70.02744
#
# Poissons Ratio (x) = 0.25406 0.21177
# Poissons Ratio (y) = 0.14696 0.37987
# Poissons Ratio (z) = 0.13481 0.41802
#
# Static dielectric constant tensor:
#      x y z
#    x 3.628420 0.000000 0.000000 
#    y 0.000000 3.575940 0.000000 
#    z 0.000000 0.000000 3.574790 
# 
# 
# High freq. dielectric constant tensor:
#      x y z
#    x 1.782750 0.000000 0.000000 
#    y 0.000000 1.767920 0.000000 
#    z 0.000000 0.000000 1.772480 
# 
# From -- ./inp_files/15679.got.cif
#   From: 2010.03.12/outbox.cif.g09.slc.cpg/sg40_8_cif.got.tgz:15679.got - 2010.04.14 01:38:03.
