data_PCOD8183859
_publ_section_title
;
Structure prediction by ZEFSAII (Michael W. Deem and Ramdas Pophale) SiO2 
 PCOD8183859
Probable space group: A M A 2
;
_chemical_formula_sum "Si O2"
_cell_formula_units_Z 48
_cell_length_a 8.994708
_cell_length_b 30.836943
_cell_length_c 9.016813
_cell_angle_alpha 90.000000
_cell_angle_beta 90.000000
_cell_angle_gamma 90.000000
_cell_volume 2500.987091
_symmetry_space_group_name_H-M "A M A 2"
_symmetry_group_IT_number 40
_symmetry_cell_setting 'orthorhombic'
loop_
_space_group_symop_operation_xyz
x,y,z
-x,-y,z
1/2-x,y,z
1/2+x,-y,z
x,1/2+y,1/2+z
-x,1/2-y,1/2+z
1/2-x,1/2+y,1/2+z
1/2+x,1/2-y,1/2+z
loop_
_atom_site_type_symbol
_atom_site_label
_atom_site_fract_x
_atom_site_fract_y
_atom_site_fract_z
Si Si1 0.925775 0.044519 0.381460
Si Si2 0.575196 0.291991 0.898550
Si Si3 0.576462 0.126591 0.908053
Si Si4 0.925139 0.376882 0.717705
Si Si5 0.576121 0.043772 0.720039
Si Si6 0.423220 0.289814 0.213511
O O1 0.750000 0.041125 0.361013
O O2 0.971767 0.054245 0.551314
O O3 0.987326 0.082039 0.278189
O O4 0.000000 0.000000 0.327456
O O5 0.750000 0.288243 0.918663
O O6 0.528349 0.335530 0.814320
O O7 0.514681 0.251012 0.805834
O O8 0.504468 0.292198 0.058657
O O9 0.750000 0.124857 0.952188
O O10 0.525511 0.083252 0.823070
O O11 0.541759 0.166690 0.802300
O O12 0.474868 0.132196 0.050887
O O13 0.750000 0.385668 0.723754
O O14 0.750000 0.036056 0.729006
O O15 0.500000 0.000000 0.778802
O O16 0.250000 0.284372 0.181053
#
# Coordination Sequence:
#
# PCOD8183859 Si02
#       6
#     8   8   8   8   8   8
#     4  10  20  37  60  84 111 145 185 230 279 330
#     4  10  22  38  57  84 115 145 183 232 282 333
#     4  10  21  37  56  80 110 145 187 231 276 330
#     4  11  23  37  54  81 115 149 186 228 277 333
#     4   9  19  35  56  81 107 138 179 225 273 327
#     4  10  21  38  60  84 111 146 188 232 281 337
#
# _framework density 19.192419999999998
#
# number of rings (size 3 to 8) (size 9 to 14) (size 15 to 20)
#    0.000    2.000    0.000    3.000    0.000    6.000 
#    0.000    1.667    0.000    0.000    0.000    0.000 
#    0.000    0.000    0.000    0.000    0.000    0.000 
#
# Total GULP energy -297715.973999 kJ/mol
# GULP energy per Si atom -12404.832250 kJ/mol
# Density = 1.914874 g / cm^3
# Si number density = 19.192420 Si / 1000 Ang^3
#
#
#
# Elastic Constant Matrix: (Units=GPa)
#
#
# Indices 1 2 3 4 5 6 
#
# 1 49.7150 48.9238 42.9091 0.0000 0.0000 0.0000
# 2 48.9238 154.3461 71.5067 0.0000 0.0000 0.0000
# 3 42.9091 71.5067 124.4985 0.0000 0.0000 0.0000
# 4 0.0000 0.0000 0.0000 29.8487 0.0000 0.0000
# 5 0.0000 0.0000 0.0000 0.0000 35.5803 0.0000
# 6 0.0000 0.0000 0.0000 0.0000 0.0000 28.3676
#
#
#
# Elastic Compliance Matrix: (Units=1/GPa)
#
#
# Indices 1 2 3 4 5 6 
#
# 1 0.033645 -0.007211 -0.007454 0.000000 0.000000 0.000000
# 2 -0.007211 0.010374 -0.003473 0.000000 0.000000 0.000000
# 3 -0.007454 -0.003473 0.012596 0.000000 0.000000 0.000000
# 4 0.000000 0.000000 0.000000 0.033502 0.000000 0.000000
# 5 0.000000 0.000000 0.000000 0.000000 0.028105 0.000000
# 6 0.000000 0.000000 0.000000 0.000000 0.000000 0.035252
#
#
# Mechanical properties :
#
#
# Convention : Reuss Voigt Hill
#
# Bulk Modulus (GPa) = 49.16855 72.80431 60.98643
# Shear Modulus (GPa) = 25.44160 29.77400 27.60780
#
# Velocity S-wave (km/s) = 3.64484 3.94298 3.79684
# Velocity P-wave (km/s) = 6.58692 7.66457 7.14609
#
# Compressibility (1/GPa) = 0.02033821
#
# Stress axis : x y z
#
# Youngs Moduli (GPa) = 29.72249 96.39850 79.39080
#
# Poissons Ratio (x) = 0.69514 0.59178
# Poissons Ratio (y) = 0.21433 0.27571
# Poissons Ratio (z) = 0.22155 0.33477
#
# Static dielectric constant tensor:
#      x y z
#    x 3.442470 0.000000 0.000000 
#    y 0.000000 3.858660 0.000000 
#    z 0.000000 0.000000 3.496980 
# 
# 
# High freq. dielectric constant tensor:
#      x y z
#    x 1.742490 0.000000 0.000000 
#    y 0.000000 1.765450 0.000000 
#    z 0.000000 0.000000 1.752250 
# 
# From -- ./inp_files/4567.got.cif
#   From: 2010.03.12/outbox.cif.g09.slc.cpg/sg40_3_cif.got.tgz:4567.got - 2010.04.14 01:38:03.
