data_PCOD8183274
_publ_section_title
;
Structure prediction by ZEFSAII (Michael W. Deem and Ramdas Pophale) SiO2 
 PCOD8183274
Probable space group: A M A 2
;
_chemical_formula_sum "Si O2"
_cell_formula_units_Z 64
_cell_length_a 16.778644
_cell_length_b 12.088441
_cell_length_c 16.065826
_cell_angle_alpha 90.000000
_cell_angle_beta 90.000000
_cell_angle_gamma 90.000000
_cell_volume 3258.593702
_symmetry_space_group_name_H-M "A M A 2"
_symmetry_group_IT_number 40
_symmetry_cell_setting 'orthorhombic'
loop_
_space_group_symop_operation_xyz
x,y,z
-x,-y,z
1/2-x,y,z
1/2+x,-y,z
x,1/2+y,1/2+z
-x,1/2-y,1/2+z
1/2-x,1/2+y,1/2+z
1/2+x,1/2-y,1/2+z
loop_
_atom_site_type_symbol
_atom_site_label
_atom_site_fract_x
_atom_site_fract_y
_atom_site_fract_z
Si Si1 0.841366 0.199523 0.881190
Si Si2 0.090085 0.959955 0.013730
Si Si3 0.914786 0.365886 0.259654
Si Si4 0.658491 0.837619 0.935025
Si Si5 0.655813 0.126356 0.538591
Si Si6 0.097887 0.389562 0.218813
Si Si7 0.343948 0.781747 0.127935
Si Si8 0.842887 0.891480 0.489690
O O1 0.750000 0.179103 0.910588
O O2 0.848147 0.180237 0.782943
O O3 0.865215 0.326925 0.904065
O O4 0.897978 0.116366 0.932120
O O5 0.114453 0.895500 0.098227
O O6 0.000000 0.000000 0.020401
O O7 0.146209 0.067156 0.003844
O O8 0.899059 0.360272 0.357626
O O9 0.878759 0.480783 0.224459
O O10 0.873899 0.258281 0.218117
O O11 0.008040 0.364403 0.243610
O O12 0.750000 0.835788 0.905308
O O13 0.632506 0.721761 0.974710
O O14 0.750000 0.121151 0.554214
O O15 0.614077 0.152661 0.626245
O O16 0.618803 0.013314 0.498984
O O17 0.250000 0.801385 0.129638
O O18 0.371103 0.685129 0.065519
O O19 0.750000 0.912456 0.495010
#
# Coordination Sequence:
#
# PCOD8183274 Si02
#       8
#     8   8   8   8   8   8   8   8
#     4  10  19  34  61  89 119 158 206 252 297 370
#     4  11  22  36  59  89 123 158 196 250 315 359
#     4  11  23  38  58  89 121 159 204 252 301 361
#     4  11  23  39  61  89 122 160 201 248 303 366
#     4  10  21  38  62  89 122 157 197 251 309 363
#     4  11  22  37  57  92 123 155 200 253 313 354
#     4  10  20  37  63  88 115 159 209 253 298 369
#     4   8  16  33  57  88 115 149 197 243 292 352
#
# _framework density 19.640374999999999
#
# number of rings (size 3 to 8) (size 9 to 14) (size 15 to 20)
#    0.000    1.750    2.500    3.375    1.750    1.000 
#    0.000    1.250    0.000    4.500    0.000    0.000 
#    0.000    0.000    0.000    0.000    0.000    0.000 
#
# Total GULP energy -396777.541649 kJ/mol
# GULP energy per Si atom -12399.298177 kJ/mol
# Density = 1.959567 g / cm^3
# Si number density = 19.640375 Si / 1000 Ang^3
#
#
#
# Elastic Constant Matrix: (Units=GPa)
#
#
# Indices 1 2 3 4 5 6 
#
# 1 70.7642 39.5028 40.3815 0.0000 0.0000 0.0000
# 2 39.5028 122.4456 48.6104 0.0000 0.0000 0.0000
# 3 40.3815 48.6104 79.3410 0.0000 0.0000 0.0000
# 4 0.0000 0.0000 0.0000 34.8934 0.0000 0.0000
# 5 0.0000 0.0000 0.0000 0.0000 27.5944 0.0000
# 6 0.0000 0.0000 0.0000 0.0000 0.0000 19.4668
#
#
#
# Elastic Compliance Matrix: (Units=1/GPa)
#
#
# Indices 1 2 3 4 5 6 
#
# 1 0.020894 -0.003329 -0.008595 0.000000 0.000000 0.000000
# 2 -0.003329 0.011322 -0.005243 0.000000 0.000000 0.000000
# 3 -0.008595 -0.005243 0.020190 0.000000 0.000000 0.000000
# 4 0.000000 0.000000 0.000000 0.028659 0.000000 0.000000
# 5 0.000000 0.000000 0.000000 0.000000 0.036239 0.000000
# 6 0.000000 0.000000 0.000000 0.000000 0.000000 0.051370
#
#
# Mechanical properties :
#
#
# Convention : Reuss Voigt Hill
#
# Bulk Modulus (GPa) = 55.32744 58.83781 57.08262
# Shear Modulus (GPa) = 23.91983 25.99465 24.95724
#
# Velocity S-wave (km/s) = 3.49362 3.64198 3.56857
# Velocity P-wave (km/s) = 6.67122 6.90710 6.79018
#
# Compressibility (1/GPa) = 0.01807422
#
# Stress axis : x y z
#
# Youngs Moduli (GPa) = 47.85993 88.32310 49.52854
#
# Poissons Ratio (x) = 0.29400 0.42570
# Poissons Ratio (y) = 0.15931 0.25966
# Poissons Ratio (z) = 0.41136 0.46304
#
# Static dielectric constant tensor:
#      x y z
#    x 3.398780 0.000000 0.000000 
#    y 0.000000 3.842330 0.000000 
#    z 0.000000 0.000000 3.472410 
# 
# 
# High freq. dielectric constant tensor:
#      x y z
#    x 1.758060 0.000000 0.000000 
#    y 0.000000 1.764470 0.000000 
#    z 0.000000 0.000000 1.750730 
# 
# From -- ./inp_files/20813.got.cif
#   From: 2010.03.12/outbox.cif.g09.slc.cpg/sg40_11_cif.got.tgz:20813.got - 2010.04.14 01:38:03.
