data_PCOD8183297
_publ_section_title
;
Structure prediction by ZEFSAII (Michael W. Deem and Ramdas Pophale) SiO2 
 PCOD8183297
Probable space group: A M A 2
;
_chemical_formula_sum "Si O2"
_cell_formula_units_Z 56
_cell_length_a 18.744888
_cell_length_b 17.942702
_cell_length_c 8.260494
_cell_angle_alpha 90.000000
_cell_angle_beta 90.000000
_cell_angle_gamma 90.000000
_cell_volume 2778.284488
_symmetry_space_group_name_H-M "A M A 2"
_symmetry_group_IT_number 40
_symmetry_cell_setting 'orthorhombic'
loop_
_space_group_symop_operation_xyz
x,y,z
-x,-y,z
1/2-x,y,z
1/2+x,-y,z
x,1/2+y,1/2+z
-x,1/2-y,1/2+z
1/2-x,1/2+y,1/2+z
1/2+x,1/2-y,1/2+z
loop_
_atom_site_type_symbol
_atom_site_label
_atom_site_fract_x
_atom_site_fract_y
_atom_site_fract_z
Si Si1 0.830280 0.038154 0.888730
Si Si2 0.168601 0.105849 0.085706
Si Si3 0.166931 0.306454 0.556857
Si Si4 0.566145 0.461888 0.167377
Si Si5 0.042346 0.658129 0.400449
Si Si6 0.601255 0.344605 0.912716
Si Si7 0.966071 0.196593 0.225103
O O1 0.750000 0.026181 0.829809
O O2 0.877648 0.022506 0.730314
O O3 0.842452 0.122804 0.941100
O O4 0.846054 0.980438 0.036554
O O5 0.250000 0.128962 0.060417
O O6 0.147022 0.118333 0.270822
O O7 0.122992 0.161015 0.970898
O O8 0.250000 0.294047 0.604021
O O9 0.134990 0.234699 0.461875
O O10 0.119189 0.323049 0.720282
O O11 0.500000 0.500000 0.071550
O O12 0.528926 0.422976 0.324441
O O13 0.607402 0.401257 0.061269
O O14 0.030788 0.715022 0.252920
O O15 0.988781 0.676256 0.543988
O O16 0.517181 0.341301 0.858374
#
# Coordination Sequence:
#
# PCOD8183297 Si02
#       7
#     8   8   8   8   8   8   8
#     4   9  21  40  60  82 120 160 195 246 310 367
#     4   9  20  38  59  84 116 154 200 248 302 361
#     4  11  22  37  62  91 119 160 204 248 305 372
#     4  11  22  37  60  91 116 155 206 251 300 362
#     4  10  19  35  57  85 114 159 194 246 303 352
#     4  11  23  38  63  89 120 158 205 259 304 358
#     4  11  20  37  59  85 122 156 198 252 305 360
#
# _framework density 20.156321999999999
#
# number of rings (size 3 to 8) (size 9 to 14) (size 15 to 20)
#    0.000    1.714    2.857    1.286    0.000    2.857 
#    0.000    1.429    0.000    0.857    0.000    0.000 
#    0.000    0.000    0.000    0.000    0.000    0.000 
#
# Total GULP energy -346913.534986 kJ/mol
# GULP energy per Si atom -12389.769107 kJ/mol
# Density = 2.011045 g / cm^3
# Si number density = 20.156322 Si / 1000 Ang^3
#
#
#
# Elastic Constant Matrix: (Units=GPa)
#
#
# Indices 1 2 3 4 5 6 
#
# 1 131.1823 39.4829 30.5557 0.0000 0.0000 0.0000
# 2 39.4829 83.3437 18.8353 0.0000 0.0000 0.0000
# 3 30.5557 18.8353 43.8716 0.0000 0.0000 0.0000
# 4 0.0000 0.0000 0.0000 23.1194 0.0000 0.0000
# 5 0.0000 0.0000 0.0000 0.0000 24.7063 0.0000
# 6 0.0000 0.0000 0.0000 0.0000 0.0000 32.3023
#
#
#
# Elastic Compliance Matrix: (Units=1/GPa)
#
#
# Indices 1 2 3 4 5 6 
#
# 1 0.009934 -0.003480 -0.005425 0.000000 0.000000 0.000000
# 2 -0.003480 0.014507 -0.003804 0.000000 0.000000 0.000000
# 3 -0.005425 -0.003804 0.028205 0.000000 0.000000 0.000000
# 4 0.000000 0.000000 0.000000 0.043254 0.000000 0.000000
# 5 0.000000 0.000000 0.000000 0.000000 0.040475 0.000000
# 6 0.000000 0.000000 0.000000 0.000000 0.000000 0.030958
#
#
# Mechanical properties :
#
#
# Convention : Reuss Voigt Hill
#
# Bulk Modulus (GPa) = 36.72719 48.46062 42.59390
# Shear Modulus (GPa) = 24.77365 27.32719 26.05042
#
# Velocity S-wave (km/s) = 3.50962 3.68606 3.59892
# Velocity P-wave (km/s) = 5.88931 6.49697 6.20059
#
# Compressibility (1/GPa) = 0.02722779
#
# Stress axis : x y z
#
# Youngs Moduli (GPa) = 100.66473 68.93256 35.45427
#
# Poissons Ratio (x) = 0.23989 0.19233
# Poissons Ratio (y) = 0.35032 0.13488
# Poissons Ratio (z) = 0.54608 0.26225
#
# Static dielectric constant tensor:
#      x y z
#    x 4.007800 0.000000 0.000000 
#    y 0.000000 3.662270 0.000000 
#    z 0.000000 0.000000 3.507990 
# 
# 
# High freq. dielectric constant tensor:
#      x y z
#    x 1.801610 0.000000 0.000000 
#    y 0.000000 1.786640 0.000000 
#    z 0.000000 0.000000 1.766150 
# 
# From -- ./inp_files/8392.got.cif
#   From: 2010.03.12/outbox.cif.g09.slc.cpg/sg40_5_cif.got.tgz:8392.got - 2010.04.14 01:38:03.
