data_PCOD8183330
_publ_section_title
;
Structure prediction by ZEFSAII (Michael W. Deem and Ramdas Pophale) SiO2 
 PCOD8183330
Probable space group: A M A 2
;
_chemical_formula_sum "Si O2"
_cell_formula_units_Z 64
_cell_length_a 16.298606
_cell_length_b 16.221748
_cell_length_c 12.016142
_cell_angle_alpha 90.000000
_cell_angle_beta 90.000000
_cell_angle_gamma 90.000000
_cell_volume 3176.970365
_symmetry_space_group_name_H-M "A M A 2"
_symmetry_group_IT_number 40
_symmetry_cell_setting 'orthorhombic'
loop_
_space_group_symop_operation_xyz
x,y,z
-x,-y,z
1/2-x,y,z
1/2+x,-y,z
x,1/2+y,1/2+z
-x,1/2-y,1/2+z
1/2-x,1/2+y,1/2+z
1/2+x,1/2-y,1/2+z
loop_
_atom_site_type_symbol
_atom_site_label
_atom_site_fract_x
_atom_site_fract_y
_atom_site_fract_z
Si Si1 0.151502 0.648098 0.948460
Si Si2 0.845111 0.129433 0.704855
Si Si3 0.589746 0.976657 0.103086
Si Si4 0.907003 0.721464 0.618066
Si Si5 0.346388 0.964888 0.499393
Si Si6 0.655455 0.095216 0.948147
Si Si7 0.585979 0.802262 0.209520
Si Si8 0.341952 0.400760 0.772379
O O1 0.250000 0.656759 0.928351
O O2 0.121105 0.555263 0.968880
O O3 0.101122 0.680492 0.841003
O O4 0.124658 0.694594 0.062008
O O5 0.750000 0.109887 0.705639
O O6 0.887859 0.072478 0.610541
O O7 0.880925 0.101208 0.824001
O O8 0.856584 0.225806 0.677460
O O9 0.607471 0.881989 0.134952
O O10 0.500000 0.000000 0.059207
O O11 0.601084 0.032946 0.211830
O O12 0.650118 0.003245 0.001174
O O13 0.903650 0.652866 0.521495
O O14 0.848271 0.690438 0.718867
O O15 0.994882 0.727822 0.678003
O O16 0.250000 0.971336 0.517297
O O17 0.368427 0.900277 0.401227
O O18 0.750000 0.126538 0.952750
O O19 0.250000 0.434448 0.760144
#
# Coordination Sequence:
#
# PCOD8183330 Si02
#       8
#     8   8   8   8   8   8   8   8
#     4  11  22  41  68  93 123 168 221 259 306 396
#     4  10  22  42  62  88 125 166 209 256 312 386
#     4  11  20  36  57  89 124 154 198 266 314 366
#     4  11  22  37  58  92 126 161 207 264 317 370
#     4   9  20  38  62  91 120 154 205 264 314 367
#     4  10  20  38  64  86 119 169 215 254 310 380
#     4  12  23  36  61  95 125 161 208 267 320 372
#     4  10  19  35  61  89 118 157 204 258 316 370
#
# _framework density 20.144977999999998
#
# number of rings (size 3 to 8) (size 9 to 14) (size 15 to 20)
#    0.000    1.500    5.000    2.625    0.000    2.500 
#    0.000    5.625    0.000    4.500    0.000    0.000 
#    0.000    0.000    0.000    0.000    0.000    0.000 
#
# Total GULP energy -396495.635350 kJ/mol
# GULP energy per Si atom -12390.488605 kJ/mol
# Density = 2.009913 g / cm^3
# Si number density = 20.144978 Si / 1000 Ang^3
#
#
#
# Elastic Constant Matrix: (Units=GPa)
#
#
# Indices 1 2 3 4 5 6 
#
# 1 45.4633 8.9075 41.9198 0.0000 0.0000 0.0000
# 2 8.9075 104.5713 70.4418 0.0000 0.0000 0.0000
# 3 41.9198 70.4418 148.4355 0.0000 0.0000 0.0000
# 4 0.0000 0.0000 0.0000 35.6274 0.0000 0.0000
# 5 0.0000 0.0000 0.0000 0.0000 25.2342 0.0000
# 6 0.0000 0.0000 0.0000 0.0000 0.0000 19.8072
#
#
#
# Elastic Compliance Matrix: (Units=1/GPa)
#
#
# Indices 1 2 3 4 5 6 
#
# 1 0.031320 0.004837 -0.011140 0.000000 0.000000 0.000000
# 2 0.004837 0.014803 -0.008391 0.000000 0.000000 0.000000
# 3 -0.011140 -0.008391 0.013865 0.000000 0.000000 0.000000
# 4 0.000000 0.000000 0.000000 0.028068 0.000000 0.000000
# 5 0.000000 0.000000 0.000000 0.000000 0.039629 0.000000
# 6 0.000000 0.000000 0.000000 0.000000 0.000000 0.050487
#
#
# Mechanical properties :
#
#
# Convention : Reuss Voigt Hill
#
# Bulk Modulus (GPa) = 32.68078 60.11203 46.39640
# Shear Modulus (GPa) = 22.96088 27.94716 25.45402
#
# Velocity S-wave (km/s) = 3.37973 3.72869 3.55849
# Velocity P-wave (km/s) = 5.61143 6.96003 6.32179
#
# Compressibility (1/GPa) = 0.03059902
#
# Stress axis : x y z
#
# Youngs Moduli (GPa) = 31.92820 67.55292 72.12337
#
# Poissons Ratio (x) = -0.32673 0.80349
# Poissons Ratio (y) = -0.15442 0.60518
# Poissons Ratio (z) = 0.35569 0.56683
#
# Static dielectric constant tensor:
#      x y z
#    x 3.524110 0.000000 0.000000 
#    y 0.000000 3.817140 0.000000 
#    z 0.000000 0.000000 4.108720 
# 
# 
# High freq. dielectric constant tensor:
#      x y z
#    x 1.768340 0.000000 0.000000 
#    y 0.000000 1.776970 0.000000 
#    z 0.000000 0.000000 1.791650 
# 
# From -- ./inp_files/12468.got.cif
#   From: 2010.03.12/outbox.cif.g09.slc.cpg/sg40_7_cif.got.tgz:12468.got - 2010.04.14 01:38:03.
