data_PCOD8183963
_publ_section_title
;
Structure prediction by ZEFSAII (Michael W. Deem and Ramdas Pophale) SiO2 
 PCOD8183963
Probable space group: A M A 2
;
_chemical_formula_sum "Si O2"
_cell_formula_units_Z 64
_cell_length_a 15.755269
_cell_length_b 16.662195
_cell_length_c 10.531980
_cell_angle_alpha 90.000000
_cell_angle_beta 90.000000
_cell_angle_gamma 90.000000
_cell_volume 2764.827631
_symmetry_space_group_name_H-M "A M A 2"
_symmetry_group_IT_number 40
_symmetry_cell_setting 'orthorhombic'
loop_
_space_group_symop_operation_xyz
x,y,z
-x,-y,z
1/2-x,y,z
1/2+x,-y,z
x,1/2+y,1/2+z
-x,1/2-y,1/2+z
1/2-x,1/2+y,1/2+z
1/2+x,1/2-y,1/2+z
loop_
_atom_site_type_symbol
_atom_site_label
_atom_site_fract_x
_atom_site_fract_y
_atom_site_fract_z
Si Si1 0.346784 0.749227 0.705230
Si Si2 0.908058 0.409679 0.618420
Si Si3 0.410940 0.539676 0.124102
Si Si4 0.851928 0.801535 0.480914
Si Si5 0.345229 0.456845 0.777732
Si Si6 0.344285 0.886650 0.530722
Si Si7 0.152363 0.997255 0.879305
Si Si8 0.900944 0.632202 0.548474
O O1 0.250000 0.773334 0.731516
O O2 0.356205 0.672526 0.615776
O O3 0.387162 0.720479 0.839536
O O4 0.391672 0.823192 0.626526
O O5 0.897534 0.460467 0.750328
O O6 0.862186 0.460942 0.512384
O O7 0.005909 0.395121 0.590325
O O8 0.500000 0.500000 0.083570
O O9 0.339038 0.473160 0.097631
O O10 0.403621 0.547725 0.277079
O O11 0.394713 0.620012 0.043467
O O12 0.750000 0.810177 0.485090
O O13 0.886652 0.726807 0.560924
O O14 0.250000 0.482384 0.820265
O O15 0.337507 0.402846 0.653115
O O16 0.387457 0.403704 0.892499
O O17 0.250000 0.851690 0.508905
O O18 0.250000 0.998357 0.838520
O O19 0.122173 0.904224 0.907462
#
# Coordination Sequence:
#
# PCOD8183963 Si02
#       8
#     8   8   8   8   8   8   8   8
#     4  10  22  41  66  94 129 177 230 279 339 413
#     4  11  22  38  63  95 135 175 221 280 348 409
#     4  12  26  41  65  96 135 171 226 287 351 408
#     4  11  24  44  69  96 132 185 236 279 344 427
#     4  10  20  38  64  94 129 174 228 278 333 406
#     4  10  22  40  64  93 128 172 226 279 332 401
#     4  11  22  42  69  95 130 178 228 280 342 418
#     4  11  23  40  65  96 136 173 225 282 344 408
#
# _framework density 23.147917
#
# number of rings (size 3 to 8) (size 9 to 14) (size 15 to 20)
#    0.000    1.250    0.000    7.875    1.750    6.000 
#    0.000    2.500    0.000    0.000    0.000    0.000 
#    0.000    0.000    0.000    0.000    0.000    0.000 
#
# Total GULP energy -396439.009274 kJ/mol
# GULP energy per Si atom -12388.719040 kJ/mol
# Density = 2.309523 g / cm^3
# Si number density = 23.147917 Si / 1000 Ang^3
#
#
#
# Elastic Constant Matrix: (Units=GPa)
#
#
# Indices 1 2 3 4 5 6 
#
# 1 91.8076 32.4013 29.1489 0.0000 0.0000 0.0000
# 2 32.4013 187.8299 71.3641 0.0000 0.0000 0.0000
# 3 29.1489 71.3641 134.6802 0.0000 0.0000 0.0000
# 4 0.0000 0.0000 0.0000 38.3774 0.0000 0.0000
# 5 0.0000 0.0000 0.0000 0.0000 25.1038 0.0000
# 6 0.0000 0.0000 0.0000 0.0000 0.0000 31.1744
#
#
#
# Elastic Compliance Matrix: (Units=1/GPa)
#
#
# Indices 1 2 3 4 5 6 
#
# 1 0.011964 -0.001352 -0.001873 0.000000 0.000000 0.000000
# 2 -0.001352 0.006819 -0.003320 0.000000 0.000000 0.000000
# 3 -0.001873 -0.003320 0.009590 0.000000 0.000000 0.000000
# 4 0.000000 0.000000 0.000000 0.026057 0.000000 0.000000
# 5 0.000000 0.000000 0.000000 0.000000 0.039835 0.000000
# 6 0.000000 0.000000 0.000000 0.000000 0.000000 0.032078
#
#
# Mechanical properties :
#
#
# Convention : Reuss Voigt Hill
#
# Bulk Modulus (GPa) = 65.43827 75.57181 70.50504
# Shear Modulus (GPa) = 34.59555 37.69133 36.14344
#
# Velocity S-wave (km/s) = 3.87013 4.03957 3.95576
# Velocity P-wave (km/s) = 6.94993 7.38077 7.16859
#
# Compressibility (1/GPa) = 0.01528158
#
# Stress axis : x y z
#
# Youngs Moduli (GPa) = 83.58242 146.65289 104.27758
#
# Poissons Ratio (x) = 0.19832 0.19530
# Poissons Ratio (y) = 0.11303 0.34625
# Poissons Ratio (z) = 0.15654 0.48696
#
# Static dielectric constant tensor:
#      x y z
#    x 3.870890 0.000000 0.000000 
#    y 0.000000 4.479850 0.000000 
#    z 0.000000 0.000000 4.533920 
# 
# 
# High freq. dielectric constant tensor:
#      x y z
#    x 1.895560 0.000000 0.000000 
#    y 0.000000 1.918830 0.000000 
#    z 0.000000 0.000000 1.924960 
# 
# From -- ./inp_files/13115.got.cif
#   From: 2010.03.12/outbox.cif.g09.slc.cpg/sg40_7_cif.got.tgz:13115.got - 2010.04.14 01:38:03.
