data_PCOD8183166
_publ_section_title
;
Structure prediction by ZEFSAII (Michael W. Deem and Ramdas Pophale) SiO2 
 PCOD8183166
Probable space group: A M A 2
;
_chemical_formula_sum "Si O2"
_cell_formula_units_Z 64
_cell_length_a 8.857292
_cell_length_b 20.601284
_cell_length_c 19.429691
_cell_angle_alpha 90.000000
_cell_angle_beta 90.000000
_cell_angle_gamma 90.000000
_cell_volume 3545.366570
_symmetry_space_group_name_H-M "A M A 2"
_symmetry_group_IT_number 40
_symmetry_cell_setting 'orthorhombic'
loop_
_space_group_symop_operation_xyz
x,y,z
-x,-y,z
1/2-x,y,z
1/2+x,-y,z
x,1/2+y,1/2+z
-x,1/2-y,1/2+z
1/2-x,1/2+y,1/2+z
1/2+x,1/2-y,1/2+z
loop_
_atom_site_type_symbol
_atom_site_label
_atom_site_fract_x
_atom_site_fract_y
_atom_site_fract_z
Si Si1 0.924088 0.878355 0.202310
Si Si2 0.572353 0.932474 0.056048
Si Si3 0.074213 0.381016 0.841153
Si Si4 0.427873 0.065947 0.473814
Si Si5 0.427278 0.230322 0.840779
Si Si6 0.428747 0.814101 0.976748
Si Si7 0.073679 0.771241 0.699286
Si Si8 0.571964 0.811087 0.562917
O O1 0.750000 0.885132 0.223649
O O2 0.965491 0.920779 0.136074
O O3 0.963115 0.803950 0.184507
O O4 0.025279 0.904204 0.265161
O O5 0.750000 0.933085 0.042677
O O6 0.499176 0.877125 0.010419
O O7 0.500000 0.000000 0.032840
O O8 0.250000 0.394173 0.851178
O O9 0.031325 0.305768 0.850329
O O10 0.983940 0.422645 0.896419
O O11 0.250000 0.058789 0.472626
O O12 0.479680 0.124810 0.522403
O O13 0.500000 0.000000 0.503316
O O14 0.250000 0.217913 0.844996
O O15 0.488354 0.205064 0.767720
O O16 0.510722 0.189827 0.899366
O O17 0.250000 0.820179 0.975691
O O18 0.481849 0.750826 0.018884
O O19 0.250000 0.784135 0.708725
O O20 0.012245 0.812823 0.635664
O O21 0.750000 0.809212 0.575736
#
# Coordination Sequence:
#
# PCOD8183166 Si02
#       8
#     8   8   8   8   8   8   8   8
#     4   9  19  34  52  76 111 150 187 228 272 325
#     4  11  23  39  56  81 113 151 191 233 282 335
#     4  10  20  33  53  80 111 149 189 228 273 328
#     4  11  23  39  56  79 112 150 189 232 279 332
#     4  10  20  34  55  84 116 147 184 230 279 333
#     4  11  21  36  59  85 112 147 188 234 283 334
#     4  10  19  33  56  84 113 145 184 230 279 331
#     4  10  21  36  57  83 112 145 184 231 282 332
#
# _framework density 18.051729999999999
#
# number of rings (size 3 to 8) (size 9 to 14) (size 15 to 20)
#    0.000    1.750    2.500    2.250    0.000    4.500 
#    0.000    1.250    0.000    0.750    0.000    3.500 
#    0.000    0.000    0.000    0.000    0.000    0.000 
#
# Total GULP energy -396977.804502 kJ/mol
# GULP energy per Si atom -12405.556391 kJ/mol
# Density = 1.801064 g / cm^3
# Si number density = 18.051730 Si / 1000 Ang^3
#
#
#
# Elastic Constant Matrix: (Units=GPa)
#
#
# Indices 1 2 3 4 5 6 
#
# 1 78.1423 49.9539 53.3442 0.0000 0.0000 0.0000
# 2 49.9539 116.2348 62.8269 0.0000 0.0000 0.0000
# 3 53.3442 62.8269 117.9336 0.0000 0.0000 0.0000
# 4 0.0000 0.0000 0.0000 24.2364 0.0000 0.0000
# 5 0.0000 0.0000 0.0000 0.0000 36.5150 0.0000
# 6 0.0000 0.0000 0.0000 0.0000 0.0000 27.7850
#
#
#
# Elastic Compliance Matrix: (Units=1/GPa)
#
#
# Indices 1 2 3 4 5 6 
#
# 1 0.020657 -0.005375 -0.006480 0.000000 0.000000 0.000000
# 2 -0.005375 0.013481 -0.004751 0.000000 0.000000 0.000000
# 3 -0.006480 -0.004751 0.013941 0.000000 0.000000 0.000000
# 4 0.000000 0.000000 0.000000 0.041260 0.000000 0.000000
# 5 0.000000 0.000000 0.000000 0.000000 0.027386 0.000000
# 6 0.000000 0.000000 0.000000 0.000000 0.000000 0.035991
#
#
# Mechanical properties :
#
#
# Convention : Reuss Voigt Hill
#
# Bulk Modulus (GPa) = 67.25959 71.61785 69.43872
# Shear Modulus (GPa) = 26.19399 27.45300 26.82349
#
# Velocity S-wave (km/s) = 3.81340 3.90397 3.85895
# Velocity P-wave (km/s) = 7.53191 7.75120 7.64234
#
# Compressibility (1/GPa) = 0.01486777
#
# Stress axis : x y z
#
# Youngs Moduli (GPa) = 48.40978 74.17835 71.72965
#
# Poissons Ratio (x) = 0.39871 0.46482
# Poissons Ratio (y) = 0.26020 0.34075
# Poissons Ratio (z) = 0.31370 0.35238
#
# Static dielectric constant tensor:
#      x y z
#    x 3.352660 0.000000 0.000000 
#    y 0.000000 3.202040 0.000000 
#    z 0.000000 0.000000 3.351150 
# 
# 
# High freq. dielectric constant tensor:
#      x y z
#    x 1.710670 0.000000 0.000000 
#    y 0.000000 1.676570 0.000000 
#    z 0.000000 0.000000 1.701530 
# 
# From -- ./inp_files/19580.got.cif
#   From: 2010.03.12/outbox.cif.g09.slc.cpg/sg40_10_cif.got.tgz:19580.got - 2010.04.14 01:38:03.
