data_PCOD8183361
_publ_section_title
;
Structure prediction by ZEFSAII (Michael W. Deem and Ramdas Pophale) SiO2 
 PCOD8183361
Probable space group: A M A 2
;
_chemical_formula_sum "Si O2"
_cell_formula_units_Z 64
_cell_length_a 8.762647
_cell_length_b 28.806500
_cell_length_c 12.684668
_cell_angle_alpha 90.000000
_cell_angle_beta 90.000000
_cell_angle_gamma 90.000000
_cell_volume 3201.879002
_symmetry_space_group_name_H-M "A M A 2"
_symmetry_group_IT_number 40
_symmetry_cell_setting 'orthorhombic'
loop_
_space_group_symop_operation_xyz
x,y,z
-x,-y,z
1/2-x,y,z
1/2+x,-y,z
x,1/2+y,1/2+z
-x,1/2-y,1/2+z
1/2-x,1/2+y,1/2+z
1/2+x,1/2-y,1/2+z
loop_
_atom_site_type_symbol
_atom_site_label
_atom_site_fract_x
_atom_site_fract_y
_atom_site_fract_z
Si Si1 0.080196 0.177866 0.983340
Si Si2 0.570230 0.045696 0.132213
Si Si3 0.567933 0.597528 0.211269
Si Si4 0.420943 0.072210 0.923382
Si Si5 0.569359 0.796399 0.210627
Si Si6 0.428693 0.301678 0.276676
Si Si7 0.068499 0.051108 0.504094
Si Si8 0.929284 0.390541 0.800306
O O1 0.250000 0.199625 0.971865
O O2 0.089738 0.123771 0.965428
O O3 0.966353 0.200223 0.899791
O O4 0.008019 0.187419 0.097348
O O5 0.750000 0.043789 0.135077
O O6 0.513274 0.089287 0.198452
O O7 0.500000 0.000000 0.187865
O O8 0.514340 0.044608 0.011297
O O9 0.750000 0.594669 0.206375
O O10 0.509638 0.568810 0.312436
O O11 0.508928 0.651246 0.220634
O O12 0.496531 0.574416 0.108784
O O13 0.250000 0.051591 0.909836
O O14 0.750000 0.791750 0.207726
O O15 0.496458 0.745598 0.231223
O O16 0.527030 0.835421 0.299309
O O17 0.250000 0.301213 0.261177
O O18 0.250000 0.047193 0.512570
O O19 0.017271 0.084534 0.407752
O O20 0.000000 0.000000 0.486822
O O21 0.750000 0.397651 0.783017
#
# Coordination Sequence:
#
# PCOD8183361 Si02
#       8
#     8   8   8   8   8   8   8   8
#     4   9  17  32  55  77 108 149 188 233 288 346
#     4  12  24  37  57  86 118 149 187 235 293 354
#     4  10  21  38  59  86 122 158 198 248 299 355
#     4  10  19  36  60  84 111 148 191 238 292 351
#     4   9  17  34  58  83 114 157 198 238 296 355
#     4   9  19  34  55  84 118 156 196 242 295 349
#     4  11  24  41  63  87 116 159 207 255 308 367
#     4  10  21  40  62  85 116 156 202 247 296 357
#
# _framework density 19.988264000000001
#
# number of rings (size 3 to 8) (size 9 to 14) (size 15 to 20)
#    0.000    2.000    1.250    2.625    0.000    4.500 
#    0.000    3.750    0.000    0.000    0.000    0.000 
#    0.000    0.000    0.000    0.000    0.000    0.000 
#
# Total GULP energy -396650.059565 kJ/mol
# GULP energy per Si atom -12395.314361 kJ/mol
# Density = 1.994277 g / cm^3
# Si number density = 19.988264 Si / 1000 Ang^3
#
#
#
# Elastic Constant Matrix: (Units=GPa)
#
#
# Indices 1 2 3 4 5 6 
#
# 1 63.7073 24.9054 25.5831 0.0000 0.0000 0.0000
# 2 24.9054 87.2948 39.6714 0.0000 0.0000 0.0000
# 3 25.5831 39.6714 112.9417 0.0000 0.0000 0.0000
# 4 0.0000 0.0000 0.0000 26.4987 0.0000 0.0000
# 5 0.0000 0.0000 0.0000 0.0000 29.3937 0.0000
# 6 0.0000 0.0000 0.0000 0.0000 0.0000 16.9621
#
#
#
# Elastic Compliance Matrix: (Units=1/GPa)
#
#
# Indices 1 2 3 4 5 6 
#
# 1 0.018363 -0.003985 -0.002760 0.000000 0.000000 0.000000
# 2 -0.003985 0.014496 -0.004189 0.000000 0.000000 0.000000
# 3 -0.002760 -0.004189 0.010951 0.000000 0.000000 0.000000
# 4 0.000000 0.000000 0.000000 0.037738 0.000000 0.000000
# 5 0.000000 0.000000 0.000000 0.000000 0.034021 0.000000
# 6 0.000000 0.000000 0.000000 0.000000 0.000000 0.058955
#
#
# Mechanical properties :
#
#
# Convention : Reuss Voigt Hill
#
# Bulk Modulus (GPa) = 45.57446 49.36263 47.46855
# Shear Modulus (GPa) = 24.54532 26.15650 25.35091
#
# Velocity S-wave (km/s) = 3.50807 3.62137 3.56517
# Velocity P-wave (km/s) = 6.26568 6.49886 6.38334
#
# Compressibility (1/GPa) = 0.02194211
#
# Stress axis : x y z
#
# Youngs Moduli (GPa) = 54.45785 68.98405 91.31791
#
# Poissons Ratio (x) = 0.27488 0.25202
# Poissons Ratio (y) = 0.21700 0.38255
# Poissons Ratio (z) = 0.15029 0.28899
#
# Static dielectric constant tensor:
#      x y z
#    x 3.534650 0.000000 0.000000 
#    y 0.000000 3.919440 0.000000 
#    z 0.000000 0.000000 3.725890 
# 
# 
# High freq. dielectric constant tensor:
#      x y z
#    x 1.765290 0.000000 0.000000 
#    y 0.000000 1.787290 0.000000 
#    z 0.000000 0.000000 1.779020 
# 
# From -- ./inp_files/10589.got.cif
#   From: 2010.03.12/outbox.cif.g09.slc.cpg/sg40_6_cif.got.tgz:10589.got - 2010.04.14 01:38:03.
