data_PCOD8183064
_publ_section_title
;
Structure prediction by ZEFSAII (Michael W. Deem and Ramdas Pophale) SiO2 
 PCOD8183064
Probable space group: A M A 2
;
_chemical_formula_sum "Si O2"
_cell_formula_units_Z 64
_cell_length_a 17.811524
_cell_length_b 19.882790
_cell_length_c 9.588923
_cell_angle_alpha 90.000000
_cell_angle_beta 90.000000
_cell_angle_gamma 90.000000
_cell_volume 3395.847957
_symmetry_space_group_name_H-M "A M A 2"
_symmetry_group_IT_number 40
_symmetry_cell_setting 'orthorhombic'
loop_
_space_group_symop_operation_xyz
x,y,z
-x,-y,z
1/2-x,y,z
1/2+x,-y,z
x,1/2+y,1/2+z
-x,1/2-y,1/2+z
1/2-x,1/2+y,1/2+z
1/2+x,1/2-y,1/2+z
loop_
_atom_site_type_symbol
_atom_site_label
_atom_site_fract_x
_atom_site_fract_y
_atom_site_fract_z
Si Si1 0.922089 0.654567 0.741990
Si Si2 0.834695 0.416173 0.661005
Si Si3 0.937003 0.590364 0.465634
Si Si4 0.340074 0.288788 0.499908
Si Si5 0.663983 0.036693 0.356244
Si Si6 0.574503 0.956410 0.579295
Si Si7 0.594767 0.440922 0.384233
Si Si8 0.928692 0.835051 0.376999
O O1 0.956710 0.602032 0.628884
O O2 0.867765 0.707962 0.662232
O O3 0.874144 0.609512 0.847552
O O4 0.989829 0.691782 0.824135
O O5 0.750000 0.393959 0.692518
O O6 0.847673 0.492809 0.715094
O O7 0.848766 0.406749 0.494736
O O8 0.888401 0.366998 0.744741
O O9 0.874013 0.645628 0.419125
O O10 0.906525 0.516779 0.439014
O O11 0.015142 0.598025 0.383775
O O12 0.250000 0.287780 0.490426
O O13 0.375356 0.223268 0.431715
O O14 0.750000 0.050449 0.385984
O O15 0.631832 0.998640 0.488736
O O16 0.619243 0.939080 0.722609
O O17 0.554218 0.888131 0.499196
O O18 0.500000 0.000000 0.612143
#
# Coordination Sequence:
#
# PCOD8183064 Si02
#       8
#     8   8   8   8   8   8   8   8
#     4  10  19  35  62  86 109 158 204 249 297 362
#     4  10  19  32  56  83 115 157 198 243 296 354
#     4   9  20  33  59  86 112 148 199 247 294 354
#     4  10  22  40  59  88 123 157 205 259 308 357
#     4  10  20  34  55  86 118 150 201 252 301 358
#     4  11  22  34  59  88 123 159 189 251 311 361
#     4  11  19  36  58  90 122 151 197 248 305 365
#     4  11  22  37  59  88 118 160 211 251 296 371
#
# _framework density 18.846544999999999
#
# number of rings (size 3 to 8) (size 9 to 14) (size 15 to 20)
#    0.750    1.000    5.000    0.750    0.000    2.500 
#    0.000    0.000    0.000    0.000    0.000    5.250 
#    0.000    0.000    0.000    0.000    0.000    0.000 
#
# Total GULP energy -396490.602723 kJ/mol
# GULP energy per Si atom -12390.331335 kJ/mol
# Density = 1.880365 g / cm^3
# Si number density = 18.846545 Si / 1000 Ang^3
#
#
#
# Elastic Constant Matrix: (Units=GPa)
#
#
# Indices 1 2 3 4 5 6 
#
# 1 129.4417 50.2036 38.3723 0.0000 0.0000 0.0000
# 2 50.2036 63.2602 18.2210 0.0000 0.0000 0.0000
# 3 38.3723 18.2210 116.5635 0.0000 0.0000 0.0000
# 4 0.0000 0.0000 0.0000 16.6363 0.0000 0.0000
# 5 0.0000 0.0000 0.0000 0.0000 16.4526 0.0000
# 6 0.0000 0.0000 0.0000 0.0000 0.0000 27.8230
#
#
#
# Elastic Compliance Matrix: (Units=1/GPa)
#
#
# Indices 1 2 3 4 5 6 
#
# 1 0.011839 -0.008663 -0.002543 0.000000 0.000000 0.000000
# 2 -0.008663 0.022892 -0.000727 0.000000 0.000000 0.000000
# 3 -0.002543 -0.000727 0.009530 0.000000 0.000000 0.000000
# 4 0.000000 0.000000 0.000000 0.060110 0.000000 0.000000
# 5 0.000000 0.000000 0.000000 0.000000 0.060781 0.000000
# 6 0.000000 0.000000 0.000000 0.000000 0.000000 0.035942
#
#
# Mechanical properties :
#
#
# Convention : Reuss Voigt Hill
#
# Bulk Modulus (GPa) = 49.03100 58.09550 53.56325
# Shear Modulus (GPa) = 21.57421 25.68025 23.62723
#
# Velocity S-wave (km/s) = 3.38706 3.69534 3.54455
# Velocity P-wave (km/s) = 6.43184 7.00713 6.72564
#
# Compressibility (1/GPa) = 0.02039526
#
# Stress axis : x y z
#
# Youngs Moduli (GPa) = 84.46325 43.68291 104.93372
#
# Poissons Ratio (x) = 0.37844 0.26688
# Poissons Ratio (y) = 0.73173 0.07624
# Poissons Ratio (z) = 0.21481 0.03174
#
# Static dielectric constant tensor:
#      x y z
#    x 3.385320 0.000000 0.000000 
#    y 0.000000 3.179900 0.000000 
#    z 0.000000 0.000000 3.440120 
# 
# 
# High freq. dielectric constant tensor:
#      x y z
#    x 1.732470 0.000000 0.000000 
#    y 0.000000 1.705500 0.000000 
#    z 0.000000 0.000000 1.725230 
# 
# From -- ./inp_files/7807.got.cif
#   From: 2010.03.12/outbox.cif.g09.slc.cpg/sg40_4_cif.got.tgz:7807.got - 2010.04.14 01:38:03.
