data_PCOD8183683
_publ_section_title
;
Structure prediction by ZEFSAII (Michael W. Deem and Ramdas Pophale) SiO2 
 PCOD8183683
Probable space group: A M A 2
;
_chemical_formula_sum "Si O2"
_cell_formula_units_Z 64
_cell_length_a 8.881910
_cell_length_b 14.808417
_cell_length_c 24.393043
_cell_angle_alpha 90.000000
_cell_angle_beta 90.000000
_cell_angle_gamma 90.000000
_cell_volume 3208.344426
_symmetry_space_group_name_H-M "A M A 2"
_symmetry_group_IT_number 40
_symmetry_cell_setting 'orthorhombic'
loop_
_space_group_symop_operation_xyz
x,y,z
-x,-y,z
1/2-x,y,z
1/2+x,-y,z
x,1/2+y,1/2+z
-x,1/2-y,1/2+z
1/2-x,1/2+y,1/2+z
1/2+x,1/2-y,1/2+z
loop_
_atom_site_type_symbol
_atom_site_label
_atom_site_fract_x
_atom_site_fract_y
_atom_site_fract_z
Si Si1 0.927080 0.096296 0.153630
Si Si2 0.425149 0.404896 0.535039
Si Si3 0.928274 0.740527 0.329375
Si Si4 0.071858 0.098422 0.617159
Si Si5 0.426088 0.402799 0.010176
Si Si6 0.572746 0.097600 0.917353
Si Si7 0.572767 0.770664 0.715873
Si Si8 0.426369 0.902358 0.388492
O O1 0.750000 0.081568 0.155807
O O2 0.975733 0.137448 0.093465
O O3 0.977585 0.170209 0.197680
O O4 0.000000 0.000000 0.167145
O O5 0.500000 0.500000 0.530307
O O6 0.250000 0.421641 0.537143
O O7 0.467395 0.356400 0.477269
O O8 0.750000 0.751297 0.331641
O O9 0.989006 0.665983 0.371909
O O10 0.980185 0.706109 0.270079
O O11 0.002558 0.836297 0.343689
O O12 0.250000 0.090514 0.611042
O O13 0.026477 0.158299 0.669221
O O14 0.006985 0.147525 0.561570
O O15 0.000000 0.000000 0.625516
O O16 0.500000 0.500000 0.009350
O O17 0.250000 0.410095 0.022769
O O18 0.455690 0.360960 0.949781
O O19 0.750000 0.084224 0.910979
O O20 0.500000 0.000000 0.908570
O O21 0.750000 0.775287 0.727856
O O22 0.250000 0.912524 0.377101
O O23 0.500000 0.000000 0.381524
#
# Coordination Sequence:
#
# PCOD8183683 Si02
#       8
#     8   8   8   8   8   8   8   8
#     4   9  18  34  56  80 105 135 170 210 261 317
#     4   8  14  28  51  78 106 132 164 208 258 317
#     4  11  24  39  56  80 109 145 190 235 277 325
#     4  10  20  35  57  82 110 146 183 226 279 331
#     4   9  17  31  54  84 114 142 175 219 272 331
#     4   9  19  35  56  82 110 141 176 218 270 324
#     4  10  23  40  55  75 106 146 189 229 272 323
#     4  10  21  38  60  85 114 147 182 225 278 334
#
# _framework density 19.947983000000001
#
# number of rings (size 3 to 8) (size 9 to 14) (size 15 to 20)
#    0.000    2.500    0.000    2.250    0.000    6.000 
#    0.000    6.250    0.000    6.000    0.000    0.000 
#    0.000    0.000    0.000    0.000    0.000    0.000 
#
# Total GULP energy -396466.723528 kJ/mol
# GULP energy per Si atom -12389.585110 kJ/mol
# Density = 1.990258 g / cm^3
# Si number density = 19.947983 Si / 1000 Ang^3
#
#
#
# Elastic Constant Matrix: (Units=GPa)
#
#
# Indices 1 2 3 4 5 6 
#
# 1 59.0722 13.8542 23.8986 0.0000 0.0000 0.0000
# 2 13.8542 45.9463 10.4029 0.0000 0.0000 0.0000
# 3 23.8986 10.4029 92.0437 0.0000 0.0000 0.0000
# 4 0.0000 0.0000 0.0000 28.3235 0.0000 0.0000
# 5 0.0000 0.0000 0.0000 0.0000 27.5567 0.0000
# 6 0.0000 0.0000 0.0000 0.0000 0.0000 21.4948
#
#
#
# Elastic Compliance Matrix: (Units=1/GPa)
#
#
# Indices 1 2 3 4 5 6 
#
# 1 0.019965 -0.004974 -0.004622 0.000000 0.000000 0.000000
# 2 -0.004974 0.023575 -0.001373 0.000000 0.000000 0.000000
# 3 -0.004622 -0.001373 0.012220 0.000000 0.000000 0.000000
# 4 0.000000 0.000000 0.000000 0.035306 0.000000 0.000000
# 5 0.000000 0.000000 0.000000 0.000000 0.036289 0.000000
# 6 0.000000 0.000000 0.000000 0.000000 0.000000 0.046523
#
#
# Mechanical properties :
#
#
# Convention : Reuss Voigt Hill
#
# Bulk Modulus (GPa) = 29.56586 32.59705 31.08146
# Shear Modulus (GPa) = 24.14431 25.40210 24.77320
#
# Velocity S-wave (km/s) = 3.48280 3.57237 3.52787
# Velocity P-wave (km/s) = 5.57018 5.77860 5.67535
#
# Compressibility (1/GPa) = 0.03382279
#
# Stress axis : x y z
#
# Youngs Moduli (GPa) = 50.08860 42.41760 81.83595
#
# Poissons Ratio (x) = 0.21097 0.37821
# Poissons Ratio (y) = 0.24912 0.11237
# Poissons Ratio (z) = 0.23149 0.05825
#
# Static dielectric constant tensor:
#      x y z
#    x 3.555700 0.000000 0.000000 
#    y 0.000000 3.405150 0.000000 
#    z 0.000000 0.000000 4.381730 
# 
# 
# High freq. dielectric constant tensor:
#      x y z
#    x 1.776640 0.000000 0.000000 
#    y 0.000000 1.755520 0.000000 
#    z 0.000000 0.000000 1.795940 
# 
# From -- ./inp_files/24259.got.cif
#   From: 2010.03.12/outbox.cif.g09.slc.cpg/sg40_13_cif.got.tgz:24259.got - 2010.04.14 01:38:03.
