data_PCOD8183316
_publ_section_title
;
Structure prediction by ZEFSAII (Michael W. Deem and Ramdas Pophale) SiO2 
 PCOD8183316
Probable space group: A M A 2
;
_chemical_formula_sum "Si O2"
_cell_formula_units_Z 64
_cell_length_a 8.666074
_cell_length_b 28.695038
_cell_length_c 12.703335
_cell_angle_alpha 90.000000
_cell_angle_beta 90.000000
_cell_angle_gamma 90.000000
_cell_volume 3158.980524
_symmetry_space_group_name_H-M "A M A 2"
_symmetry_group_IT_number 40
_symmetry_cell_setting 'orthorhombic'
loop_
_space_group_symop_operation_xyz
x,y,z
-x,-y,z
1/2-x,y,z
1/2+x,-y,z
x,1/2+y,1/2+z
-x,1/2-y,1/2+z
1/2-x,1/2+y,1/2+z
1/2+x,1/2-y,1/2+z
loop_
_atom_site_type_symbol
_atom_site_label
_atom_site_fract_x
_atom_site_fract_y
_atom_site_fract_z
Si Si1 0.066538 0.296936 0.336220
Si Si2 0.566592 0.903041 0.329568
Si Si3 0.422097 0.928738 0.118358
Si Si4 0.429942 0.698339 0.770196
Si Si5 0.568298 0.609926 0.237463
Si Si6 0.578085 0.678010 0.562733
Si Si7 0.431645 0.047043 0.908935
Si Si8 0.432161 0.051368 0.548090
O O1 0.250000 0.294962 0.340273
O O2 0.994688 0.245679 0.316097
O O3 0.021445 0.335176 0.246635
O O4 0.002882 0.312757 0.449362
O O5 0.750000 0.903786 0.317840
O O6 0.495237 0.933380 0.234585
O O7 0.504166 0.849291 0.323355
O O8 0.510281 0.926105 0.438339
O O9 0.250000 0.950875 0.119113
O O10 0.412266 0.876145 0.082681
O O11 0.530042 0.954124 0.033367
O O12 0.250000 0.699470 0.790350
O O13 0.463998 0.700786 0.646634
O O14 0.750000 0.603076 0.221779
O O15 0.517460 0.588590 0.349106
O O16 0.481435 0.585963 0.140916
O O17 0.750000 0.699857 0.572791
O O18 0.250000 0.050300 0.890133
O O19 0.500000 0.000000 0.857760
O O20 0.250000 0.046770 0.549502
O O21 0.500000 0.000000 0.563849
#
# Coordination Sequence:
#
# PCOD8183316 Si02
#       8
#     8   8   8   8   8   8   8   8
#     4   9  18  34  57  82 114 154 194 237 298 356
#     4   9  20  38  59  84 119 157 200 247 298 354
#     4  10  19  35  59  85 113 148 191 237 291 350
#     4   9  18  34  56  84 114 153 196 243 295 350
#     4  11  22  40  61  84 116 155 198 246 297 359
#     4   9  17  33  54  77 110 150 187 233 289 345
#     4  12  24  38  58  85 116 149 187 235 292 352
#     4  11  24  42  62  87 118 160 206 254 307 364
#
# _framework density 20.259699999999999
#
# number of rings (size 3 to 8) (size 9 to 14) (size 15 to 20)
#    0.000    2.000    1.250    2.625    0.000    3.000 
#    0.000    4.375    0.000    0.000    0.000    0.000 
#    0.000    0.000    0.000    0.000    0.000    0.000 
#
# Total GULP energy -396667.888663 kJ/mol
# GULP energy per Si atom -12395.871521 kJ/mol
# Density = 2.021359 g / cm^3
# Si number density = 20.259700 Si / 1000 Ang^3
#
#
#
# Elastic Constant Matrix: (Units=GPa)
#
#
# Indices 1 2 3 4 5 6 
#
# 1 41.4501 14.0409 12.1554 0.0000 0.0000 0.0000
# 2 14.0409 76.6267 31.0190 0.0000 0.0000 0.0000
# 3 12.1554 31.0190 115.8731 0.0000 0.0000 0.0000
# 4 0.0000 0.0000 0.0000 25.2187 0.0000 0.0000
# 5 0.0000 0.0000 0.0000 0.0000 33.7828 0.0000
# 6 0.0000 0.0000 0.0000 0.0000 0.0000 16.8914
#
#
#
# Elastic Compliance Matrix: (Units=1/GPa)
#
#
# Indices 1 2 3 4 5 6 
#
# 1 0.025993 -0.004104 -0.001628 0.000000 0.000000 0.000000
# 2 -0.004104 0.015284 -0.003661 0.000000 0.000000 0.000000
# 3 -0.001628 -0.003661 0.009781 0.000000 0.000000 0.000000
# 4 0.000000 0.000000 0.000000 0.039653 0.000000 0.000000
# 5 0.000000 0.000000 0.000000 0.000000 0.029601 0.000000
# 6 0.000000 0.000000 0.000000 0.000000 0.000000 0.059202
#
#
# Mechanical properties :
#
#
# Convention : Reuss Voigt Hill
#
# Bulk Modulus (GPa) = 30.98643 38.70893 34.84768
# Shear Modulus (GPa) = 23.91687 26.96089 25.43888
#
# Velocity S-wave (km/s) = 3.43959 3.65192 3.54734
# Velocity P-wave (km/s) = 5.57693 6.07700 5.83233
#
# Compressibility (1/GPa) = 0.03227219
#
# Stress axis : x y z
#
# Youngs Moduli (GPa) = 38.47197 65.42677 102.23920
#
# Poissons Ratio (x) = 0.26850 0.16646
# Poissons Ratio (y) = 0.15788 0.37430
# Poissons Ratio (z) = 0.06264 0.23953
#
# Static dielectric constant tensor:
#      x y z
#    x 3.565830 0.000000 0.000000 
#    y 0.000000 4.086990 0.000000 
#    z 0.000000 0.000000 3.799900 
# 
# 
# High freq. dielectric constant tensor:
#      x y z
#    x 1.774780 0.000000 0.000000 
#    y 0.000000 1.796420 0.000000 
#    z 0.000000 0.000000 1.791530 
# 
# From -- ./inp_files/10572.got.cif
#   From: 2010.03.12/outbox.cif.g09.slc.cpg/sg40_6_cif.got.tgz:10572.got - 2010.04.14 01:38:03.
