data_PCOD8183410
_publ_section_title
;
Structure prediction by ZEFSAII (Michael W. Deem and Ramdas Pophale) SiO2 
 PCOD8183410
Probable space group: A M A 2
;
_chemical_formula_sum "Si O2"
_cell_formula_units_Z 48
_cell_length_a 16.289233
_cell_length_b 7.718196
_cell_length_c 18.075922
_cell_angle_alpha 90.000000
_cell_angle_beta 90.000000
_cell_angle_gamma 90.000000
_cell_volume 2272.568053
_symmetry_space_group_name_H-M "A M A 2"
_symmetry_group_IT_number 40
_symmetry_cell_setting 'orthorhombic'
loop_
_space_group_symop_operation_xyz
x,y,z
-x,-y,z
1/2-x,y,z
1/2+x,-y,z
x,1/2+y,1/2+z
-x,1/2-y,1/2+z
1/2-x,1/2+y,1/2+z
1/2+x,1/2-y,1/2+z
loop_
_atom_site_type_symbol
_atom_site_label
_atom_site_fract_x
_atom_site_fract_y
_atom_site_fract_z
Si Si1 0.655025 0.660495 0.382390
Si Si2 0.910456 0.969628 0.479447
Si Si3 0.094952 0.018979 0.133742
Si Si4 0.913646 0.354333 0.147774
Si Si5 0.156327 0.154440 0.984298
Si Si6 0.407879 0.825462 0.723877
O O1 0.750000 0.675172 0.358332
O O2 0.636095 0.470186 0.415185
O O3 0.595531 0.683660 0.312140
O O4 0.635692 0.810473 0.441065
O O5 0.859427 0.145218 0.465324
O O6 0.923322 0.925516 0.565128
O O7 0.000000 0.000000 0.443554
O O8 0.135370 0.828437 0.144565
O O9 0.100040 0.091820 0.051232
O O10 0.136677 0.154339 0.190813
O O11 0.000000 0.000000 0.152563
O O12 0.862893 0.498289 0.194785
O O13 0.000724 0.329948 0.189491
O O14 0.250000 0.129535 0.008793
#
# Coordination Sequence:
#
# PCOD8183410 Si02
#       6
#     8   8   8   8   8   8
#     4  11  27  45  62  96 143 181 215 270 343 405
#     4  12  22  41  72 101 127 170 229 285 328 391
#     4  10  19  37  67  94 128 165 221 274 318 388
#     4  10  19  38  64  96 125 162 222 276 323 383
#     4  11  24  41  66  99 134 179 221 268 336 404
#     4  10  21  39  60  93 133 167 211 275 330 384
#
# _framework density 21.121480999999999
#
# number of rings (size 3 to 8) (size 9 to 14) (size 15 to 20)
#    0.000    1.333    5.000    1.500    0.000    6.667 
#    0.000    0.833    0.000    0.000    0.000    0.000 
#    0.000    0.000    0.000    0.000    0.000    0.000 
#
# Total GULP energy -297423.137869 kJ/mol
# GULP energy per Si atom -12392.630745 kJ/mol
# Density = 2.107341 g / cm^3
# Si number density = 21.121481 Si / 1000 Ang^3
#
#
#
# Elastic Constant Matrix: (Units=GPa)
#
#
# Indices 1 2 3 4 5 6 
#
# 1 34.6618 26.7821 29.6028 0.0000 0.0000 0.0000
# 2 26.7821 197.8583 59.0980 0.0000 0.0000 0.0000
# 3 29.6028 59.0980 136.7163 0.0000 0.0000 0.0000
# 4 0.0000 0.0000 0.0000 32.9313 0.0000 0.0000
# 5 0.0000 0.0000 0.0000 0.0000 11.7327 0.0000
# 6 0.0000 0.0000 0.0000 0.0000 0.0000 15.4681
#
#
#
# Elastic Compliance Matrix: (Units=1/GPa)
#
#
# Indices 1 2 3 4 5 6 
#
# 1 0.036877 -0.002993 -0.006691 0.000000 0.000000 0.000000
# 2 -0.002993 0.006046 -0.001966 0.000000 0.000000 0.000000
# 3 -0.006691 -0.001966 0.009613 0.000000 0.000000 0.000000
# 4 0.000000 0.000000 0.000000 0.030366 0.000000 0.000000
# 5 0.000000 0.000000 0.000000 0.000000 0.085232 0.000000
# 6 0.000000 0.000000 0.000000 0.000000 0.000000 0.064649
#
#
# Mechanical properties :
#
#
# Convention : Reuss Voigt Hill
#
# Bulk Modulus (GPa) = 34.20318 66.68911 50.44615
# Shear Modulus (GPa) = 18.80908 28.94333 23.87621
#
# Velocity S-wave (km/s) = 2.98739 3.70581 3.36582
# Velocity P-wave (km/s) = 5.30359 7.06777 6.24825
#
# Compressibility (1/GPa) = 0.02923705
#
# Stress axis : x y z
#
# Youngs Moduli (GPa) = 27.11681 165.38870 104.02729
#
# Poissons Ratio (x) = 0.49504 0.69606
# Poissons Ratio (y) = 0.08117 0.20447
# Poissons Ratio (z) = 0.18144 0.32508
#
# Static dielectric constant tensor:
#      x y z
#    x 3.445700 0.000000 0.000000 
#    y 0.000000 5.587230 0.000000 
#    z 0.000000 0.000000 3.588280 
# 
# 
# High freq. dielectric constant tensor:
#      x y z
#    x 1.788460 0.000000 0.000000 
#    y 0.000000 1.867090 0.000000 
#    z 0.000000 0.000000 1.815350 
# 
# From -- ./inp_files/20565.got.cif
#   From: 2010.03.12/outbox.cif.g09.slc.cpg/sg40_11_cif.got.tgz:20565.got - 2010.04.14 01:38:03.
