data_PCOD8183689
_publ_section_title
;
Structure prediction by ZEFSAII (Michael W. Deem and Ramdas Pophale) SiO2 
 PCOD8183689
Probable space group: A M A 2
;
_chemical_formula_sum "Si O2"
_cell_formula_units_Z 64
_cell_length_a 9.196435
_cell_length_b 24.005534
_cell_length_c 13.832487
_cell_angle_alpha 90.000000
_cell_angle_beta 90.000000
_cell_angle_gamma 90.000000
_cell_volume 3053.733600
_symmetry_space_group_name_H-M "A M A 2"
_symmetry_group_IT_number 40
_symmetry_cell_setting 'orthorhombic'
loop_
_space_group_symop_operation_xyz
x,y,z
-x,-y,z
1/2-x,y,z
1/2+x,-y,z
x,1/2+y,1/2+z
-x,1/2-y,1/2+z
1/2-x,1/2+y,1/2+z
1/2+x,1/2-y,1/2+z
loop_
_atom_site_type_symbol
_atom_site_label
_atom_site_fract_x
_atom_site_fract_y
_atom_site_fract_z
Si Si1 0.913528 0.768762 0.703320
Si Si2 0.411654 0.237199 0.473001
Si Si3 0.915115 0.342389 0.472721
Si Si4 0.582849 0.884530 0.496483
Si Si5 0.083277 0.377180 0.189138
Si Si6 0.417831 0.442751 0.376942
Si Si7 0.415066 0.663165 0.702105
Si Si8 0.917548 0.944999 0.305903
O O1 0.750000 0.770865 0.744257
O O2 0.915555 0.763592 0.588577
O O3 0.996160 0.825071 0.734251
O O4 0.996195 0.715128 0.746700
O O5 0.250000 0.252735 0.436453
O O6 0.521551 0.283793 0.430566
O O7 0.456338 0.174192 0.442748
O O8 0.750000 0.349293 0.435876
O O9 0.923205 0.339411 0.587447
O O10 0.011228 0.394157 0.440055
O O11 0.750000 0.881278 0.532758
O O12 0.481602 0.897568 0.587547
O O13 0.559406 0.933617 0.419775
O O14 0.250000 0.359141 0.173179
O O15 0.069694 0.428184 0.263558
O O16 0.500000 0.500000 0.398418
O O17 0.250000 0.449072 0.408101
O O18 0.250000 0.670273 0.738932
O O19 0.481734 0.606129 0.743944
O O20 0.750000 0.953984 0.280366
O O21 0.000000 0.000000 0.273777
#
# Coordination Sequence:
#
# PCOD8183689 Si02
#       8
#     8   8   8   8   8   8   8   8
#     4   9  17  31  55  86 115 143 178 221 270 325
#     4   8  15  30  52  80 112 143 176 215 266 326
#     4  10  20  35  57  84 113 144 178 222 273 323
#     4   9  19  36  58  82 111 147 182 222 272 323
#     4  10  21  37  58  83 111 143 178 222 276 330
#     4  11  25  42  58  78 106 143 187 231 275 326
#     4   9  19  36  57  83 115 148 182 223 272 323
#     4  10  22  39  56  78 110 147 188 230 271 320
#
# _framework density 20.95795
#
# number of rings (size 3 to 8) (size 9 to 14) (size 15 to 20)
#    0.000    2.500    0.000    2.250    0.000    8.500 
#    0.000    6.250    0.000    0.000    0.000    0.000 
#    0.000    0.000    0.000    0.000    0.000    0.000 
#
# Total GULP energy -396847.682397 kJ/mol
# GULP energy per Si atom -12401.490075 kJ/mol
# Density = 2.091025 g / cm^3
# Si number density = 20.957950 Si / 1000 Ang^3
#
#
#
# Elastic Constant Matrix: (Units=GPa)
#
#
# Indices 1 2 3 4 5 6 
#
# 1 117.7736 39.3825 10.0491 0.0000 0.0000 0.0000
# 2 39.3825 101.6509 1.0901 0.0000 0.0000 0.0000
# 3 10.0491 1.0901 7.9931 0.0000 0.0000 0.0000
# 4 0.0000 0.0000 0.0000 29.1493 0.0000 0.0000
# 5 0.0000 0.0000 0.0000 0.0000 25.0993 0.0000
# 6 0.0000 0.0000 0.0000 0.0000 0.0000 36.8697
#
#
#
# Elastic Compliance Matrix: (Units=1/GPa)
#
#
# Indices 1 2 3 4 5 6 
#
# 1 0.011001 -0.004120 -0.013268 0.000000 0.000000 0.000000
# 2 -0.004120 0.011395 0.003625 0.000000 0.000000 0.000000
# 3 -0.013268 0.003625 0.141295 0.000000 0.000000 0.000000
# 4 0.000000 0.000000 0.000000 0.034306 0.000000 0.000000
# 5 0.000000 0.000000 0.000000 0.000000 0.039842 0.000000
# 6 0.000000 0.000000 0.000000 0.000000 0.000000 0.027123
#
#
# Mechanical properties :
#
#
# Convention : Reuss Voigt Hill
#
# Bulk Modulus (GPa) = 7.34402 36.49568 21.91985
# Shear Modulus (GPa) = 14.79837 30.01670 22.40754
#
# Velocity S-wave (km/s) = 2.66013 3.78859 3.27336
# Velocity P-wave (km/s) = 3.59817 6.04892 4.97676
#
# Compressibility (1/GPa) = 0.13616514
#
# Stress axis : x y z
#
# Youngs Moduli (GPa) = 90.90433 87.75947 7.07738
#
# Poissons Ratio (x) = 0.36154 0.09391
# Poissons Ratio (y) = 0.37449 -0.02566
# Poissons Ratio (z) = 1.20615 -0.31815
#
# Static dielectric constant tensor:
#      x y z
#    x 3.922810 0.000000 0.000000 
#    y 0.000000 3.823340 0.000000 
#    z 0.000000 0.000000 3.569130 
# 
# 
# High freq. dielectric constant tensor:
#      x y z
#    x 1.818840 0.000000 0.000000 
#    y 0.000000 1.818490 0.000000 
#    z 0.000000 0.000000 1.817880 
# 
# From -- ./inp_files/15697.got.cif
#   From: 2010.03.12/outbox.cif.g09.slc.cpg/sg40_8_cif.got.tgz:15697.got - 2010.04.14 01:38:03.
