data_PCOD8183958
_publ_section_title
;
Structure prediction by ZEFSAII (Michael W. Deem and Ramdas Pophale) SiO2 
 PCOD8183958
Probable space group: A M A 2
;
_chemical_formula_sum "Si O2"
_cell_formula_units_Z 40
_cell_length_a 20.500760
_cell_length_b 6.586143
_cell_length_c 14.610051
_cell_angle_alpha 90.000000
_cell_angle_beta 90.000000
_cell_angle_gamma 90.000000
_cell_volume 1972.662775
_symmetry_space_group_name_H-M "A M A 2"
_symmetry_group_IT_number 40
_symmetry_cell_setting 'orthorhombic'
loop_
_space_group_symop_operation_xyz
x,y,z
-x,-y,z
1/2-x,y,z
1/2+x,-y,z
x,1/2+y,1/2+z
-x,1/2-y,1/2+z
1/2-x,1/2+y,1/2+z
1/2+x,1/2-y,1/2+z
loop_
_atom_site_type_symbol
_atom_site_label
_atom_site_fract_x
_atom_site_fract_y
_atom_site_fract_z
Si Si1 0.562087 0.117664 0.024560
Si Si2 0.250000 0.958471 0.642406
Si Si3 0.750000 0.651016 0.935953
Si Si4 0.750000 0.921492 0.267915
Si Si5 0.607969 0.303608 0.379149
Si Si6 0.500000 0.000000 0.449682
Si Si7 0.146949 0.778240 0.189422
O O1 0.611438 0.107039 0.107791
O O2 0.500000 0.000000 0.061827
O O3 0.544273 0.351522 0.009721
O O4 0.588236 0.010721 0.931476
O O5 0.250000 0.851138 0.544835
O O6 0.250000 0.805662 0.728934
O O7 0.187018 0.097025 0.645247
O O8 0.750000 0.433584 0.880327
O O9 0.683329 0.763890 0.906913
O O10 0.813058 0.040105 0.234168
O O11 0.603756 0.328099 0.269043
O O12 0.554274 0.128095 0.395154
#
# Coordination Sequence:
#
# PCOD8183958 Si02
#       7
#     8   4   4   4   8   4   8
#     4  10  22  41  60  86 121 160 207 264 314 377
#     4  11  21  35  58  88 122 159 201 251 316 378
#     4  10  20  38  64  90 124 168 206 260 324 377
#     4   9  21  39  58  90 124 155 199 253 310 377
#     4  10  22  40  62  90 125 163 210 263 322 382
#     4  10  22  42  60  86 122 164 210 252 324 388
#     4  10  22  37  59  91 117 156 209 250 313 382
#
# _framework density 20.277161
#
# number of rings (size 3 to 8) (size 9 to 14) (size 15 to 20)
#    0.000    2.000    0.000    3.000    1.400    7.200 
#    5.400    3.000    0.000    0.000    0.000    0.000 
#    0.000    0.000    0.000    0.000    0.000    0.000 
#
# Total GULP energy -247774.462617 kJ/mol
# GULP energy per Si atom -12388.723131 kJ/mol
# Density = 2.023101 g / cm^3
# Si number density = 20.277161 Si / 1000 Ang^3
#
#
#
# Elastic Constant Matrix: (Units=GPa)
#
#
# Indices 1 2 3 4 5 6 
#
# 1 102.7855 31.9400 28.6359 0.0000 0.0000 0.0000
# 2 31.9400 88.7493 32.7247 0.0000 0.0000 0.0000
# 3 28.6359 32.7247 110.9282 0.0000 0.0000 0.0000
# 4 0.0000 0.0000 0.0000 16.2352 0.0000 0.0000
# 5 0.0000 0.0000 0.0000 0.0000 -176.0375 0.0000
# 6 0.0000 0.0000 0.0000 0.0000 0.0000 40.6452
#
#
#
# Elastic Compliance Matrix: (Units=1/GPa)
#
#
# Indices 1 2 3 4 5 6 
#
# 1 0.011310 -0.003359 -0.001929 0.000000 0.000000 0.000000
# 2 -0.003359 0.013641 -0.003157 0.000000 0.000000 0.000000
# 3 -0.001929 -0.003157 0.010444 0.000000 0.000000 0.000000
# 4 0.000000 0.000000 0.000000 0.061595 0.000000 0.000000
# 5 0.000000 0.000000 0.000000 0.000000 -0.005681 0.000000
# 6 0.000000 0.000000 0.000000 0.000000 0.000000 0.024603
#
#
# Mechanical properties :
#
#
# Convention : Reuss Voigt Hill
#
# Bulk Modulus (GPa) = 54.03892 54.34049 54.18970
# Shear Modulus (GPa) = 35.97892 -9.88726 13.04583
#
# Velocity S-wave (km/s) = 4.21688 -2.21058 2.53924
# Velocity P-wave (km/s) = 7.10052 4.51016 5.94807
#
# Compressibility (1/GPa) = 0.01850518
#
# Stress axis : x y z
#
# Youngs Moduli (GPa) = 88.41577 73.30986 95.74831
#
# Poissons Ratio (x) = 0.24627 0.18467
# Poissons Ratio (y) = 0.29701 0.30227
# Poissons Ratio (z) = 0.17053 0.23143
#
# Static dielectric constant tensor:
#      x y z
#    x 3.903370 0.000000 0.000000 
#    y 0.000000 3.616350 0.000000 
#    z 0.000000 0.000000 3.824000 
# 
# 
# High freq. dielectric constant tensor:
#      x y z
#    x 1.806540 0.000000 0.000000 
#    y 0.000000 1.783250 0.000000 
#    z 0.000000 0.000000 1.797230 
# 
# From -- ./inp_files/18390.got.cif
#   From: 2010.03.12/outbox.cif.g09.slc.cpg/sg40_10_cif.got.tgz:18390.got - 2010.04.14 01:38:03.
