data_PCOD8183950
_publ_section_title
;
Structure prediction by ZEFSAII (Michael W. Deem and Ramdas Pophale) SiO2 
 PCOD8183950
Probable space group: A M A 2
;
_chemical_formula_sum "Si O2"
_cell_formula_units_Z 64
_cell_length_a 18.242969
_cell_length_b 15.755971
_cell_length_c 11.767249
_cell_angle_alpha 90.000000
_cell_angle_beta 90.000000
_cell_angle_gamma 90.000000
_cell_volume 3382.327342
_symmetry_space_group_name_H-M "A M A 2"
_symmetry_group_IT_number 40
_symmetry_cell_setting 'orthorhombic'
loop_
_space_group_symop_operation_xyz
x,y,z
-x,-y,z
1/2-x,y,z
1/2+x,-y,z
x,1/2+y,1/2+z
-x,1/2-y,1/2+z
1/2-x,1/2+y,1/2+z
1/2+x,1/2-y,1/2+z
loop_
_atom_site_type_symbol
_atom_site_label
_atom_site_fract_x
_atom_site_fract_y
_atom_site_fract_z
Si Si1 0.904440 0.732595 0.254650
Si Si2 0.335580 0.092529 0.273865
Si Si3 0.437806 0.877181 0.537219
Si Si4 0.834963 0.149164 0.962205
Si Si5 0.059497 0.307619 0.796623
Si Si6 0.332182 0.709943 0.147702
Si Si7 0.423738 0.461870 0.626401
Si Si8 0.396749 0.563661 0.023242
O O1 0.848138 0.810060 0.238263
O O2 0.918761 0.689081 0.134605
O O3 0.868730 0.663869 0.338348
O O4 0.979689 0.766778 0.307961
O O5 0.250000 0.071923 0.275133
O O6 0.368850 0.073428 0.396136
O O7 0.374169 0.033288 0.182588
O O8 0.411584 0.835729 0.419451
O O9 0.523762 0.894598 0.532126
O O10 0.395291 0.965198 0.558003
O O11 0.750000 0.123660 0.952586
O O12 0.845784 0.234350 0.035208
O O13 0.879046 0.072416 0.019071
O O14 0.115040 0.237236 0.749493
O O15 0.056650 0.389214 0.716281
O O16 0.250000 0.721456 0.193164
O O17 0.345018 0.612473 0.112425
O O18 0.500000 0.500000 0.581102
#
# Coordination Sequence:
#
# PCOD8183950 Si02
#       8
#     8   8   8   8   8   8   8   8
#     4  12  23  39  64  90 126 169 205 254 312 377
#     4  12  23  39  66  95 124 162 207 259 315 369
#     4  11  23  39  63  95 125 159 209 266 307 363
#     4  10  22  40  62  91 127 163 206 257 310 375
#     4  11  21  38  62  94 128 159 210 265 310 364
#     4  10  20  38  63  91 123 164 208 253 310 373
#     4  11  21  39  64  97 124 159 210 264 312 359
#     4  11  20  39  63  93 124 157 211 259 307 367
#
# _framework density 18.921882
#
# number of rings (size 3 to 8) (size 9 to 14) (size 15 to 20)
#    0.000    1.000    6.250    1.125    1.750    0.500 
#    2.250    5.000    0.000    0.000    0.000    0.000 
#    0.000    0.000    0.000    0.000    0.000    0.000 
#
# Total GULP energy -396963.439681 kJ/mol
# GULP energy per Si atom -12405.107490 kJ/mol
# Density = 1.887882 g / cm^3
# Si number density = 18.921882 Si / 1000 Ang^3
#
#
#
# Elastic Constant Matrix: (Units=GPa)
#
#
# Indices 1 2 3 4 5 6 
#
# 1 93.3123 32.3447 42.0599 0.0000 0.0000 0.0000
# 2 32.3447 83.5606 41.4791 0.0000 0.0000 0.0000
# 3 42.0599 41.4791 80.9265 0.0000 0.0000 0.0000
# 4 0.0000 0.0000 0.0000 37.6174 0.0000 0.0000
# 5 0.0000 0.0000 0.0000 0.0000 53.6967 0.0000
# 6 0.0000 0.0000 0.0000 0.0000 0.0000 24.4166
#
#
#
# Elastic Compliance Matrix: (Units=1/GPa)
#
#
# Indices 1 2 3 4 5 6 
#
# 1 0.014371 -0.002488 -0.006194 0.000000 0.000000 0.000000
# 2 -0.002488 0.016482 -0.007155 0.000000 0.000000 0.000000
# 3 -0.006194 -0.007155 0.019243 0.000000 0.000000 0.000000
# 4 0.000000 0.000000 0.000000 0.026583 0.000000 0.000000
# 5 0.000000 0.000000 0.000000 0.000000 0.018623 0.000000
# 6 0.000000 0.000000 0.000000 0.000000 0.000000 0.040956
#
#
# Mechanical properties :
#
#
# Convention : Reuss Voigt Hill
#
# Bulk Modulus (GPa) = 54.28026 54.39630 54.33828
# Shear Modulus (GPa) = 28.72366 32.60720 30.66543
#
# Velocity S-wave (km/s) = 3.90040 4.15571 4.03008
# Velocity P-wave (km/s) = 7.00235 7.19978 7.10175
#
# Compressibility (1/GPa) = 0.01842290
#
# Stress axis : x y z
#
# Youngs Moduli (GPa) = 69.58487 60.67200 51.96674
#
# Poissons Ratio (x) = 0.15097 0.32186
# Poissons Ratio (y) = 0.17314 0.37181
# Poissons Ratio (z) = 0.43098 0.43409
#
# Static dielectric constant tensor:
#      x y z
#    x 3.322020 0.000000 0.000000 
#    y 0.000000 3.595360 0.000000 
#    z 0.000000 0.000000 3.319860 
# 
# 
# High freq. dielectric constant tensor:
#      x y z
#    x 1.742840 0.000000 0.000000 
#    y 0.000000 1.738560 0.000000 
#    z 0.000000 0.000000 1.721740 
# 
# From -- ./inp_files/13135.got.cif
#   From: 2010.03.12/outbox.cif.g09.slc.cpg/sg40_7_cif.got.tgz:13135.got - 2010.04.14 01:38:03.
