data_PCOD8183348
_publ_section_title
;
Structure prediction by ZEFSAII (Michael W. Deem and Ramdas Pophale) SiO2 
 PCOD8183348
Probable space group: A M A 2
;
_chemical_formula_sum "Si O2"
_cell_formula_units_Z 64
_cell_length_a 9.290252
_cell_length_b 30.587796
_cell_length_c 11.926669
_cell_angle_alpha 90.000000
_cell_angle_beta 90.000000
_cell_angle_gamma 90.000000
_cell_volume 3389.181648
_symmetry_space_group_name_H-M "A M A 2"
_symmetry_group_IT_number 40
_symmetry_cell_setting 'orthorhombic'
loop_
_space_group_symop_operation_xyz
x,y,z
-x,-y,z
1/2-x,y,z
1/2+x,-y,z
x,1/2+y,1/2+z
-x,1/2-y,1/2+z
1/2-x,1/2+y,1/2+z
1/2+x,1/2-y,1/2+z
loop_
_atom_site_type_symbol
_atom_site_label
_atom_site_fract_x
_atom_site_fract_y
_atom_site_fract_z
Si Si1 0.081169 0.543570 0.312480
Si Si2 0.914024 0.458205 0.790021
Si Si3 0.914106 0.421534 0.553126
Si Si4 0.079513 0.127384 0.669729
Si Si5 0.419565 0.833922 0.062036
Si Si6 0.082067 0.705237 0.760678
Si Si7 0.416063 0.804319 0.814802
Si Si8 0.920710 0.373043 0.915815
O O1 0.250000 0.534840 0.301870
O O2 0.035936 0.554639 0.439807
O O3 0.031075 0.583276 0.233076
O O4 0.000000 0.500000 0.272950
O O5 0.750000 0.464533 0.827787
O O6 0.926362 0.455218 0.655532
O O7 0.979949 0.415074 0.848587
O O8 0.000000 0.500000 0.833893
O O9 0.750000 0.404167 0.540690
O O10 0.018354 0.381868 0.582105
O O11 0.250000 0.133041 0.675417
O O12 0.021283 0.125504 0.542687
O O13 0.010949 0.169766 0.725953
O O14 0.250000 0.834242 0.082686
O O15 0.492534 0.800168 0.147100
O O16 0.461359 0.818890 0.938211
O O17 0.250000 0.697513 0.734297
O O18 0.051229 0.753155 0.807186
O O19 0.025676 0.670825 0.853791
O O20 0.250000 0.814869 0.790275
O O21 0.750000 0.373884 0.915750
#
# Coordination Sequence:
#
# PCOD8183348 Si02
#       8
#     8   8   8   8   8   8   8   8
#     4  10  21  35  55  84 113 148 192 235 284 340
#     4  10  20  35  56  81 111 146 187 231 282 337
#     4  10  19  36  58  82 113 152 190 226 283 345
#     4  10  21  38  61  84 111 151 197 234 277 342
#     4  11  22  36  59  90 118 144 186 238 285 329
#     4  10  21  40  61  81 114 155 189 226 283 345
#     4  10  23  39  58  87 118 149 186 234 289 333
#     4   9  19  37  60  81 108 150 192 230 275 336
#
# _framework density 18.883614999999999
#
# number of rings (size 3 to 8) (size 9 to 14) (size 15 to 20)
#    0.000    2.000    2.500    0.750    1.750    3.000 
#    0.000    1.250    0.000    0.000    0.000    0.000 
#    0.000    0.000    0.000    0.000    0.000    0.000 
#
# Total GULP energy -396907.855060 kJ/mol
# GULP energy per Si atom -12403.370471 kJ/mol
# Density = 1.884064 g / cm^3
# Si number density = 18.883615 Si / 1000 Ang^3
#
#
#
# Elastic Constant Matrix: (Units=GPa)
#
#
# Indices 1 2 3 4 5 6 
#
# 1 44.7633 36.5985 28.9030 0.0000 0.0000 0.0000
# 2 36.5985 127.7301 48.4430 0.0000 0.0000 0.0000
# 3 28.9030 48.4430 121.8387 0.0000 0.0000 0.0000
# 4 0.0000 0.0000 0.0000 19.4645 0.0000 0.0000
# 5 0.0000 0.0000 0.0000 0.0000 16.2406 0.0000
# 6 0.0000 0.0000 0.0000 0.0000 0.0000 32.9722
#
#
#
# Elastic Compliance Matrix: (Units=1/GPa)
#
#
# Indices 1 2 3 4 5 6 
#
# 1 0.031157 -0.007212 -0.004524 0.000000 0.000000 0.000000
# 2 -0.007212 0.010888 -0.002618 0.000000 0.000000 0.000000
# 3 -0.004524 -0.002618 0.010322 0.000000 0.000000 0.000000
# 4 0.000000 0.000000 0.000000 0.051376 0.000000 0.000000
# 5 0.000000 0.000000 0.000000 0.000000 0.061574 0.000000
# 6 0.000000 0.000000 0.000000 0.000000 0.000000 0.030329
#
#
# Mechanical properties :
#
#
# Convention : Reuss Voigt Hill
#
# Bulk Modulus (GPa) = 42.26664 58.02455 50.14559
# Shear Modulus (GPa) = 21.52946 25.76130 23.64538
#
# Velocity S-wave (km/s) = 3.38022 3.69753 3.54243
# Velocity P-wave (km/s) = 6.13725 7.00165 6.58365
#
# Compressibility (1/GPa) = 0.02365932
#
# Stress axis : x y z
#
# Youngs Moduli (GPa) = 32.09562 91.84039 96.88213
#
# Poissons Ratio (x) = 0.66232 0.43827
# Poissons Ratio (y) = 0.23146 0.25368
# Poissons Ratio (z) = 0.14519 0.24048
#
# Static dielectric constant tensor:
#      x y z
#    x 3.258920 0.000000 0.000000 
#    y 0.000000 3.435620 0.000000 
#    z 0.000000 0.000000 3.643960 
# 
# 
# High freq. dielectric constant tensor:
#      x y z
#    x 1.712750 0.000000 0.000000 
#    y 0.000000 1.740090 0.000000 
#    z 0.000000 0.000000 1.740870 
# 
# From -- ./inp_files/10584.got.cif
#   From: 2010.03.12/outbox.cif.g09.slc.cpg/sg40_6_cif.got.tgz:10584.got - 2010.04.14 01:38:03.
