data_PCOD8183223
_publ_section_title
;
Structure prediction by ZEFSAII (Michael W. Deem and Ramdas Pophale) SiO2 
 PCOD8183223
Probable space group: A M A 2
;
_chemical_formula_sum "Si O2"
_cell_formula_units_Z 64
_cell_length_a 8.774176
_cell_length_b 20.700413
_cell_length_c 19.626958
_cell_angle_alpha 90.000000
_cell_angle_beta 90.000000
_cell_angle_gamma 90.000000
_cell_volume 3564.826068
_symmetry_space_group_name_H-M "A M A 2"
_symmetry_group_IT_number 40
_symmetry_cell_setting 'orthorhombic'
loop_
_space_group_symop_operation_xyz
x,y,z
-x,-y,z
1/2-x,y,z
1/2+x,-y,z
x,1/2+y,1/2+z
-x,1/2-y,1/2+z
1/2-x,1/2+y,1/2+z
1/2+x,1/2-y,1/2+z
loop_
_atom_site_type_symbol
_atom_site_label
_atom_site_fract_x
_atom_site_fract_y
_atom_site_fract_z
Si Si1 0.570842 0.737470 0.042420
Si Si2 0.930474 0.729869 0.192129
Si Si3 0.930668 0.882657 0.038454
Si Si4 0.570103 0.066337 0.906523
Si Si5 0.570947 0.815939 0.824781
Si Si6 0.070132 0.623878 0.688957
Si Si7 0.570454 0.933763 0.326560
Si Si8 0.428904 0.815366 0.401124
O O1 0.750000 0.747194 0.044679
O O2 0.520863 0.707631 0.115450
O O3 0.507466 0.809507 0.029727
O O4 0.522282 0.691597 0.980334
O O5 0.750000 0.723188 0.204319
O O6 0.989897 0.803346 0.200276
O O7 0.018397 0.685379 0.246185
O O8 0.750000 0.888559 0.025184
O O9 0.976515 0.904894 0.115294
O O10 0.018936 0.926999 0.985096
O O11 0.750000 0.062637 0.901801
O O12 0.511784 0.125694 0.861971
O O13 0.500000 0.000000 0.877146
O O14 0.750000 0.827639 0.830173
O O15 0.523080 0.748987 0.860671
O O16 0.250000 0.628583 0.692685
O O17 0.006700 0.579319 0.749941
O O18 0.750000 0.940304 0.327241
O O19 0.523504 0.875718 0.375215
O O20 0.500000 0.000000 0.354275
O O21 0.250000 0.828871 0.392878
#
# Coordination Sequence:
#
# PCOD8183223 Si02
#       8
#     8   8   8   8   8   8   8   8
#     4   8  15  30  55  81 109 143 176 216 268 321
#     4   9  16  31  55  82 109 140 179 220 267 319
#     4   9  16  33  55  78 109 145 181 218 265 319
#     4  12  25  39  55  78 109 146 186 227 273 325
#     4  11  21  35  57  83 112 143 179 224 272 321
#     4   8  16  30  52  77 108 146 182 218 262 318
#     4  11  22  36  52  76 108 146 185 226 270 317
#     4  10  19  34  56  81 107 142 182 222 268 317
#
# _framework density 17.953191
#
# number of rings (size 3 to 8) (size 9 to 14) (size 15 to 20)
#    0.000    2.250    2.500    3.375    0.000    1.000 
#    0.000    5.625    0.000    0.750    0.000    3.500 
#    0.000    0.000    0.000    0.000    0.000    0.000 
#
# Total GULP energy -396696.423281 kJ/mol
# GULP energy per Si atom -12396.763228 kJ/mol
# Density = 1.791233 g / cm^3
# Si number density = 17.953191 Si / 1000 Ang^3
#
#
#
# Elastic Constant Matrix: (Units=GPa)
#
#
# Indices 1 2 3 4 5 6 
#
# 1 71.2053 44.6248 39.1700 0.0000 0.0000 0.0000
# 2 44.6248 105.2853 56.1320 0.0000 0.0000 0.0000
# 3 39.1700 56.1320 120.7896 0.0000 0.0000 0.0000
# 4 0.0000 0.0000 0.0000 17.1694 0.0000 0.0000
# 5 0.0000 0.0000 0.0000 0.0000 26.4624 0.0000
# 6 0.0000 0.0000 0.0000 0.0000 0.0000 24.4826
#
#
#
# Elastic Compliance Matrix: (Units=1/GPa)
#
#
# Indices 1 2 3 4 5 6 
#
# 1 0.020125 -0.006714 -0.003406 0.000000 0.000000 0.000000
# 2 -0.006714 0.014866 -0.004731 0.000000 0.000000 0.000000
# 3 -0.003406 -0.004731 0.011582 0.000000 0.000000 0.000000
# 4 0.000000 0.000000 0.000000 0.058243 0.000000 0.000000
# 5 0.000000 0.000000 0.000000 0.000000 0.037789 0.000000
# 6 0.000000 0.000000 0.000000 0.000000 0.000000 0.040845
#
#
# Mechanical properties :
#
#
# Convention : Reuss Voigt Hill
#
# Bulk Modulus (GPa) = 59.27454 64.12596 61.70025
# Shear Modulus (GPa) = 22.85421 24.11311 23.48366
#
# Velocity S-wave (km/s) = 3.57177 3.66882 3.62062
# Velocity P-wave (km/s) = 7.07798 7.33096 7.20558
#
# Compressibility (1/GPa) = 0.01687065
#
# Stress axis : x y z
#
# Youngs Moduli (GPa) = 49.68841 67.26703 86.34044
#
# Poissons Ratio (x) = 0.45164 0.29410
# Poissons Ratio (y) = 0.33361 0.40849
# Poissons Ratio (z) = 0.16925 0.31825
#
# Static dielectric constant tensor:
#      x y z
#    x 3.043210 0.000000 0.000000 
#    y 0.000000 3.146610 0.000000 
#    z 0.000000 0.000000 3.776450 
# 
# 
# High freq. dielectric constant tensor:
#      x y z
#    x 1.674170 0.000000 0.000000 
#    y 0.000000 1.671690 0.000000 
#    z 0.000000 0.000000 1.703370 
# 
# From -- ./inp_files/22541.got.cif
#   From: 2010.03.12/outbox.cif.g09.slc.cpg/sg40_12_cif.got.tgz:22541.got - 2010.04.14 01:38:03.
