data_PCOD8183626
_publ_section_title
;
Structure prediction by ZEFSAII (Michael W. Deem and Ramdas Pophale) SiO2 
 PCOD8183626
Probable space group: A M A 2
;
_chemical_formula_sum "Si O2"
_cell_formula_units_Z 56
_cell_length_a 16.833075
_cell_length_b 13.747609
_cell_length_c 10.983925
_cell_angle_alpha 90.000000
_cell_angle_beta 90.000000
_cell_angle_gamma 90.000000
_cell_volume 2541.839878
_symmetry_space_group_name_H-M "A M A 2"
_symmetry_group_IT_number 40
_symmetry_cell_setting 'orthorhombic'
loop_
_space_group_symop_operation_xyz
x,y,z
-x,-y,z
1/2-x,y,z
1/2+x,-y,z
x,1/2+y,1/2+z
-x,1/2-y,1/2+z
1/2-x,1/2+y,1/2+z
1/2+x,1/2-y,1/2+z
loop_
_atom_site_type_symbol
_atom_site_label
_atom_site_fract_x
_atom_site_fract_y
_atom_site_fract_z
Si Si1 0.338200 0.089531 0.776520
Si Si2 0.157828 0.156114 0.194527
Si Si3 0.580986 0.464636 0.044631
Si Si4 0.911244 0.256558 0.930579
Si Si5 0.457497 0.599071 0.482855
Si Si6 0.589825 0.529374 0.795215
Si Si7 0.336944 0.798349 0.171725
O O1 0.250000 0.062078 0.821638
O O2 0.352137 0.036395 0.647365
O O3 0.401185 0.056763 0.876644
O O4 0.347397 0.203200 0.752465
O O5 0.250000 0.179018 0.158639
O O6 0.127660 0.234157 0.296061
O O7 0.154154 0.047720 0.247722
O O8 0.097849 0.156362 0.079702
O O9 0.500000 0.500000 0.108551
O O10 0.561188 0.362580 0.976487
O O11 0.606727 0.541198 0.939720
O O12 0.982606 0.178736 0.927408
O O13 0.846670 0.219343 0.027945
O O14 0.500000 0.500000 0.534956
O O15 0.500000 0.500000 0.770847
O O16 0.597112 0.629291 0.722324
O O17 0.250000 0.843254 0.191708
#
# Coordination Sequence:
#
# PCOD8183626 Si02
#       7
#     8   8   8   8   8   8   8
#     4  10  23  41  61  88 131 175 219 275 337 398
#     4  11  23  41  65  96 135 172 221 282 337 397
#     4   9  20  37  64  93 126 167 217 273 332 393
#     4  10  23  39  67  95 132 167 221 278 336 402
#     4  12  26  43  68  94 131 180 228 272 339 409
#     4  10  20  34  63  97 132 168 221 276 329 401
#     4  10  20  37  62  93 130 171 216 269 338 399
#
# _framework density 22.031286000000001
#
# number of rings (size 3 to 8) (size 9 to 14) (size 15 to 20)
#    0.000    1.714    0.000    3.857   10.000    4.571 
#    0.000    2.143    0.000    0.000    0.000    0.000 
#    0.000    0.000    0.000    0.000    0.000    0.000 
#
# Total GULP energy -347058.871669 kJ/mol
# GULP energy per Si atom -12394.959702 kJ/mol
# Density = 2.198114 g / cm^3
# Si number density = 22.031286 Si / 1000 Ang^3
#
#
#
# Elastic Constant Matrix: (Units=GPa)
#
#
# Indices 1 2 3 4 5 6 
#
# 1 122.5547 37.8420 43.9015 0.0000 0.0000 0.0000
# 2 37.8420 59.8610 35.9863 0.0000 0.0000 0.0000
# 3 43.9015 35.9863 115.6751 0.0000 0.0000 0.0000
# 4 0.0000 0.0000 0.0000 30.9558 0.0000 0.0000
# 5 0.0000 0.0000 0.0000 0.0000 32.3101 0.0000
# 6 0.0000 0.0000 0.0000 0.0000 0.0000 32.6719
#
#
#
# Elastic Compliance Matrix: (Units=1/GPa)
#
#
# Indices 1 2 3 4 5 6 
#
# 1 0.010653 -0.005294 -0.002396 0.000000 0.000000 0.000000
# 2 -0.005294 0.023179 -0.005202 0.000000 0.000000 0.000000
# 3 -0.002396 -0.005202 0.011173 0.000000 0.000000 0.000000
# 4 0.000000 0.000000 0.000000 0.032304 0.000000 0.000000
# 5 0.000000 0.000000 0.000000 0.000000 0.030950 0.000000
# 6 0.000000 0.000000 0.000000 0.000000 0.000000 0.030607
#
#
# Mechanical properties :
#
#
# Convention : Reuss Voigt Hill
#
# Bulk Modulus (GPa) = 52.02676 59.28338 55.65507
# Shear Modulus (GPa) = 29.23023 31.21162 30.22093
#
# Velocity S-wave (km/s) = 3.64642 3.76798 3.70770
# Velocity P-wave (km/s) = 6.43388 6.77476 6.60652
#
# Compressibility (1/GPa) = 0.01922088
#
# Stress axis : x y z
#
# Youngs Moduli (GPa) = 93.87462 43.14241 89.50529
#
# Poissons Ratio (x) = 0.22839 0.21446
# Poissons Ratio (y) = 0.49695 0.46559
# Poissons Ratio (z) = 0.22492 0.22442
#
# Static dielectric constant tensor:
#      x y z
#    x 3.951640 0.000000 0.000000 
#    y 0.000000 3.862260 0.000000 
#    z 0.000000 0.000000 4.093270 
# 
# 
# High freq. dielectric constant tensor:
#      x y z
#    x 1.867780 0.000000 0.000000 
#    y 0.000000 1.846630 0.000000 
#    z 0.000000 0.000000 1.874810 
# 
# From -- ./inp_files/12241.got.cif
#   From: 2010.03.12/outbox.cif.g09.slc.cpg/sg40_7_cif.got.tgz:12241.got - 2010.04.14 01:38:03.
