data_PCOD8183108
_publ_section_title
;
Structure prediction by ZEFSAII (Michael W. Deem and Ramdas Pophale) SiO2 
 PCOD8183108
Probable space group: A M A 2
;
_chemical_formula_sum "Si O2"
_cell_formula_units_Z 64
_cell_length_a 8.867291
_cell_length_b 16.425997
_cell_length_c 22.492544
_cell_angle_alpha 90.000000
_cell_angle_beta 90.000000
_cell_angle_gamma 90.000000
_cell_volume 3276.131149
_symmetry_space_group_name_H-M "A M A 2"
_symmetry_group_IT_number 40
_symmetry_cell_setting 'orthorhombic'
loop_
_space_group_symop_operation_xyz
x,y,z
-x,-y,z
1/2-x,y,z
1/2+x,-y,z
x,1/2+y,1/2+z
-x,1/2-y,1/2+z
1/2-x,1/2+y,1/2+z
1/2+x,1/2-y,1/2+z
loop_
_atom_site_type_symbol
_atom_site_label
_atom_site_fract_x
_atom_site_fract_y
_atom_site_fract_z
Si Si1 0.072470 0.762160 0.190870
Si Si2 0.570386 0.919341 0.144251
Si Si3 0.417060 0.074713 0.481405
Si Si4 0.928480 0.414025 0.849648
Si Si5 0.925947 0.873828 0.014854
Si Si6 0.582218 0.772936 0.560023
Si Si7 0.429630 0.766577 0.809189
Si Si8 0.931305 0.414840 0.384461
O O1 0.250000 0.767339 0.204274
O O2 0.035580 0.717270 0.128738
O O3 0.999459 0.850960 0.186009
O O4 0.988338 0.712645 0.242945
O O5 0.750000 0.916797 0.148815
O O6 0.511169 0.914520 0.075603
O O7 0.500000 0.000000 0.172125
O O8 0.250000 0.047007 0.466508
O O9 0.485936 0.098913 0.417502
O O10 0.424511 0.139942 0.532140
O O11 0.500000 0.000000 0.511466
O O12 0.750000 0.421691 0.841274
O O13 0.981807 0.327739 0.820552
O O14 0.000000 0.500000 0.824767
O O15 0.750000 0.883148 0.013456
O O16 0.969476 0.779567 0.020071
O O17 0.988767 0.910752 0.953387
O O18 0.750000 0.734285 0.555908
O O19 0.250000 0.775469 0.814955
O O20 0.504761 0.834184 0.852152
O O21 0.750000 0.415637 0.378501
O O22 0.000000 0.500000 0.358638
#
# Coordination Sequence:
#
# PCOD8183108 Si02
#       8
#     8   8   8   8   8   8   8   8
#     4  10  21  37  55  76 103 140 183 228 274 324
#     4  10  19  33  53  80 112 144 177 217 267 328
#     4   9  17  31  50  76 105 132 164 207 258 317
#     4   9  19  34  55  82 112 143 177 217 267 325
#     4   9  19  33  53  82 113 141 174 218 272 332
#     4   9  18  33  54  77 105 140 177 217 268 326
#     4  11  23  40  59  80 109 149 192 236 282 331
#     4  11  23  39  59  85 114 147 187 234 285 339
#
# _framework density 19.535238
#
# number of rings (size 3 to 8) (size 9 to 14) (size 15 to 20)
#    0.000    2.250    0.000    2.625    0.000    5.000 
#    0.000    4.375    0.000    1.500    0.000    0.000 
#    0.000    0.000    0.000    0.000    0.000    0.000 
#
# Total GULP energy -396465.548170 kJ/mol
# GULP energy per Si atom -12389.548380 kJ/mol
# Density = 1.949078 g / cm^3
# Si number density = 19.535238 Si / 1000 Ang^3
#
#
#
# Elastic Constant Matrix: (Units=GPa)
#
#
# Indices 1 2 3 4 5 6 
#
# 1 48.2023 36.6802 28.5718 0.0000 0.0000 0.0000
# 2 36.6802 90.9381 36.4819 0.0000 0.0000 0.0000
# 3 28.5718 36.4819 83.5351 0.0000 0.0000 0.0000
# 4 0.0000 0.0000 0.0000 13.3297 0.0000 0.0000
# 5 0.0000 0.0000 0.0000 0.0000 30.0366 0.0000
# 6 0.0000 0.0000 0.0000 0.0000 0.0000 35.0868
#
#
#
# Elastic Compliance Matrix: (Units=1/GPa)
#
#
# Indices 1 2 3 4 5 6 
#
# 1 0.032658 -0.010538 -0.006568 0.000000 0.000000 0.000000
# 2 -0.010538 0.016733 -0.003703 0.000000 0.000000 0.000000
# 3 -0.006568 -0.003703 0.015835 0.000000 0.000000 0.000000
# 4 0.000000 0.000000 0.000000 0.075021 0.000000 0.000000
# 5 0.000000 0.000000 0.000000 0.000000 0.033293 0.000000
# 6 0.000000 0.000000 0.000000 0.000000 0.000000 0.028501
#
#
# Mechanical properties :
#
#
# Convention : Reuss Voigt Hill
#
# Bulk Modulus (GPa) = 42.35988 47.34924 44.85456
# Shear Modulus (GPa) = 19.87860 23.75337 21.81598
#
# Velocity S-wave (km/s) = 3.19341 3.49079 3.34541
# Velocity P-wave (km/s) = 5.94374 6.36695 6.15898
#
# Compressibility (1/GPa) = 0.02360724
#
# Stress axis : x y z
#
# Youngs Moduli (GPa) = 30.62040 59.76356 63.15207
#
# Poissons Ratio (x) = 0.62978 0.41478
# Poissons Ratio (y) = 0.32267 0.23387
# Poissons Ratio (z) = 0.20111 0.22132
#
# Static dielectric constant tensor:
#      x y z
#    x 2.942500 0.000000 0.000000 
#    y 0.000000 3.414060 0.000000 
#    z 0.000000 0.000000 3.690740 
# 
# 
# High freq. dielectric constant tensor:
#      x y z
#    x 1.759610 0.000000 0.000000 
#    y 0.000000 1.752950 0.000000 
#    z 0.000000 0.000000 1.761090 
# 
# From -- ./inp_files/24296.got.cif
#   From: 2010.03.12/outbox.cif.g09.slc.cpg/sg40_13_cif.got.tgz:24296.got - 2010.04.14 01:38:03.
