data_PCOD8183782
_publ_section_title
;
Structure prediction by ZEFSAII (Michael W. Deem and Ramdas Pophale) SiO2 
 PCOD8183782
Probable space group: A M A 2
;
_chemical_formula_sum "Si O2"
_cell_formula_units_Z 64
_cell_length_a 17.181011
_cell_length_b 16.575852
_cell_length_c 11.183279
_cell_angle_alpha 90.000000
_cell_angle_beta 90.000000
_cell_angle_gamma 90.000000
_cell_volume 3184.884858
_symmetry_space_group_name_H-M "A M A 2"
_symmetry_group_IT_number 40
_symmetry_cell_setting 'orthorhombic'
loop_
_space_group_symop_operation_xyz
x,y,z
-x,-y,z
1/2-x,y,z
1/2+x,-y,z
x,1/2+y,1/2+z
-x,1/2-y,1/2+z
1/2-x,1/2+y,1/2+z
1/2+x,1/2-y,1/2+z
loop_
_atom_site_type_symbol
_atom_site_label
_atom_site_fract_x
_atom_site_fract_y
_atom_site_fract_z
Si Si1 0.160369 0.520464 0.638320
Si Si2 0.563527 0.765908 0.573415
Si Si3 0.162846 0.418416 0.858160
Si Si4 0.427018 0.663055 0.504765
Si Si5 0.162358 0.239656 0.798906
Si Si6 0.525107 0.091165 0.535881
Si Si7 0.839185 0.626959 0.465355
Si Si8 0.467091 0.912169 0.801956
O O1 0.250000 0.548055 0.630153
O O2 0.137793 0.494492 0.774303
O O3 0.107380 0.592386 0.588174
O O4 0.145839 0.438817 0.566674
O O5 0.481908 0.716774 0.590706
O O6 0.601670 0.794036 0.700025
O O7 0.541775 0.845560 0.491896
O O8 0.626067 0.713518 0.501341
O O9 0.250000 0.434036 0.907692
O O10 0.162169 0.336115 0.781699
O O11 0.105941 0.403686 0.967749
O O12 0.360557 0.713630 0.434791
O O13 0.480401 0.631524 0.398456
O O14 0.250000 0.206658 0.774784
O O15 0.535498 0.125997 0.670307
O O16 0.500000 0.000000 0.525608
O O17 0.750000 0.641050 0.435824
O O18 0.878301 0.590685 0.346521
O O19 0.500000 0.000000 0.784612
#
# Coordination Sequence:
#
# PCOD8183782 Si02
#       8
#     8   8   8   8   8   8   8   8
#     4  10  20  37  62  98 130 163 211 266 325 393
#     4  11  22  37  60  91 124 164 216 268 325 391
#     4  10  22  42  63  87 127 173 217 263 328 399
#     4  11  21  36  62  96 129 161 216 275 326 381
#     4  11  21  38  63  92 126 171 215 267 333 399
#     4  11  24  42  61  84 121 172 219 267 321 394
#     4  10  20  36  61  91 127 161 201 267 332 384
#     4  10  20  36  58  87 124 157 206 258 316 379
#
# _framework density 20.094916999999999
#
# number of rings (size 3 to 8) (size 9 to 14) (size 15 to 20)
#    0.000    1.500    5.000    0.750    0.000    1.500 
#    0.000    1.250    0.000    1.500    0.000    0.000 
#    0.000    0.000    0.000    0.000    0.000    0.000 
#
# Total GULP energy -396538.710939 kJ/mol
# GULP energy per Si atom -12391.834717 kJ/mol
# Density = 2.004918 g / cm^3
# Si number density = 20.094917 Si / 1000 Ang^3
#
#
#
# Elastic Constant Matrix: (Units=GPa)
#
#
# Indices 1 2 3 4 5 6 
#
# 1 142.8328 60.3486 56.6036 0.0000 0.0000 0.0000
# 2 60.3486 108.8554 30.2279 0.0000 0.0000 0.0000
# 3 56.6036 30.2279 78.1972 0.0000 0.0000 0.0000
# 4 0.0000 0.0000 0.0000 34.3666 0.0000 0.0000
# 5 0.0000 0.0000 0.0000 0.0000 36.9248 0.0000
# 6 0.0000 0.0000 0.0000 0.0000 0.0000 21.4087
#
#
#
# Elastic Compliance Matrix: (Units=1/GPa)
#
#
# Indices 1 2 3 4 5 6 
#
# 1 0.011543 -0.004570 -0.006589 0.000000 0.000000 0.000000
# 2 -0.004570 0.012100 -0.001370 0.000000 0.000000 0.000000
# 3 -0.006589 -0.001370 0.018087 0.000000 0.000000 0.000000
# 4 0.000000 0.000000 0.000000 0.029098 0.000000 0.000000
# 5 0.000000 0.000000 0.000000 0.000000 0.027082 0.000000
# 6 0.000000 0.000000 0.000000 0.000000 0.000000 0.046710
#
#
# Mechanical properties :
#
#
# Convention : Reuss Voigt Hill
#
# Bulk Modulus (GPa) = 59.97489 69.36063 64.66776
# Shear Modulus (GPa) = 28.53300 30.72037 29.62668
#
# Velocity S-wave (km/s) = 3.77226 3.91418 3.84388
# Velocity P-wave (km/s) = 6.99170 7.41749 7.20774
#
# Compressibility (1/GPa) = 0.01667364
#
# Stress axis : x y z
#
# Youngs Moduli (GPa) = 86.63114 82.64292 55.28761
#
# Poissons Ratio (x) = 0.37766 0.36430
# Poissons Ratio (y) = 0.39588 0.07572
# Poissons Ratio (z) = 0.57083 0.11319
#
# Static dielectric constant tensor:
#      x y z
#    x 3.749940 0.000000 0.000000 
#    y 0.000000 3.467400 0.000000 
#    z 0.000000 0.000000 3.775720 
# 
# 
# High freq. dielectric constant tensor:
#      x y z
#    x 1.789720 0.000000 0.000000 
#    y 0.000000 1.785860 0.000000 
#    z 0.000000 0.000000 1.768980 
# 
# From -- ./inp_files/13170.got.cif
#   From: 2010.03.12/outbox.cif.g09.slc.cpg/sg40_7_cif.got.tgz:13170.got - 2010.04.14 01:38:03.
