data_PCOD8183279
_publ_section_title
;
Structure prediction by ZEFSAII (Michael W. Deem and Ramdas Pophale) SiO2 
 PCOD8183279
Probable space group: A M A 2
;
_chemical_formula_sum "Si O2"
_cell_formula_units_Z 64
_cell_length_a 8.965132
_cell_length_b 29.603100
_cell_length_c 12.755985
_cell_angle_alpha 90.000000
_cell_angle_beta 90.000000
_cell_angle_gamma 90.000000
_cell_volume 3385.383557
_symmetry_space_group_name_H-M "A M A 2"
_symmetry_group_IT_number 40
_symmetry_cell_setting 'orthorhombic'
loop_
_space_group_symop_operation_xyz
x,y,z
-x,-y,z
1/2-x,y,z
1/2+x,-y,z
x,1/2+y,1/2+z
-x,1/2-y,1/2+z
1/2-x,1/2+y,1/2+z
1/2+x,1/2-y,1/2+z
loop_
_atom_site_type_symbol
_atom_site_label
_atom_site_fract_x
_atom_site_fract_y
_atom_site_fract_z
Si Si1 0.913746 0.787877 0.051120
Si Si2 0.585587 0.207467 0.405754
Si Si3 0.925599 0.547682 0.638378
Si Si4 0.425050 0.952478 0.375715
Si Si5 0.926085 0.882931 0.982806
Si Si6 0.074432 0.260166 0.247437
Si Si7 0.925124 0.355810 0.254338
Si Si8 0.425711 0.377130 0.040994
O O1 0.750000 0.799893 0.095742
O O2 0.994091 0.756576 0.136880
O O3 0.899092 0.757928 0.948632
O O4 0.992996 0.834980 0.023322
O O5 0.750000 0.192191 0.362878
O O6 0.461641 0.215756 0.317668
O O7 0.530287 0.170992 0.490290
O O8 0.750000 0.543085 0.624122
O O9 0.965433 0.564135 0.757227
O O10 0.000000 0.500000 0.617524
O O11 0.987209 0.580005 0.548593
O O12 0.250000 0.959627 0.385753
O O13 0.481389 0.915885 0.460724
O O14 0.500000 0.000000 0.402439
O O15 0.750000 0.887214 0.003488
O O16 0.957659 0.886407 0.857713
O O17 0.250000 0.270392 0.246179
O O18 0.994157 0.306678 0.275552
O O19 0.750000 0.349884 0.236782
O O20 0.993880 0.381174 0.153229
O O21 0.250000 0.380345 0.061183
#
# Coordination Sequence:
#
# PCOD8183279 Si02
#       8
#     8   8   8   8   8   8   8   8
#     4   9  18  34  52  73 108 152 188 224 279 328
#     4  10  19  35  54  75 111 153 188 232 282 328
#     4  10  21  39  63  90 115 143 181 227 282 342
#     4   9  20  39  62  88 116 146 179 227 287 340
#     4  10  21  38  57  80 113 152 190 233 283 333
#     4  11  21  34  52  77 110 151 195 236 281 334
#     4  11  22  37  57  81 113 154 196 235 282 334
#     4  10  21  38  59  82 115 153 190 235 286 334
#
# _framework density 18.904800000000002
#
# number of rings (size 3 to 8) (size 9 to 14) (size 15 to 20)
#    0.000    2.000    2.500    1.125    1.750    2.500 
#    0.000    1.250    0.000    1.500    0.000    0.000 
#    0.000    0.000    0.000    0.000    0.000    0.000 
#
# Total GULP energy -396497.433599 kJ/mol
# GULP energy per Si atom -12390.544800 kJ/mol
# Density = 1.886177 g / cm^3
# Si number density = 18.904800 Si / 1000 Ang^3
#
#
#
# Elastic Constant Matrix: (Units=GPa)
#
#
# Indices 1 2 3 4 5 6 
#
# 1 67.1625 43.4763 54.0189 0.0000 0.0000 0.0000
# 2 43.4763 111.4455 70.1465 0.0000 0.0000 0.0000
# 3 54.0189 70.1465 128.2450 0.0000 0.0000 0.0000
# 4 0.0000 0.0000 0.0000 20.2170 0.0000 0.0000
# 5 0.0000 0.0000 0.0000 0.0000 30.6938 0.0000
# 6 0.0000 0.0000 0.0000 0.0000 0.0000 28.5378
#
#
#
# Elastic Compliance Matrix: (Units=1/GPa)
#
#
# Indices 1 2 3 4 5 6 
#
# 1 0.023950 -0.004565 -0.007591 0.000000 0.000000 0.000000
# 2 -0.004565 0.014554 -0.006038 0.000000 0.000000 0.000000
# 3 -0.007591 -0.006038 0.014298 0.000000 0.000000 0.000000
# 4 0.000000 0.000000 0.000000 0.049463 0.000000 0.000000
# 5 0.000000 0.000000 0.000000 0.000000 0.032580 0.000000
# 6 0.000000 0.000000 0.000000 0.000000 0.000000 0.035041
#
#
# Mechanical properties :
#
#
# Convention : Reuss Voigt Hill
#
# Bulk Modulus (GPa) = 60.92506 71.34848 66.13677
# Shear Modulus (GPa) = 23.61323 25.17048 24.39185
#
# Velocity S-wave (km/s) = 3.53804 3.65284 3.59590
# Velocity P-wave (km/s) = 6.99911 7.45747 7.23192
#
# Compressibility (1/GPa) = 0.01641361
#
# Stress axis : x y z
#
# Youngs Moduli (GPa) = 41.75378 68.70821 69.94175
#
# Poissons Ratio (x) = 0.31366 0.53093
# Poissons Ratio (y) = 0.19061 0.42230
# Poissons Ratio (z) = 0.31696 0.41485
#
# Static dielectric constant tensor:
#      x y z
#    x 3.376140 0.000000 0.000000 
#    y 0.000000 3.416910 0.000000 
#    z 0.000000 0.000000 3.666020 
# 
# 
# High freq. dielectric constant tensor:
#      x y z
#    x 1.719980 0.000000 0.000000 
#    y 0.000000 1.722520 0.000000 
#    z 0.000000 0.000000 1.744250 
# 
# From -- ./inp_files/10707.got.cif
#   From: 2010.03.12/outbox.cif.g09.slc.cpg/sg40_6_cif.got.tgz:10707.got - 2010.04.14 01:38:03.
