data_PCOD8183237
_publ_section_title
;
Structure prediction by ZEFSAII (Michael W. Deem and Ramdas Pophale) SiO2 
 PCOD8183237
Probable space group: A M A 2
;
_chemical_formula_sum "Si O2"
_cell_formula_units_Z 64
_cell_length_a 8.922795
_cell_length_b 33.214246
_cell_length_c 11.399819
_cell_angle_alpha 90.000000
_cell_angle_beta 90.000000
_cell_angle_gamma 90.000000
_cell_volume 3378.494911
_symmetry_space_group_name_H-M "A M A 2"
_symmetry_group_IT_number 40
_symmetry_cell_setting 'orthorhombic'
loop_
_space_group_symop_operation_xyz
x,y,z
-x,-y,z
1/2-x,y,z
1/2+x,-y,z
x,1/2+y,1/2+z
-x,1/2-y,1/2+z
1/2-x,1/2+y,1/2+z
1/2+x,1/2-y,1/2+z
loop_
_atom_site_type_symbol
_atom_site_label
_atom_site_fract_x
_atom_site_fract_y
_atom_site_fract_z
Si Si1 0.914098 0.326930 0.918390
Si Si2 0.578417 0.606487 0.802310
Si Si3 0.077518 0.691474 0.180612
Si Si4 0.572365 0.456567 0.212440
Si Si5 0.927709 0.120862 0.821045
Si Si6 0.082063 0.226565 0.195697
Si Si7 0.923607 0.458658 0.946144
Si Si8 0.425319 0.845652 0.074604
O O1 0.750000 0.348978 0.917993
O O2 0.913680 0.292290 0.823366
O O3 0.048043 0.357624 0.893438
O O4 0.943243 0.306744 0.041964
O O5 0.750000 0.593237 0.809970
O O6 0.532833 0.620838 0.672032
O O7 0.474787 0.570244 0.842147
O O8 0.250000 0.687060 0.219744
O O9 0.985372 0.653911 0.230058
O O10 0.013155 0.733788 0.221979
O O11 0.500000 0.500000 0.242179
O O12 0.750000 0.459351 0.233668
O O13 0.503143 0.422402 0.296406
O O14 0.534715 0.443853 0.077911
O O15 0.750000 0.116072 0.809288
O O16 0.974503 0.135845 0.950578
O O17 0.250000 0.237107 0.152171
O O18 0.010244 0.196248 0.100034
O O19 0.750000 0.465685 0.935885
O O20 0.000000 0.500000 0.917270
O O21 0.250000 0.835602 0.078867
#
# Coordination Sequence:
#
# PCOD8183237 Si02
#       8
#     8   8   8   8   8   8   8   8
#     4   9  20  37  54  74 105 141 176 220 275 328
#     4  10  19  34  57  81 106 139 181 225 272 329
#     4  11  23  37  55  81 113 147 184 232 285 337
#     4  10  21  38  60  87 119 152 189 234 289 343
#     4  11  23  39  59  84 115 152 195 239 286 341
#     4  10  21  37  57  81 107 143 188 232 282 339
#     4  10  20  34  55  84 116 146 178 225 279 333
#     4   9  21  40  58  78 111 152 189 233 285 336
#
# _framework density 18.943348
#
# number of rings (size 3 to 8) (size 9 to 14) (size 15 to 20)
#    0.000    2.000    0.000    3.000    1.750    7.500 
#    0.000    0.625    0.000    0.000    0.000    0.000 
#    0.000    0.000    0.000    0.000    0.000    0.000 
#
# Total GULP energy -396774.710878 kJ/mol
# GULP energy per Si atom -12399.209715 kJ/mol
# Density = 1.890023 g / cm^3
# Si number density = 18.943348 Si / 1000 Ang^3
#
#
#
# Elastic Constant Matrix: (Units=GPa)
#
#
# Indices 1 2 3 4 5 6 
#
# 1 76.4136 52.2510 39.5738 0.0000 0.0000 0.0000
# 2 52.2510 115.5258 45.5802 0.0000 0.0000 0.0000
# 3 39.5738 45.5802 71.5418 0.0000 0.0000 0.0000
# 4 0.0000 0.0000 0.0000 24.1468 0.0000 0.0000
# 5 0.0000 0.0000 0.0000 0.0000 26.2480 0.0000
# 6 0.0000 0.0000 0.0000 0.0000 0.0000 41.2789
#
#
#
# Elastic Compliance Matrix: (Units=1/GPa)
#
#
# Indices 1 2 3 4 5 6 
#
# 1 0.021706 -0.006786 -0.007683 0.000000 0.000000 0.000000
# 2 -0.006786 0.013684 -0.004965 0.000000 0.000000 0.000000
# 3 -0.007683 -0.004965 0.021391 0.000000 0.000000 0.000000
# 4 0.000000 0.000000 0.000000 0.041413 0.000000 0.000000
# 5 0.000000 0.000000 0.000000 0.000000 0.038098 0.000000
# 6 0.000000 0.000000 0.000000 0.000000 0.000000 0.024225
#
#
# Mechanical properties :
#
#
# Convention : Reuss Voigt Hill
#
# Bulk Modulus (GPa) = 55.82491 59.81013 57.81752
# Shear Modulus (GPa) = 24.34786 26.73981 25.54383
#
# Velocity S-wave (km/s) = 3.58900 3.76116 3.67609
# Velocity P-wave (km/s) = 6.83432 7.10658 6.97178
#
# Compressibility (1/GPa) = 0.01791315
#
# Stress axis : x y z
#
# Youngs Moduli (GPa) = 46.07023 73.07786 46.74869
#
# Poissons Ratio (x) = 0.49590 0.35919
# Poissons Ratio (y) = 0.31263 0.23209
# Poissons Ratio (z) = 0.35398 0.36280
#
# Static dielectric constant tensor:
#      x y z
#    x 3.675070 0.000000 0.000000 
#    y 0.000000 3.312900 0.000000 
#    z 0.000000 0.000000 3.504820 
# 
# 
# High freq. dielectric constant tensor:
#      x y z
#    x 1.749330 0.000000 0.000000 
#    y 0.000000 1.736280 0.000000 
#    z 0.000000 0.000000 1.731350 
# 
# From -- ./inp_files/10639.got.cif
#   From: 2010.03.12/outbox.cif.g09.slc.cpg/sg40_6_cif.got.tgz:10639.got - 2010.04.14 01:38:03.
