data_PCOD8183290
_publ_section_title
;
Structure prediction by ZEFSAII (Michael W. Deem and Ramdas Pophale) SiO2 
 PCOD8183290
Probable space group: A M A 2
;
_chemical_formula_sum "Si O2"
_cell_formula_units_Z 56
_cell_length_a 15.622776
_cell_length_b 22.926580
_cell_length_c 8.266369
_cell_angle_alpha 90.000000
_cell_angle_beta 90.000000
_cell_angle_gamma 90.000000
_cell_volume 2960.821793
_symmetry_space_group_name_H-M "A M A 2"
_symmetry_group_IT_number 40
_symmetry_cell_setting 'orthorhombic'
loop_
_space_group_symop_operation_xyz
x,y,z
-x,-y,z
1/2-x,y,z
1/2+x,-y,z
x,1/2+y,1/2+z
-x,1/2-y,1/2+z
1/2-x,1/2+y,1/2+z
1/2+x,1/2-y,1/2+z
loop_
_atom_site_type_symbol
_atom_site_label
_atom_site_fract_x
_atom_site_fract_y
_atom_site_fract_z
Si Si1 0.586213 0.357904 0.914910
Si Si2 0.533602 0.371023 0.413769
Si Si3 0.651950 0.936515 0.149184
Si Si4 0.429155 0.333054 0.708063
Si Si5 0.477656 0.936873 0.621455
Si Si6 0.150155 0.946795 0.335649
Si Si7 0.152413 0.210064 0.705212
O O1 0.646522 0.381819 0.772201
O O2 0.500401 0.327382 0.847870
O O3 0.558909 0.413725 0.020632
O O4 0.636964 0.311179 0.021632
O O5 0.589026 0.422670 0.499053
O O6 0.475826 0.334872 0.536388
O O7 0.467735 0.396906 0.280729
O O8 0.597209 0.325221 0.333244
O O9 0.750000 0.943186 0.089413
O O10 0.619541 0.995545 0.238105
O O11 0.373079 0.391416 0.726145
O O12 0.367142 0.278275 0.717292
O O13 0.393354 0.939597 0.510907
O O14 0.500000 0.000000 0.687539
O O15 0.250000 0.950439 0.370240
O O16 0.250000 0.199781 0.753184
#
# Coordination Sequence:
#
# PCOD8183290 Si02
#       7
#     8   8   8   8   8   8   8
#     4   9  19  34  57  79 107 149 194 223 276 341
#     4  10  23  35  58  87 112 147 194 238 282 337
#     4  10  19  35  56  85 117 143 183 235 287 335
#     4  10  21  37  59  79 114 153 192 229 281 343
#     4  10  19  35  56  81 112 149 183 228 282 336
#     4  10  21  37  58  85 115 152 188 228 284 341
#     4  11  21  37  56  82 114 146 190 240 287 329
#
# _framework density 18.913668999999999
#
# number of rings (size 3 to 8) (size 9 to 14) (size 15 to 20)
#    0.000    2.000    1.429    2.143    2.000    0.000 
#    0.000    2.143    0.000    0.000    0.000    0.000 
#    0.000    0.000    0.000    0.000    0.000    0.000 
#
# Total GULP energy -347200.158792 kJ/mol
# GULP energy per Si atom -12400.005671 kJ/mol
# Density = 1.887062 g / cm^3
# Si number density = 18.913669 Si / 1000 Ang^3
#
#
#
# Elastic Constant Matrix: (Units=GPa)
#
#
# Indices 1 2 3 4 5 6 
#
# 1 63.0221 26.1656 23.2538 0.0000 0.0000 0.0000
# 2 26.1656 104.3269 34.5599 0.0000 0.0000 0.0000
# 3 23.2538 34.5599 94.1329 0.0000 0.0000 0.0000
# 4 0.0000 0.0000 0.0000 25.2337 0.0000 0.0000
# 5 0.0000 0.0000 0.0000 0.0000 24.3659 0.0000
# 6 0.0000 0.0000 0.0000 0.0000 0.0000 27.5838
#
#
#
# Elastic Compliance Matrix: (Units=1/GPa)
#
#
# Indices 1 2 3 4 5 6 
#
# 1 0.018557 -0.003570 -0.003274 0.000000 0.000000 0.000000
# 2 -0.003570 0.011599 -0.003377 0.000000 0.000000 0.000000
# 3 -0.003274 -0.003377 0.012672 0.000000 0.000000 0.000000
# 4 0.000000 0.000000 0.000000 0.039630 0.000000 0.000000
# 5 0.000000 0.000000 0.000000 0.000000 0.041041 0.000000
# 6 0.000000 0.000000 0.000000 0.000000 0.000000 0.036253
#
#
# Mechanical properties :
#
#
# Convention : Reuss Voigt Hill
#
# Bulk Modulus (GPa) = 44.66674 47.71562 46.19118
# Shear Modulus (GPa) = 26.64464 27.27018 26.95741
#
# Velocity S-wave (km/s) = 3.75740 3.80125 3.77939
# Velocity P-wave (km/s) = 6.51855 6.67450 6.59699
#
# Compressibility (1/GPa) = 0.02238802
#
# Stress axis : x y z
#
# Youngs Moduli (GPa) = 53.88662 86.21322 78.91614
#
# Poissons Ratio (x) = 0.30777 0.25835
# Poissons Ratio (y) = 0.19237 0.26647
# Poissons Ratio (z) = 0.17641 0.29111
#
# Static dielectric constant tensor:
#      x y z
#    x 3.309970 0.000000 0.000000 
#    y 0.000000 3.451630 0.000000 
#    z 0.000000 0.000000 3.543510 
# 
# 
# High freq. dielectric constant tensor:
#      x y z
#    x 1.725380 0.000000 0.000000 
#    y 0.000000 1.738110 0.000000 
#    z 0.000000 0.000000 1.735830 
# 
# From -- ./inp_files/6697.got.cif
#   From: 2010.03.12/outbox.cif.g09.slc.cpg/sg40_4_cif.got.tgz:6697.got - 2010.04.14 01:38:03.
