data_PCOD8183568
_publ_section_title
;
Structure prediction by ZEFSAII (Michael W. Deem and Ramdas Pophale) SiO2 
 PCOD8183568
Probable space group: A M A 2
;
_chemical_formula_sum "Si O2"
_cell_formula_units_Z 56
_cell_length_a 15.532599
_cell_length_b 21.009402
_cell_length_c 8.826903
_cell_angle_alpha 90.000000
_cell_angle_beta 90.000000
_cell_angle_gamma 90.000000
_cell_volume 2880.488698
_symmetry_space_group_name_H-M "A M A 2"
_symmetry_group_IT_number 40
_symmetry_cell_setting 'orthorhombic'
loop_
_space_group_symop_operation_xyz
x,y,z
-x,-y,z
1/2-x,y,z
1/2+x,-y,z
x,1/2+y,1/2+z
-x,1/2-y,1/2+z
1/2-x,1/2+y,1/2+z
1/2+x,1/2-y,1/2+z
loop_
_atom_site_type_symbol
_atom_site_label
_atom_site_fract_x
_atom_site_fract_y
_atom_site_fract_z
Si Si1 0.650784 0.898794 0.592790
Si Si2 0.846873 0.652305 0.346146
Si Si3 0.019375 0.391117 0.929133
Si Si4 0.846233 0.288245 0.309485
Si Si5 0.152672 0.458876 0.126247
Si Si6 0.572653 0.678718 0.658868
Si Si7 0.077096 0.765827 0.595971
O O1 0.750000 0.884179 0.537737
O O2 0.583218 0.903372 0.451784
O O3 0.612766 0.844999 0.706672
O O4 0.648104 0.967393 0.675307
O O5 0.750000 0.654399 0.408765
O O6 0.868162 0.583990 0.272545
O O7 0.912005 0.660698 0.485148
O O8 0.856691 0.708672 0.222866
O O9 0.045807 0.384829 0.751702
O O10 0.080639 0.445932 0.998098
O O11 0.040873 0.324103 0.002551
O O12 0.750000 0.310921 0.329907
O O13 0.847461 0.218520 0.228906
O O14 0.883477 0.285193 0.479054
O O15 0.250000 0.442435 0.066577
O O16 0.497428 0.730056 0.684748
#
# Coordination Sequence:
#
# PCOD8183568 Si02
#       7
#     8   8   8   8   8   8   8
#     4  10  20  37  61  85 112 151 198 240 285 352
#     4  10  20  35  57  84 112 149 189 238 290 341
#     4  10  20  35  58  82 114 153 189 236 288 340
#     4  10  20  34  56  84 112 145 182 227 286 344
#     4   9  20  37  61  85 110 148 199 243 285 343
#     4  11  21  34  54  83 116 145 184 236 286 346
#     4  10  20  34  53  81 117 143 181 226 286 345
#
# _framework density 19.441146
#
# number of rings (size 3 to 8) (size 9 to 14) (size 15 to 20)
#    0.000    2.000    1.429    3.000    2.000    4.000 
#    0.000    0.714    6.286    0.000    0.000    0.000 
#    0.000    0.000    0.000    0.000    0.000    0.000 
#
# Total GULP energy -346999.675458 kJ/mol
# GULP energy per Si atom -12392.845552 kJ/mol
# Density = 1.939690 g / cm^3
# Si number density = 19.441146 Si / 1000 Ang^3
#
#
#
# Elastic Constant Matrix: (Units=GPa)
#
#
# Indices 1 2 3 4 5 6 
#
# 1 82.9121 27.1785 37.4202 0.0000 0.0000 0.0000
# 2 27.1785 84.1435 38.3061 0.0000 0.0000 0.0000
# 3 37.4202 38.3061 106.7276 0.0000 0.0000 0.0000
# 4 0.0000 0.0000 0.0000 17.7317 0.0000 0.0000
# 5 0.0000 0.0000 0.0000 0.0000 22.2381 0.0000
# 6 0.0000 0.0000 0.0000 0.0000 0.0000 25.4439
#
#
#
# Elastic Compliance Matrix: (Units=1/GPa)
#
#
# Indices 1 2 3 4 5 6 
#
# 1 0.014902 -0.002910 -0.004180 0.000000 0.000000 0.000000
# 2 -0.002910 0.014774 -0.004282 0.000000 0.000000 0.000000
# 3 -0.004180 -0.004282 0.012372 0.000000 0.000000 0.000000
# 4 0.000000 0.000000 0.000000 0.056396 0.000000 0.000000
# 5 0.000000 0.000000 0.000000 0.000000 0.044968 0.000000
# 6 0.000000 0.000000 0.000000 0.000000 0.000000 0.039302
#
#
# Mechanical properties :
#
#
# Convention : Reuss Voigt Hill
#
# Bulk Modulus (GPa) = 51.80678 53.28808 52.54743
# Shear Modulus (GPa) = 23.59677 24.47462 24.03570
#
# Velocity S-wave (km/s) = 3.48768 3.55196 3.51996
# Velocity P-wave (km/s) = 6.55167 6.65517 6.60362
#
# Compressibility (1/GPa) = 0.01930249
#
# Stress axis : x y z
#
# Youngs Moduli (GPa) = 67.10710 67.68679 80.82622
#
# Poissons Ratio (x) = 0.19698 0.33787
# Poissons Ratio (y) = 0.19530 0.34611
# Poissons Ratio (z) = 0.28052 0.28985
#
# Static dielectric constant tensor:
#      x y z
#    x 3.678690 0.000000 0.000000 
#    y 0.000000 3.578580 0.000000 
#    z 0.000000 0.000000 3.538140 
# 
# 
# High freq. dielectric constant tensor:
#      x y z
#    x 1.767680 0.000000 0.000000 
#    y 0.000000 1.746670 0.000000 
#    z 0.000000 0.000000 1.730880 
# 
# From -- ./inp_files/6702.got.cif
#   From: 2010.03.12/outbox.cif.g09.slc.cpg/sg40_4_cif.got.tgz:6702.got - 2010.04.14 01:38:03.
