data_PCOD8183784
_publ_section_title
;
Structure prediction by ZEFSAII (Michael W. Deem and Ramdas Pophale) SiO2 
 PCOD8183784
Probable space group: A M A 2
;
_chemical_formula_sum "Si O2"
_cell_formula_units_Z 64
_cell_length_a 8.787269
_cell_length_b 24.718315
_cell_length_c 14.898131
_cell_angle_alpha 90.000000
_cell_angle_beta 90.000000
_cell_angle_gamma 90.000000
_cell_volume 3235.970640
_symmetry_space_group_name_H-M "A M A 2"
_symmetry_group_IT_number 40
_symmetry_cell_setting 'orthorhombic'
loop_
_space_group_symop_operation_xyz
x,y,z
-x,-y,z
1/2-x,y,z
1/2+x,-y,z
x,1/2+y,1/2+z
-x,1/2-y,1/2+z
1/2-x,1/2+y,1/2+z
1/2+x,1/2-y,1/2+z
loop_
_atom_site_type_symbol
_atom_site_label
_atom_site_fract_x
_atom_site_fract_y
_atom_site_fract_z
Si Si1 0.572258 0.942451 0.283750
Si Si2 0.071342 0.941832 0.917634
Si Si3 0.424608 0.106872 0.092340
Si Si4 0.074183 0.664861 0.085856
Si Si5 0.921464 0.714667 0.571570
Si Si6 0.929271 0.149134 0.403664
Si Si7 0.924875 0.860623 0.782758
Si Si8 0.076943 0.762322 0.866734
O O1 0.750000 0.941974 0.308459
O O2 0.545862 0.928853 0.179737
O O3 0.483403 0.900739 0.345272
O O4 0.500000 0.000000 0.304654
O O5 0.250000 0.948405 0.917432
O O6 0.025158 0.903819 0.835154
O O7 0.000000 0.000000 0.902020
O O8 0.024460 0.916985 0.012504
O O9 0.250000 0.105285 0.062293
O O10 0.471388 0.168680 0.113761
O O11 0.250000 0.667210 0.053812
O O12 0.019331 0.726632 0.103258
O O13 0.054679 0.629745 0.176004
O O14 0.975407 0.638114 0.007118
O O15 0.750000 0.704313 0.605663
O O16 0.929935 0.710622 0.464292
O O17 0.750000 0.156101 0.396476
O O18 0.008568 0.202610 0.365641
O O19 0.750000 0.867194 0.811874
O O20 0.977793 0.799609 0.801713
O O21 0.250000 0.759404 0.831933
#
# Coordination Sequence:
#
# PCOD8183784 Si02
#       8
#     8   8   8   8   8   8   8   8
#     4  11  25  44  64  90 121 158 205 258 310 366
#     4  12  25  42  63  88 123 166 206 255 306 362
#     4  11  23  38  60  91 124 161 203 250 303 367
#     4   9  21  40  61  88 126 164 202 254 309 362
#     4   9  18  34  56  85 122 163 200 241 298 357
#     4  11  23  40  64  91 121 161 206 255 308 366
#     4  11  22  38  62  93 125 162 206 252 304 365
#     4  10  20  36  58  88 125 163 200 247 301 357
#
# _framework density 19.777681999999999
#
# number of rings (size 3 to 8) (size 9 to 14) (size 15 to 20)
#    0.000    1.500    1.250    4.875    1.750    6.000 
#    0.000    0.625    0.000    3.000    0.000    0.000 
#    0.000    0.000    0.000    0.000    0.000    0.000 
#
# Total GULP energy -396950.346395 kJ/mol
# GULP energy per Si atom -12404.698325 kJ/mol
# Density = 1.973267 g / cm^3
# Si number density = 19.777682 Si / 1000 Ang^3
#
#
#
# Elastic Constant Matrix: (Units=GPa)
#
#
# Indices 1 2 3 4 5 6 
#
# 1 122.5276 41.8660 38.4733 0.0000 0.0000 0.0000
# 2 41.8660 95.9224 33.4390 0.0000 0.0000 0.0000
# 3 38.4733 33.4390 70.4450 0.0000 0.0000 0.0000
# 4 0.0000 0.0000 0.0000 39.4535 0.0000 0.0000
# 5 0.0000 0.0000 0.0000 0.0000 10.8295 0.0000
# 6 0.0000 0.0000 0.0000 0.0000 0.0000 36.5652
#
#
#
# Elastic Compliance Matrix: (Units=1/GPa)
#
#
# Indices 1 2 3 4 5 6 
#
# 1 0.010576 -0.003118 -0.004296 0.000000 0.000000 0.000000
# 2 -0.003118 0.013412 -0.004663 0.000000 0.000000 0.000000
# 3 -0.004296 -0.004663 0.018755 0.000000 0.000000 0.000000
# 4 0.000000 0.000000 0.000000 0.025346 0.000000 0.000000
# 5 0.000000 0.000000 0.000000 0.000000 0.092340 0.000000
# 6 0.000000 0.000000 0.000000 0.000000 0.000000 0.027348
#
#
# Mechanical properties :
#
#
# Convention : Reuss Voigt Hill
#
# Bulk Modulus (GPa) = 53.79805 57.38352 55.59078
# Shear Modulus (GPa) = 22.92230 29.04410 25.98320
#
# Velocity S-wave (km/s) = 3.40810 3.83630 3.62852
# Velocity P-wave (km/s) = 6.53814 6.97855 6.76193
#
# Compressibility (1/GPa) = 0.01858803
#
# Stress axis : x y z
#
# Youngs Moduli (GPa) = 94.55583 74.56154 53.31888
#
# Poissons Ratio (x) = 0.23251 0.22904
# Poissons Ratio (y) = 0.29486 0.24864
# Poissons Ratio (z) = 0.40618 0.34770
#
# Static dielectric constant tensor:
#      x y z
#    x 3.691290 0.000000 0.000000 
#    y 0.000000 3.587840 0.000000 
#    z 0.000000 0.000000 3.570960 
# 
# 
# High freq. dielectric constant tensor:
#      x y z
#    x 1.781120 0.000000 0.000000 
#    y 0.000000 1.766420 0.000000 
#    z 0.000000 0.000000 1.768900 
# 
# From -- ./inp_files/15574.got.cif
#   From: 2010.03.12/outbox.cif.g09.slc.cpg/sg40_8_cif.got.tgz:15574.got - 2010.04.14 01:38:03.
