data_PCOD8183542
_publ_section_title
;
Structure prediction by ZEFSAII (Michael W. Deem and Ramdas Pophale) SiO2 
 PCOD8183542
Probable space group: A M A 2
;
_chemical_formula_sum "Si O2"
_cell_formula_units_Z 56
_cell_length_a 8.824261
_cell_length_b 18.086402
_cell_length_c 21.165159
_cell_angle_alpha 90.000000
_cell_angle_beta 90.000000
_cell_angle_gamma 90.000000
_cell_volume 3377.941001
_symmetry_space_group_name_H-M "A M A 2"
_symmetry_group_IT_number 40
_symmetry_cell_setting 'orthorhombic'
loop_
_space_group_symop_operation_xyz
x,y,z
-x,-y,z
1/2-x,y,z
1/2+x,-y,z
x,1/2+y,1/2+z
-x,1/2-y,1/2+z
1/2-x,1/2+y,1/2+z
1/2+x,1/2-y,1/2+z
loop_
_atom_site_type_symbol
_atom_site_label
_atom_site_fract_x
_atom_site_fract_y
_atom_site_fract_z
Si Si1 0.072057 0.349617 0.013910
Si Si2 0.070946 0.919590 0.381115
Si Si3 0.583107 0.796750 0.071241
Si Si4 0.428619 0.422557 0.637439
Si Si5 0.583577 0.703675 0.198111
Si Si6 0.072658 0.077136 0.633908
Si Si7 0.429938 0.650675 0.759404
O O1 0.250000 0.359090 0.027576
O O2 0.026962 0.262173 0.018160
O O3 0.985108 0.398222 0.065364
O O4 0.025905 0.378352 0.945385
O O5 0.250000 0.925763 0.371824
O O6 0.999362 0.872260 0.325493
O O7 0.000000 0.000000 0.381669
O O8 0.750000 0.828716 0.054198
O O9 0.467110 0.864188 0.081448
O O10 0.595476 0.749906 0.134507
O O11 0.500000 0.500000 0.616733
O O12 0.250000 0.429632 0.644600
O O13 0.498259 0.398711 0.704245
O O14 0.750000 0.671633 0.215062
O O15 0.467817 0.636171 0.188933
O O16 0.528788 0.762214 0.251189
O O17 0.250000 0.067443 0.630313
O O18 0.000000 0.000000 0.653799
O O19 0.250000 0.637976 0.757740
#
# Coordination Sequence:
#
# PCOD8183542 Si02
#       7
#     8   8   8   8   8   8   8
#     4   9  19  34  49  66  93 126 157 190 229 271
#     4  11  22  34  48  68  94 126 161 193 224 264
#     4   8  15  30  48  66  90 119 150 187 231 276
#     4  11  20  30  46  69  95 122 153 190 231 276
#     4   8  16  31  48  65  89 119 151 187 231 277
#     4  11  20  29  46  70  96 123 153 190 231 274
#     4  10  20  34  49  66  92 125 156 191 231 272
#
# _framework density 16.578146
#
# number of rings (size 3 to 8) (size 9 to 14) (size 15 to 20)
#    0.000    2.286    0.000    6.000    0.000    8.000 
#    0.000    0.000    0.000    0.000    0.000    1.000 
#    0.000    6.857    0.000    0.000    0.000    0.000 
#
# Total GULP energy -347100.414845 kJ/mol
# GULP energy per Si atom -12396.443387 kJ/mol
# Density = 1.654041 g / cm^3
# Si number density = 16.578146 Si / 1000 Ang^3
#
#
#
# Elastic Constant Matrix: (Units=GPa)
#
#
# Indices 1 2 3 4 5 6 
#
# 1 105.9499 62.6072 39.2446 0.0000 0.0000 0.0000
# 2 62.6072 129.8037 62.1588 0.0000 0.0000 0.0000
# 3 39.2446 62.1588 79.2539 0.0000 0.0000 0.0000
# 4 0.0000 0.0000 0.0000 28.3935 0.0000 0.0000
# 5 0.0000 0.0000 0.0000 0.0000 -0.7971 0.0000
# 6 0.0000 0.0000 0.0000 0.0000 0.0000 28.9460
#
#
#
# Elastic Compliance Matrix: (Units=1/GPa)
#
#
# Indices 1 2 3 4 5 6 
#
# 1 0.013510 -0.005305 -0.002529 0.000000 0.000000 0.000000
# 2 -0.005305 0.014421 -0.008683 0.000000 0.000000 0.000000
# 3 -0.002529 -0.008683 0.020680 0.000000 0.000000 0.000000
# 4 0.000000 0.000000 0.000000 0.035219 0.000000 0.000000
# 5 0.000000 0.000000 0.000000 0.000000 -1.254550 0.000000
# 6 0.000000 0.000000 0.000000 0.000000 0.000000 0.034547
#
#
# Mechanical properties :
#
#
# Convention : Reuss Voigt Hill
#
# Bulk Modulus (GPa) = 64.20020 71.44764 67.82392
# Shear Modulus (GPa) = -4.55396 21.37495 8.41050
#
# Velocity S-wave (km/s) = -1.65920 3.59464 2.25483
# Velocity P-wave (km/s) = 5.92784 7.77301 6.91227
#
# Compressibility (1/GPa) = 0.01557628
#
# Stress axis : x y z
#
# Youngs Moduli (GPa) = 74.01879 69.34388 48.35517
#
# Poissons Ratio (x) = 0.36788 0.12229
# Poissons Ratio (y) = 0.39268 0.41988
# Poissons Ratio (z) = 0.18720 0.60213
#
# Static dielectric constant tensor:
#      x y z
#    x 3.184070 0.000000 0.000000 
#    y 0.000000 3.447220 0.000000 
#    z 0.000000 0.000000 3.084920 
# 
# 
# High freq. dielectric constant tensor:
#      x y z
#    x 1.647160 0.000000 0.000000 
#    y 0.000000 1.643550 0.000000 
#    z 0.000000 0.000000 1.599120 
# 
# From -- ./inp_files/22316.got.cif
#   From: 2010.03.12/outbox.cif.g09.slc.cpg/sg40_12_cif.got.tgz:22316.got - 2010.04.14 01:38:03.
