data_PCOD8183622
_publ_section_title
;
Structure prediction by ZEFSAII (Michael W. Deem and Ramdas Pophale) SiO2 
 PCOD8183622
Probable space group: A M A 2
;
_chemical_formula_sum "Si O2"
_cell_formula_units_Z 36
_cell_length_a 20.383821
_cell_length_b 8.952639
_cell_length_c 9.720560
_cell_angle_alpha 90.000000
_cell_angle_beta 90.000000
_cell_angle_gamma 90.000000
_cell_volume 1773.895185
_symmetry_space_group_name_H-M "A M A 2"
_symmetry_group_IT_number 40
_symmetry_cell_setting 'orthorhombic'
loop_
_space_group_symop_operation_xyz
x,y,z
-x,-y,z
1/2-x,y,z
1/2+x,-y,z
x,1/2+y,1/2+z
-x,1/2-y,1/2+z
1/2-x,1/2+y,1/2+z
1/2+x,1/2-y,1/2+z
loop_
_atom_site_type_symbol
_atom_site_label
_atom_site_fract_x
_atom_site_fract_y
_atom_site_fract_z
Si Si1 0.393220 0.806911 0.859380
Si Si2 0.575700 0.521908 0.822264
Si Si3 0.323509 0.470954 0.580037
Si Si4 0.899192 0.757160 0.058024
Si Si5 0.000000 0.000000 0.000941
O O1 0.398593 0.630678 0.889667
O O2 0.385727 0.836939 0.696294
O O3 0.456518 0.898954 0.902541
O O4 0.331170 0.863518 0.947515
O O5 0.500000 0.500000 0.775593
O O6 0.622558 0.573463 0.696097
O O7 0.580475 0.651751 0.934635
O O8 0.250000 0.453904 0.638813
O O9 0.334510 0.642486 0.528374
O O10 0.956150 0.882448 0.089805
#
# Coordination Sequence:
#
# PCOD8183622 Si02
#       5
#     8   8   8   8   4
#     4  10  23  35  64  92 131 163 210 257 319 376
#     4  11  23  40  68 100 129 162 211 269 326 382
#     4  10  25  46  64  89 131 177 216 259 316 382
#     4  10  23  39  64  94 126 166 209 260 316 378
#     4  10  20  34  58  92 130 162 194 256 322 374
#
# _framework density 20.294322000000001
#
# number of rings (size 3 to 8) (size 9 to 14) (size 15 to 20)
#    0.000    1.778    2.222    0.000   15.556    8.000 
#    0.000    0.000    0.000    0.000    0.000    0.000 
#    0.000    0.000    0.000    0.000    0.000    0.000 
#
# Total GULP energy -223019.011532 kJ/mol
# GULP energy per Si atom -12389.945085 kJ/mol
# Density = 2.024813 g / cm^3
# Si number density = 20.294322 Si / 1000 Ang^3
#
#
#
# Elastic Constant Matrix: (Units=GPa)
#
#
# Indices 1 2 3 4 5 6 
#
# 1 135.4503 27.2619 63.6576 0.0000 0.0000 0.0000
# 2 27.2619 82.8724 64.3971 0.0000 0.0000 0.0000
# 3 63.6576 64.3971 132.0678 0.0000 0.0000 0.0000
# 4 0.0000 0.0000 0.0000 44.0786 0.0000 0.0000
# 5 0.0000 0.0000 0.0000 0.0000 20.9240 0.0000
# 6 0.0000 0.0000 0.0000 0.0000 0.0000 16.1540
#
#
#
# Elastic Compliance Matrix: (Units=1/GPa)
#
#
# Indices 1 2 3 4 5 6 
#
# 1 0.009570 0.000702 -0.004955 0.000000 0.000000 0.000000
# 2 0.000702 0.019480 -0.009837 0.000000 0.000000 0.000000
# 3 -0.004955 -0.009837 0.014757 0.000000 0.000000 0.000000
# 4 0.000000 0.000000 0.000000 0.022687 0.000000 0.000000
# 5 0.000000 0.000000 0.000000 0.000000 0.047792 0.000000
# 6 0.000000 0.000000 0.000000 0.000000 0.000000 0.061904
#
#
# Mechanical properties :
#
#
# Convention : Reuss Voigt Hill
#
# Bulk Modulus (GPa) = 63.99202 73.44707 68.71954
# Shear Modulus (GPa) = 23.85738 29.23626 26.54682
#
# Velocity S-wave (km/s) = 3.43238 3.79966 3.62068
# Velocity P-wave (km/s) = 6.87813 7.45113 7.17036
#
# Compressibility (1/GPa) = 0.01562695
#
# Stress axis : x y z
#
# Youngs Moduli (GPa) = 104.48958 51.33577 67.76439
#
# Poissons Ratio (x) = -0.03606 0.33581
# Poissons Ratio (y) = -0.07340 0.66660
# Poissons Ratio (z) = 0.51780 0.50499
#
# Static dielectric constant tensor:
#      x y z
#    x 3.623350 0.000000 0.000000 
#    y 0.000000 3.833720 0.000000 
#    z 0.000000 0.000000 3.621500 
# 
# 
# High freq. dielectric constant tensor:
#      x y z
#    x 1.778520 0.000000 0.000000 
#    y 0.000000 1.795380 0.000000 
#    z 0.000000 0.000000 1.799020 
# 
# From -- ./inp_files/7982.got.cif
#   From: 2010.03.12/outbox.cif.g09.slc.cpg/sg40_4_cif.got.tgz:7982.got - 2010.04.14 01:38:03.
