data_PCOD8183381
_publ_section_title
;
Structure prediction by ZEFSAII (Michael W. Deem and Ramdas Pophale) SiO2 
 PCOD8183381
Probable space group: A M A 2
;
_chemical_formula_sum "Si O2"
_cell_formula_units_Z 64
_cell_length_a 17.776070
_cell_length_b 12.013730
_cell_length_c 15.247124
_cell_angle_alpha 90.000000
_cell_angle_beta 90.000000
_cell_angle_gamma 90.000000
_cell_volume 3256.128618
_symmetry_space_group_name_H-M "A M A 2"
_symmetry_group_IT_number 40
_symmetry_cell_setting 'orthorhombic'
loop_
_space_group_symop_operation_xyz
x,y,z
-x,-y,z
1/2-x,y,z
1/2+x,-y,z
x,1/2+y,1/2+z
-x,1/2-y,1/2+z
1/2-x,1/2+y,1/2+z
1/2+x,1/2-y,1/2+z
loop_
_atom_site_type_symbol
_atom_site_label
_atom_site_fract_x
_atom_site_fract_y
_atom_site_fract_z
Si Si1 0.912985 0.021113 0.597390
Si Si2 0.912833 0.487358 0.297203
Si Si3 0.665346 0.240309 0.546749
Si Si4 0.339203 0.030297 0.117999
Si Si5 0.339571 0.974432 0.308711
Si Si6 0.834920 0.771864 0.848439
Si Si7 0.660640 0.113820 0.955770
Si Si8 0.339273 0.133102 0.462768
O O1 0.893809 0.029936 0.699986
O O2 0.867240 0.920961 0.553167
O O3 0.890977 0.137743 0.553273
O O4 0.000000 0.000000 0.580520
O O5 0.889796 0.357946 0.300683
O O6 0.865403 0.558979 0.365464
O O7 0.000000 0.500000 0.320107
O O8 0.750000 0.198892 0.569675
O O9 0.638293 0.340353 0.608883
O O10 0.664969 0.296252 0.451371
O O11 0.250000 0.016925 0.116580
O O12 0.372826 0.996066 0.212034
O O13 0.372532 0.952375 0.040301
O O14 0.250000 0.981491 0.309200
O O15 0.371088 0.063733 0.379154
O O16 0.366913 0.851763 0.334507
O O17 0.750000 0.784080 0.810602
O O18 0.750000 0.110272 0.956610
O O19 0.630741 0.240532 0.958393
O O20 0.250000 0.130205 0.463336
#
# Coordination Sequence:
#
# PCOD8183381 Si02
#       8
#     8   8   8   8   8   8   8   8
#     4  11  25  41  57  83 120 163 200 242 290 351
#     4  11  25  41  57  83 120 163 200 242 290 351
#     4  10  19  36  64  89 113 149 198 247 291 347
#     4   9  18  33  57  90 118 142 181 240 299 347
#     4   9  18  33  57  90 118 142 181 240 299 347
#     4  10  19  36  64  89 113 149 198 247 291 347
#     4  10  21  38  60  88 120 151 191 244 298 347
#     4  10  21  38  60  88 120 151 191 244 298 347
#
# _framework density 19.655242999999999
#
# number of rings (size 3 to 8) (size 9 to 14) (size 15 to 20)
#    0.000    2.000    2.500    0.750    3.500    3.000 
#    0.000    0.000    0.000    0.750    0.000    0.000 
#    0.000    0.000    0.000    0.000    0.000    0.000 
#
# Total GULP energy -396822.062205 kJ/mol
# GULP energy per Si atom -12400.689444 kJ/mol
# Density = 1.961051 g / cm^3
# Si number density = 19.655243 Si / 1000 Ang^3
#
#
#
# Elastic Constant Matrix: (Units=GPa)
#
#
# Indices 1 2 3 4 5 6 
#
# 1 37.9374 38.7935 19.0656 0.0000 0.0000 0.0000
# 2 38.7935 129.1664 38.2596 0.0000 0.0000 0.0000
# 3 19.0656 38.2596 92.4581 0.0000 0.0000 0.0000
# 4 0.0000 0.0000 0.0000 30.9801 0.0000 0.0000
# 5 0.0000 0.0000 0.0000 0.0000 19.2658 0.0000
# 6 0.0000 0.0000 0.0000 0.0000 0.0000 13.7791
#
#
#
# Elastic Compliance Matrix: (Units=1/GPa)
#
#
# Indices 1 2 3 4 5 6 
#
# 1 0.039094 -0.010660 -0.003650 0.000000 0.000000 0.000000
# 2 -0.010660 0.011730 -0.002656 0.000000 0.000000 0.000000
# 3 -0.003650 -0.002656 0.012667 0.000000 0.000000 0.000000
# 4 0.000000 0.000000 0.000000 0.032279 0.000000 0.000000
# 5 0.000000 0.000000 0.000000 0.000000 0.051905 0.000000
# 6 0.000000 0.000000 0.000000 0.000000 0.000000 0.072573
#
#
# Mechanical properties :
#
#
# Convention : Reuss Voigt Hill
#
# Bulk Modulus (GPa) = 33.83022 50.19994 42.01508
# Shear Modulus (GPa) = 18.93682 23.70123 21.31902
#
# Velocity S-wave (km/s) = 3.10731 3.47630 3.29697
# Velocity P-wave (km/s) = 5.48845 6.45822 5.99298
#
# Compressibility (1/GPa) = 0.02955937
#
# Stress axis : x y z
#
# Youngs Moduli (GPa) = 25.57905 85.24932 78.94267
#
# Poissons Ratio (x) = 0.90878 0.28817
# Poissons Ratio (y) = 0.27268 0.20966
# Poissons Ratio (z) = 0.09337 0.22641
#
# Static dielectric constant tensor:
#      x y z
#    x 3.188720 0.000000 0.000000 
#    y 0.000000 3.725500 0.000000 
#    z 0.000000 0.000000 3.759990 
# 
# 
# High freq. dielectric constant tensor:
#      x y z
#    x 1.722580 0.000000 0.000000 
#    y 0.000000 1.780180 0.000000 
#    z 0.000000 0.000000 1.774990 
# 
# From -- ./inp_files/17863.got.cif
#   From: 2010.03.12/outbox.cif.g09.slc.cpg/sg40_9_cif.got.tgz:17863.got - 2010.04.14 01:38:03.
