data_PCOD8183128
_publ_section_title
;
Structure prediction by ZEFSAII (Michael W. Deem and Ramdas Pophale) SiO2 
 PCOD8183128
Probable space group: A M A 2
;
_chemical_formula_sum "Si O2"
_cell_formula_units_Z 64
_cell_length_a 9.144768
_cell_length_b 15.957951
_cell_length_c 22.390908
_cell_angle_alpha 90.000000
_cell_angle_beta 90.000000
_cell_angle_gamma 90.000000
_cell_volume 3267.544605
_symmetry_space_group_name_H-M "A M A 2"
_symmetry_group_IT_number 40
_symmetry_cell_setting 'orthorhombic'
loop_
_space_group_symop_operation_xyz
x,y,z
-x,-y,z
1/2-x,y,z
1/2+x,-y,z
x,1/2+y,1/2+z
-x,1/2-y,1/2+z
1/2-x,1/2+y,1/2+z
1/2+x,1/2-y,1/2+z
loop_
_atom_site_type_symbol
_atom_site_label
_atom_site_fract_x
_atom_site_fract_y
_atom_site_fract_z
Si Si1 0.075955 0.759059 0.228410
Si Si2 0.420301 0.583569 0.929786
Si Si3 0.413544 0.219147 0.115397
Si Si4 0.086122 0.133331 0.561789
Si Si5 0.424630 0.241530 0.348197
Si Si6 0.425659 0.587508 0.388237
Si Si7 0.410183 0.574284 0.521649
Si Si8 0.088624 0.576180 0.189630
O O1 0.250000 0.770500 0.235631
O O2 0.026960 0.663624 0.214093
O O3 0.018638 0.808575 0.170018
O O4 0.988168 0.792753 0.285483
O O5 0.500000 0.500000 0.904449
O O6 0.250000 0.568594 0.919268
O O7 0.468429 0.669860 0.896551
O O8 0.460597 0.590275 0.999903
O O9 0.250000 0.238171 0.139284
O O10 0.470109 0.296494 0.077147
O O11 0.411933 0.147178 0.067915
O O12 0.250000 0.171948 0.555132
O O13 0.085827 0.069096 0.617427
O O14 0.250000 0.254375 0.346116
O O15 0.504910 0.330704 0.357125
O O16 0.500000 0.500000 0.365388
O O17 0.250000 0.586101 0.376722
O O18 0.471722 0.601349 0.457141
O O19 0.500000 0.500000 0.551201
O O20 0.250000 0.538442 0.510014
O O21 0.250000 0.565884 0.215123
O O22 0.000000 0.500000 0.218160
#
# Coordination Sequence:
#
# PCOD8183128 Si02
#       8
#     8   8   8   8   8   8   8   8
#     4  10  22  39  55  74 102 141 185 227 272 328
#     4  10  22  38  58  84 114 147 188 235 283 334
#     4  10  19  33  54  81 108 137 176 223 271 324
#     4   9  18  33  52  79 112 143 173 211 264 329
#     4  11  23  39  58  82 111 147 191 240 285 329
#     4  10  20  36  58  86 118 152 187 226 274 334
#     4   9  19  33  52  80 111 139 173 217 268 325
#     4   9  18  31  50  76 105 134 167 205 253 313
#
# _framework density 19.586572
#
# number of rings (size 3 to 8) (size 9 to 14) (size 15 to 20)
#    0.000    2.250    0.000    3.375    0.000    6.000 
#    0.000    1.875    0.000    0.000    0.000    0.000 
#    0.000    0.000    0.000    0.000    0.000    0.000 
#
# Total GULP energy -396569.537451 kJ/mol
# GULP energy per Si atom -12392.798045 kJ/mol
# Density = 1.954199 g / cm^3
# Si number density = 19.586572 Si / 1000 Ang^3
#
#
#
# Elastic Constant Matrix: (Units=GPa)
#
#
# Indices 1 2 3 4 5 6 
#
# 1 78.5172 34.3198 24.3289 0.0000 0.0000 0.0000
# 2 34.3198 67.2416 16.8191 0.0000 0.0000 0.0000
# 3 24.3289 16.8191 73.4532 0.0000 0.0000 0.0000
# 4 0.0000 0.0000 0.0000 9.9223 0.0000 0.0000
# 5 0.0000 0.0000 0.0000 0.0000 31.2608 0.0000
# 6 0.0000 0.0000 0.0000 0.0000 0.0000 34.9824
#
#
#
# Elastic Compliance Matrix: (Units=1/GPa)
#
#
# Indices 1 2 3 4 5 6 
#
# 1 0.017415 -0.007898 -0.003960 0.000000 0.000000 0.000000
# 2 -0.007898 0.019357 -0.001816 0.000000 0.000000 0.000000
# 3 -0.003960 -0.001816 0.015342 0.000000 0.000000 0.000000
# 4 0.000000 0.000000 0.000000 0.100783 0.000000 0.000000
# 5 0.000000 0.000000 0.000000 0.000000 0.031989 0.000000
# 6 0.000000 0.000000 0.000000 0.000000 0.000000 0.028586
#
#
# Mechanical properties :
#
#
# Convention : Reuss Voigt Hill
#
# Bulk Modulus (GPa) = 40.37875 41.12753 40.75314
# Shear Modulus (GPa) = 20.07421 24.81604 22.44512
#
# Velocity S-wave (km/s) = 3.20487 3.56335 3.38885
# Velocity P-wave (km/s) = 5.86133 6.16225 6.01367
#
# Compressibility (1/GPa) = 0.02476550
#
# Stress axis : x y z
#
# Youngs Moduli (GPa) = 57.42073 51.66010 65.18250
#
# Poissons Ratio (x) = 0.40802 0.25810
# Poissons Ratio (y) = 0.45352 0.11839
# Poissons Ratio (z) = 0.22737 0.09383
#
# Static dielectric constant tensor:
#      x y z
#    x 3.908200 0.000000 0.000000 
#    y 0.000000 3.512970 0.000000 
#    z 0.000000 0.000000 3.682140 
# 
# 
# High freq. dielectric constant tensor:
#      x y z
#    x 1.770600 0.000000 0.000000 
#    y 0.000000 1.743240 0.000000 
#    z 0.000000 0.000000 1.765070 
# 
# From -- ./inp_files/24342.got.cif
#   From: 2010.03.12/outbox.cif.g09.slc.cpg/sg40_13_cif.got.tgz:24342.got - 2010.04.14 01:38:03.
