data_PCOD8183666
_publ_section_title
;
Structure prediction by ZEFSAII (Michael W. Deem and Ramdas Pophale) SiO2 
 PCOD8183666
Probable space group: A M A 2
;
_chemical_formula_sum "Si O2"
_cell_formula_units_Z 64
_cell_length_a 15.159885
_cell_length_b 23.315976
_cell_length_c 9.257401
_cell_angle_alpha 90.000000
_cell_angle_beta 90.000000
_cell_angle_gamma 90.000000
_cell_volume 3272.190525
_symmetry_space_group_name_H-M "A M A 2"
_symmetry_group_IT_number 40
_symmetry_cell_setting 'orthorhombic'
loop_
_space_group_symop_operation_xyz
x,y,z
-x,-y,z
1/2-x,y,z
1/2+x,-y,z
x,1/2+y,1/2+z
-x,1/2-y,1/2+z
1/2-x,1/2+y,1/2+z
1/2+x,1/2-y,1/2+z
loop_
_atom_site_type_symbol
_atom_site_label
_atom_site_fract_x
_atom_site_fract_y
_atom_site_fract_z
Si Si1 0.017259 0.065408 0.932290
Si Si2 0.905000 0.670970 0.432373
Si Si3 0.346197 0.243541 0.632309
Si Si4 0.491232 0.566101 0.101733
Si Si5 0.582739 0.261636 0.438744
Si Si6 0.145802 0.846434 0.611278
Si Si7 0.853085 0.361654 0.933456
Si Si8 0.651746 0.364523 0.604266
O O1 0.931471 0.105011 0.962971
O O2 0.044114 0.073569 0.765240
O O3 0.096072 0.084900 0.033517
O O4 0.000000 0.000000 0.972106
O O5 0.838185 0.694002 0.554078
O O6 0.863381 0.677168 0.274024
O O7 0.985557 0.714538 0.465168
O O8 0.250000 0.228530 0.694207
O O9 0.411674 0.242056 0.766190
O O10 0.376405 0.196885 0.514853
O O11 0.500000 0.500000 0.060506
O O12 0.587480 0.596223 0.086927
O O13 0.415860 0.589450 0.996882
O O14 0.603286 0.199629 0.503675
O O15 0.649902 0.306531 0.510697
O O16 0.250000 0.857884 0.578216
O O17 0.750000 0.378725 0.951198
O O18 0.879902 0.351819 0.767098
O O19 0.750000 0.388633 0.606649
#
# Coordination Sequence:
#
# PCOD8183666 Si02
#       8
#     8   8   8   8   8   8   8   8
#     4   9  20  38  57  79 106 141 189 234 276 331
#     4  10  20  35  56  79 110 147 183 226 281 342
#     4  11  21  34  53  81 111 140 176 221 270 329
#     4  10  22  40  60  82 110 150 198 242 290 346
#     4  11  21  35  56  82 113 147 185 229 280 341
#     4  11  22  37  57  85 119 153 190 240 297 352
#     4  10  21  36  57  84 115 148 188 234 287 347
#     4  10  20  35  56  84 112 144 183 230 286 344
#
# _framework density 19.558762000000002
#
# number of rings (size 3 to 8) (size 9 to 14) (size 15 to 20)
#    0.000    1.750    0.000    6.000    0.000    6.500 
#    0.000    5.625    0.000    1.500    0.000    0.000 
#    0.000    0.000    0.000    0.000    0.000    0.000 
#
# Total GULP energy -396723.665759 kJ/mol
# GULP energy per Si atom -12397.614555 kJ/mol
# Density = 1.951425 g / cm^3
# Si number density = 19.558762 Si / 1000 Ang^3
#
#
#
# Elastic Constant Matrix: (Units=GPa)
#
#
# Indices 1 2 3 4 5 6 
#
# 1 76.8058 43.3476 30.4213 0.0000 0.0000 0.0000
# 2 43.3476 136.4397 58.2643 0.0000 0.0000 0.0000
# 3 30.4213 58.2643 115.9876 0.0000 0.0000 0.0000
# 4 0.0000 0.0000 0.0000 29.3211 0.0000 0.0000
# 5 0.0000 0.0000 0.0000 0.0000 31.6453 0.0000
# 6 0.0000 0.0000 0.0000 0.0000 0.0000 19.7238
#
#
#
# Elastic Compliance Matrix: (Units=1/GPa)
#
#
# Indices 1 2 3 4 5 6 
#
# 1 0.016266 -0.004260 -0.002126 0.000000 0.000000 0.000000
# 2 -0.004260 0.010446 -0.004130 0.000000 0.000000 0.000000
# 3 -0.002126 -0.004130 0.011254 0.000000 0.000000 0.000000
# 4 0.000000 0.000000 0.000000 0.034105 0.000000 0.000000
# 5 0.000000 0.000000 0.000000 0.000000 0.031600 0.000000
# 6 0.000000 0.000000 0.000000 0.000000 0.000000 0.050700
#
#
# Mechanical properties :
#
#
# Convention : Reuss Voigt Hill
#
# Bulk Modulus (GPa) = 59.05418 65.92217 62.48818
# Shear Modulus (GPa) = 27.61666 29.28468 28.45067
#
# Velocity S-wave (km/s) = 3.76171 3.87365 3.81809
# Velocity P-wave (km/s) = 7.00900 7.33381 7.17324
#
# Compressibility (1/GPa) = 0.01693360
#
# Stress axis : x y z
#
# Youngs Moduli (GPa) = 61.47700 95.72700 88.85627
#
# Poissons Ratio (x) = 0.40778 0.18895
# Poissons Ratio (y) = 0.26188 0.36700
# Poissons Ratio (z) = 0.13073 0.39538
#
# Static dielectric constant tensor:
#      x y z
#    x 3.559230 0.000000 0.000000 
#    y 0.000000 3.496240 0.000000 
#    z 0.000000 0.000000 3.581540 
# 
# 
# High freq. dielectric constant tensor:
#      x y z
#    x 1.764280 0.000000 0.000000 
#    y 0.000000 1.750290 0.000000 
#    z 0.000000 0.000000 1.768830 
# 
# From -- ./inp_files/6891.got.cif
#   From: 2010.03.12/outbox.cif.g09.slc.cpg/sg40_4_cif.got.tgz:6891.got - 2010.04.14 01:38:03.
