data_PCOD8183483
_publ_section_title
;
Structure prediction by ZEFSAII (Michael W. Deem and Ramdas Pophale) SiO2 
 PCOD8183483
Probable space group: A M A 2
;
_chemical_formula_sum "Si O2"
_cell_formula_units_Z 64
_cell_length_a 9.025921
_cell_length_b 27.682201
_cell_length_c 14.542833
_cell_angle_alpha 90.000000
_cell_angle_beta 90.000000
_cell_angle_gamma 90.000000
_cell_volume 3633.633851
_symmetry_space_group_name_H-M "A M A 2"
_symmetry_group_IT_number 40
_symmetry_cell_setting 'orthorhombic'
loop_
_space_group_symop_operation_xyz
x,y,z
-x,-y,z
1/2-x,y,z
1/2+x,-y,z
x,1/2+y,1/2+z
-x,1/2-y,1/2+z
1/2-x,1/2+y,1/2+z
1/2+x,1/2-y,1/2+z
loop_
_atom_site_type_symbol
_atom_site_label
_atom_site_fract_x
_atom_site_fract_y
_atom_site_fract_z
Si Si1 0.588266 0.229779 0.334800
Si Si2 0.076563 0.641697 0.894139
Si Si3 0.073263 0.049954 0.281185
Si Si4 0.577535 0.820903 0.587891
Si Si5 0.913554 0.269295 0.537164
Si Si6 0.422990 0.167045 0.786462
Si Si7 0.424005 0.950846 0.090235
Si Si8 0.078085 0.859963 0.965546
O O1 0.750000 0.216359 0.294858
O O2 0.485964 0.182698 0.325223
O O3 0.600753 0.243566 0.440421
O O4 0.523176 0.276939 0.284245
O O5 0.250000 0.647555 0.889489
O O6 0.027834 0.589387 0.857631
O O7 0.019678 0.648511 0.999638
O O8 0.250000 0.044484 0.271617
O O9 0.003873 0.065937 0.183915
O O10 0.000000 0.000000 0.314235
O O11 0.750000 0.809593 0.575963
O O12 0.499642 0.768846 0.600777
O O13 0.549388 0.851828 0.681952
O O14 0.750000 0.279891 0.578037
O O15 0.000506 0.319614 0.528356
O O16 0.250000 0.164646 0.814615
O O17 0.513639 0.136838 0.861797
O O18 0.250000 0.959249 0.109447
O O19 0.500000 0.000000 0.054578
O O20 0.450161 0.911468 0.011702
O O21 0.250000 0.846902 0.959230
#
# Coordination Sequence:
#
# PCOD8183483 Si02
#       8
#     8   8   8   8   8   8   8   8
#     4   8  15  27  42  63  91 122 158 195 229 268
#     4   9  18  31  48  70  95 125 160 196 237 285
#     4  10  20  34  52  74  97 122 155 196 244 295
#     4   9  17  31  49  70 100 135 168 202 239 280
#     4   9  17  29  45  67  95 128 165 200 235 277
#     4   9  18  31  48  71  99 133 168 199 234 280
#     4  10  21  36  54  75  96 121 154 195 246 297
#     4  10  20  33  50  72  98 128 162 201 245 292
#
# _framework density 17.613220999999999
#
# number of rings (size 3 to 8) (size 9 to 14) (size 15 to 20)
#    0.000    2.750    0.000    3.000    0.000    7.500 
#    0.000    3.750    0.000    0.750    0.000    3.500 
#    0.000    0.000    0.000    0.000    0.000    0.000 
#
# Total GULP energy -396569.954938 kJ/mol
# GULP energy per Si atom -12392.811092 kJ/mol
# Density = 1.757313 g / cm^3
# Si number density = 17.613221 Si / 1000 Ang^3
#
#
#
# Elastic Constant Matrix: (Units=GPa)
#
#
# Indices 1 2 3 4 5 6 
#
# 1 86.0701 54.1525 43.3065 0.0000 0.0000 0.0000
# 2 54.1525 103.5734 57.4591 0.0000 0.0000 0.0000
# 3 43.3065 57.4591 91.0157 0.0000 0.0000 0.0000
# 4 0.0000 0.0000 0.0000 24.7973 0.0000 0.0000
# 5 0.0000 0.0000 0.0000 0.0000 18.1826 0.0000
# 6 0.0000 0.0000 0.0000 0.0000 0.0000 26.1183
#
#
#
# Elastic Compliance Matrix: (Units=1/GPa)
#
#
# Indices 1 2 3 4 5 6 
#
# 1 0.018254 -0.007273 -0.004094 0.000000 0.000000 0.000000
# 2 -0.007273 0.017757 -0.007749 0.000000 0.000000 0.000000
# 3 -0.004094 -0.007749 0.017828 0.000000 0.000000 0.000000
# 4 0.000000 0.000000 0.000000 0.040327 0.000000 0.000000
# 5 0.000000 0.000000 0.000000 0.000000 0.054998 0.000000
# 6 0.000000 0.000000 0.000000 0.000000 0.000000 0.038287
#
#
# Mechanical properties :
#
#
# Convention : Reuss Voigt Hill
#
# Bulk Modulus (GPa) = 64.08007 65.61061 64.84534
# Shear Modulus (GPa) = 21.65580 22.20239 21.92910
#
# Velocity S-wave (km/s) = 3.51025 3.55428 3.53233
# Velocity P-wave (km/s) = 7.27255 7.36040 7.31661
#
# Compressibility (1/GPa) = 0.01560547
#
# Stress axis : x y z
#
# Youngs Moduli (GPa) = 54.78180 56.31708 56.09297
#
# Poissons Ratio (x) = 0.40958 0.22966
# Poissons Ratio (y) = 0.39841 0.43469
# Poissons Ratio (z) = 0.22429 0.43643
#
# Static dielectric constant tensor:
#      x y z
#    x 3.481390 0.000000 0.000000 
#    y 0.000000 3.182590 0.000000 
#    z 0.000000 0.000000 3.374120 
# 
# 
# High freq. dielectric constant tensor:
#      x y z
#    x 1.687400 0.000000 0.000000 
#    y 0.000000 1.656150 0.000000 
#    z 0.000000 0.000000 1.673560 
# 
# From -- ./inp_files/15897.got.cif
#   From: 2010.03.12/outbox.cif.g09.slc.cpg/sg40_8_cif.got.tgz:15897.got - 2010.04.14 01:38:03.
