data_PCOD8183831
_publ_section_title
;
Structure prediction by ZEFSAII (Michael W. Deem and Ramdas Pophale) SiO2 
 PCOD8183831
Probable space group: A M A 2
;
_chemical_formula_sum "Si O2"
_cell_formula_units_Z 64
_cell_length_a 14.584621
_cell_length_b 9.263891
_cell_length_c 22.909933
_cell_angle_alpha 90.000000
_cell_angle_beta 90.000000
_cell_angle_gamma 90.000000
_cell_volume 3095.368819
_symmetry_space_group_name_H-M "A M A 2"
_symmetry_group_IT_number 40
_symmetry_cell_setting 'orthorhombic'
loop_
_space_group_symop_operation_xyz
x,y,z
-x,-y,z
1/2-x,y,z
1/2+x,-y,z
x,1/2+y,1/2+z
-x,1/2-y,1/2+z
1/2-x,1/2+y,1/2+z
1/2+x,1/2-y,1/2+z
loop_
_atom_site_type_symbol
_atom_site_label
_atom_site_fract_x
_atom_site_fract_y
_atom_site_fract_z
Si Si1 0.649132 0.347080 0.446380
Si Si2 0.976369 0.846603 0.472379
Si Si3 0.854212 0.949854 0.365953
Si Si4 0.480875 0.164365 0.715224
Si Si5 0.593898 0.080016 0.033498
Si Si6 0.354031 0.139046 0.236049
Si Si7 0.854222 0.767770 0.824193
Si Si8 0.648405 0.631342 0.658773
O O1 0.750000 0.277786 0.457715
O O2 0.572536 0.233908 0.464548
O O3 0.643763 0.497475 0.480814
O O4 0.639501 0.383349 0.377174
O O5 0.923274 0.877649 0.411863
O O6 0.915266 0.747386 0.514675
O O7 0.000000 0.000000 0.502737
O O8 0.750000 0.940518 0.389755
O O9 0.863638 0.865835 0.305412
O O10 0.882087 0.115201 0.353404
O O11 0.580524 0.235368 0.714299
O O12 0.425755 0.185215 0.775373
O O13 0.420888 0.234286 0.663398
O O14 0.500000 0.000000 0.700654
O O15 0.650709 0.070270 0.093136
O O16 0.500000 0.000000 0.047051
O O17 0.250000 0.176339 0.217153
O O18 0.383766 0.988368 0.205964
O O19 0.750000 0.759156 0.798608
O O20 0.750000 0.683448 0.675254
#
# Coordination Sequence:
#
# PCOD8183831 Si02
#       8
#     8   8   8   8   8   8   8   8
#     4  10  21  38  59  87 127 170 209 256 308 364
#     4  11  22  36  61  91 126 164 205 257 309 372
#     4  10  20  36  61  93 126 163 211 256 303 365
#     4  12  25  38  62  95 129 164 197 257 325 380
#     4  10  23  41  62  91 124 166 214 257 308 370
#     4  10  22  39  64  93 121 163 214 258 302 364
#     4  10  20  37  61  91 130 170 207 250 311 375
#     4  11  23  44  70  90 116 162 216 261 306 372
#
# _framework density 20.67605
#
# number of rings (size 3 to 8) (size 9 to 14) (size 15 to 20)
#    0.000    1.500    2.500    2.625    0.000    5.000 
#    0.000    2.500    0.000    0.000    0.000    0.000 
#    0.000    0.000    0.000    0.000    0.000    0.000 
#
# Total GULP energy -396728.204808 kJ/mol
# GULP energy per Si atom -12397.756400 kJ/mol
# Density = 2.062899 g / cm^3
# Si number density = 20.676050 Si / 1000 Ang^3
#
#
#
# Elastic Constant Matrix: (Units=GPa)
#
#
# Indices 1 2 3 4 5 6 
#
# 1 105.9957 52.4817 28.6635 0.0000 0.0000 0.0000
# 2 52.4817 123.4949 32.2391 0.0000 0.0000 0.0000
# 3 28.6635 32.2391 82.3249 0.0000 0.0000 0.0000
# 4 0.0000 0.0000 0.0000 28.3402 0.0000 0.0000
# 5 0.0000 0.0000 0.0000 0.0000 16.0373 0.0000
# 6 0.0000 0.0000 0.0000 0.0000 0.0000 19.2838
#
#
#
# Elastic Compliance Matrix: (Units=1/GPa)
#
#
# Indices 1 2 3 4 5 6 
#
# 1 0.012397 -0.004613 -0.002510 0.000000 0.000000 0.000000
# 2 -0.004613 0.010736 -0.002598 0.000000 0.000000 0.000000
# 3 -0.002510 -0.002598 0.014038 0.000000 0.000000 0.000000
# 4 0.000000 0.000000 0.000000 0.035286 0.000000 0.000000
# 5 0.000000 0.000000 0.000000 0.000000 0.062355 0.000000
# 6 0.000000 0.000000 0.000000 0.000000 0.000000 0.051857
#
#
# Mechanical properties :
#
#
# Convention : Reuss Voigt Hill
#
# Bulk Modulus (GPa) = 56.40383 59.84267 58.12325
# Shear Modulus (GPa) = 23.58253 25.96101 24.77177
#
# Velocity S-wave (km/s) = 3.38090 3.54730 3.46510
# Velocity P-wave (km/s) = 6.52531 6.76636 6.64693
#
# Compressibility (1/GPa) = 0.01772929
#
# Stress axis : x y z
#
# Youngs Moduli (GPa) = 80.66329 93.14229 71.23352
#
# Poissons Ratio (x) = 0.42969 0.17878
# Poissons Ratio (y) = 0.37212 0.18508
# Poissons Ratio (z) = 0.20245 0.24200
#
# Static dielectric constant tensor:
#      x y z
#    x 3.933070 0.000000 0.000000 
#    y 0.000000 3.674070 0.000000 
#    z 0.000000 0.000000 3.749540 
# 
# 
# High freq. dielectric constant tensor:
#      x y z
#    x 1.827390 0.000000 0.000000 
#    y 0.000000 1.787350 0.000000 
#    z 0.000000 0.000000 1.800530 
# 
# From -- ./inp_files/24791.got.cif
#   From: 2010.03.12/outbox.cif.g09.slc.cpg/sg40_13_cif.got.tgz:24791.got - 2010.04.14 01:38:03.
