data_PCOD8183795
_publ_section_title
;
Structure prediction by ZEFSAII (Michael W. Deem and Ramdas Pophale) SiO2 
 PCOD8183795
Probable space group: A M A 2
;
_chemical_formula_sum "Si O2"
_cell_formula_units_Z 40
_cell_length_a 18.543063
_cell_length_b 11.144845
_cell_length_c 8.763997
_cell_angle_alpha 90.000000
_cell_angle_beta 90.000000
_cell_angle_gamma 90.000000
_cell_volume 1811.163790
_symmetry_space_group_name_H-M "A M A 2"
_symmetry_group_IT_number 40
_symmetry_cell_setting 'orthorhombic'
loop_
_space_group_symop_operation_xyz
x,y,z
-x,-y,z
1/2-x,y,z
1/2+x,-y,z
x,1/2+y,1/2+z
-x,1/2-y,1/2+z
1/2-x,1/2+y,1/2+z
1/2+x,1/2-y,1/2+z
loop_
_atom_site_type_symbol
_atom_site_label
_atom_site_fract_x
_atom_site_fract_y
_atom_site_fract_z
Si Si1 0.565771 0.864278 0.296040
Si Si2 0.830863 0.294686 0.550750
Si Si3 0.832050 0.888127 0.733534
Si Si4 0.457653 0.238964 0.597097
Si Si5 0.079808 0.434253 0.043442
O O1 0.641168 0.852720 0.207999
O O2 0.554831 0.751266 0.413428
O O3 0.500976 0.851292 0.169876
O O4 0.567631 0.989451 0.387719
O O5 0.750000 0.248272 0.578869
O O6 0.832833 0.394367 0.417052
O O7 0.881384 0.187696 0.492209
O O8 0.750000 0.873660 0.673159
O O9 0.879677 0.775282 0.675321
O O10 0.867651 0.008266 0.668102
O O11 0.502023 0.109996 0.613118
#
# Coordination Sequence:
#
# PCOD8183795 Si02
#       5
#     8   8   8   8   8
#     4  10  20  36  61  85 115 155 195 242 297 348
#     4  10  22  39  59  88 122 155 198 246 291 352
#     4  10  20  36  59  85 117 154 191 238 295 352
#     4  10  20  37  59  88 117 150 200 247 291 351
#     4  10  21  40  63  84 114 158 200 245 299 349
#
# _framework density 22.085248
#
# number of rings (size 3 to 8) (size 9 to 14) (size 15 to 20)
#    0.000    2.000    0.000    5.400    0.000    4.000 
#    0.000   20.000    0.000    9.600    0.000    0.000 
#    0.000    0.000    0.000    0.000    0.000    0.000 
#
# Total GULP energy -247770.812667 kJ/mol
# GULP energy per Si atom -12388.540633 kJ/mol
# Density = 2.203498 g / cm^3
# Si number density = 22.085248 Si / 1000 Ang^3
#
#
#
# Elastic Constant Matrix: (Units=GPa)
#
#
# Indices 1 2 3 4 5 6 
#
# 1 168.9594 28.8296 64.7753 0.0000 0.0000 0.0000
# 2 28.8296 78.2437 32.2758 0.0000 0.0000 0.0000
# 3 64.7753 32.2758 118.9523 0.0000 0.0000 0.0000
# 4 0.0000 0.0000 0.0000 40.9760 0.0000 0.0000
# 5 0.0000 0.0000 0.0000 0.0000 44.0428 0.0000
# 6 0.0000 0.0000 0.0000 0.0000 0.0000 23.9261
#
#
#
# Elastic Compliance Matrix: (Units=1/GPa)
#
#
# Indices 1 2 3 4 5 6 
#
# 1 0.007584 -0.001228 -0.003796 0.000000 0.000000 0.000000
# 2 -0.001228 0.014590 -0.003290 0.000000 0.000000 0.000000
# 3 -0.003796 -0.003290 0.011367 0.000000 0.000000 0.000000
# 4 0.000000 0.000000 0.000000 0.024405 0.000000 0.000000
# 5 0.000000 0.000000 0.000000 0.000000 0.022705 0.000000
# 6 0.000000 0.000000 0.000000 0.000000 0.000000 0.041795
#
#
# Mechanical properties :
#
#
# Convention : Reuss Voigt Hill
#
# Bulk Modulus (GPa) = 59.13179 68.65743 63.89461
# Shear Modulus (GPa) = 34.55136 37.80729 36.17933
#
# Velocity S-wave (km/s) = 3.95961 4.14198 4.05182
# Velocity P-wave (km/s) = 6.90921 7.35048 7.13326
#
# Compressibility (1/GPa) = 0.01691138
#
# Stress axis : x y z
#
# Youngs Moduli (GPa) = 131.86352 68.53882 87.97598
#
# Poissons Ratio (x) = 0.08418 0.33399
# Poissons Ratio (y) = 0.16196 0.28944
# Poissons Ratio (z) = 0.50060 0.22549
#
# Static dielectric constant tensor:
#      x y z
#    x 4.350280 0.000000 0.000000 
#    y 0.000000 3.634710 0.000000 
#    z 0.000000 0.000000 4.091960 
# 
# 
# High freq. dielectric constant tensor:
#      x y z
#    x 1.888080 0.000000 0.000000 
#    y 0.000000 1.835640 0.000000 
#    z 0.000000 0.000000 1.872040 
# 
# From -- ./inp_files/8110.got.cif
#   From: 2010.03.12/outbox.cif.g09.slc.cpg/sg40_5_cif.got.tgz:8110.got - 2010.04.14 01:38:03.
