data_PCOD8183997
_publ_section_title
;
Structure prediction by ZEFSAII (Michael W. Deem and Ramdas Pophale) SiO2 
 PCOD8183997
Probable space group: A M A 2
;
_chemical_formula_sum "Si O2"
_cell_formula_units_Z 56
_cell_length_a 19.752150
_cell_length_b 9.033494
_cell_length_c 14.023493
_cell_angle_alpha 90.000000
_cell_angle_beta 90.000000
_cell_angle_gamma 90.000000
_cell_volume 2502.224877
_symmetry_space_group_name_H-M "A M A 2"
_symmetry_group_IT_number 40
_symmetry_cell_setting 'orthorhombic'
loop_
_space_group_symop_operation_xyz
x,y,z
-x,-y,z
1/2-x,y,z
1/2+x,-y,z
x,1/2+y,1/2+z
-x,1/2-y,1/2+z
1/2-x,1/2+y,1/2+z
1/2+x,1/2-y,1/2+z
loop_
_atom_site_type_symbol
_atom_site_label
_atom_site_fract_x
_atom_site_fract_y
_atom_site_fract_z
Si Si1 0.436076 0.198271 0.685240
Si Si2 0.174296 0.724685 0.564988
Si Si3 0.107761 0.014583 0.214059
Si Si4 0.827649 0.026837 0.721259
Si Si5 0.052629 0.619103 0.976723
Si Si6 0.171602 0.437756 0.907075
Si Si7 0.943707 0.699328 0.310987
O O1 0.436332 0.375482 0.681497
O O2 0.465424 0.143045 0.585756
O O3 0.489118 0.131494 0.762282
O O4 0.360525 0.133850 0.702308
O O5 0.250000 0.665563 0.557727
O O6 0.136419 0.588935 0.616658
O O7 0.169089 0.874081 0.627061
O O8 0.150018 0.778725 0.458172
O O9 0.160754 0.945775 0.292495
O O10 0.063488 0.136299 0.266921
O O11 0.750000 0.009090 0.757746
O O12 0.874799 0.106113 0.800075
O O13 0.129448 0.566514 0.959105
O O14 0.042404 0.776330 0.922885
O O15 0.000000 0.500000 0.934254
O O16 0.250000 0.467548 0.930091
#
# Coordination Sequence:
#
# PCOD8183997 Si02
#       7
#     8   8   8   8   8   8   8
#     4  12  23  41  64  97 132 171 218 278 340 398
#     4   9  18  36  61  90 123 169 218 264 323 399
#     4  10  22  38  62  92 132 169 220 276 336 391
#     4  10  21  39  65  94 130 167 213 268 333 398
#     4  11  23  40  67  94 126 172 220 275 328 404
#     4  10  20  39  66  94 123 174 227 271 328 405
#     4  10  22  43  63  93 126 173 222 272 325 403
#
# _framework density 22.380084
#
# number of rings (size 3 to 8) (size 9 to 14) (size 15 to 20)
#    0.000    1.714    1.429    3.857    2.000    4.571 
#    2.571    1.429    0.000    0.000    0.000    0.000 
#    0.000    0.000    0.000    0.000    0.000    0.000 
#
# Total GULP energy -346904.598200 kJ/mol
# GULP energy per Si atom -12389.449936 kJ/mol
# Density = 2.232915 g / cm^3
# Si number density = 22.380084 Si / 1000 Ang^3
#
#
#
# Elastic Constant Matrix: (Units=GPa)
#
#
# Indices 1 2 3 4 5 6 
#
# 1 116.0757 17.3746 33.7968 0.0000 0.0000 0.0000
# 2 17.3746 74.0126 19.5084 0.0000 0.0000 0.0000
# 3 33.7968 19.5084 103.3183 0.0000 0.0000 0.0000
# 4 0.0000 0.0000 0.0000 42.9424 0.0000 0.0000
# 5 0.0000 0.0000 0.0000 0.0000 23.9130 0.0000
# 6 0.0000 0.0000 0.0000 0.0000 0.0000 24.6308
#
#
#
# Elastic Compliance Matrix: (Units=1/GPa)
#
#
# Indices 1 2 3 4 5 6 
#
# 1 0.009680 -0.001513 -0.002881 0.000000 0.000000 0.000000
# 2 -0.001513 0.014455 -0.002234 0.000000 0.000000 0.000000
# 3 -0.002881 -0.002234 0.011043 0.000000 0.000000 0.000000
# 4 0.000000 0.000000 0.000000 0.023287 0.000000 0.000000
# 5 0.000000 0.000000 0.000000 0.000000 0.041818 0.000000
# 6 0.000000 0.000000 0.000000 0.000000 0.000000 0.040600
#
#
# Mechanical properties :
#
#
# Convention : Reuss Voigt Hill
#
# Bulk Modulus (GPa) = 45.61651 48.30737 46.96194
# Shear Modulus (GPa) = 30.96975 33.14570 32.05772
#
# Velocity S-wave (km/s) = 3.72399 3.85260 3.78884
# Velocity P-wave (km/s) = 6.23841 6.43598 6.33796
#
# Compressibility (1/GPa) = 0.02192189
#
# Stress axis : x y z
#
# Youngs Moduli (GPa) = 103.30198 69.17834 90.55421
#
# Poissons Ratio (x) = 0.10468 0.26087
# Poissons Ratio (y) = 0.15631 0.20234
# Poissons Ratio (z) = 0.29760 0.15458
#
# Static dielectric constant tensor:
#      x y z
#    x 3.973680 0.000000 0.000000 
#    y 0.000000 3.929210 0.000000 
#    z 0.000000 0.000000 4.209710 
# 
# 
# High freq. dielectric constant tensor:
#      x y z
#    x 1.880200 0.000000 0.000000 
#    y 0.000000 1.868760 0.000000 
#    z 0.000000 0.000000 1.873450 
# 
# From -- ./inp_files/18228.got.cif
#   From: 2010.03.12/outbox.cif.g09.slc.cpg/sg40_10_cif.got.tgz:18228.got - 2010.04.14 01:38:03.
