data_PCOD8183374
_publ_section_title
;
Structure prediction by ZEFSAII (Michael W. Deem and Ramdas Pophale) SiO2 
 PCOD8183374
Probable space group: A M A 2
;
_chemical_formula_sum "Si O2"
_cell_formula_units_Z 64
_cell_length_a 19.035561
_cell_length_b 9.486504
_cell_length_c 18.077071
_cell_angle_alpha 90.000000
_cell_angle_beta 90.000000
_cell_angle_gamma 90.000000
_cell_volume 3264.374213
_symmetry_space_group_name_H-M "A M A 2"
_symmetry_group_IT_number 40
_symmetry_cell_setting 'orthorhombic'
loop_
_space_group_symop_operation_xyz
x,y,z
-x,-y,z
1/2-x,y,z
1/2+x,-y,z
x,1/2+y,1/2+z
-x,1/2-y,1/2+z
1/2-x,1/2+y,1/2+z
1/2+x,1/2-y,1/2+z
loop_
_atom_site_type_symbol
_atom_site_label
_atom_site_fract_x
_atom_site_fract_y
_atom_site_fract_z
Si Si1 0.536443 0.361048 0.243890
Si Si2 0.328178 0.749622 0.888557
Si Si3 0.537334 0.144782 0.512333
Si Si4 0.962957 0.356473 0.646877
Si Si5 0.171593 0.507701 0.008448
Si Si6 0.170254 0.026808 0.680100
Si Si7 0.828308 0.795841 0.221730
Si Si8 0.975266 0.142432 0.904702
O O1 0.500000 0.500000 0.207818
O O2 0.507245 0.216072 0.211620
O O3 0.619640 0.370932 0.227068
O O4 0.520685 0.356740 0.330327
O O5 0.250000 0.820704 0.893252
O O6 0.335355 0.672905 0.809195
O O7 0.390669 0.864439 0.893342
O O8 0.337203 0.641106 0.955459
O O9 0.540192 0.252515 0.578722
O O10 0.493349 0.214196 0.446666
O O11 0.500000 0.000000 0.536755
O O12 0.616559 0.112803 0.484870
O O13 0.884412 0.389947 0.677055
O O14 0.000000 0.500000 0.622388
O O15 0.250000 0.444074 0.002146
O O16 0.155636 0.551952 0.093104
O O17 0.250000 0.067732 0.700219
O O18 0.154314 0.866815 0.704048
O O19 0.750000 0.834688 0.193915
O O20 0.000000 0.000000 0.947814
#
# Coordination Sequence:
#
# PCOD8183374 Si02
#       8
#     8   8   8   8   8   8   8   8
#     4  11  20  38  60  88 123 162 210 255 305 374
#     4  10  20  37  60  92 125 164 210 259 315 375
#     4  12  23  40  63  86 121 163 212 257 320 374
#     4  12  24  37  59  93 125 161 207 259 312 375
#     4  10  20  36  63  92 116 154 219 267 305 378
#     4  10  19  36  65  93 118 161 216 260 305 372
#     4  10  19  36  62  89 122 163 208 255 315 374
#     4  11  23  38  58  93 130 162 206 260 313 376
#
# _framework density 19.605595999999998
#
# number of rings (size 3 to 8) (size 9 to 14) (size 15 to 20)
#    0.000    1.250    5.000    2.250    0.000    1.500 
#    0.000    1.875    0.000    3.000    0.000    0.000 
#    0.000    0.000    0.000    0.000    0.000    0.000 
#
# Total GULP energy -396728.509630 kJ/mol
# GULP energy per Si atom -12397.765926 kJ/mol
# Density = 1.956097 g / cm^3
# Si number density = 19.605596 Si / 1000 Ang^3
#
#
#
# Elastic Constant Matrix: (Units=GPa)
#
#
# Indices 1 2 3 4 5 6 
#
# 1 177.7325 48.1646 39.4862 0.0000 0.0000 0.0000
# 2 48.1646 65.9700 21.9818 0.0000 0.0000 0.0000
# 3 39.4862 21.9818 89.0520 0.0000 0.0000 0.0000
# 4 0.0000 0.0000 0.0000 23.1314 0.0000 0.0000
# 5 0.0000 0.0000 0.0000 0.0000 28.7498 0.0000
# 6 0.0000 0.0000 0.0000 0.0000 0.0000 27.3337
#
#
#
# Elastic Compliance Matrix: (Units=1/GPa)
#
#
# Indices 1 2 3 4 5 6 
#
# 1 0.007361 -0.004671 -0.002111 0.000000 0.000000 0.000000
# 2 -0.004671 0.019481 -0.002738 0.000000 0.000000 0.000000
# 3 -0.002111 -0.002738 0.012841 0.000000 0.000000 0.000000
# 4 0.000000 0.000000 0.000000 0.043231 0.000000 0.000000
# 5 0.000000 0.000000 0.000000 0.000000 0.034783 0.000000
# 6 0.000000 0.000000 0.000000 0.000000 0.000000 0.036585
#
#
# Mechanical properties :
#
#
# Convention : Reuss Voigt Hill
#
# Bulk Modulus (GPa) = 48.43989 61.33551 54.88770
# Shear Modulus (GPa) = 27.74650 30.71777 29.23214
#
# Velocity S-wave (km/s) = 3.76604 3.96256 3.86555
# Velocity P-wave (km/s) = 6.60845 7.23107 6.92676
#
# Compressibility (1/GPa) = 0.02064414
#
# Stress axis : x y z
#
# Youngs Moduli (GPa) = 135.84646 51.33237 77.87450
#
# Poissons Ratio (x) = 0.23977 0.16439
# Poissons Ratio (y) = 0.63454 0.21318
# Poissons Ratio (z) = 0.28677 0.14052
#
# Static dielectric constant tensor:
#      x y z
#    x 3.996700 0.000000 0.000000 
#    y 0.000000 3.699560 0.000000 
#    z 0.000000 0.000000 3.599930 
# 
# 
# High freq. dielectric constant tensor:
#      x y z
#    x 1.787840 0.000000 0.000000 
#    y 0.000000 1.722610 0.000000 
#    z 0.000000 0.000000 1.767430 
# 
# From -- ./inp_files/21403.got.cif
#   From: 2010.03.12/outbox.cif.g09.slc.cpg/sg40_11_cif.got.tgz:21403.got - 2010.04.14 01:38:03.
