data_PCOD8183627
_publ_section_title
;
Structure prediction by ZEFSAII (Michael W. Deem and Ramdas Pophale) SiO2 
 PCOD8183627
Probable space group: A M A 2
;
_chemical_formula_sum "Si O2"
_cell_formula_units_Z 60
_cell_length_a 33.890614
_cell_length_b 5.007688
_cell_length_c 17.864147
_cell_angle_alpha 90.000000
_cell_angle_beta 90.000000
_cell_angle_gamma 90.000000
_cell_volume 3031.789074
_symmetry_space_group_name_H-M "A M A 2"
_symmetry_group_IT_number 40
_symmetry_cell_setting 'orthorhombic'
loop_
_space_group_symop_operation_xyz
x,y,z
-x,-y,z
1/2-x,y,z
1/2+x,-y,z
x,1/2+y,1/2+z
-x,1/2-y,1/2+z
1/2-x,1/2+y,1/2+z
1/2+x,1/2-y,1/2+z
loop_
_atom_site_type_symbol
_atom_site_label
_atom_site_fract_x
_atom_site_fract_y
_atom_site_fract_z
Si Si1 0.638120 0.676190 0.716160
Si Si2 0.295065 0.296817 0.833907
Si Si3 0.000000 0.500000 0.494911
Si Si4 0.926911 0.202531 0.509601
Si Si5 0.395100 0.830966 0.787170
Si Si6 0.376730 0.787026 0.047523
Si Si7 0.040337 0.115894 0.382264
Si Si8 0.670449 0.195730 0.906015
O O1 0.679093 0.740288 0.758568
O O2 0.623113 0.377893 0.728966
O O3 0.644079 0.700386 0.627848
O O4 0.605101 0.881266 0.747445
O O5 0.250000 0.263425 0.809128
O O6 0.301297 0.583699 0.870402
O O7 0.306483 0.082591 0.897682
O O8 0.029627 0.698372 0.541332
O O9 0.031091 0.332732 0.446013
O O10 0.894928 0.433499 0.519996
O O11 0.910540 0.940868 0.551934
O O12 0.933293 0.118974 0.421692
O O13 0.439112 0.750382 0.810865
O O14 0.370985 0.825956 0.863851
O O15 0.340720 0.724859 0.990852
O O16 0.000000 0.000000 0.349202
#
# Coordination Sequence:
#
# PCOD8183627 Si02
#       8
#     8   8   4   8   8   8   8   8
#     4  10  24  38  61  85 120 160 195 232 298 371
#     4  10  21  40  61  90 122 155 191 243 298 356
#     4  10  20  36  54  96 108 154 204 258 322 340
#     4  11  21  34  60  85 119 150 199 266 295 354
#     4  10  20  38  58  85 115 151 202 247 287 349
#     4  12  22  38  60  90 119 156 202 248 297 352
#     4  10  21  33  61  90 115 152 206 261 306 343
#     4  10  20  34  64  90 112 150 201 248 285 344
#
# _framework density 19.790292999999998
#
# number of rings (size 3 to 8) (size 9 to 14) (size 15 to 20)
#    0.000    1.600    2.667    2.000    7.467    0.000 
#    0.000    1.333    8.800    0.000    0.000    0.000 
#    0.000    0.000    0.000    0.000    0.000    0.000 
#
# Total GULP energy -371903.267894 kJ/mol
# GULP energy per Si atom -12396.775596 kJ/mol
# Density = 1.974525 g / cm^3
# Si number density = 19.790293 Si / 1000 Ang^3
#
#
#
# Elastic Constant Matrix: (Units=GPa)
#
#
# Indices 1 2 3 4 5 6 
#
# 1 91.9647 21.3303 40.0664 0.0000 0.0000 0.0000
# 2 21.3303 88.2860 13.0839 0.0000 0.0000 0.0000
# 3 40.0664 13.0839 105.3993 0.0000 0.0000 0.0000
# 4 0.0000 0.0000 0.0000 15.3446 0.0000 0.0000
# 5 0.0000 0.0000 0.0000 0.0000 16.2558 0.0000
# 6 0.0000 0.0000 0.0000 0.0000 0.0000 26.8531
#
#
#
# Elastic Compliance Matrix: (Units=1/GPa)
#
#
# Indices 1 2 3 4 5 6 
#
# 1 0.013578 -0.002563 -0.004844 0.000000 0.000000 0.000000
# 2 -0.002563 0.012023 -0.000518 0.000000 0.000000 0.000000
# 3 -0.004844 -0.000518 0.011393 0.000000 0.000000 0.000000
# 4 0.000000 0.000000 0.000000 0.065170 0.000000 0.000000
# 5 0.000000 0.000000 0.000000 0.000000 0.061517 0.000000
# 6 0.000000 0.000000 0.000000 0.000000 0.000000 0.037240
#
#
# Mechanical properties :
#
#
# Convention : Reuss Voigt Hill
#
# Bulk Modulus (GPa) = 47.29182 48.29013 47.79097
# Shear Modulus (GPa) = 22.33961 25.76867 24.05414
#
# Velocity S-wave (km/s) = 3.36343 3.61236 3.49011
# Velocity P-wave (km/s) = 6.24755 6.46937 6.35943
#
# Compressibility (1/GPa) = 0.02114531
#
# Stress axis : x y z
#
# Youngs Moduli (GPa) = 73.64679 83.17525 87.77107
#
# Poissons Ratio (x) = 0.21316 0.42512
# Poissons Ratio (y) = 0.18874 0.04549
# Poissons Ratio (z) = 0.35671 0.04311
#
# Static dielectric constant tensor:
#      x y z
#    x 3.483670 0.000000 0.000000 
#    y 0.000000 3.986170 0.000000 
#    z 0.000000 0.000000 3.245680 
# 
# 
# High freq. dielectric constant tensor:
#      x y z
#    x 1.756170 0.000000 0.000000 
#    y 0.000000 1.798350 0.000000 
#    z 0.000000 0.000000 1.730020 
# 
# From -- ./inp_files/21647.got.cif
#   From: 2010.03.12/outbox.cif.g09.slc.cpg/sg40_11_cif.got.tgz:21647.got - 2010.04.14 01:38:03.
