data_PCOD8183209
_publ_section_title
;
Structure prediction by ZEFSAII (Michael W. Deem and Ramdas Pophale) SiO2 
 PCOD8183209
Probable space group: A M A 2
;
_chemical_formula_sum "Si O2"
_cell_formula_units_Z 48
_cell_length_a 8.706994
_cell_length_b 9.515582
_cell_length_c 31.070798
_cell_angle_alpha 90.000000
_cell_angle_beta 90.000000
_cell_angle_gamma 90.000000
_cell_volume 2574.281341
_symmetry_space_group_name_H-M "A M A 2"
_symmetry_group_IT_number 40
_symmetry_cell_setting 'orthorhombic'
loop_
_space_group_symop_operation_xyz
x,y,z
-x,-y,z
1/2-x,y,z
1/2+x,-y,z
x,1/2+y,1/2+z
-x,1/2-y,1/2+z
1/2-x,1/2+y,1/2+z
1/2+x,1/2-y,1/2+z
loop_
_atom_site_type_symbol
_atom_site_label
_atom_site_fract_x
_atom_site_fract_y
_atom_site_fract_z
Si Si1 0.068555 0.150181 0.109370
Si Si2 0.573180 0.351455 0.944970
Si Si3 0.569019 0.345077 0.037917
Si Si4 0.931146 0.649872 0.699630
Si Si5 0.568133 0.344638 0.851441
Si Si6 0.430651 0.153647 0.778348
O O1 0.250000 0.138559 0.112913
O O2 0.022222 0.256926 0.072579
O O3 0.002149 0.203397 0.154840
O O4 0.000000 0.000000 0.097150
O O5 0.500000 0.500000 0.950493
O O6 0.750000 0.382475 0.940415
O O7 0.521065 0.283949 0.899302
O O8 0.539672 0.271986 0.990402
O O9 0.500000 0.500000 0.039454
O O10 0.750000 0.348925 0.048583
O O11 0.750000 0.632788 0.694330
O O12 0.976563 0.763172 0.735349
O O13 0.000000 0.500000 0.713499
O O14 0.500000 0.500000 0.843913
O O15 0.750000 0.352602 0.844434
O O16 0.497464 0.234122 0.819036
O O17 0.250000 0.142181 0.783950
O O18 0.500000 0.000000 0.775119
#
# Coordination Sequence:
#
# PCOD8183209 Si02
#       6
#     8   8   8   8   8   8
#     4  11  22  37  57  81 109 142 180 222 269 318
#     4   8  16  30  51  78 107 140 178 221 263 309
#     4  10  19  34  55  81 112 144 181 222 267 317
#     4  10  21  38  59  81 105 137 179 222 266 319
#     4  10  19  34  57  83 110 142 182 223 265 315
#     4  11  24  39  56  80 110 143 178 220 271 322
#
# _framework density 18.645980999999999
#
# number of rings (size 3 to 8) (size 9 to 14) (size 15 to 20)
#    0.000    2.000    0.000    5.000    0.000    6.000 
#    0.000    2.500    0.000    0.000    0.000    0.000 
#    0.000    0.000    0.000    0.000    0.000    0.000 
#
# Total GULP energy -297411.830585 kJ/mol
# GULP energy per Si atom -12392.159608 kJ/mol
# Density = 1.860354 g / cm^3
# Si number density = 18.645981 Si / 1000 Ang^3
#
#
#
# Elastic Constant Matrix: (Units=GPa)
#
#
# Indices 1 2 3 4 5 6 
#
# 1 87.0676 45.6598 67.1433 0.0000 0.0000 0.0000
# 2 45.6598 102.8298 91.9638 0.0000 0.0000 0.0000
# 3 67.1433 91.9638 169.7139 0.0000 0.0000 0.0000
# 4 0.0000 0.0000 0.0000 36.4938 0.0000 0.0000
# 5 0.0000 0.0000 0.0000 0.0000 26.4908 0.0000
# 6 0.0000 0.0000 0.0000 0.0000 0.0000 32.3583
#
#
#
# Elastic Compliance Matrix: (Units=1/GPa)
#
#
# Indices 1 2 3 4 5 6 
#
# 1 0.016984 -0.002973 -0.005108 0.000000 0.000000 0.000000
# 2 -0.002973 0.019389 -0.009331 0.000000 0.000000 0.000000
# 3 -0.005108 -0.009331 0.012969 0.000000 0.000000 0.000000
# 4 0.000000 0.000000 0.000000 0.027402 0.000000 0.000000
# 5 0.000000 0.000000 0.000000 0.000000 0.037749 0.000000
# 6 0.000000 0.000000 0.000000 0.000000 0.000000 0.030904
#
#
# Mechanical properties :
#
#
# Convention : Reuss Voigt Hill
#
# Bulk Modulus (GPa) = 68.87504 85.46054 77.16779
# Shear Modulus (GPa) = 27.01829 29.39156 28.20492
#
# Velocity S-wave (km/s) = 3.81072 3.97457 3.89351
# Velocity P-wave (km/s) = 7.50870 8.18508 7.85418
#
# Compressibility (1/GPa) = 0.01451905
#
# Stress axis : x y z
#
# Youngs Moduli (GPa) = 58.88023 51.57459 77.10562
#
# Poissons Ratio (x) = 0.15332 0.39388
# Poissons Ratio (y) = 0.17504 0.71944
# Poissons Ratio (z) = 0.30078 0.48122
#
# Static dielectric constant tensor:
#      x y z
#    x 3.606020 0.000000 0.000000 
#    y 0.000000 3.159800 0.000000 
#    z 0.000000 0.000000 4.062850 
# 
# 
# High freq. dielectric constant tensor:
#      x y z
#    x 1.742020 0.000000 0.000000 
#    y 0.000000 1.693260 0.000000 
#    z 0.000000 0.000000 1.751060 
# 
# From -- ./inp_files/26128.got.cif
#   From: 2010.03.12/outbox.cif.g09.slc.cpg/sg40_14_cif.got.tgz:26128.got - 2010.04.14 01:38:03.
