data_PCOD8183738
_publ_section_title
;
Structure prediction by ZEFSAII (Michael W. Deem and Ramdas Pophale) SiO2 
 PCOD8183738
Probable space group: A M A 2
;
_chemical_formula_sum "Si O2"
_cell_formula_units_Z 48
_cell_length_a 8.927447
_cell_length_b 9.625930
_cell_length_c 30.929679
_cell_angle_alpha 90.000000
_cell_angle_beta 90.000000
_cell_angle_gamma 90.000000
_cell_volume 2657.941343
_symmetry_space_group_name_H-M "A M A 2"
_symmetry_group_IT_number 40
_symmetry_cell_setting 'orthorhombic'
loop_
_space_group_symop_operation_xyz
x,y,z
-x,-y,z
1/2-x,y,z
1/2+x,-y,z
x,1/2+y,1/2+z
-x,1/2-y,1/2+z
1/2-x,1/2+y,1/2+z
1/2+x,1/2-y,1/2+z
loop_
_atom_site_type_symbol
_atom_site_label
_atom_site_fract_x
_atom_site_fract_y
_atom_site_fract_z
Si Si1 0.071273 0.651239 0.478600
Si Si2 0.073138 0.146576 0.545259
Si Si3 0.926103 0.648734 0.715231
Si Si4 0.924642 0.858431 0.644596
Si Si5 0.926062 0.149732 0.401862
Si Si6 0.923629 0.145788 0.308198
O O1 0.250000 0.639357 0.482509
O O2 0.018831 0.738608 0.436752
O O3 0.000000 0.500000 0.474956
O O4 0.004998 0.728078 0.520250
O O5 0.250000 0.140328 0.535529
O O6 0.038394 0.179637 0.595223
O O7 0.000000 0.000000 0.531295
O O8 0.750000 0.628453 0.709577
O O9 0.991312 0.742133 0.676590
O O10 0.962661 0.721848 0.762470
O O11 0.000000 0.500000 0.711128
O O12 0.750000 0.876904 0.651922
O O13 0.000000 0.000000 0.658751
O O14 0.750000 0.126198 0.406351
O O15 0.970582 0.214663 0.354284
O O16 0.000000 0.000000 0.410263
O O17 0.750000 0.115314 0.310134
O O18 0.000000 0.000000 0.305588
#
# Coordination Sequence:
#
# PCOD8183738 Si02
#       6
#     8   8   8   8   8   8
#     4  11  23  37  52  73 102 133 165 204 252 300
#     4  10  20  36  56  76  99 129 168 208 247 295
#     4   9  17  30  49  73 100 129 162 200 242 287
#     4   9  19  34  51  73 100 130 163 200 241 287
#     4   9  18  32  52  75  97 126 164 203 243 289
#     4   8  14  27  47  70  96 125 159 199 239 282
#
# _framework density 18.059090999999999
#
# number of rings (size 3 to 8) (size 9 to 14) (size 15 to 20)
#    0.000    2.667    0.000    1.500    0.000    4.667 
#    0.000    2.500    0.000    0.000    0.000    0.000 
#    0.000    0.000    0.000    0.000    0.000    0.000 
#
# Total GULP energy -297345.871996 kJ/mol
# GULP energy per Si atom -12389.411333 kJ/mol
# Density = 1.801799 g / cm^3
# Si number density = 18.059091 Si / 1000 Ang^3
#
#
#
# Elastic Constant Matrix: (Units=GPa)
#
#
# Indices 1 2 3 4 5 6 
#
# 1 44.4054 40.8640 43.2256 0.0000 0.0000 0.0000
# 2 40.8640 122.5081 89.9832 0.0000 0.0000 0.0000
# 3 43.2256 89.9832 148.3292 0.0000 0.0000 0.0000
# 4 0.0000 0.0000 0.0000 24.5230 0.0000 0.0000
# 5 0.0000 0.0000 0.0000 0.0000 22.7576 0.0000
# 6 0.0000 0.0000 0.0000 0.0000 0.0000 29.4697
#
#
#
# Elastic Compliance Matrix: (Units=1/GPa)
#
#
# Indices 1 2 3 4 5 6 
#
# 1 0.034901 -0.007524 -0.005607 0.000000 0.000000 0.000000
# 2 -0.007524 0.016345 -0.007723 0.000000 0.000000 0.000000
# 3 -0.005607 -0.007723 0.013061 0.000000 0.000000 0.000000
# 4 0.000000 0.000000 0.000000 0.040778 0.000000 0.000000
# 5 0.000000 0.000000 0.000000 0.000000 0.043941 0.000000
# 6 0.000000 0.000000 0.000000 0.000000 0.000000 0.033933
#
#
# Mechanical properties :
#
#
# Convention : Reuss Voigt Hill
#
# Bulk Modulus (GPa) = 44.24735 73.70983 58.97859
# Shear Modulus (GPa) = 21.53323 24.76138 23.14731
#
# Velocity S-wave (km/s) = 3.45683 3.70690 3.58404
# Velocity P-wave (km/s) = 6.36298 7.69584 7.06093
#
# Compressibility (1/GPa) = 0.02260022
#
# Stress axis : x y z
#
# Youngs Moduli (GPa) = 28.65254 61.18081 76.56481
#
# Poissons Ratio (x) = 0.46029 0.42927
# Poissons Ratio (y) = 0.21557 0.59132
# Poissons Ratio (z) = 0.16064 0.47251
#
# Static dielectric constant tensor:
#      x y z
#    x 3.317640 0.000000 0.000000 
#    y 0.000000 3.154220 0.000000 
#    z 0.000000 0.000000 4.131250 
# 
# 
# High freq. dielectric constant tensor:
#      x y z
#    x 1.700140 0.000000 0.000000 
#    y 0.000000 1.667870 0.000000 
#    z 0.000000 0.000000 1.726150 
# 
# From -- ./inp_files/26120.got.cif
#   From: 2010.03.12/outbox.cif.g09.slc.cpg/sg40_14_cif.got.tgz:26120.got - 2010.04.14 01:38:03.
