data_PCOD8183417
_publ_section_title
;
Structure prediction by ZEFSAII (Michael W. Deem and Ramdas Pophale) SiO2 
 PCOD8183417
Probable space group: A M A 2
;
_chemical_formula_sum "Si O2"
_cell_formula_units_Z 64
_cell_length_a 24.441509
_cell_length_b 25.802417
_cell_length_c 5.142980
_cell_angle_alpha 90.000000
_cell_angle_beta 90.000000
_cell_angle_gamma 90.000000
_cell_volume 3243.420375
_symmetry_space_group_name_H-M "A M A 2"
_symmetry_group_IT_number 40
_symmetry_cell_setting 'orthorhombic'
loop_
_space_group_symop_operation_xyz
x,y,z
-x,-y,z
1/2-x,y,z
1/2+x,-y,z
x,1/2+y,1/2+z
-x,1/2-y,1/2+z
1/2-x,1/2+y,1/2+z
1/2+x,1/2-y,1/2+z
loop_
_atom_site_type_symbol
_atom_site_label
_atom_site_fract_x
_atom_site_fract_y
_atom_site_fract_z
Si Si1 0.688132 0.580156 0.445500
Si Si2 0.920812 0.866716 0.447009
Si Si3 0.909520 0.647982 0.330689
Si Si4 0.309046 0.022725 0.639130
Si Si5 0.378941 0.584293 0.465601
Si Si6 0.962624 0.253384 0.910419
Si Si7 0.890612 0.010661 0.250302
Si Si8 0.961028 0.600255 0.831874
O O1 0.750000 0.596783 0.529358
O O2 0.654305 0.630716 0.346183
O O3 0.691346 0.537153 0.223005
O O4 0.654696 0.554460 0.681686
O O5 0.907204 0.883532 0.737998
O O6 0.929777 0.805636 0.461524
O O7 0.974153 0.897985 0.354222
O O8 0.875697 0.879706 0.224114
O O9 0.916553 0.709056 0.379764
O O10 0.945075 0.616467 0.539951
O O11 0.933029 0.637244 0.044054
O O12 0.250000 0.035509 0.512324
O O13 0.318713 0.064241 0.873299
O O14 0.360406 0.029506 0.446065
O O15 0.409897 0.528456 0.520748
O O16 0.998791 0.260108 0.652894
O O17 0.942003 0.040590 0.374456
#
# Coordination Sequence:
#
# PCOD8183417 Si02
#       8
#     8   8   8   8   8   8   8   8
#     4   9  19  33  59  90 120 152 189 246 311 363
#     4  12  23  40  58  84 123 164 201 246 295 356
#     4  11  20  38  58  91 120 150 192 256 294 362
#     4  10  19  38  63  85 116 156 203 249 293 355
#     4  11  24  40  55  86 122 155 204 239 295 356
#     4  12  22  39  65  88 113 159 212 251 301 355
#     4  10  20  38  56  89 121 157 201 238 293 370
#     4  11  22  36  60  84 124 159 192 236 301 359
#
# _framework density 19.732256
#
# number of rings (size 3 to 8) (size 9 to 14) (size 15 to 20)
#    0.000    1.250    5.000    1.875    0.000    1.000 
#    2.250    0.000    0.000    1.500    0.000    0.000 
#    0.000    0.000    0.000    0.000    0.000    0.000 
#
# Total GULP energy -396542.221446 kJ/mol
# GULP energy per Si atom -12391.944420 kJ/mol
# Density = 1.968734 g / cm^3
# Si number density = 19.732256 Si / 1000 Ang^3
#
#
#
# Elastic Constant Matrix: (Units=GPa)
#
#
# Indices 1 2 3 4 5 6 
#
# 1 43.7355 39.1590 15.3393 0.0000 0.0000 0.0000
# 2 39.1590 121.8376 28.9773 0.0000 0.0000 0.0000
# 3 15.3393 28.9773 85.2190 0.0000 0.0000 0.0000
# 4 0.0000 0.0000 0.0000 32.9853 0.0000 0.0000
# 5 0.0000 0.0000 0.0000 0.0000 25.9140 0.0000
# 6 0.0000 0.0000 0.0000 0.0000 0.0000 18.0446
#
#
#
# Elastic Compliance Matrix: (Units=1/GPa)
#
#
# Indices 1 2 3 4 5 6 
#
# 1 0.032588 -0.009878 -0.002507 0.000000 0.000000 0.000000
# 2 -0.009878 0.011924 -0.002277 0.000000 0.000000 0.000000
# 3 -0.002507 -0.002277 0.012960 0.000000 0.000000 0.000000
# 4 0.000000 0.000000 0.000000 0.030317 0.000000 0.000000
# 5 0.000000 0.000000 0.000000 0.000000 0.038589 0.000000
# 6 0.000000 0.000000 0.000000 0.000000 0.000000 0.055418
#
#
# Mechanical properties :
#
#
# Convention : Reuss Voigt Hill
#
# Bulk Modulus (GPa) = 35.52498 46.41593 40.97046
# Shear Modulus (GPa) = 22.67560 26.54320 24.60940
#
# Velocity S-wave (km/s) = 3.39361 3.67163 3.53536
# Velocity P-wave (km/s) = 5.77910 6.44581 6.12154
#
# Compressibility (1/GPa) = 0.02814921
#
# Stress axis : x y z
#
# Youngs Moduli (GPa) = 30.68607 83.86596 77.16141
#
# Poissons Ratio (x) = 0.82840 0.19345
# Poissons Ratio (y) = 0.30311 0.17566
# Poissons Ratio (z) = 0.07693 0.19092
#
# Static dielectric constant tensor:
#      x y z
#    x 3.580290 0.000000 0.000000 
#    y 0.000000 3.595650 0.000000 
#    z 0.000000 0.000000 3.765660 
# 
# 
# High freq. dielectric constant tensor:
#      x y z
#    x 1.741880 0.000000 0.000000 
#    y 0.000000 1.756470 0.000000 
#    z 0.000000 0.000000 1.783580 
# 
# From -- ./inp_files/2905.got.cif
#   From: 2010.03.12/outbox.cif.g09.slc.cpg/sg40_2_cif.got.tgz:2905.got - 2010.04.14 01:38:03.
