data_PCOD8183164
_publ_section_title
;
Structure prediction by ZEFSAII (Michael W. Deem and Ramdas Pophale) SiO2 
 PCOD8183164
Probable space group: A M A 2
;
_chemical_formula_sum "Si O2"
_cell_formula_units_Z 56
_cell_length_a 13.753788
_cell_length_b 39.675455
_cell_length_c 5.062520
_cell_angle_alpha 90.000000
_cell_angle_beta 90.000000
_cell_angle_gamma 90.000000
_cell_volume 2762.555385
_symmetry_space_group_name_H-M "A M A 2"
_symmetry_group_IT_number 40
_symmetry_cell_setting 'orthorhombic'
loop_
_space_group_symop_operation_xyz
x,y,z
-x,-y,z
1/2-x,y,z
1/2+x,-y,z
x,1/2+y,1/2+z
-x,1/2-y,1/2+z
1/2-x,1/2+y,1/2+z
1/2+x,1/2-y,1/2+z
loop_
_atom_site_type_symbol
_atom_site_label
_atom_site_fract_x
_atom_site_fract_y
_atom_site_fract_z
Si Si1 0.142383 0.694152 0.308010
Si Si2 0.862245 0.002348 0.897841
Si Si3 0.444861 0.759240 0.414209
Si Si4 0.633843 0.426410 0.389929
Si Si5 0.473985 0.674609 0.808343
Si Si6 0.025232 0.598689 0.887866
Si Si7 0.135870 0.955672 0.409873
O O1 0.250000 0.679654 0.352652
O O2 0.146195 0.735128 0.344712
O O3 0.068732 0.677021 0.513817
O O4 0.110366 0.684921 0.012751
O O5 0.750000 0.999078 0.835953
O O6 0.904928 0.027199 0.676247
O O7 0.905912 0.964891 0.879673
O O8 0.884483 0.017101 0.183576
O O9 0.468363 0.754779 0.724027
O O10 0.434794 0.799244 0.346805
O O11 0.750000 0.424029 0.355385
O O12 0.604998 0.410966 0.670373
O O13 0.578918 0.405453 0.166250
O O14 0.510784 0.636969 0.858081
O O15 0.926233 0.577644 0.858994
O O16 0.250000 0.945679 0.422160
#
# Coordination Sequence:
#
# PCOD8183164 Si02
#       7
#     8   8   8   8   8   8   8
#     4  10  19  33  56  80 101 134 178 216 254 305
#     4   9  19  37  58  78 105 140 181 238 285 313
#     4   8  16  32  51  70  96 128 163 204 242 284
#     4  11  24  39  55  81 114 145 184 228 273 333
#     4  10  21  35  50  75 111 141 168 209 262 317
#     4  12  24  36  56  82 112 153 183 214 278 338
#     4  10  21  38  58  80 105 137 187 239 279 325
#
# _framework density 20.271087000000001
#
# number of rings (size 3 to 8) (size 9 to 14) (size 15 to 20)
#    0.000    2.000    0.000    3.429    0.000    9.143 
#    0.000    0.714    0.000    0.000    0.000   10.000 
#    0.000    0.000    0.000    0.000    0.000    0.000 
#
# Total GULP energy -347070.994003 kJ/mol
# GULP energy per Si atom -12395.392643 kJ/mol
# Density = 2.022495 g / cm^3
# Si number density = 20.271087 Si / 1000 Ang^3
#
#
#
# Elastic Constant Matrix: (Units=GPa)
#
#
# Indices 1 2 3 4 5 6 
#
# 1 46.2664 19.0625 10.8093 0.0000 0.0000 0.0000
# 2 19.0625 139.0064 5.0695 0.0000 0.0000 0.0000
# 3 10.8093 5.0695 88.6014 0.0000 0.0000 0.0000
# 4 0.0000 0.0000 0.0000 -28.4488 0.0000 0.0000
# 5 0.0000 0.0000 0.0000 0.0000 17.8747 0.0000
# 6 0.0000 0.0000 0.0000 0.0000 0.0000 15.0978
#
#
#
# Elastic Compliance Matrix: (Units=1/GPa)
#
#
# Indices 1 2 3 4 5 6 
#
# 1 0.023532 -0.003129 -0.002692 0.000000 0.000000 0.000000
# 2 -0.003129 0.007625 -0.000055 0.000000 0.000000 0.000000
# 3 -0.002692 -0.000055 0.011618 0.000000 0.000000 0.000000
# 4 0.000000 0.000000 0.000000 -0.035151 0.000000 0.000000
# 5 0.000000 0.000000 0.000000 0.000000 0.055945 0.000000
# 6 0.000000 0.000000 0.000000 0.000000 0.000000 0.066235
#
#
# Mechanical properties :
#
#
# Convention : Reuss Voigt Hill
#
# Bulk Modulus (GPa) = 32.23263 38.19518 35.21390
# Shear Modulus (GPa) = 32.91732 16.83361 24.87547
#
# Velocity S-wave (km/s) = 4.03408 2.88484 3.50686
# Velocity P-wave (km/s) = 6.13463 5.47535 5.81434
#
# Compressibility (1/GPa) = 0.03102446
#
# Stress axis : x y z
#
# Youngs Moduli (GPa) = 42.49530 131.14794 86.07311
#
# Poissons Ratio (x) = 0.41034 0.23170
# Poissons Ratio (y) = 0.13296 0.00470
# Poissons Ratio (z) = 0.11439 0.00716
#
# Static dielectric constant tensor:
#      x y z
#    x 3.373990 0.000000 0.000000 
#    y 0.000000 4.126340 0.000000 
#    z 0.000000 0.000000 3.812280 
# 
# 
# High freq. dielectric constant tensor:
#      x y z
#    x 1.756470 0.000000 0.000000 
#    y 0.000000 1.794440 0.000000 
#    z 0.000000 0.000000 1.813200 
# 
# From -- ./inp_files/1450.got.cif
#   From: 2010.03.12/outbox.cif.g09.slc.cpg/sg40_1_cif.got.tgz:1450.got - 2010.04.14 01:38:03.
