data_PCOD8183067
_publ_section_title
;
Structure prediction by ZEFSAII (Michael W. Deem and Ramdas Pophale) SiO2 
 PCOD8183067
Probable space group: A M A 2
;
_chemical_formula_sum "Si O2"
_cell_formula_units_Z 64
_cell_length_a 8.788683
_cell_length_b 23.426871
_cell_length_c 18.857254
_cell_angle_alpha 90.000000
_cell_angle_beta 90.000000
_cell_angle_gamma 90.000000
_cell_volume 3882.545349
_symmetry_space_group_name_H-M "A M A 2"
_symmetry_group_IT_number 40
_symmetry_cell_setting 'orthorhombic'
loop_
_space_group_symop_operation_xyz
x,y,z
-x,-y,z
1/2-x,y,z
1/2+x,-y,z
x,1/2+y,1/2+z
-x,1/2-y,1/2+z
1/2-x,1/2+y,1/2+z
1/2+x,1/2-y,1/2+z
loop_
_atom_site_type_symbol
_atom_site_label
_atom_site_fract_x
_atom_site_fract_y
_atom_site_fract_z
Si Si1 0.572536 0.559503 0.534830
Si Si2 0.430317 0.938780 0.323465
Si Si3 0.928895 0.226561 0.531081
Si Si4 0.427908 0.158764 0.409497
Si Si5 0.428772 0.254104 0.673535
Si Si6 0.926081 0.170355 0.953968
Si Si7 0.924423 0.232121 0.815398
Si Si8 0.430838 0.884029 0.178076
O O1 0.500000 0.500000 0.512210
O O2 0.750000 0.549608 0.543286
O O3 0.535822 0.605022 0.472886
O O4 0.505308 0.582242 0.609620
O O5 0.250000 0.942782 0.323113
O O6 0.483728 0.897727 0.386394
O O7 0.493125 0.915164 0.248305
O O8 0.500000 0.000000 0.338440
O O9 0.750000 0.217485 0.525872
O O10 0.011528 0.177327 0.486247
O O11 0.984090 0.220408 0.611850
O O12 0.972079 0.289193 0.502791
O O13 0.250000 0.145829 0.414524
O O14 0.464372 0.208441 0.353385
O O15 0.250000 0.251270 0.659283
O O16 0.467605 0.223602 0.747890
O O17 0.490274 0.319125 0.676326
O O18 0.750000 0.185222 0.971672
O O19 0.958367 0.180824 0.870779
O O20 0.750000 0.231142 0.790296
O O21 0.250000 0.883132 0.177572
#
# Coordination Sequence:
#
# PCOD8183067 Si02
#       8
#     8   8   8   8   8   8   8   8
#     4  10  19  33  49  68  96 134 172 206 243 286
#     4  11  21  34  50  73 101 138 179 216 252 295
#     4  11  21  32  50  75 100 127 165 210 251 302
#     4  10  20  35  52  72  99 133 168 209 256 303
#     4  11  19  32  51  72 100 135 166 201 251 304
#     4   9  18  34  51  68  98 134 165 203 254 301
#     4   9  18  31  49  73  97 125 164 206 249 299
#     4   9  18  31  47  67  99 137 172 204 242 290
#
# _framework density 16.484031999999999
#
# number of rings (size 3 to 8) (size 9 to 14) (size 15 to 20)
#    0.000    2.000    2.500    3.375    0.000    2.500 
#    0.000    0.625    0.000    0.000    0.000    0.875 
#    0.000    2.000    0.000    0.000    0.000    0.000 
#
# Total GULP energy -396875.489126 kJ/mol
# GULP energy per Si atom -12402.359035 kJ/mol
# Density = 1.644651 g / cm^3
# Si number density = 16.484032 Si / 1000 Ang^3
#
#
#
# Elastic Constant Matrix: (Units=GPa)
#
#
# Indices 1 2 3 4 5 6 
#
# 1 58.0784 26.6667 31.8004 0.0000 0.0000 0.0000
# 2 26.6667 99.2954 56.9658 0.0000 0.0000 0.0000
# 3 31.8004 56.9658 105.5613 0.0000 0.0000 0.0000
# 4 0.0000 0.0000 0.0000 21.2772 0.0000 0.0000
# 5 0.0000 0.0000 0.0000 0.0000 26.7270 0.0000
# 6 0.0000 0.0000 0.0000 0.0000 0.0000 24.1660
#
#
#
# Elastic Compliance Matrix: (Units=1/GPa)
#
#
# Indices 1 2 3 4 5 6 
#
# 1 0.021195 -0.002939 -0.004799 0.000000 0.000000 0.000000
# 2 -0.002939 0.014995 -0.007206 0.000000 0.000000 0.000000
# 3 -0.004799 -0.007206 0.014808 0.000000 0.000000 0.000000
# 4 0.000000 0.000000 0.000000 0.046999 0.000000 0.000000
# 5 0.000000 0.000000 0.000000 0.000000 0.037415 0.000000
# 6 0.000000 0.000000 0.000000 0.000000 0.000000 0.041380
#
#
# Mechanical properties :
#
#
# Convention : Reuss Voigt Hill
#
# Bulk Modulus (GPa) = 47.37375 54.86676 51.12026
# Shear Modulus (GPa) = 23.39541 24.26753 23.83147
#
# Velocity S-wave (km/s) = 3.77142 3.84107 3.80640
# Velocity P-wave (km/s) = 6.91132 7.28209 7.09912
#
# Compressibility (1/GPa) = 0.02110873
#
# Stress axis : x y z
#
# Youngs Moduli (GPa) = 47.18049 66.69093 67.53200
#
# Poissons Ratio (x) = 0.19600 0.32409
# Poissons Ratio (y) = 0.13866 0.48666
# Poissons Ratio (z) = 0.22642 0.48060
#
# Static dielectric constant tensor:
#      x y z
#    x 2.995330 0.000000 0.000000 
#    y 0.000000 2.970780 0.000000 
#    z 0.000000 0.000000 3.169090 
# 
# 
# High freq. dielectric constant tensor:
#      x y z
#    x 1.631930 0.000000 0.000000 
#    y 0.000000 1.608570 0.000000 
#    z 0.000000 0.000000 1.631110 
# 
# From -- ./inp_files/19592.got.cif
#   From: 2010.03.12/outbox.cif.g09.slc.cpg/sg40_10_cif.got.tgz:19592.got - 2010.04.14 01:38:03.
