data_PCOD8183511
_publ_section_title
;
Structure prediction by ZEFSAII (Michael W. Deem and Ramdas Pophale) SiO2 
 PCOD8183511
Probable space group: A M A 2
;
_chemical_formula_sum "Si O2"
_cell_formula_units_Z 56
_cell_length_a 9.072243
_cell_length_b 20.714289
_cell_length_c 14.481612
_cell_angle_alpha 90.000000
_cell_angle_beta 90.000000
_cell_angle_gamma 90.000000
_cell_volume 2721.457853
_symmetry_space_group_name_H-M "A M A 2"
_symmetry_group_IT_number 40
_symmetry_cell_setting 'orthorhombic'
loop_
_space_group_symop_operation_xyz
x,y,z
-x,-y,z
1/2-x,y,z
1/2+x,-y,z
x,1/2+y,1/2+z
-x,1/2-y,1/2+z
1/2-x,1/2+y,1/2+z
1/2+x,1/2-y,1/2+z
loop_
_atom_site_type_symbol
_atom_site_label
_atom_site_fract_x
_atom_site_fract_y
_atom_site_fract_z
Si Si1 0.589638 0.057018 0.659340
Si Si2 0.925494 0.689626 0.777545
Si Si3 0.409348 0.441711 0.369054
Si Si4 0.916969 0.271488 0.590843
Si Si5 0.915273 0.314395 0.394087
Si Si6 0.077304 0.569559 0.870937
Si Si7 0.580845 0.351613 0.053969
O O1 0.750000 0.065890 0.610826
O O2 0.616418 0.037415 0.764198
O O3 0.488848 0.120484 0.648565
O O4 0.500000 0.000000 0.608398
O O5 0.750000 0.679769 0.776532
O O6 0.972447 0.746806 0.848784
O O7 0.980627 0.706780 0.674790
O O8 0.002759 0.622235 0.803790
O O9 0.500000 0.500000 0.418541
O O10 0.250000 0.436065 0.419007
O O11 0.484197 0.372643 0.362215
O O12 0.750000 0.258054 0.626172
O O13 0.915725 0.320987 0.505574
O O14 0.985986 0.211422 0.535370
O O15 0.750000 0.325400 0.356907
O O16 0.250000 0.563206 0.845516
O O17 0.000000 0.500000 0.859187
O O18 0.056694 0.595797 0.974316
O O19 0.750000 0.333016 0.069131
#
# Coordination Sequence:
#
# PCOD8183511 Si02
#       7
#     8   8   8   8   8   8   8
#     4  10  20  33  51  79 115 155 194 240 297 362
#     4  11  23  42  66  94 127 167 213 264 321 384
#     4  10  21  36  57  84 117 157 200 248 304 366
#     4  11  23  40  62  90 123 161 206 259 316 376
#     4  10  22  40  62  88 122 160 200 251 310 371
#     4  11  24  41  63  91 127 171 218 270 327 389
#     4  11  22  36  57  88 121 159 205 256 312 376
#
# _framework density 20.577207999999999
#
# number of rings (size 3 to 8) (size 9 to 14) (size 15 to 20)
#    0.000    1.429    1.429    3.857    0.000    9.143 
#    0.000    0.714    0.000    3.429    0.000    0.000 
#    0.000    0.000    0.000    0.000    0.000    0.000 
#
# Total GULP energy -346975.921741 kJ/mol
# GULP energy per Si atom -12391.997205 kJ/mol
# Density = 2.053037 g / cm^3
# Si number density = 20.577208 Si / 1000 Ang^3
#
#
#
# Elastic Constant Matrix: (Units=GPa)
#
#
# Indices 1 2 3 4 5 6 
#
# 1 137.2470 72.7869 33.1244 0.0000 0.0000 0.0000
# 2 72.7869 138.9082 24.8762 0.0000 0.0000 0.0000
# 3 33.1244 24.8762 69.0600 0.0000 0.0000 0.0000
# 4 0.0000 0.0000 0.0000 25.4428 0.0000 0.0000
# 5 0.0000 0.0000 0.0000 0.0000 -8.7142 0.0000
# 6 0.0000 0.0000 0.0000 0.0000 0.0000 37.6480
#
#
#
# Elastic Compliance Matrix: (Units=1/GPa)
#
#
# Indices 1 2 3 4 5 6 
#
# 1 0.010769 -0.005043 -0.003349 0.000000 0.000000 0.000000
# 2 -0.005043 0.010057 -0.001204 0.000000 0.000000 0.000000
# 3 -0.003349 -0.001204 0.016520 0.000000 0.000000 0.000000
# 4 0.000000 0.000000 0.000000 0.039304 0.000000 0.000000
# 5 0.000000 0.000000 0.000000 0.000000 -0.114756 0.000000
# 6 0.000000 0.000000 0.000000 0.000000 0.000000 0.026562
#
#
# Mechanical properties :
#
#
# Convention : Reuss Voigt Hill
#
# Bulk Modulus (GPa) = 55.08177 67.42115 61.25146
# Shear Modulus (GPa) = 364.99595 25.17052 195.08323
#
# Velocity S-wave (km/s) = 13.33281 3.50126 9.74737
# Velocity P-wave (km/s) = 16.24330 7.01293 12.51052
#
# Compressibility (1/GPa) = 0.01815483
#
# Stress axis : x y z
#
# Youngs Moduli (GPa) = 92.86019 99.43194 60.53288
#
# Poissons Ratio (x) = 0.50145 0.20270
# Poissons Ratio (y) = 0.46831 0.07287
# Poissons Ratio (z) = 0.31096 0.11969
#
# Static dielectric constant tensor:
#      x y z
#    x 4.150420 0.000000 0.000000 
#    y 0.000000 3.695320 0.000000 
#    z 0.000000 0.000000 3.439210 
# 
# 
# High freq. dielectric constant tensor:
#      x y z
#    x 1.824980 0.000000 0.000000 
#    y 0.000000 1.803570 0.000000 
#    z 0.000000 0.000000 1.778470 
# 
# From -- ./inp_files/15270.got.cif
#   From: 2010.03.12/outbox.cif.g09.slc.cpg/sg40_8_cif.got.tgz:15270.got - 2010.04.14 01:38:03.
