data_PCOD8183589
_publ_section_title
;
Structure prediction by ZEFSAII (Michael W. Deem and Ramdas Pophale) SiO2 
 PCOD8183589
Probable space group: A M A 2
;
_chemical_formula_sum "Si O2"
_cell_formula_units_Z 48
_cell_length_a 8.640670
_cell_length_b 9.513266
_cell_length_c 31.105577
_cell_angle_alpha 90.000000
_cell_angle_beta 90.000000
_cell_angle_gamma 90.000000
_cell_volume 2556.909290
_symmetry_space_group_name_H-M "A M A 2"
_symmetry_group_IT_number 40
_symmetry_cell_setting 'orthorhombic'
loop_
_space_group_symop_operation_xyz
x,y,z
-x,-y,z
1/2-x,y,z
1/2+x,-y,z
x,1/2+y,1/2+z
-x,1/2-y,1/2+z
1/2-x,1/2+y,1/2+z
1/2+x,1/2-y,1/2+z
loop_
_atom_site_type_symbol
_atom_site_label
_atom_site_fract_x
_atom_site_fract_y
_atom_site_fract_z
Si Si1 0.068404 0.652818 0.601840
Si Si2 0.566183 0.347190 0.934591
Si Si3 0.433559 0.155209 0.861344
Si Si4 0.431652 0.154223 0.195598
Si Si5 0.934491 0.150306 0.526026
Si Si6 0.068330 0.344963 0.781388
O O1 0.250000 0.636911 0.597736
O O2 0.027316 0.721197 0.648840
O O3 0.003887 0.749312 0.563825
O O4 0.000000 0.500000 0.596071
O O5 0.500000 0.500000 0.921743
O O6 0.750000 0.357065 0.934697
O O7 0.509405 0.228942 0.902209
O O8 0.505759 0.298489 0.981123
O O9 0.250000 0.149983 0.867141
O O10 0.484206 0.243373 0.819639
O O11 0.500000 0.000000 0.856519
O O12 0.250000 0.149091 0.203440
O O13 0.509200 0.229037 0.236934
O O14 0.500000 0.000000 0.194876
O O15 0.750000 0.145937 0.522265
O O16 0.000000 0.000000 0.538543
O O17 0.250000 0.361099 0.779427
O O18 0.000000 0.500000 0.788914
#
# Coordination Sequence:
#
# PCOD8183589 Si02
#       6
#     8   8   8   8   8   8
#     4   9  19  33  52  78 107 139 176 218 262 312
#     4  11  22  38  60  83 107 139 180 222 266 317
#     4  11  24  40  57  80 110 142 177 219 270 323
#     4   9  16  29  50  76 105 137 175 218 261 305
#     4  10  20  36  55  78 108 140 178 220 263 313
#     4  10  20  34  55  81 106 137 178 219 261 312
#
# _framework density 18.772665
#
# number of rings (size 3 to 8) (size 9 to 14) (size 15 to 20)
#    0.000    2.000    0.000    6.000    0.000    6.667 
#    0.000    2.500    0.000    4.000    0.000    0.000 
#    0.000    0.000    0.000    0.000    0.000    0.000 
#
# Total GULP energy -297500.492440 kJ/mol
# GULP energy per Si atom -12395.853852 kJ/mol
# Density = 1.872994 g / cm^3
# Si number density = 18.772665 Si / 1000 Ang^3
#
#
#
# Elastic Constant Matrix: (Units=GPa)
#
#
# Indices 1 2 3 4 5 6 
#
# 1 91.7279 43.9263 61.3792 0.0000 0.0000 0.0000
# 2 43.9263 101.0016 97.2025 0.0000 0.0000 0.0000
# 3 61.3792 97.2025 186.4542 0.0000 0.0000 0.0000
# 4 0.0000 0.0000 0.0000 47.6680 0.0000 0.0000
# 5 0.0000 0.0000 0.0000 0.0000 39.9879 0.0000
# 6 0.0000 0.0000 0.0000 0.0000 0.0000 22.8830
#
#
#
# Elastic Compliance Matrix: (Units=1/GPa)
#
#
# Indices 1 2 3 4 5 6 
#
# 1 0.014557 -0.003450 -0.002993 0.000000 0.000000 0.000000
# 2 -0.003450 0.020687 -0.009649 0.000000 0.000000 0.000000
# 3 -0.002993 -0.009649 0.011379 0.000000 0.000000 0.000000
# 4 0.000000 0.000000 0.000000 0.020978 0.000000 0.000000
# 5 0.000000 0.000000 0.000000 0.000000 0.025008 0.000000
# 6 0.000000 0.000000 0.000000 0.000000 0.000000 0.043701
#
#
# Mechanical properties :
#
#
# Convention : Reuss Voigt Hill
#
# Bulk Modulus (GPa) = 69.26087 87.13334 78.19710
# Shear Modulus (GPa) = 28.85040 33.88614 31.36827
#
# Velocity S-wave (km/s) = 3.92450 4.25323 4.09217
# Velocity P-wave (km/s) = 7.58355 8.40451 8.00456
#
# Compressibility (1/GPa) = 0.01443817
#
# Stress axis : x y z
#
# Youngs Moduli (GPa) = 68.69534 48.33863 87.88194
#
# Poissons Ratio (x) = 0.16677 0.26307
# Poissons Ratio (y) = 0.23701 0.84797
# Poissons Ratio (z) = 0.20564 0.46642
#
# Static dielectric constant tensor:
#      x y z
#    x 3.536180 0.000000 0.000000 
#    y 0.000000 3.173730 0.000000 
#    z 0.000000 0.000000 4.243010 
# 
# 
# High freq. dielectric constant tensor:
#      x y z
#    x 1.743420 0.000000 0.000000 
#    y 0.000000 1.698710 0.000000 
#    z 0.000000 0.000000 1.754890 
# 
# From -- ./inp_files/26157.got.cif
#   From: 2010.03.12/outbox.cif.g09.slc.cpg/sg40_14_cif.got.tgz:26157.got - 2010.04.14 01:38:03.
