data_PCOD8183351
_publ_section_title
;
Structure prediction by ZEFSAII (Michael W. Deem and Ramdas Pophale) SiO2 
 PCOD8183351
Probable space group: A M A 2
;
_chemical_formula_sum "Si O2"
_cell_formula_units_Z 48
_cell_length_a 17.954900
_cell_length_b 8.935029
_cell_length_c 15.676244
_cell_angle_alpha 90.000000
_cell_angle_beta 90.000000
_cell_angle_gamma 90.000000
_cell_volume 2514.901452
_symmetry_space_group_name_H-M "A M A 2"
_symmetry_group_IT_number 40
_symmetry_cell_setting 'orthorhombic'
loop_
_space_group_symop_operation_xyz
x,y,z
-x,-y,z
1/2-x,y,z
1/2+x,-y,z
x,1/2+y,1/2+z
-x,1/2-y,1/2+z
1/2-x,1/2+y,1/2+z
1/2+x,1/2-y,1/2+z
loop_
_atom_site_type_symbol
_atom_site_label
_atom_site_fract_x
_atom_site_fract_y
_atom_site_fract_z
Si Si1 0.666166 0.747423 0.817250
Si Si2 0.597085 0.872120 0.662191
Si Si3 0.164723 0.040717 0.219335
Si Si4 0.581329 0.498735 0.401559
Si Si5 0.664715 0.649261 0.551070
Si Si6 0.936970 0.171236 0.724590
O O1 0.750000 0.758128 0.853660
O O2 0.664731 0.833615 0.726443
O O3 0.645179 0.574081 0.796768
O O4 0.610113 0.828823 0.883540
O O5 0.615980 0.798594 0.570731
O O6 0.523311 0.796201 0.704787
O O7 0.590094 0.051825 0.652312
O O8 0.250000 0.095159 0.228523
O O9 0.109805 0.179249 0.224100
O O10 0.152121 0.967320 0.127343
O O11 0.500000 0.500000 0.446182
O O12 0.639625 0.579119 0.462375
O O13 0.573186 0.590800 0.314741
O O14 0.750000 0.696517 0.541195
#
# Coordination Sequence:
#
# PCOD8183351 Si02
#       6
#     8   8   8   8   8   8
#     4   9  17  34  56  78 112 149 187 235 282 339
#     4   9  18  35  55  83 114 149 194 235 282 342
#     4   9  20  35  57  87 111 150 198 235 289 349
#     4  11  21  37  55  87 115 149 196 238 294 352
#     4  10  22  37  57  85 115 153 194 234 296 351
#     4  10  19  36  58  86 114 148 198 240 285 347
#
# _framework density 19.086234000000001
#
# number of rings (size 3 to 8) (size 9 to 14) (size 15 to 20)
#    0.000    2.333    3.333    2.000    2.333    6.000 
#    0.000    1.667    0.000    0.000    0.000    0.000 
#    0.000    0.000    0.000    0.000    0.000    0.000 
#
# Total GULP energy -297439.213837 kJ/mol
# GULP energy per Si atom -12393.300577 kJ/mol
# Density = 1.904279 g / cm^3
# Si number density = 19.086234 Si / 1000 Ang^3
#
#
#
# Elastic Constant Matrix: (Units=GPa)
#
#
# Indices 1 2 3 4 5 6 
#
# 1 124.9559 77.9731 39.1562 0.0000 0.0000 0.0000
# 2 77.9731 119.7038 36.8639 0.0000 0.0000 0.0000
# 3 39.1562 36.8639 63.6054 0.0000 0.0000 0.0000
# 4 0.0000 0.0000 0.0000 26.1391 0.0000 0.0000
# 5 0.0000 0.0000 0.0000 0.0000 26.8981 0.0000
# 6 0.0000 0.0000 0.0000 0.0000 0.0000 25.6702
#
#
#
# Elastic Compliance Matrix: (Units=1/GPa)
#
#
# Indices 1 2 3 4 5 6 
#
# 1 0.014331 -0.008056 -0.004153 0.000000 0.000000 0.000000
# 2 -0.008056 0.014698 -0.003559 0.000000 0.000000 0.000000
# 3 -0.004153 -0.003559 0.020341 0.000000 0.000000 0.000000
# 4 0.000000 0.000000 0.000000 0.038257 0.000000 0.000000
# 5 0.000000 0.000000 0.000000 0.000000 0.037177 0.000000
# 6 0.000000 0.000000 0.000000 0.000000 0.000000 0.038956
#
#
# Mechanical properties :
#
#
# Convention : Reuss Voigt Hill
#
# Bulk Modulus (GPa) = 56.07412 68.47239 62.27326
# Shear Modulus (GPa) = 24.84574 26.02629 25.43602
#
# Velocity S-wave (km/s) = 3.61191 3.69672 3.65456
# Velocity P-wave (km/s) = 6.84380 7.36031 7.10675
#
# Compressibility (1/GPa) = 0.01783354
#
# Stress axis : x y z
#
# Youngs Moduli (GPa) = 69.77663 68.03841 49.16067
#
# Poissons Ratio (x) = 0.54813 0.20419
# Poissons Ratio (y) = 0.56213 0.17495
# Poissons Ratio (z) = 0.28982 0.24214
#
# Static dielectric constant tensor:
#      x y z
#    x 3.694860 0.000000 0.000000 
#    y 0.000000 3.543910 0.000000 
#    z 0.000000 0.000000 3.235300 
# 
# 
# High freq. dielectric constant tensor:
#      x y z
#    x 1.755610 0.000000 0.000000 
#    y 0.000000 1.734860 0.000000 
#    z 0.000000 0.000000 1.708000 
# 
# From -- ./inp_files/17609.got.cif
#   From: 2010.03.12/outbox.cif.g09.slc.cpg/sg40_9_cif.got.tgz:17609.got - 2010.04.14 01:38:03.
