data_PCOD8183686
_publ_section_title
;
Structure prediction by ZEFSAII (Michael W. Deem and Ramdas Pophale) SiO2 
 PCOD8183686
Probable space group: A M A 2
;
_chemical_formula_sum "Si O2"
_cell_formula_units_Z 48
_cell_length_a 10.457965
_cell_length_b 25.661398
_cell_length_c 9.132764
_cell_angle_alpha 90.000000
_cell_angle_beta 90.000000
_cell_angle_gamma 90.000000
_cell_volume 2450.923363
_symmetry_space_group_name_H-M "A M A 2"
_symmetry_group_IT_number 40
_symmetry_cell_setting 'orthorhombic'
loop_
_space_group_symop_operation_xyz
x,y,z
-x,-y,z
1/2-x,y,z
1/2+x,-y,z
x,1/2+y,1/2+z
-x,1/2-y,1/2+z
1/2-x,1/2+y,1/2+z
1/2+x,1/2-y,1/2+z
loop_
_atom_site_type_symbol
_atom_site_label
_atom_site_fract_x
_atom_site_fract_y
_atom_site_fract_z
Si Si1 0.615303 0.526103 0.369190
Si Si2 0.105241 0.647109 0.997668
Si Si3 0.396290 0.289641 0.165530
Si Si4 0.112137 0.030136 0.555626
Si Si5 0.106039 0.858568 0.938097
Si Si6 0.105959 0.167440 0.165802
O O1 0.500000 0.500000 0.462634
O O2 0.750000 0.516281 0.451713
O O3 0.619261 0.497152 0.213537
O O4 0.593635 0.587567 0.348275
O O5 0.250000 0.666691 0.036188
O O6 0.090697 0.641343 0.823892
O O7 0.079455 0.591086 0.071466
O O8 0.999191 0.687441 0.053076
O O9 0.250000 0.302702 0.115977
O O10 0.423028 0.311994 0.326664
O O11 0.419934 0.228628 0.176662
O O12 0.250000 0.023740 0.476067
O O13 0.000000 0.000000 0.465515
O O14 0.250000 0.852594 0.003829
O O15 0.000160 0.858860 0.064096
O O16 0.250000 0.157190 0.104861
#
# Coordination Sequence:
#
# PCOD8183686 Si02
#       6
#     8   8   8   8   8   8
#     4   9  17  30  51  79 105 131 171 221 270 320
#     4  10  21  37  58  84 113 146 185 230 278 328
#     4  10  20  35  57  83 111 147 190 232 272 321
#     4   9  17  31  53  79 104 132 171 221 273 321
#     4  10  21  37  57  82 113 148 185 228 278 330
#     4  10  22  38  54  79 116 152 186 226 275 330
#
# _framework density 19.584454999999998
#
# number of rings (size 3 to 8) (size 9 to 14) (size 15 to 20)
#    0.000    2.333    0.000    3.000    0.000    6.000 
#    0.000    0.833    0.000    4.000    0.000    0.000 
#    0.000    0.000    0.000    0.000    0.000    0.000 
#
# Total GULP energy -297363.329521 kJ/mol
# GULP energy per Si atom -12390.138730 kJ/mol
# Density = 1.953988 g / cm^3
# Si number density = 19.584455 Si / 1000 Ang^3
#
#
#
# Elastic Constant Matrix: (Units=GPa)
#
#
# Indices 1 2 3 4 5 6 
#
# 1 156.7223 47.1962 41.9534 0.0000 0.0000 0.0000
# 2 47.1962 90.7639 29.2665 0.0000 0.0000 0.0000
# 3 41.9534 29.2665 65.8443 0.0000 0.0000 0.0000
# 4 0.0000 0.0000 0.0000 10.3954 0.0000 0.0000
# 5 0.0000 0.0000 0.0000 0.0000 28.4828 0.0000
# 6 0.0000 0.0000 0.0000 0.0000 0.0000 31.7733
#
#
#
# Elastic Compliance Matrix: (Units=1/GPa)
#
#
# Indices 1 2 3 4 5 6 
#
# 1 0.008368 -0.003072 -0.003966 0.000000 0.000000 0.000000
# 2 -0.003072 0.013989 -0.004260 0.000000 0.000000 0.000000
# 3 -0.003966 -0.004260 0.019608 0.000000 0.000000 0.000000
# 4 0.000000 0.000000 0.000000 0.096197 0.000000 0.000000
# 5 0.000000 0.000000 0.000000 0.000000 0.035109 0.000000
# 6 0.000000 0.000000 0.000000 0.000000 0.000000 0.031473
#
#
# Mechanical properties :
#
#
# Convention : Reuss Voigt Hill
#
# Bulk Modulus (GPa) = 51.63307 61.12918 56.38112
# Shear Modulus (GPa) = 21.38621 27.12458 24.25540
#
# Velocity S-wave (km/s) = 3.30813 3.72560 3.52305
# Velocity P-wave (km/s) = 6.40415 7.05604 6.73798
#
# Compressibility (1/GPa) = 0.01936743
#
# Stress axis : x y z
#
# Youngs Moduli (GPa) = 119.50928 71.48561 50.99989
#
# Poissons Ratio (x) = 0.21962 0.20226
# Poissons Ratio (y) = 0.36716 0.21727
# Poissons Ratio (z) = 0.47397 0.30455
#
# Static dielectric constant tensor:
#      x y z
#    x 6.700510 0.000000 0.000000 
#    y 0.000000 3.635940 0.000000 
#    z 0.000000 0.000000 3.065650 
# 
# 
# High freq. dielectric constant tensor:
#      x y z
#    x 1.795660 0.000000 0.000000 
#    y 0.000000 1.771860 0.000000 
#    z 0.000000 0.000000 1.708080 
# 
# From -- ./inp_files/5426.got.cif
#   From: 2010.03.12/outbox.cif.g09.slc.cpg/sg40_3_cif.got.tgz:5426.got - 2010.04.14 01:38:03.
