data_PCOD8183253
_publ_section_title
;
Structure prediction by ZEFSAII (Michael W. Deem and Ramdas Pophale) SiO2 
 PCOD8183253
Probable space group: A M A 2
;
_chemical_formula_sum "Si O2"
_cell_formula_units_Z 56
_cell_length_a 16.537212
_cell_length_b 13.575476
_cell_length_c 12.636666
_cell_angle_alpha 90.000000
_cell_angle_beta 90.000000
_cell_angle_gamma 90.000000
_cell_volume 2836.938146
_symmetry_space_group_name_H-M "A M A 2"
_symmetry_group_IT_number 40
_symmetry_cell_setting 'orthorhombic'
loop_
_space_group_symop_operation_xyz
x,y,z
-x,-y,z
1/2-x,y,z
1/2+x,-y,z
x,1/2+y,1/2+z
-x,1/2-y,1/2+z
1/2-x,1/2+y,1/2+z
1/2+x,1/2-y,1/2+z
loop_
_atom_site_type_symbol
_atom_site_label
_atom_site_fract_x
_atom_site_fract_y
_atom_site_fract_z
Si Si1 0.343470 0.914868 0.346510
Si Si2 0.342646 0.195860 0.838033
Si Si3 0.572575 0.073664 0.124748
Si Si4 0.656681 0.948968 0.540325
Si Si5 0.077589 0.932590 0.712556
Si Si6 0.657577 0.011662 0.921159
Si Si7 0.952770 0.797340 0.636681
O O1 0.250000 0.925906 0.317186
O O2 0.361811 0.803260 0.388046
O O3 0.393241 0.940303 0.241782
O O4 0.369204 0.990689 0.436417
O O5 0.250000 0.191648 0.799704
O O6 0.396643 0.179076 0.736311
O O7 0.361585 0.106078 0.918031
O O8 0.542285 0.184166 0.104926
O O9 0.500000 0.000000 0.104593
O O10 0.640529 0.050455 0.038164
O O11 0.750000 0.912575 0.534104
O O12 0.592561 0.858652 0.543416
O O13 0.649116 0.022292 0.640934
O O14 0.105843 0.927262 0.834378
O O15 0.045373 0.828332 0.665645
O O16 0.000000 0.000000 0.700262
O O17 0.750000 0.032836 0.894355
#
# Coordination Sequence:
#
# PCOD8183253 Si02
#       7
#     8   8   8   8   8   8   8
#     4   9  20  39  60  87 121 160 204 242 297 366
#     4   9  17  33  61  88 114 156 201 243 292 361
#     4  11  25  41  58  86 123 166 196 244 305 374
#     4  10  19  35  63  91 117 151 200 254 293 348
#     4  10  19  34  57  93 119 147 194 256 305 346
#     4  11  21  37  63  90 118 153 203 256 297 353
#     4  10  21  38  60  85 117 160 202 245 301 362
#
# _framework density 19.739592999999999
#
# number of rings (size 3 to 8) (size 9 to 14) (size 15 to 20)
#    0.000    2.000    2.857    1.714    0.000    4.571 
#    5.143    0.000    0.000    1.714    0.000    0.000 
#    0.000    0.000    0.000    0.000    0.000    0.000 
#
# Total GULP energy -347109.582516 kJ/mol
# GULP energy per Si atom -12396.770804 kJ/mol
# Density = 1.969466 g / cm^3
# Si number density = 19.739593 Si / 1000 Ang^3
#
#
#
# Elastic Constant Matrix: (Units=GPa)
#
#
# Indices 1 2 3 4 5 6 
#
# 1 63.5206 45.0064 26.0393 0.0000 0.0000 0.0000
# 2 45.0064 132.4524 50.1201 0.0000 0.0000 0.0000
# 3 26.0393 50.1201 92.5140 0.0000 0.0000 0.0000
# 4 0.0000 0.0000 0.0000 32.6731 0.0000 0.0000
# 5 0.0000 0.0000 0.0000 0.0000 30.5253 0.0000
# 6 0.0000 0.0000 0.0000 0.0000 0.0000 24.9940
#
#
#
# Elastic Compliance Matrix: (Units=1/GPa)
#
#
# Indices 1 2 3 4 5 6 
#
# 1 0.021220 -0.006227 -0.002599 0.000000 0.000000 0.000000
# 2 -0.006227 0.011324 -0.004382 0.000000 0.000000 0.000000
# 3 -0.002599 -0.004382 0.013915 0.000000 0.000000 0.000000
# 4 0.000000 0.000000 0.000000 0.030606 0.000000 0.000000
# 5 0.000000 0.000000 0.000000 0.000000 0.032760 0.000000
# 6 0.000000 0.000000 0.000000 0.000000 0.000000 0.040010
#
#
# Mechanical properties :
#
#
# Convention : Reuss Voigt Hill
#
# Bulk Modulus (GPa) = 49.89416 58.97985 54.43701
# Shear Modulus (GPa) = 27.33248 28.79322 28.06285
#
# Velocity S-wave (km/s) = 3.72513 3.82338 3.77457
# Velocity P-wave (km/s) = 6.62066 7.03099 6.82891
#
# Compressibility (1/GPa) = 0.02004242
#
# Stress axis : x y z
#
# Youngs Moduli (GPa) = 47.12430 88.30807 71.86569
#
# Poissons Ratio (x) = 0.54989 0.18680
# Poissons Ratio (y) = 0.29344 0.31493
# Poissons Ratio (z) = 0.12249 0.38698
#
# Static dielectric constant tensor:
#      x y z
#    x 3.754210 0.000000 0.000000 
#    y 0.000000 3.927950 0.000000 
#    z 0.000000 0.000000 3.451700 
# 
# 
# High freq. dielectric constant tensor:
#      x y z
#    x 1.769950 0.000000 0.000000 
#    y 0.000000 1.767060 0.000000 
#    z 0.000000 0.000000 1.757140 
# 
# From -- ./inp_files/12252.got.cif
#   From: 2010.03.12/outbox.cif.g09.slc.cpg/sg40_7_cif.got.tgz:12252.got - 2010.04.14 01:38:03.
