data_PCOD8183149
_publ_section_title
;
Structure prediction by ZEFSAII (Michael W. Deem and Ramdas Pophale) SiO2 
 PCOD8183149
Probable space group: A M A 2
;
_chemical_formula_sum "Si O2"
_cell_formula_units_Z 48
_cell_length_a 15.943445
_cell_length_b 17.967234
_cell_length_c 8.982894
_cell_angle_alpha 90.000000
_cell_angle_beta 90.000000
_cell_angle_gamma 90.000000
_cell_volume 2573.236286
_symmetry_space_group_name_H-M "A M A 2"
_symmetry_group_IT_number 40
_symmetry_cell_setting 'orthorhombic'
loop_
_space_group_symop_operation_xyz
x,y,z
-x,-y,z
1/2-x,y,z
1/2+x,-y,z
x,1/2+y,1/2+z
-x,1/2-y,1/2+z
1/2-x,1/2+y,1/2+z
1/2+x,1/2-y,1/2+z
loop_
_atom_site_type_symbol
_atom_site_label
_atom_site_fract_x
_atom_site_fract_y
_atom_site_fract_z
Si Si1 0.413824 0.461650 0.769900
Si Si2 0.082801 0.042946 0.771306
Si Si3 0.986075 0.322451 0.803138
Si Si4 0.652743 0.411259 0.965073
Si Si5 0.504684 0.329423 0.458575
Si Si6 0.843202 0.580336 0.466278
O O1 0.500000 0.500000 0.714738
O O2 0.439087 0.381128 0.836158
O O3 0.366309 0.507868 0.895856
O O4 0.353778 0.456097 0.628504
O O5 0.128051 0.085382 0.637500
O O6 0.060762 0.103928 0.895582
O O7 0.145350 0.983253 0.842684
O O8 0.000000 0.000000 0.713082
O O9 0.900473 0.346944 0.884436
O O10 0.967749 0.315733 0.627904
O O11 0.019411 0.244517 0.864084
O O12 0.750000 0.390785 0.947896
O O13 0.406940 0.351412 0.446239
O O14 0.750000 0.613134 0.450631
#
# Coordination Sequence:
#
# PCOD8183149 Si02
#       6
#     8   8   8   8   8   8
#     4   9  18  34  54  77 103 137 175 209 256 317
#     4  10  19  34  54  78 105 138 176 213 256 314
#     4  10  20  36  55  77 104 140 181 215 257 315
#     4  11  21  33  54  81 108 135 171 221 266 306
#     4  10  21  36  56  77 104 142 180 214 257 316
#     4  10  19  33  55  80 106 132 167 218 268 312
#
# _framework density 18.653552000000001
#
# number of rings (size 3 to 8) (size 9 to 14) (size 15 to 20)
#    0.000    2.000    0.000    7.000    0.000    2.000 
#    0.000    0.833    0.000    8.000    0.000    0.000 
#    0.000    0.000    0.000    0.000    0.000    0.000 
#
# Total GULP energy -297669.857738 kJ/mol
# GULP energy per Si atom -12402.910739 kJ/mol
# Density = 1.861110 g / cm^3
# Si number density = 18.653552 Si / 1000 Ang^3
#
#
#
# Elastic Constant Matrix: (Units=GPa)
#
#
# Indices 1 2 3 4 5 6 
#
# 1 85.4225 5.7347 21.2705 0.0000 0.0000 0.0000
# 2 5.7347 74.4442 20.5851 0.0000 0.0000 0.0000
# 3 21.2705 20.5851 96.1880 0.0000 0.0000 0.0000
# 4 0.0000 0.0000 0.0000 32.3400 0.0000 0.0000
# 5 0.0000 0.0000 0.0000 0.0000 19.9738 0.0000
# 6 0.0000 0.0000 0.0000 0.0000 0.0000 14.7585
#
#
#
# Elastic Compliance Matrix: (Units=1/GPa)
#
#
# Indices 1 2 3 4 5 6 
#
# 1 0.012392 -0.000209 -0.002695 0.000000 0.000000 0.000000
# 2 -0.000209 0.014281 -0.003010 0.000000 0.000000 0.000000
# 3 -0.002695 -0.003010 0.011637 0.000000 0.000000 0.000000
# 4 0.000000 0.000000 0.000000 0.030921 0.000000 0.000000
# 5 0.000000 0.000000 0.000000 0.000000 0.050066 0.000000
# 6 0.000000 0.000000 0.000000 0.000000 0.000000 0.067758
#
#
# Mechanical properties :
#
#
# Convention : Reuss Voigt Hill
#
# Bulk Modulus (GPa) = 37.76421 39.02613 38.39517
# Shear Modulus (GPa) = 24.07196 27.31208 25.69202
#
# Velocity S-wave (km/s) = 3.59622 3.83061 3.71526
# Velocity P-wave (km/s) = 6.12639 6.36645 6.24758
#
# Compressibility (1/GPa) = 0.02648010
#
# Stress axis : x y z
#
# Youngs Moduli (GPa) = 80.69892 70.02147 85.93621
#
# Poissons Ratio (x) = 0.01465 0.23164
# Poissons Ratio (y) = 0.01689 0.25867
# Poissons Ratio (z) = 0.21752 0.21077
#
# Static dielectric constant tensor:
#      x y z
#    x 3.276550 0.000000 0.000000 
#    y 0.000000 3.408740 0.000000 
#    z 0.000000 0.000000 3.405880 
# 
# 
# High freq. dielectric constant tensor:
#      x y z
#    x 1.707140 0.000000 0.000000 
#    y 0.000000 1.719190 0.000000 
#    z 0.000000 0.000000 1.733480 
# 
# From -- ./inp_files/6416.got.cif
#   From: 2010.03.12/outbox.cif.g09.slc.cpg/sg40_4_cif.got.tgz:6416.got - 2010.04.14 01:38:03.
