data_PCOD8183986
_publ_section_title
;
Structure prediction by ZEFSAII (Michael W. Deem and Ramdas Pophale) SiO2 
 PCOD8183986
Probable space group: A M A 2
;
_chemical_formula_sum "Si O2"
_cell_formula_units_Z 40
_cell_length_a 15.202996
_cell_length_b 9.220383
_cell_length_c 12.014296
_cell_angle_alpha 90.000000
_cell_angle_beta 90.000000
_cell_angle_gamma 90.000000
_cell_volume 1684.133327
_symmetry_space_group_name_H-M "A M A 2"
_symmetry_group_IT_number 40
_symmetry_cell_setting 'orthorhombic'
loop_
_space_group_symop_operation_xyz
x,y,z
-x,-y,z
1/2-x,y,z
1/2+x,-y,z
x,1/2+y,1/2+z
-x,1/2-y,1/2+z
1/2-x,1/2+y,1/2+z
1/2+x,1/2-y,1/2+z
loop_
_atom_site_type_symbol
_atom_site_label
_atom_site_fract_x
_atom_site_fract_y
_atom_site_fract_z
Si Si1 0.427291 0.125340 0.539600
Si Si2 0.854963 0.470828 0.821221
Si Si3 0.349722 0.483583 0.237577
Si Si4 0.573569 0.791284 0.135801
Si Si5 0.149333 0.718646 0.401404
O O1 0.381953 0.142972 0.418992
O O2 0.351357 0.082851 0.626611
O O3 0.475857 0.274132 0.581347
O O4 0.500000 0.000000 0.537387
O O5 0.750000 0.463631 0.801403
O O6 0.908974 0.435206 0.708350
O O7 0.890936 0.629253 0.858044
O O8 0.250000 0.435102 0.262192
O O9 0.407853 0.340810 0.220812
O O10 0.391877 0.579009 0.338470
O O11 0.641701 0.792887 0.033663
O O12 0.250000 0.721379 0.365978
#
# Coordination Sequence:
#
# PCOD8183986 Si02
#       5
#     8   8   8   8   8
#     4  10  21  37  63  90 123 163 205 256 312 365
#     4  11  22  40  68  93 124 170 212 253 313 379
#     4  10  20  39  64  87 122 165 203 251 311 372
#     4  11  23  40  64  90 126 163 209 257 311 366
#     4  10  21  39  64  91 123 161 205 257 310 369
#
# _framework density 23.751087999999999
#
# number of rings (size 3 to 8) (size 9 to 14) (size 15 to 20)
#    0.000    1.600    4.000    2.400    2.800    0.000 
#    3.600    0.000    0.000    0.000    0.000    0.000 
#    0.000    0.000    0.000    0.000    0.000    0.000 
#
# Total GULP energy -247903.295579 kJ/mol
# GULP energy per Si atom -12395.164779 kJ/mol
# Density = 2.369703 g / cm^3
# Si number density = 23.751088 Si / 1000 Ang^3
#
#
#
# Elastic Constant Matrix: (Units=GPa)
#
#
# Indices 1 2 3 4 5 6 
#
# 1 36.0891 5.3250 -6.1718 0.0000 0.0000 0.0000
# 2 5.3250 72.9075 64.9402 0.0000 0.0000 0.0000
# 3 -6.1718 64.9402 127.5503 0.0000 0.0000 0.0000
# 4 0.0000 0.0000 0.0000 40.4541 0.0000 0.0000
# 5 0.0000 0.0000 0.0000 0.0000 33.8087 0.0000
# 6 0.0000 0.0000 0.0000 0.0000 0.0000 21.8540
#
#
#
# Elastic Compliance Matrix: (Units=1/GPa)
#
#
# Indices 1 2 3 4 5 6 
#
# 1 0.029419 -0.006252 0.004607 0.000000 0.000000 0.000000
# 2 -0.006252 0.026426 -0.013757 0.000000 0.000000 0.000000
# 3 0.004607 -0.013757 0.015067 0.000000 0.000000 0.000000
# 4 0.000000 0.000000 0.000000 0.024719 0.000000 0.000000
# 5 0.000000 0.000000 0.000000 0.000000 0.029578 0.000000
# 6 0.000000 0.000000 0.000000 0.000000 0.000000 0.045758
#
#
# Mechanical properties :
#
#
# Convention : Reuss Voigt Hill
#
# Bulk Modulus (GPa) = 24.93260 40.52598 32.72929
# Shear Modulus (GPa) = 23.24037 30.72026 26.98031
#
# Velocity S-wave (km/s) = 3.13149 3.60032 3.37406
# Velocity P-wave (km/s) = 4.85749 5.86370 5.38415
#
# Compressibility (1/GPa) = 0.04010813
#
# Stress axis : x y z
#
# Youngs Moduli (GPa) = 33.99112 37.84104 66.36957
#
# Poissons Ratio (x) = 0.23658 -0.30574
# Poissons Ratio (y) = 0.21251 0.91305
# Poissons Ratio (z) = -0.15658 0.52058
#
# Static dielectric constant tensor:
#      x y z
#    x 4.124260 0.000000 0.000000 
#    y 0.000000 4.224350 0.000000 
#    z 0.000000 0.000000 4.399490 
# 
# 
# High freq. dielectric constant tensor:
#      x y z
#    x 1.928660 0.000000 0.000000 
#    y 0.000000 1.915750 0.000000 
#    z 0.000000 0.000000 1.946970 
# 
# From -- ./inp_files/12704.got.cif
#   From: 2010.03.12/outbox.cif.g09.slc.cpg/sg40_7_cif.got.tgz:12704.got - 2010.04.14 01:38:03.
