data_PCOD8183107
_publ_section_title
;
Structure prediction by ZEFSAII (Michael W. Deem and Ramdas Pophale) SiO2 
 PCOD8183107
Probable space group: A M A 2
;
_chemical_formula_sum "Si O2"
_cell_formula_units_Z 56
_cell_length_a 22.427677
_cell_length_b 9.650272
_cell_length_c 13.722879
_cell_angle_alpha 90.000000
_cell_angle_beta 90.000000
_cell_angle_gamma 90.000000
_cell_volume 2970.086387
_symmetry_space_group_name_H-M "A M A 2"
_symmetry_group_IT_number 40
_symmetry_cell_setting 'orthorhombic'
loop_
_space_group_symop_operation_xyz
x,y,z
-x,-y,z
1/2-x,y,z
1/2+x,-y,z
x,1/2+y,1/2+z
-x,1/2-y,1/2+z
1/2-x,1/2+y,1/2+z
1/2+x,1/2-y,1/2+z
loop_
_atom_site_type_symbol
_atom_site_label
_atom_site_fract_x
_atom_site_fract_y
_atom_site_fract_z
Si Si1 0.371296 0.034026 0.307510
Si Si2 0.317623 0.169587 0.947694
Si Si3 0.580179 0.768723 0.810830
Si Si4 0.818268 0.543921 0.615879
Si Si5 0.183250 0.473156 0.004799
Si Si6 0.973947 0.345777 0.915058
Si Si7 0.100354 0.686725 0.099911
O O1 0.322968 0.028379 0.394101
O O2 0.420669 0.149738 0.334704
O O3 0.405397 0.890689 0.296265
O O4 0.339146 0.057934 0.204037
O O5 0.250000 0.176418 0.905456
O O6 0.331561 0.309822 0.007577
O O7 0.325766 0.039092 0.016654
O O8 0.364501 0.150907 0.860211
O O9 0.521038 0.769580 0.878079
O O10 0.568753 0.836226 0.704745
O O11 0.750000 0.586239 0.634501
O O12 0.855420 0.683626 0.605840
O O13 0.250000 0.503434 0.040957
O O14 0.137269 0.548180 0.076024
O O15 0.000000 0.500000 0.931765
O O16 0.949948 0.289075 0.018310
#
# Coordination Sequence:
#
# PCOD8183107 Si02
#       7
#     8   8   8   8   8   8   8
#     4   8  16  30  52  75  97 132 176 211 247 299
#     4   9  19  34  52  74 105 140 170 204 258 319
#     4   9  18  33  52  73 100 136 172 208 258 313
#     4  10  19  33  53  80 109 135 166 213 265 313
#     4   9  16  30  51  75 100 130 168 208 248 301
#     4   9  18  35  53  73 102 135 175 220 259 307
#     4  10  20  33  53  78  99 130 175 218 257 302
#
# _framework density 18.854669999999999
#
# number of rings (size 3 to 8) (size 9 to 14) (size 15 to 20)
#    0.000    2.857    0.000    1.714    0.000    5.143 
#    0.000    6.429    0.000    6.857    0.000    0.000 
#    0.000    0.000    0.000    0.000    0.000    0.000 
#
# Total GULP energy -347069.399649 kJ/mol
# GULP energy per Si atom -12395.335702 kJ/mol
# Density = 1.881176 g / cm^3
# Si number density = 18.854670 Si / 1000 Ang^3
#
#
#
# Elastic Constant Matrix: (Units=GPa)
#
#
# Indices 1 2 3 4 5 6 
#
# 1 95.5239 21.0806 56.3707 0.0000 0.0000 0.0000
# 2 21.0806 33.6007 21.8349 0.0000 0.0000 0.0000
# 3 56.3707 21.8349 121.3226 0.0000 0.0000 0.0000
# 4 0.0000 0.0000 0.0000 22.1550 0.0000 0.0000
# 5 0.0000 0.0000 0.0000 0.0000 30.7481 0.0000
# 6 0.0000 0.0000 0.0000 0.0000 0.0000 14.7967
#
#
#
# Elastic Compliance Matrix: (Units=1/GPa)
#
#
# Indices 1 2 3 4 5 6 
#
# 1 0.015314 -0.005644 -0.006099 0.000000 0.000000 0.000000
# 2 -0.005644 0.035783 -0.003818 0.000000 0.000000 0.000000
# 3 -0.006099 -0.003818 0.011764 0.000000 0.000000 0.000000
# 4 0.000000 0.000000 0.000000 0.045137 0.000000 0.000000
# 5 0.000000 0.000000 0.000000 0.000000 0.032522 0.000000
# 6 0.000000 0.000000 0.000000 0.000000 0.000000 0.067583
#
#
# Mechanical properties :
#
#
# Convention : Reuss Voigt Hill
#
# Bulk Modulus (GPa) = 31.50777 49.89106 40.69941
# Shear Modulus (GPa) = 20.01577 23.61735 21.81656
#
# Velocity S-wave (km/s) = 3.26173 3.54305 3.40529
# Velocity P-wave (km/s) = 5.56168 6.57692 6.09049
#
# Compressibility (1/GPa) = 0.03173821
#
# Stress axis : x y z
#
# Youngs Moduli (GPa) = 65.30180 27.94619 85.00807
#
# Poissons Ratio (x) = 0.15772 0.51850
# Poissons Ratio (y) = 0.36855 0.32453
# Poissons Ratio (z) = 0.39831 0.10669
#
# Static dielectric constant tensor:
#      x y z
#    x 3.687780 0.000000 0.000000 
#    y 0.000000 3.132810 0.000000 
#    z 0.000000 0.000000 3.583800 
# 
# 
# High freq. dielectric constant tensor:
#      x y z
#    x 1.740700 0.000000 0.000000 
#    y 0.000000 1.697940 0.000000 
#    z 0.000000 0.000000 1.728230 
# 
# From -- ./inp_files/13568.got.cif
#   From: 2010.03.12/outbox.cif.g09.slc.cpg/sg40_7_cif.got.tgz:13568.got - 2010.04.14 01:38:03.
