data_PCOD8183801
_publ_section_title
;
Structure prediction by ZEFSAII (Michael W. Deem and Ramdas Pophale) SiO2 
 PCOD8183801
Probable space group: A M A 2
;
_chemical_formula_sum "Si O2"
_cell_formula_units_Z 64
_cell_length_a 9.051709
_cell_length_b 24.682671
_cell_length_c 15.028185
_cell_angle_alpha 90.000000
_cell_angle_beta 90.000000
_cell_angle_gamma 90.000000
_cell_volume 3357.602431
_symmetry_space_group_name_H-M "A M A 2"
_symmetry_group_IT_number 40
_symmetry_cell_setting 'orthorhombic'
loop_
_space_group_symop_operation_xyz
x,y,z
-x,-y,z
1/2-x,y,z
1/2+x,-y,z
x,1/2+y,1/2+z
-x,1/2-y,1/2+z
1/2-x,1/2+y,1/2+z
1/2+x,1/2-y,1/2+z
loop_
_atom_site_type_symbol
_atom_site_label
_atom_site_fract_x
_atom_site_fract_y
_atom_site_fract_z
Si Si1 0.418143 0.357790 0.414530
Si Si2 0.078596 0.329822 0.214363
Si Si3 0.080650 0.637493 0.049760
Si Si4 0.923220 0.887285 0.212063
Si Si5 0.924867 0.719868 0.750276
Si Si6 0.424171 0.556978 0.894292
Si Si7 0.922279 0.944048 0.030383
Si Si8 0.581633 0.264133 0.929003
O O1 0.250000 0.374997 0.434843
O O2 0.449031 0.358144 0.309011
O O3 0.528501 0.399216 0.459799
O O4 0.451054 0.298045 0.454207
O O5 0.250000 0.317566 0.199427
O O6 0.018490 0.369959 0.137733
O O7 0.990536 0.273780 0.206709
O O8 0.250000 0.625960 0.074782
O O9 0.026042 0.596074 0.974352
O O10 0.059651 0.698995 0.015305
O O11 0.750000 0.873545 0.216140
O O12 0.977411 0.917129 0.301487
O O13 0.963334 0.926090 0.130055
O O14 0.013243 0.832009 0.197792
O O15 0.750000 0.721594 0.741687
O O16 0.972277 0.714948 0.852970
O O17 0.500000 0.500000 0.910041
O O18 0.250000 0.548555 0.892860
O O19 0.750000 0.952864 0.018891
O O20 0.000000 0.000000 0.007375
O O21 0.750000 0.269342 0.892004
#
# Coordination Sequence:
#
# PCOD8183801 Si02
#       8
#     8   8   8   8   8   8   8   8
#     4   9  20  39  61  83 114 154 193 240 298 349
#     4  10  22  39  59  84 119 158 193 243 299 350
#     4  10  20  36  59  87 119 158 197 240 292 345
#     4  10  21  39  58  83 119 158 192 236 295 348
#     4  11  21  33  55  87 119 155 197 236 282 347
#     4  10  21  38  60  83 118 158 195 238 289 346
#     4  11  24  40  62  87 115 151 196 247 293 349
#     4   9  18  36  58  82 119 157 189 232 292 348
#
# _framework density 19.061219999999999
#
# number of rings (size 3 to 8) (size 9 to 14) (size 15 to 20)
#    0.000    2.000    1.250    3.000    1.750    5.000 
#    0.000    0.625    0.000    1.500    0.000    0.000 
#    0.000    0.000    0.000    0.000    0.000    0.000 
#
# Total GULP energy -396913.623211 kJ/mol
# GULP energy per Si atom -12403.550725 kJ/mol
# Density = 1.901784 g / cm^3
# Si number density = 19.061220 Si / 1000 Ang^3
#
#
#
# Elastic Constant Matrix: (Units=GPa)
#
#
# Indices 1 2 3 4 5 6 
#
# 1 89.2584 53.4933 47.4984 0.0000 0.0000 0.0000
# 2 53.4933 116.9601 56.0969 0.0000 0.0000 0.0000
# 3 47.4984 56.0969 101.0641 0.0000 0.0000 0.0000
# 4 0.0000 0.0000 0.0000 23.8039 0.0000 0.0000
# 5 0.0000 0.0000 0.0000 0.0000 30.9085 0.0000
# 6 0.0000 0.0000 0.0000 0.0000 0.0000 33.1699
#
#
#
# Elastic Compliance Matrix: (Units=1/GPa)
#
#
# Indices 1 2 3 4 5 6 
#
# 1 0.017135 -0.005416 -0.005047 0.000000 0.000000 0.000000
# 2 -0.005416 0.013364 -0.004872 0.000000 0.000000 0.000000
# 3 -0.005047 -0.004872 0.014971 0.000000 0.000000 0.000000
# 4 0.000000 0.000000 0.000000 0.042010 0.000000 0.000000
# 5 0.000000 0.000000 0.000000 0.000000 0.032354 0.000000
# 6 0.000000 0.000000 0.000000 0.000000 0.000000 0.030148
#
#
# Mechanical properties :
#
#
# Convention : Reuss Voigt Hill
#
# Bulk Modulus (GPa) = 67.57076 69.05108 68.31092
# Shear Modulus (GPa) = 26.94174 27.58938 27.26556
#
# Velocity S-wave (km/s) = 3.76364 3.80861 3.78619
# Velocity P-wave (km/s) = 7.37651 7.45958 7.41816
#
# Compressibility (1/GPa) = 0.01479930
#
# Stress axis : x y z
#
# Youngs Moduli (GPa) = 58.35953 74.82760 66.79573
#
# Poissons Ratio (x) = 0.40530 0.33710
# Poissons Ratio (y) = 0.31610 0.32545
# Poissons Ratio (z) = 0.29453 0.36458
#
# Static dielectric constant tensor:
#      x y z
#    x 3.409220 0.000000 0.000000 
#    y 0.000000 3.401730 0.000000 
#    z 0.000000 0.000000 3.465130 
# 
# 
# High freq. dielectric constant tensor:
#      x y z
#    x 1.737810 0.000000 0.000000 
#    y 0.000000 1.734470 0.000000 
#    z 0.000000 0.000000 1.741080 
# 
# From -- ./inp_files/15569.got.cif
#   From: 2010.03.12/outbox.cif.g09.slc.cpg/sg40_8_cif.got.tgz:15569.got - 2010.04.14 01:38:03.
