data_PCOD8183353
_publ_section_title
;
Structure prediction by ZEFSAII (Michael W. Deem and Ramdas Pophale) SiO2 
 PCOD8183353
Probable space group: A M A 2
;
_chemical_formula_sum "Si O2"
_cell_formula_units_Z 64
_cell_length_a 8.940653
_cell_length_b 28.833876
_cell_length_c 12.475120
_cell_angle_alpha 90.000000
_cell_angle_beta 90.000000
_cell_angle_gamma 90.000000
_cell_volume 3216.007093
_symmetry_space_group_name_H-M "A M A 2"
_symmetry_group_IT_number 40
_symmetry_cell_setting 'orthorhombic'
loop_
_space_group_symop_operation_xyz
x,y,z
-x,-y,z
1/2-x,y,z
1/2+x,-y,z
x,1/2+y,1/2+z
-x,1/2-y,1/2+z
1/2-x,1/2+y,1/2+z
1/2+x,1/2-y,1/2+z
loop_
_atom_site_type_symbol
_atom_site_label
_atom_site_fract_x
_atom_site_fract_y
_atom_site_fract_z
Si Si1 0.076727 0.456303 0.452150
Si Si2 0.581607 0.194992 0.326342
Si Si3 0.070637 0.449330 0.083429
Si Si4 0.426238 0.600928 0.884198
Si Si5 0.420724 0.577618 0.646263
Si Si6 0.073535 0.384990 0.277816
Si Si7 0.084607 0.834486 0.092653
Si Si8 0.921971 0.210348 0.867604
O O1 0.250000 0.464830 0.445563
O O2 0.026385 0.410389 0.388263
O O3 0.000000 0.500000 0.393932
O O4 0.024805 0.455962 0.576332
O O5 0.750000 0.188662 0.370159
O O6 0.483895 0.153753 0.378200
O O7 0.579152 0.196748 0.198181
O O8 0.520940 0.244584 0.358660
O O9 0.250000 0.453974 0.083009
O O10 0.012180 0.413254 0.174986
O O11 0.000000 0.500000 0.103491
O O12 0.014813 0.428663 0.971470
O O13 0.250000 0.601763 0.909743
O O14 0.459929 0.574782 0.772018
O O15 0.250000 0.564571 0.624442
O O16 0.451888 0.628950 0.602296
O O17 0.250000 0.384177 0.269142
O O18 0.017846 0.331589 0.289885
O O19 0.250000 0.859070 0.083813
O O20 0.059032 0.802723 0.991039
O O21 0.750000 0.221540 0.839110
#
# Coordination Sequence:
#
# PCOD8183353 Si02
#       8
#     8   8   8   8   8   8   8   8
#     4  11  21  36  57  84 117 150 186 232 289 348
#     4  10  21  36  56  88 119 152 199 251 301 357
#     4  11  23  41  64  90 121 162 208 256 307 366
#     4  10  22  41  62  85 117 157 200 248 302 359
#     4  10  20  35  57  84 111 143 187 236 291 349
#     4   9  20  38  60  85 117 156 198 244 299 357
#     4   9  18  35  57  77 109 151 189 234 292 350
#     4  10  19  36  59  83 115 158 199 242 301 363
#
# _framework density 19.900452999999999
#
# number of rings (size 3 to 8) (size 9 to 14) (size 15 to 20)
#    0.000    2.000    1.250    2.250    0.000    4.000 
#    0.000    5.625    0.000    0.000    0.000    0.000 
#    0.000    0.000    0.000    0.000    0.000    0.000 
#
# Total GULP energy -396627.078098 kJ/mol
# GULP energy per Si atom -12394.596191 kJ/mol
# Density = 1.985516 g / cm^3
# Si number density = 19.900453 Si / 1000 Ang^3
#
#
#
# Elastic Constant Matrix: (Units=GPa)
#
#
# Indices 1 2 3 4 5 6 
#
# 1 73.7342 23.4828 31.1027 0.0000 0.0000 0.0000
# 2 23.4828 82.4913 23.0834 0.0000 0.0000 0.0000
# 3 31.1027 23.0834 90.9582 0.0000 0.0000 0.0000
# 4 0.0000 0.0000 0.0000 21.0770 0.0000 0.0000
# 5 0.0000 0.0000 0.0000 0.0000 23.8302 0.0000
# 6 0.0000 0.0000 0.0000 0.0000 0.0000 35.6186
#
#
#
# Elastic Compliance Matrix: (Units=1/GPa)
#
#
# Indices 1 2 3 4 5 6 
#
# 1 0.016687 -0.003395 -0.004845 0.000000 0.000000 0.000000
# 2 -0.003395 0.013740 -0.002326 0.000000 0.000000 0.000000
# 3 -0.004845 -0.002326 0.013241 0.000000 0.000000 0.000000
# 4 0.000000 0.000000 0.000000 0.047445 0.000000 0.000000
# 5 0.000000 0.000000 0.000000 0.000000 0.041964 0.000000
# 6 0.000000 0.000000 0.000000 0.000000 0.000000 0.028075
#
#
# Mechanical properties :
#
#
# Convention : Reuss Voigt Hill
#
# Bulk Modulus (GPa) = 44.37129 44.72460 44.54795
# Shear Modulus (GPa) = 26.34431 27.40614 26.87522
#
# Velocity S-wave (km/s) = 3.64236 3.71504 3.67888
# Velocity P-wave (km/s) = 6.32725 6.39726 6.36235
#
# Compressibility (1/GPa) = 0.02253709
#
# Stress axis : x y z
#
# Youngs Moduli (GPa) = 59.92737 72.78156 75.52333
#
# Poissons Ratio (x) = 0.24707 0.36587
# Poissons Ratio (y) = 0.20343 0.17568
# Poissons Ratio (z) = 0.29032 0.16930
#
# Static dielectric constant tensor:
#      x y z
#    x 3.628000 0.000000 0.000000 
#    y 0.000000 3.697240 0.000000 
#    z 0.000000 0.000000 3.830950 
# 
# 
# High freq. dielectric constant tensor:
#      x y z
#    x 1.768580 0.000000 0.000000 
#    y 0.000000 1.777440 0.000000 
#    z 0.000000 0.000000 1.779910 
# 
# From -- ./inp_files/10654.got.cif
#   From: 2010.03.12/outbox.cif.g09.slc.cpg/sg40_6_cif.got.tgz:10654.got - 2010.04.14 01:38:03.
