data_PCOD8183397
_publ_section_title
;
Structure prediction by ZEFSAII (Michael W. Deem and Ramdas Pophale) SiO2 
 PCOD8183397
Probable space group: A M A 2
;
_chemical_formula_sum "Si O2"
_cell_formula_units_Z 64
_cell_length_a 17.011519
_cell_length_b 15.926059
_cell_length_c 12.091239
_cell_angle_alpha 90.000000
_cell_angle_beta 90.000000
_cell_angle_gamma 90.000000
_cell_volume 3275.836522
_symmetry_space_group_name_H-M "A M A 2"
_symmetry_group_IT_number 40
_symmetry_cell_setting 'orthorhombic'
loop_
_space_group_symop_operation_xyz
x,y,z
-x,-y,z
1/2-x,y,z
1/2+x,-y,z
x,1/2+y,1/2+z
-x,1/2-y,1/2+z
1/2-x,1/2+y,1/2+z
1/2+x,1/2-y,1/2+z
loop_
_atom_site_type_symbol
_atom_site_label
_atom_site_fract_x
_atom_site_fract_y
_atom_site_fract_z
Si Si1 0.340553 0.245791 0.601940
Si Si2 0.607215 0.864954 0.953703
Si Si3 0.841005 0.011903 0.800306
Si Si4 0.410910 0.982772 0.353061
Si Si5 0.659128 0.945745 0.567433
Si Si6 0.157512 0.803451 0.346861
Si Si7 0.660326 0.984338 0.125655
Si Si8 0.922424 0.117513 0.973666
O O1 0.250000 0.262902 0.576182
O O2 0.360949 0.148393 0.602509
O O3 0.363876 0.280839 0.721544
O O4 0.390049 0.291159 0.505941
O O5 0.640358 0.922432 0.855512
O O6 0.630322 0.769243 0.930497
O O7 0.514956 0.877686 0.964366
O O8 0.646548 0.893308 0.069925
O O9 0.750000 0.031806 0.818904
O O10 0.861573 0.006247 0.670597
O O11 0.889979 0.087707 0.854579
O O12 0.392245 0.885604 0.376599
O O13 0.500000 0.000000 0.317928
O O14 0.395057 0.032757 0.464801
O O15 0.356734 0.019650 0.255603
O O16 0.750000 0.956042 0.534156
O O17 0.250000 0.820522 0.362122
O O18 0.750000 0.013686 0.108106
O O19 0.603311 0.051531 0.067568
#
# Coordination Sequence:
#
# PCOD8183397 Si02
#       8
#     8   8   8   8   8   8   8   8
#     4  10  20  38  64  88 116 161 212 248 293 374
#     4  11  22  36  62  96 129 152 205 266 313 355
#     4  10  19  37  62  90 121 162 210 254 305 371
#     4  12  26  41  62  91 128 163 208 257 320 373
#     4  10  22  41  62  85 120 163 210 252 303 377
#     4  11  22  42  67  89 117 166 214 249 297 378
#     4  11  21  39  64  91 124 166 210 258 312 375
#     4  11  21  34  60  93 129 154 201 260 318 355
#
# _framework density 19.536994
#
# number of rings (size 3 to 8) (size 9 to 14) (size 15 to 20)
#    0.000    1.250    2.500    6.375    1.750    1.000 
#    0.000    1.250    0.000    3.000    0.000    0.000 
#    0.000    0.000    0.000    0.000    0.000    0.000 
#
# Total GULP energy -396914.757333 kJ/mol
# GULP energy per Si atom -12403.586167 kJ/mol
# Density = 1.949253 g / cm^3
# Si number density = 19.536994 Si / 1000 Ang^3
#
#
#
# Elastic Constant Matrix: (Units=GPa)
#
#
# Indices 1 2 3 4 5 6 
#
# 1 98.8308 40.9306 35.2508 0.0000 0.0000 0.0000
# 2 40.9306 79.5811 29.7935 0.0000 0.0000 0.0000
# 3 35.2508 29.7935 96.4857 0.0000 0.0000 0.0000
# 4 0.0000 0.0000 0.0000 31.0441 0.0000 0.0000
# 5 0.0000 0.0000 0.0000 0.0000 25.0153 0.0000
# 6 0.0000 0.0000 0.0000 0.0000 0.0000 24.6749
#
#
#
# Elastic Compliance Matrix: (Units=1/GPa)
#
#
# Indices 1 2 3 4 5 6 
#
# 1 0.013675 -0.005838 -0.003194 0.000000 0.000000 0.000000
# 2 -0.005838 0.016701 -0.003024 0.000000 0.000000 0.000000
# 3 -0.003194 -0.003024 0.012465 0.000000 0.000000 0.000000
# 4 0.000000 0.000000 0.000000 0.032212 0.000000 0.000000
# 5 0.000000 0.000000 0.000000 0.000000 0.039976 0.000000
# 6 0.000000 0.000000 0.000000 0.000000 0.000000 0.040527
#
#
# Mechanical properties :
#
#
# Convention : Reuss Voigt Hill
#
# Bulk Modulus (GPa) = 53.39166 54.09416 53.74291
# Shear Modulus (GPa) = 26.89485 27.40837 27.15161
#
# Velocity S-wave (km/s) = 3.71430 3.74959 3.73198
# Velocity P-wave (km/s) = 6.76628 6.81866 6.79252
#
# Compressibility (1/GPa) = 0.01872952
#
# Stress axis : x y z
#
# Youngs Moduli (GPa) = 73.12562 59.87843 80.22626
#
# Poissons Ratio (x) = 0.34956 0.25620
# Poissons Ratio (y) = 0.42690 0.24261
# Poissons Ratio (z) = 0.23353 0.18107
#
# Static dielectric constant tensor:
#      x y z
#    x 3.577700 0.000000 0.000000 
#    y 0.000000 3.585260 0.000000 
#    z 0.000000 0.000000 3.606520 
# 
# 
# High freq. dielectric constant tensor:
#      x y z
#    x 1.765970 0.000000 0.000000 
#    y 0.000000 1.752430 0.000000 
#    z 0.000000 0.000000 1.760360 
# 
# From -- ./inp_files/12486.got.cif
#   From: 2010.03.12/outbox.cif.g09.slc.cpg/sg40_7_cif.got.tgz:12486.got - 2010.04.14 01:38:03.
