data_PCOD8183523
_publ_section_title
;
Structure prediction by ZEFSAII (Michael W. Deem and Ramdas Pophale) SiO2 
 PCOD8183523
Probable space group: A M A 2
;
_chemical_formula_sum "Si O2"
_cell_formula_units_Z 64
_cell_length_a 9.019603
_cell_length_b 27.297376
_cell_length_c 12.962833
_cell_angle_alpha 90.000000
_cell_angle_beta 90.000000
_cell_angle_gamma 90.000000
_cell_volume 3191.598485
_symmetry_space_group_name_H-M "A M A 2"
_symmetry_group_IT_number 40
_symmetry_cell_setting 'orthorhombic'
loop_
_space_group_symop_operation_xyz
x,y,z
-x,-y,z
1/2-x,y,z
1/2+x,-y,z
x,1/2+y,1/2+z
-x,1/2-y,1/2+z
1/2-x,1/2+y,1/2+z
1/2+x,1/2-y,1/2+z
loop_
_atom_site_type_symbol
_atom_site_label
_atom_site_fract_x
_atom_site_fract_y
_atom_site_fract_z
Si Si1 0.573774 0.623246 0.178400
Si Si2 0.571841 0.947796 0.844020
Si Si3 0.575415 0.550898 0.770791
Si Si4 0.077070 0.799558 0.104194
Si Si5 0.574715 0.593592 0.548053
Si Si6 0.914406 0.776529 0.438034
Si Si7 0.923704 0.624968 0.943644
Si Si8 0.913689 0.230894 0.730984
O O1 0.750000 0.618888 0.201242
O O2 0.483109 0.588933 0.255532
O O3 0.516299 0.678946 0.196595
O O4 0.533666 0.608667 0.060412
O O5 0.750000 0.951166 0.843281
O O6 0.500000 0.000000 0.818337
O O7 0.517457 0.931117 0.956798
O O8 0.500000 0.500000 0.795134
O O9 0.750000 0.545126 0.782063
O O10 0.533583 0.567906 0.655728
O O11 0.511807 0.587966 0.857684
O O12 0.250000 0.805864 0.123413
O O13 0.018187 0.850430 0.058120
O O14 0.000706 0.781957 0.209072
O O15 0.030009 0.752712 0.037067
O O16 0.750000 0.589913 0.523464
O O17 0.750000 0.798302 0.454868
O O18 0.909794 0.733021 0.354209
O O19 0.021741 0.821153 0.415609
O O20 0.750000 0.626878 0.931981
O O21 0.750000 0.234259 0.681951
#
# Coordination Sequence:
#
# PCOD8183523 Si02
#       8
#     8   8   8   8   8   8   8   8
#     4  10  21  40  63  87 123 163 202 251 305 362
#     4  12  26  43  65  91 119 156 205 259 313 372
#     4  10  22  39  61  88 116 153 200 248 304 358
#     4  10  20  35  57  85 118 155 193 236 289 350
#     4  10  21  40  63  89 125 162 199 249 306 367
#     4  10  20  33  53  83 119 155 193 236 289 345
#     4  10  21  39  62  87 119 160 202 244 296 358
#     4  10  20  35  56  84 119 160 199 243 293 346
#
# _framework density 20.052648000000001
#
# number of rings (size 3 to 8) (size 9 to 14) (size 15 to 20)
#    0.000    1.750    1.250    3.000    0.000    7.500 
#    0.000    2.500    0.000    0.000    0.000    0.000 
#    0.000    0.000    0.000    0.000    0.000    0.000 
#
# Total GULP energy -396657.573685 kJ/mol
# GULP energy per Si atom -12395.549178 kJ/mol
# Density = 2.000701 g / cm^3
# Si number density = 20.052648 Si / 1000 Ang^3
#
#
#
# Elastic Constant Matrix: (Units=GPa)
#
#
# Indices 1 2 3 4 5 6 
#
# 1 48.6937 43.5153 35.2251 0.0000 0.0000 0.0000
# 2 43.5153 112.3208 42.3189 0.0000 0.0000 0.0000
# 3 35.2251 42.3189 105.2994 0.0000 0.0000 0.0000
# 4 0.0000 0.0000 0.0000 22.9946 0.0000 0.0000
# 5 0.0000 0.0000 0.0000 0.0000 28.4886 0.0000
# 6 0.0000 0.0000 0.0000 0.0000 0.0000 28.2638
#
#
#
# Elastic Compliance Matrix: (Units=1/GPa)
#
#
# Indices 1 2 3 4 5 6 
#
# 1 0.035885 -0.011053 -0.007562 0.000000 0.000000 0.000000
# 2 -0.011053 0.013896 -0.001887 0.000000 0.000000 0.000000
# 3 -0.007562 -0.001887 0.012785 0.000000 0.000000 0.000000
# 4 0.000000 0.000000 0.000000 0.043488 0.000000 0.000000
# 5 0.000000 0.000000 0.000000 0.000000 0.035102 0.000000
# 6 0.000000 0.000000 0.000000 0.000000 0.000000 0.035381
#
#
# Mechanical properties :
#
#
# Convention : Reuss Voigt Hill
#
# Bulk Modulus (GPa) = 46.38044 56.49249 51.43646
# Shear Modulus (GPa) = 22.24896 25.63304 23.94100
#
# Velocity S-wave (km/s) = 3.33457 3.57919 3.45904
# Velocity P-wave (km/s) = 6.16485 6.73157 6.45443
#
# Compressibility (1/GPa) = 0.02156082
#
# Stress axis : x y z
#
# Youngs Moduli (GPa) = 27.86691 71.96095 78.21744
#
# Poissons Ratio (x) = 0.79541 0.59148
# Poissons Ratio (y) = 0.30802 0.14762
# Poissons Ratio (z) = 0.21073 0.13581
#
# Static dielectric constant tensor:
#      x y z
#    x 3.482310 0.000000 0.000000 
#    y 0.000000 3.704660 0.000000 
#    z 0.000000 0.000000 3.829540 
# 
# 
# High freq. dielectric constant tensor:
#      x y z
#    x 1.766170 0.000000 0.000000 
#    y 0.000000 1.787890 0.000000 
#    z 0.000000 0.000000 1.799180 
# 
# From -- ./inp_files/10697.got.cif
#   From: 2010.03.12/outbox.cif.g09.slc.cpg/sg40_6_cif.got.tgz:10697.got - 2010.04.14 01:38:03.
