data_PCOD8183205
_publ_section_title
;
Structure prediction by ZEFSAII (Michael W. Deem and Ramdas Pophale) SiO2 
 PCOD8183205
Probable space group: A M A 2
;
_chemical_formula_sum "Si O2"
_cell_formula_units_Z 40
_cell_length_a 15.083934
_cell_length_b 13.428955
_cell_length_c 10.009381
_cell_angle_alpha 90.000000
_cell_angle_beta 90.000000
_cell_angle_gamma 90.000000
_cell_volume 2027.514938
_symmetry_space_group_name_H-M "A M A 2"
_symmetry_group_IT_number 40
_symmetry_cell_setting 'orthorhombic'
loop_
_space_group_symop_operation_xyz
x,y,z
-x,-y,z
1/2-x,y,z
1/2+x,-y,z
x,1/2+y,1/2+z
-x,1/2-y,1/2+z
1/2-x,1/2+y,1/2+z
1/2+x,1/2-y,1/2+z
loop_
_atom_site_type_symbol
_atom_site_label
_atom_site_fract_x
_atom_site_fract_y
_atom_site_fract_z
Si Si1 0.976458 0.192489 0.721420
Si Si2 0.589280 0.561785 0.996636
Si Si3 0.653643 0.876858 0.626019
Si Si4 0.556746 0.597680 0.708318
Si Si5 0.649533 0.683199 0.464810
O O1 0.924772 0.159499 0.587202
O O2 0.918339 0.158294 0.846719
O O3 0.072967 0.137056 0.731349
O O4 0.987595 0.310833 0.715888
O O5 0.500000 0.500000 0.986735
O O6 0.660034 0.487493 0.063551
O O7 0.614131 0.593563 0.845774
O O8 0.750000 0.856120 0.694221
O O9 0.637718 0.798345 0.506143
O O10 0.500000 0.500000 0.680115
O O11 0.627000 0.612402 0.589921
O O12 0.750000 0.660957 0.418126
#
# Coordination Sequence:
#
# PCOD8183205 Si02
#       5
#     8   8   8   8   8
#     4  10  19  35  56  81 114 147 180 226 279 333
#     4   9  18  33  55  80 105 142 187 222 263 323
#     4   9  19  36  59  83 108 144 189 232 275 327
#     4  10  19  34  55  79 108 149 188 224 271 327
#     4  10  21  36  55  81 112 144 180 230 287 330
#
# _framework density 19.728584000000001
#
# number of rings (size 3 to 8) (size 9 to 14) (size 15 to 20)
#    0.000    2.400    0.000    4.800    0.000    4.000 
#    0.000    1.000    0.000    9.600    0.000    0.000 
#    0.000    0.000    0.000    0.000    0.000    0.000 
#
# Total GULP energy -247909.112715 kJ/mol
# GULP energy per Si atom -12395.455636 kJ/mol
# Density = 1.968368 g / cm^3
# Si number density = 19.728584 Si / 1000 Ang^3
#
#
#
# Elastic Constant Matrix: (Units=GPa)
#
#
# Indices 1 2 3 4 5 6 
#
# 1 137.2142 31.8144 71.4798 0.0000 0.0000 0.0000
# 2 31.8144 116.6951 42.9821 0.0000 0.0000 0.0000
# 3 71.4798 42.9821 119.8122 0.0000 0.0000 0.0000
# 4 0.0000 0.0000 0.0000 23.4665 0.0000 0.0000
# 5 0.0000 0.0000 0.0000 0.0000 26.2156 0.0000
# 6 0.0000 0.0000 0.0000 0.0000 0.0000 14.2796
#
#
#
# Elastic Compliance Matrix: (Units=1/GPa)
#
#
# Indices 1 2 3 4 5 6 
#
# 1 0.010616 -0.000647 -0.006102 0.000000 0.000000 0.000000
# 2 -0.000647 0.009913 -0.003170 0.000000 0.000000 0.000000
# 3 -0.006102 -0.003170 0.013124 0.000000 0.000000 0.000000
# 4 0.000000 0.000000 0.000000 0.042614 0.000000 0.000000
# 5 0.000000 0.000000 0.000000 0.000000 0.038145 0.000000
# 6 0.000000 0.000000 0.000000 0.000000 0.000000 0.070030
#
#
# Mechanical properties :
#
#
# Convention : Reuss Voigt Hill
#
# Bulk Modulus (GPa) = 72.38071 74.03046 73.20559
# Shear Modulus (GPa) = 23.93641 27.95533 25.94587
#
# Velocity S-wave (km/s) = 3.48700 3.76838 3.63042
# Velocity P-wave (km/s) = 7.27875 7.51932 7.40001
#
# Compressibility (1/GPa) = 0.01381584
#
# Stress axis : x y z
#
# Youngs Moduli (GPa) = 94.19333 100.87275 76.19595
#
# Poissons Ratio (x) = 0.06526 0.46492
# Poissons Ratio (y) = 0.06094 0.24158
# Poissons Ratio (z) = 0.57474 0.31981
#
# Static dielectric constant tensor:
#      x y z
#    x 3.604890 0.000000 0.000000 
#    y 0.000000 3.753160 0.000000 
#    z 0.000000 0.000000 3.643900 
# 
# 
# High freq. dielectric constant tensor:
#      x y z
#    x 1.756560 0.000000 0.000000 
#    y 0.000000 1.769610 0.000000 
#    z 0.000000 0.000000 1.753960 
# 
# From -- ./inp_files/6146.got.cif
#   From: 2010.03.12/outbox.cif.g09.slc.cpg/sg40_4_cif.got.tgz:6146.got - 2010.04.14 01:38:03.
