data_PCOD8183748
_publ_section_title
;
Structure prediction by ZEFSAII (Michael W. Deem and Ramdas Pophale) SiO2 
 PCOD8183748
Probable space group: A M A 2
;
_chemical_formula_sum "Si O2"
_cell_formula_units_Z 48
_cell_length_a 8.834147
_cell_length_b 30.054559
_cell_length_c 9.840163
_cell_angle_alpha 90.000000
_cell_angle_beta 90.000000
_cell_angle_gamma 90.000000
_cell_volume 2612.626177
_symmetry_space_group_name_H-M "A M A 2"
_symmetry_group_IT_number 40
_symmetry_cell_setting 'orthorhombic'
loop_
_space_group_symop_operation_xyz
x,y,z
-x,-y,z
1/2-x,y,z
1/2+x,-y,z
x,1/2+y,1/2+z
-x,1/2-y,1/2+z
1/2-x,1/2+y,1/2+z
1/2+x,1/2-y,1/2+z
loop_
_atom_site_type_symbol
_atom_site_label
_atom_site_fract_x
_atom_site_fract_y
_atom_site_fract_z
Si Si1 0.572253 0.545403 0.192250
Si Si2 0.575551 0.211668 0.183627
Si Si3 0.073308 0.881782 0.478817
Si Si4 0.571042 0.546108 0.501879
Si Si5 0.428095 0.618802 0.693143
Si Si6 0.922466 0.219746 0.493426
O O1 0.500000 0.500000 0.136413
O O2 0.750000 0.539711 0.183107
O O3 0.520613 0.554888 0.346328
O O4 0.516961 0.586102 0.098832
O O5 0.750000 0.197616 0.166339
O O6 0.473727 0.168826 0.153209
O O7 0.546267 0.229512 0.335313
O O8 0.536079 0.250568 0.079732
O O9 0.250000 0.887996 0.444031
O O10 0.041643 0.831569 0.526929
O O11 0.979373 0.893510 0.344820
O O12 0.500000 0.500000 0.554766
O O13 0.750000 0.543249 0.517539
O O14 0.508628 0.586316 0.588906
O O15 0.250000 0.613137 0.680296
O O16 0.750000 0.231431 0.532661
#
# Coordination Sequence:
#
# PCOD8183748 Si02
#       6
#     8   8   8   8   8   8
#     4   9  19  35  56  80 107 139 175 216 263 314
#     4  10  21  37  56  79 108 141 176 218 267 318
#     4   9  19  37  56  77 108 142 176 218 266 316
#     4  10  20  36  56  80 109 142 179 220 267 316
#     4  11  22  36  55  80 108 141 180 221 264 313
#     4   9  19  35  54  78 107 139 178 221 263 313
#
# _framework density 18.372319000000001
#
# number of rings (size 3 to 8) (size 9 to 14) (size 15 to 20)
#    0.000    2.333    0.000    3.500    0.000    6.667 
#    0.000    3.333    0.000    0.000    0.000    0.000 
#    0.000    0.000    0.000    0.000    0.000    0.000 
#
# Total GULP energy -297678.336971 kJ/mol
# GULP energy per Si atom -12403.264040 kJ/mol
# Density = 1.833050 g / cm^3
# Si number density = 18.372319 Si / 1000 Ang^3
#
#
#
# Elastic Constant Matrix: (Units=GPa)
#
#
# Indices 1 2 3 4 5 6 
#
# 1 66.2766 35.6762 36.3541 0.0000 0.0000 0.0000
# 2 35.6762 104.6352 73.3206 0.0000 0.0000 0.0000
# 3 36.3541 73.3206 90.9003 0.0000 0.0000 0.0000
# 4 0.0000 0.0000 0.0000 38.6591 0.0000 0.0000
# 5 0.0000 0.0000 0.0000 0.0000 29.5499 0.0000
# 6 0.0000 0.0000 0.0000 0.0000 0.0000 35.6565
#
#
#
# Elastic Compliance Matrix: (Units=1/GPa)
#
#
# Indices 1 2 3 4 5 6 
#
# 1 0.019666 -0.002746 -0.005650 0.000000 0.000000 0.000000
# 2 -0.002746 0.022364 -0.016941 0.000000 0.000000 0.000000
# 3 -0.005650 -0.016941 0.026925 0.000000 0.000000 0.000000
# 4 0.000000 0.000000 0.000000 0.025867 0.000000 0.000000
# 5 0.000000 0.000000 0.000000 0.000000 0.033841 0.000000
# 6 0.000000 0.000000 0.000000 0.000000 0.000000 0.028045
#
#
# Mechanical properties :
#
#
# Convention : Reuss Voigt Hill
#
# Bulk Modulus (GPa) = 54.70064 61.39044 58.04554
# Shear Modulus (GPa) = 23.42183 28.53716 25.97950
#
# Velocity S-wave (km/s) = 3.57437 3.94543 3.76447
# Velocity P-wave (km/s) = 6.84637 7.36494 7.11039
#
# Compressibility (1/GPa) = 0.01828132
#
# Stress axis : x y z
#
# Youngs Moduli (GPa) = 50.85023 44.71432 37.13990
#
# Poissons Ratio (x) = 0.12279 0.20984
# Poissons Ratio (y) = 0.13964 0.62918
# Poissons Ratio (z) = 0.28730 0.75750
#
# Static dielectric constant tensor:
#      x y z
#    x 3.370320 0.000000 0.000000 
#    y 0.000000 3.466060 0.000000 
#    z 0.000000 0.000000 3.461880 
# 
# 
# High freq. dielectric constant tensor:
#      x y z
#    x 1.715230 0.000000 0.000000 
#    y 0.000000 1.716700 0.000000 
#    z 0.000000 0.000000 1.711690 
# 
# From -- ./inp_files/4574.got.cif
#   From: 2010.03.12/outbox.cif.g09.slc.cpg/sg40_3_cif.got.tgz:4574.got - 2010.04.14 01:38:03.
