data_PCOD8183188
_publ_section_title
;
Structure prediction by ZEFSAII (Michael W. Deem and Ramdas Pophale) SiO2 
 PCOD8183188
Probable space group: A M A 2
;
_chemical_formula_sum "Si O2"
_cell_formula_units_Z 64
_cell_length_a 8.989518
_cell_length_b 19.532236
_cell_length_c 20.443207
_cell_angle_alpha 90.000000
_cell_angle_beta 90.000000
_cell_angle_gamma 90.000000
_cell_volume 3589.528415
_symmetry_space_group_name_H-M "A M A 2"
_symmetry_group_IT_number 40
_symmetry_cell_setting 'orthorhombic'
loop_
_space_group_symop_operation_xyz
x,y,z
-x,-y,z
1/2-x,y,z
1/2+x,-y,z
x,1/2+y,1/2+z
-x,1/2-y,1/2+z
1/2-x,1/2+y,1/2+z
1/2+x,1/2-y,1/2+z
loop_
_atom_site_type_symbol
_atom_site_label
_atom_site_fract_x
_atom_site_fract_y
_atom_site_fract_z
Si Si1 0.924286 0.286223 0.946770
Si Si2 0.424151 0.067501 0.881688
Si Si3 0.578159 0.432948 0.995459
Si Si4 0.422567 0.566731 0.530458
Si Si5 0.926025 0.787252 0.827477
Si Si6 0.426513 0.569557 0.144386
Si Si7 0.575624 0.701903 0.196592
Si Si8 0.422586 0.215388 0.067164
O O1 0.750000 0.271563 0.936350
O O2 0.019361 0.259854 0.886407
O O3 0.957252 0.367240 0.951338
O O4 0.974259 0.250794 0.013685
O O5 0.250000 0.056073 0.878516
O O6 0.471419 0.134126 0.841094
O O7 0.500000 0.000000 0.850954
O O8 0.478869 0.078481 0.956203
O O9 0.500000 0.500000 0.965295
O O10 0.750000 0.450321 0.997212
O O11 0.522974 0.418564 0.069392
O O12 0.500000 0.500000 0.562048
O O13 0.250000 0.550985 0.531452
O O14 0.461610 0.634758 0.571392
O O15 0.750000 0.778267 0.820042
O O16 0.009809 0.763331 0.761885
O O17 0.500000 0.500000 0.171063
O O18 0.250000 0.566452 0.153331
O O19 0.490217 0.630980 0.187037
O O20 0.750000 0.688010 0.204073
O O21 0.541427 0.753417 0.137533
O O22 0.250000 0.225744 0.046887
#
# Coordination Sequence:
#
# PCOD8183188 Si02
#       8
#     8   8   8   8   8   8   8   8
#     4  11  21  35  57  85 111 139 183 231 273 322
#     4   9  18  32  51  74 104 140 178 216 260 314
#     4   9  19  33  53  82 112 140 176 224 273 323
#     4   9  17  32  52  79 108 136 173 217 266 318
#     4  11  23  39  55  76 110 150 186 227 275 329
#     4  10  19  34  53  78 111 148 186 225 270 326
#     4  11  23  37  55  80 109 147 187 229 278 329
#     4  10  20  36  57  80 110 144 180 221 274 329
#
# _framework density 17.829640000000001
#
# number of rings (size 3 to 8) (size 9 to 14) (size 15 to 20)
#    0.000    2.000    2.500    1.500    0.000    4.000 
#    0.000    1.250    0.000    0.750    0.000    1.750 
#    0.000    0.000    0.000    0.000    0.000    0.000 
#
# Total GULP energy -396861.920992 kJ/mol
# GULP energy per Si atom -12401.935031 kJ/mol
# Density = 1.778906 g / cm^3
# Si number density = 17.829640 Si / 1000 Ang^3
#
#
#
# Elastic Constant Matrix: (Units=GPa)
#
#
# Indices 1 2 3 4 5 6 
#
# 1 69.3747 47.0463 39.7813 0.0000 0.0000 0.0000
# 2 47.0463 106.4604 45.7067 0.0000 0.0000 0.0000
# 3 39.7813 45.7067 88.7360 0.0000 0.0000 0.0000
# 4 0.0000 0.0000 0.0000 17.8356 0.0000 0.0000
# 5 0.0000 0.0000 0.0000 0.0000 26.5858 0.0000
# 6 0.0000 0.0000 0.0000 0.0000 0.0000 32.1453
#
#
#
# Elastic Compliance Matrix: (Units=1/GPa)
#
#
# Indices 1 2 3 4 5 6 
#
# 1 0.023237 -0.007442 -0.006584 0.000000 0.000000 0.000000
# 2 -0.007442 0.014444 -0.004103 0.000000 0.000000 0.000000
# 3 -0.006584 -0.004103 0.016335 0.000000 0.000000 0.000000
# 4 0.000000 0.000000 0.000000 0.056068 0.000000 0.000000
# 5 0.000000 0.000000 0.000000 0.000000 0.037614 0.000000
# 6 0.000000 0.000000 0.000000 0.000000 0.000000 0.031109
#
#
# Mechanical properties :
#
#
# Convention : Reuss Voigt Hill
#
# Bulk Modulus (GPa) = 56.31816 58.84885 57.58351
# Shear Modulus (GPa) = 22.62622 24.11580 23.37101
#
# Velocity S-wave (km/s) = 3.56620 3.68172 3.62442
# Velocity P-wave (km/s) = 6.97226 7.15201 7.06271
#
# Compressibility (1/GPa) = 0.01775626
#
# Stress axis : x y z
#
# Youngs Moduli (GPa) = 43.03550 69.23510 61.21945
#
# Poissons Ratio (x) = 0.51524 0.40307
# Poissons Ratio (y) = 0.32026 0.25121
# Poissons Ratio (z) = 0.28335 0.28410
#
# Static dielectric constant tensor:
#      x y z
#    x 3.309370 0.000000 0.000000 
#    y 0.000000 3.420980 0.000000 
#    z 0.000000 0.000000 3.149400 
# 
# 
# High freq. dielectric constant tensor:
#      x y z
#    x 1.696080 0.000000 0.000000 
#    y 0.000000 1.692480 0.000000 
#    z 0.000000 0.000000 1.665620 
# 
# From -- ./inp_files/22423.got.cif
#   From: 2010.03.12/outbox.cif.g09.slc.cpg/sg40_12_cif.got.tgz:22423.got - 2010.04.14 01:38:03.
