data_PCOD8183712
_publ_section_title
;
Structure prediction by ZEFSAII (Michael W. Deem and Ramdas Pophale) SiO2 
 PCOD8183712
Probable space group: A M A 2
;
_chemical_formula_sum "Si O2"
_cell_formula_units_Z 48
_cell_length_a 13.562823
_cell_length_b 16.453367
_cell_length_c 9.736106
_cell_angle_alpha 90.000000
_cell_angle_beta 90.000000
_cell_angle_gamma 90.000000
_cell_volume 2172.652015
_symmetry_space_group_name_H-M "A M A 2"
_symmetry_group_IT_number 40
_symmetry_cell_setting 'orthorhombic'
loop_
_space_group_symop_operation_xyz
x,y,z
-x,-y,z
1/2-x,y,z
1/2+x,-y,z
x,1/2+y,1/2+z
-x,1/2-y,1/2+z
1/2-x,1/2+y,1/2+z
1/2+x,1/2-y,1/2+z
loop_
_atom_site_type_symbol
_atom_site_label
_atom_site_fract_x
_atom_site_fract_y
_atom_site_fract_z
Si Si1 0.364841 0.620573 0.892280
Si Si2 0.551841 0.671971 0.198214
Si Si3 0.361007 0.486077 0.112418
Si Si4 0.449382 0.653992 0.608756
Si Si5 0.638640 0.200815 0.977916
Si Si6 0.138446 0.119352 0.828209
O O1 0.250000 0.623725 0.852707
O O2 0.427623 0.610555 0.752999
O O3 0.392702 0.703559 0.973202
O O4 0.391523 0.546233 0.990180
O O5 0.565333 0.590699 0.107109
O O6 0.581899 0.751091 0.111985
O O7 0.627515 0.664498 0.325295
O O8 0.439599 0.680465 0.256285
O O9 0.250000 0.455178 0.090111
O O10 0.371595 0.530861 0.259224
O O11 0.566673 0.650887 0.579265
O O12 0.386434 0.610473 0.489365
O O13 0.750000 0.188935 0.030121
O O14 0.250000 0.152856 0.806035
#
# Coordination Sequence:
#
# PCOD8183712 Si02
#       6
#     8   8   8   8   8   8
#     4   9  18  34  57  85 117 151 187 234 295 349
#     4  10  20  35  59  88 114 146 194 244 281 326
#     4  10  20  35  59  87 114 150 191 232 283 340
#     4  10  20  35  60  89 114 148 193 239 286 336
#     4   9  18  33  55  84 117 153 192 234 283 340
#     4  10  21  36  57  85 117 154 192 229 281 351
#
# _framework density 22.092814000000001
#
# number of rings (size 3 to 8) (size 9 to 14) (size 15 to 20)
#    0.000    2.333    0.000    2.500    0.000    4.000 
#    0.000    0.000    0.000   37.000    0.000   35.000 
#    0.000    0.000    0.000    0.000    0.000    0.000 
#
# Total GULP energy -297595.332665 kJ/mol
# GULP energy per Si atom -12399.805528 kJ/mol
# Density = 2.204253 g / cm^3
# Si number density = 22.092814 Si / 1000 Ang^3
#
#
#
# Elastic Constant Matrix: (Units=GPa)
#
#
# Indices 1 2 3 4 5 6 
#
# 1 123.6127 29.3571 52.6065 0.0000 0.0000 0.0000
# 2 29.3571 88.0364 46.9413 0.0000 0.0000 0.0000
# 3 52.6065 46.9413 127.7919 0.0000 0.0000 0.0000
# 4 0.0000 0.0000 0.0000 26.9540 0.0000 0.0000
# 5 0.0000 0.0000 0.0000 0.0000 29.4278 0.0000
# 6 0.0000 0.0000 0.0000 0.0000 0.0000 25.4050
#
#
#
# Elastic Compliance Matrix: (Units=1/GPa)
#
#
# Indices 1 2 3 4 5 6 
#
# 1 0.009947 -0.001410 -0.003577 0.000000 0.000000 0.000000
# 2 -0.001410 0.014325 -0.004682 0.000000 0.000000 0.000000
# 3 -0.003577 -0.004682 0.011017 0.000000 0.000000 0.000000
# 4 0.000000 0.000000 0.000000 0.037100 0.000000 0.000000
# 5 0.000000 0.000000 0.000000 0.000000 0.033981 0.000000
# 6 0.000000 0.000000 0.000000 0.000000 0.000000 0.039362
#
#
# Mechanical properties :
#
#
# Convention : Reuss Voigt Hill
#
# Bulk Modulus (GPa) = 62.68455 66.36119 64.52287
# Shear Modulus (GPa) = 29.34482 30.39312 29.86897
#
# Velocity S-wave (km/s) = 3.64847 3.71307 3.68091
# Velocity P-wave (km/s) = 6.79583 6.96313 6.87999
#
# Compressibility (1/GPa) = 0.01595289
#
# Stress axis : x y z
#
# Youngs Moduli (GPa) = 100.53492 69.80633 90.76564
#
# Poissons Ratio (x) = 0.09841 0.32465
# Poissons Ratio (y) = 0.14173 0.42494
# Poissons Ratio (z) = 0.35960 0.32682
#
# Static dielectric constant tensor:
#      x y z
#    x 4.100540 0.000000 0.000000 
#    y 0.000000 3.637710 0.000000 
#    z 0.000000 0.000000 3.910530 
# 
# 
# High freq. dielectric constant tensor:
#      x y z
#    x 1.881360 0.000000 0.000000 
#    y 0.000000 1.837270 0.000000 
#    z 0.000000 0.000000 1.862680 
# 
# From -- ./inp_files/6473.got.cif
#   From: 2010.03.12/outbox.cif.g09.slc.cpg/sg40_4_cif.got.tgz:6473.got - 2010.04.14 01:38:03.
