data_PCOD8183922
_publ_section_title
;
Structure prediction by ZEFSAII (Michael W. Deem and Ramdas Pophale) SiO2 
 PCOD8183922
Probable space group: A M A 2
;
_chemical_formula_sum "Si O2"
_cell_formula_units_Z 40
_cell_length_a 24.973801
_cell_length_b 7.697673
_cell_length_c 10.454548
_cell_angle_alpha 90.000000
_cell_angle_beta 90.000000
_cell_angle_gamma 90.000000
_cell_volume 2009.783914
_symmetry_space_group_name_H-M "A M A 2"
_symmetry_group_IT_number 40
_symmetry_cell_setting 'orthorhombic'
loop_
_space_group_symop_operation_xyz
x,y,z
-x,-y,z
1/2-x,y,z
1/2+x,-y,z
x,1/2+y,1/2+z
-x,1/2-y,1/2+z
1/2-x,1/2+y,1/2+z
1/2+x,1/2-y,1/2+z
loop_
_atom_site_type_symbol
_atom_site_label
_atom_site_fract_x
_atom_site_fract_y
_atom_site_fract_z
Si Si1 0.124166 0.500443 0.840870
Si Si2 0.126248 0.604832 0.355908
Si Si3 0.093899 0.447208 0.110628
Si Si4 0.944254 0.409666 0.600596
Si Si5 0.188571 0.811890 0.750700
O O1 0.145676 0.303507 0.851489
O O2 0.079730 0.515561 0.731539
O O3 0.173858 0.629484 0.818660
O O4 0.095779 0.549826 0.976351
O O5 0.087381 0.575644 0.231236
O O6 0.094416 0.550992 0.481811
O O7 0.177170 0.474263 0.347080
O O8 0.047385 0.300022 0.110718
O O9 0.150468 0.337984 0.126740
O O10 0.000000 0.500000 0.572275
O O11 0.250000 0.808836 0.708451
#
# Coordination Sequence:
#
# PCOD8183922 Si02
#       5
#     8   8   8   8   8
#     4  10  20  38  60  83 118 153 189 243 289 345
#     4   9  21  38  60  83 121 152 191 243 288 350
#     4   8  20  38  55  84 118 145 194 245 275 354
#     4  10  21  38  59  87 117 153 199 244 297 351
#     4   9  20  38  61  86 118 153 192 243 292 347
#
# _framework density 19.902636999999999
#
# number of rings (size 3 to 8) (size 9 to 14) (size 15 to 20)
#    1.200    1.600    0.000    0.000    2.800    4.800 
#    0.000    9.000    0.000    0.000    0.000    0.000 
#    0.000    0.000    0.000    0.000    0.000    0.000 
#
# Total GULP energy -247778.694137 kJ/mol
# GULP energy per Si atom -12388.934707 kJ/mol
# Density = 1.985734 g / cm^3
# Si number density = 19.902637 Si / 1000 Ang^3
#
#
#
# Elastic Constant Matrix: (Units=GPa)
#
#
# Indices 1 2 3 4 5 6 
#
# 1 36.8311 5.6707 6.2402 0.0000 0.0000 0.0000
# 2 5.6707 82.0438 20.6917 0.0000 0.0000 0.0000
# 3 6.2402 20.6917 141.6168 0.0000 0.0000 0.0000
# 4 0.0000 0.0000 0.0000 26.3559 0.0000 0.0000
# 5 0.0000 0.0000 0.0000 0.0000 18.3367 0.0000
# 6 0.0000 0.0000 0.0000 0.0000 0.0000 19.5989
#
#
#
# Elastic Compliance Matrix: (Units=1/GPa)
#
#
# Indices 1 2 3 4 5 6 
#
# 1 0.027571 -0.001660 -0.000972 0.000000 0.000000 0.000000
# 2 -0.001660 0.012755 -0.001790 0.000000 0.000000 0.000000
# 3 -0.000972 -0.001790 0.007366 0.000000 0.000000 0.000000
# 4 0.000000 0.000000 0.000000 0.037942 0.000000 0.000000
# 5 0.000000 0.000000 0.000000 0.000000 0.054535 0.000000
# 6 0.000000 0.000000 0.000000 0.000000 0.000000 0.051023
#
#
# Mechanical properties :
#
#
# Convention : Reuss Voigt Hill
#
# Bulk Modulus (GPa) = 25.74294 36.18856 30.96575
# Shear Modulus (GPa) = 23.47551 28.05091 25.76321
#
# Velocity S-wave (km/s) = 3.43814 3.75828 3.60177
# Velocity P-wave (km/s) = 5.35944 6.08729 5.73492
#
# Compressibility (1/GPa) = 0.03884560
#
# Stress axis : x y z
#
# Youngs Moduli (GPa) = 36.26952 78.40103 135.76340
#
# Poissons Ratio (x) = 0.13018 0.13200
# Poissons Ratio (y) = 0.06022 0.24308
# Poissons Ratio (z) = 0.03526 0.14037
#
# Static dielectric constant tensor:
#      x y z
#    x 3.058050 0.000000 0.000000 
#    y 0.000000 3.691040 0.000000 
#    z 0.000000 0.000000 3.681620 
# 
# 
# High freq. dielectric constant tensor:
#      x y z
#    x 1.728090 0.000000 0.000000 
#    y 0.000000 1.785360 0.000000 
#    z 0.000000 0.000000 1.787690 
# 
# From -- ./inp_files/14140.got.cif
#   From: 2010.03.12/outbox.cif.g09.slc.cpg/sg40_8_cif.got.tgz:14140.got - 2010.04.14 01:38:03.
