data_PCOD8183554
_publ_section_title
;
Structure prediction by ZEFSAII (Michael W. Deem and Ramdas Pophale) SiO2 
 PCOD8183554
Probable space group: A M A 2
;
_chemical_formula_sum "Si O2"
_cell_formula_units_Z 40
_cell_length_a 8.819416
_cell_length_b 9.672437
_cell_length_c 25.358449
_cell_angle_alpha 90.000000
_cell_angle_beta 90.000000
_cell_angle_gamma 90.000000
_cell_volume 2163.208721
_symmetry_space_group_name_H-M "A M A 2"
_symmetry_group_IT_number 40
_symmetry_cell_setting 'orthorhombic'
loop_
_space_group_symop_operation_xyz
x,y,z
-x,-y,z
1/2-x,y,z
1/2+x,-y,z
x,1/2+y,1/2+z
-x,1/2-y,1/2+z
1/2-x,1/2+y,1/2+z
1/2+x,1/2-y,1/2+z
loop_
_atom_site_type_symbol
_atom_site_label
_atom_site_fract_x
_atom_site_fract_y
_atom_site_fract_z
Si Si1 0.928351 0.349735 0.074120
Si Si2 0.070012 0.851580 0.980030
Si Si3 0.928088 0.142174 0.282209
Si Si4 0.570908 0.644652 0.663402
Si Si5 0.069678 0.146916 0.870795
O O1 0.750000 0.369388 0.076247
O O2 0.986973 0.268387 0.125989
O O3 0.000000 0.500000 0.071393
O O4 0.977071 0.260537 0.023479
O O5 0.250000 0.868497 0.975143
O O6 0.000838 0.796349 0.925155
O O7 0.000000 0.000000 0.995214
O O8 0.750000 0.124017 0.283965
O O9 0.981425 0.180844 0.222964
O O10 0.983503 0.257728 0.322692
O O11 0.000000 0.000000 0.301310
O O12 0.500000 0.500000 0.644521
O O13 0.750000 0.627854 0.658641
O O14 0.250000 0.137726 0.876378
O O15 0.000000 0.000000 0.857184
#
# Coordination Sequence:
#
# PCOD8183554 Si02
#       5
#     8   8   8   8   8
#     4  10  22  36  52  76 105 133 166 207 253 300
#     4  10  20  35  54  76 100 132 171 209 248 298
#     4   9  19  34  53  76 103 133 168 207 250 297
#     4   9  18  35  55  76 101 132 169 208 248 298
#     4  10  20  34  52  76 103 134 169 207 249 297
#
# _framework density 18.491050999999999
#
# number of rings (size 3 to 8) (size 9 to 14) (size 15 to 20)
#    0.000    2.400    0.000    3.000    0.000    5.600 
#    0.000    4.000    0.000    0.000    0.000    0.000 
#    0.000    0.000    0.000    0.000    0.000    0.000 
#
# Total GULP energy -248001.364358 kJ/mol
# GULP energy per Si atom -12400.068218 kJ/mol
# Density = 1.844896 g / cm^3
# Si number density = 18.491051 Si / 1000 Ang^3
#
#
#
# Elastic Constant Matrix: (Units=GPa)
#
#
# Indices 1 2 3 4 5 6 
#
# 1 49.5793 44.9695 45.3399 0.0000 0.0000 0.0000
# 2 44.9695 150.9902 112.9607 0.0000 0.0000 0.0000
# 3 45.3399 112.9607 154.7977 0.0000 0.0000 0.0000
# 4 0.0000 0.0000 0.0000 35.1151 0.0000 0.0000
# 5 0.0000 0.0000 0.0000 0.0000 30.6784 0.0000
# 6 0.0000 0.0000 0.0000 0.0000 0.0000 34.3209
#
#
#
# Elastic Compliance Matrix: (Units=1/GPa)
#
#
# Indices 1 2 3 4 5 6 
#
# 1 0.029206 -0.005062 -0.004860 0.000000 0.000000 0.000000
# 2 -0.005062 0.015463 -0.009801 0.000000 0.000000 0.000000
# 3 -0.004860 -0.009801 0.015036 0.000000 0.000000 0.000000
# 4 0.000000 0.000000 0.000000 0.028478 0.000000 0.000000
# 5 0.000000 0.000000 0.000000 0.000000 0.032596 0.000000
# 6 0.000000 0.000000 0.000000 0.000000 0.000000 0.029137
#
#
# Mechanical properties :
#
#
# Convention : Reuss Voigt Hill
#
# Bulk Modulus (GPa) = 49.36446 84.65637 67.01042
# Shear Modulus (GPa) = 25.49504 30.16267 27.82885
#
# Velocity S-wave (km/s) = 3.71722 4.04320 3.88363
# Velocity P-wave (km/s) = 6.72146 8.22668 7.51187
#
# Compressibility (1/GPa) = 0.02025749
#
# Stress axis : x y z
#
# Youngs Moduli (GPa) = 34.23949 64.66893 66.50728
#
# Poissons Ratio (x) = 0.32738 0.32324
# Poissons Ratio (y) = 0.17333 0.65186
# Poissons Ratio (z) = 0.16641 0.63384
#
# Static dielectric constant tensor:
#      x y z
#    x 3.337780 0.000000 0.000000 
#    y 0.000000 3.382480 0.000000 
#    z 0.000000 0.000000 3.767850 
# 
# 
# High freq. dielectric constant tensor:
#      x y z
#    x 1.716380 0.000000 0.000000 
#    y 0.000000 1.713370 0.000000 
#    z 0.000000 0.000000 1.731370 
# 
# From -- ./inp_files/23818.got.cif
#   From: 2010.03.12/outbox.cif.g09.slc.cpg/sg40_12_cif.got.tgz:23818.got - 2010.04.14 01:38:03.
