data_PCOD8183547
_publ_section_title
;
Structure prediction by ZEFSAII (Michael W. Deem and Ramdas Pophale) SiO2 
 PCOD8183547
Probable space group: A M A 2
;
_chemical_formula_sum "Si O2"
_cell_formula_units_Z 48
_cell_length_a 8.819491
_cell_length_b 9.527071
_cell_length_c 31.423299
_cell_angle_alpha 90.000000
_cell_angle_beta 90.000000
_cell_angle_gamma 90.000000
_cell_volume 2640.308665
_symmetry_space_group_name_H-M "A M A 2"
_symmetry_group_IT_number 40
_symmetry_cell_setting 'orthorhombic'
loop_
_space_group_symop_operation_xyz
x,y,z
-x,-y,z
1/2-x,y,z
1/2+x,-y,z
x,1/2+y,1/2+z
-x,1/2-y,1/2+z
1/2-x,1/2+y,1/2+z
1/2+x,1/2-y,1/2+z
loop_
_atom_site_type_symbol
_atom_site_label
_atom_site_fract_x
_atom_site_fract_y
_atom_site_fract_z
Si Si1 0.571517 0.651887 0.281470
Si Si2 0.429612 0.350001 0.944650
Si Si3 0.429281 0.346698 0.097795
Si Si4 0.073511 0.850807 0.689898
Si Si5 0.928244 0.847767 0.022418
Si Si6 0.930868 0.849811 0.356529
O O1 0.500000 0.500000 0.286875
O O2 0.750000 0.633861 0.285831
O O3 0.529246 0.723181 0.235007
O O4 0.509872 0.750269 0.318828
O O5 0.500000 0.500000 0.957316
O O6 0.250000 0.368059 0.939345
O O7 0.502491 0.292858 0.900966
O O8 0.473181 0.237454 0.980301
O O9 0.500000 0.500000 0.090818
O O10 0.250000 0.364473 0.092372
O O11 0.473401 0.280365 0.144629
O O12 0.492920 0.238190 0.062938
O O13 0.250000 0.876779 0.688969
O O14 0.000000 0.000000 0.691231
O O15 0.750000 0.866639 0.026334
O O16 0.000000 0.000000 0.020607
O O17 0.750000 0.858484 0.359221
O O18 0.000000 0.000000 0.346272
#
# Coordination Sequence:
#
# PCOD8183547 Si02
#       6
#     8   8   8   8   8   8
#     4   9  18  31  49  73  99 128 161 198 240 284
#     4  10  20  35  54  74  95 123 162 202 240 284
#     4   9  17  31  52  75  97 125 162 200 238 282
#     4   8  14  27  47  70  96 124 157 197 236 277
#     4  10  22  36  50  72 101 130 159 195 240 288
#     4  10  20  34  51  72  98 128 162 198 239 285
#
# _framework density 18.179693
#
# number of rings (size 3 to 8) (size 9 to 14) (size 15 to 20)
#    0.000    2.667    0.000    2.500    0.000    4.000 
#    0.000    4.167    0.000    0.000    0.000    0.000 
#    0.000    0.000    0.000    0.000    0.000    0.000 
#
# Total GULP energy -297336.150383 kJ/mol
# GULP energy per Si atom -12389.006266 kJ/mol
# Density = 1.813831 g / cm^3
# Si number density = 18.179693 Si / 1000 Ang^3
#
#
#
# Elastic Constant Matrix: (Units=GPa)
#
#
# Indices 1 2 3 4 5 6 
#
# 1 40.9243 31.2692 47.4353 0.0000 0.0000 0.0000
# 2 31.2692 102.4882 102.8961 0.0000 0.0000 0.0000
# 3 47.4353 102.8961 209.5532 0.0000 0.0000 0.0000
# 4 0.0000 0.0000 0.0000 11.6501 0.0000 0.0000
# 5 0.0000 0.0000 0.0000 0.0000 23.6625 0.0000
# 6 0.0000 0.0000 0.0000 0.0000 0.0000 26.8964
#
#
#
# Elastic Compliance Matrix: (Units=1/GPa)
#
#
# Indices 1 2 3 4 5 6 
#
# 1 0.034528 -0.005301 -0.005213 0.000000 0.000000 0.000000
# 2 -0.005301 0.020058 -0.008649 0.000000 0.000000 0.000000
# 3 -0.005213 -0.008649 0.010199 0.000000 0.000000 0.000000
# 4 0.000000 0.000000 0.000000 0.085836 0.000000 0.000000
# 5 0.000000 0.000000 0.000000 0.000000 0.042261 0.000000
# 6 0.000000 0.000000 0.000000 0.000000 0.000000 0.037180
#
#
# Mechanical properties :
#
#
# Convention : Reuss Voigt Hill
#
# Bulk Modulus (GPa) = 37.79390 79.57409 58.68399
# Shear Modulus (GPa) = 18.03703 23.86613 20.95158
#
# Velocity S-wave (km/s) = 3.15326 3.62718 3.39849
# Velocity P-wave (km/s) = 5.83880 7.83631 6.91012
#
# Compressibility (1/GPa) = 0.02645930
#
# Stress axis : x y z
#
# Youngs Moduli (GPa) = 28.96201 49.85544 98.04792
#
# Poissons Ratio (x) = 0.26426 0.51114
# Poissons Ratio (y) = 0.15351 0.84803
# Poissons Ratio (z) = 0.15098 0.43121
#
# Static dielectric constant tensor:
#      x y z
#    x 3.316790 0.000000 0.000000 
#    y 0.000000 3.107890 0.000000 
#    z 0.000000 0.000000 4.227040 
# 
# 
# High freq. dielectric constant tensor:
#      x y z
#    x 1.702960 0.000000 0.000000 
#    y 0.000000 1.670810 0.000000 
#    z 0.000000 0.000000 1.734980 
# 
# From -- ./inp_files/26156.got.cif
#   From: 2010.03.12/outbox.cif.g09.slc.cpg/sg40_14_cif.got.tgz:26156.got - 2010.04.14 01:38:03.
