data_PCOD8183329
_publ_section_title
;
Structure prediction by ZEFSAII (Michael W. Deem and Ramdas Pophale) SiO2 
 PCOD8183329
Probable space group: A M A 2
;
_chemical_formula_sum "Si O2"
_cell_formula_units_Z 64
_cell_length_a 17.828971
_cell_length_b 13.451543
_cell_length_c 14.020680
_cell_angle_alpha 90.000000
_cell_angle_beta 90.000000
_cell_angle_gamma 90.000000
_cell_volume 3362.540007
_symmetry_space_group_name_H-M "A M A 2"
_symmetry_group_IT_number 40
_symmetry_cell_setting 'orthorhombic'
loop_
_space_group_symop_operation_xyz
x,y,z
-x,-y,z
1/2-x,y,z
1/2+x,-y,z
x,1/2+y,1/2+z
-x,1/2-y,1/2+z
1/2-x,1/2+y,1/2+z
1/2+x,1/2-y,1/2+z
loop_
_atom_site_type_symbol
_atom_site_label
_atom_site_fract_x
_atom_site_fract_y
_atom_site_fract_z
Si Si1 0.564333 0.235634 0.552880
Si Si2 0.100039 0.775231 0.068601
Si Si3 0.428658 0.935219 0.407986
Si Si4 0.164407 0.886808 0.687791
Si Si5 0.162761 0.639775 0.417563
Si Si6 0.836227 0.691532 0.771048
Si Si7 0.336544 0.413559 0.406476
Si Si8 0.836794 0.439479 0.050185
O O1 0.488266 0.286416 0.590527
O O2 0.542001 0.151691 0.476633
O O3 0.607974 0.191310 0.642400
O O4 0.617607 0.316915 0.505976
O O5 0.149048 0.806831 0.158868
O O6 0.116255 0.660628 0.048118
O O7 0.117445 0.844774 0.978353
O O8 0.390298 0.892174 0.313700
O O9 0.500000 0.000000 0.377035
O O10 0.363754 0.995832 0.461118
O O11 0.250000 0.858424 0.661385
O O12 0.150020 0.876740 0.799533
O O13 0.149194 0.998600 0.648150
O O14 0.250000 0.645268 0.443429
O O15 0.146974 0.701398 0.320118
O O16 0.135169 0.526999 0.407072
O O17 0.750000 0.661716 0.788902
O O18 0.250000 0.406513 0.435664
O O19 0.750000 0.412753 0.037191
#
# Coordination Sequence:
#
# PCOD8183329 Si02
#       8
#     8   8   8   8   8   8   8   8
#     4  10  21  36  58  86 116 151 188 235 295 339
#     4  12  23  36  55  83 123 153 188 238 287 343
#     4  10  19  38  59  85 115 145 186 244 286 337
#     4   9  19  36  61  88 113 146 194 240 288 347
#     4   9  19  39  63  82 108 149 199 240 282 344
#     4  10  21  38  61  85 111 151 197 236 281 342
#     4  10  21  38  58  83 115 150 192 243 286 334
#     4  10  19  35  61  86 112 150 190 232 289 348
#
# _framework density 19.033231000000001
#
# number of rings (size 3 to 8) (size 9 to 14) (size 15 to 20)
#    0.000    2.000    1.250    2.625    0.000    7.500 
#    2.250    1.250    0.000    3.000    0.000    0.000 
#    0.000    0.000    0.000    0.000    0.000    0.000 
#
# Total GULP energy -396834.142534 kJ/mol
# GULP energy per Si atom -12401.066954 kJ/mol
# Density = 1.898991 g / cm^3
# Si number density = 19.033231 Si / 1000 Ang^3
#
#
#
# Elastic Constant Matrix: (Units=GPa)
#
#
# Indices 1 2 3 4 5 6 
#
# 1 100.7443 46.7214 42.7783 0.0000 0.0000 0.0000
# 2 46.7214 72.7754 55.9139 0.0000 0.0000 0.0000
# 3 42.7783 55.9139 87.6703 0.0000 0.0000 0.0000
# 4 0.0000 0.0000 0.0000 21.8566 0.0000 0.0000
# 5 0.0000 0.0000 0.0000 0.0000 54.7691 0.0000
# 6 0.0000 0.0000 0.0000 0.0000 0.0000 19.4249
#
#
#
# Elastic Compliance Matrix: (Units=1/GPa)
#
#
# Indices 1 2 3 4 5 6 
#
# 1 0.014349 -0.007515 -0.002209 0.000000 0.000000 0.000000
# 2 -0.007515 0.030879 -0.016027 0.000000 0.000000 0.000000
# 3 -0.002209 -0.016027 0.022706 0.000000 0.000000 0.000000
# 4 0.000000 0.000000 0.000000 0.045753 0.000000 0.000000
# 5 0.000000 0.000000 0.000000 0.000000 0.018258 0.000000
# 6 0.000000 0.000000 0.000000 0.000000 0.000000 0.051480
#
#
# Mechanical properties :
#
#
# Convention : Reuss Voigt Hill
#
# Bulk Modulus (GPa) = 60.85503 61.33524 61.09513
# Shear Modulus (GPa) = 20.79822 26.92854 23.86338
#
# Velocity S-wave (km/s) = 3.30924 3.76549 3.54471
# Velocity P-wave (km/s) = 6.82963 7.15545 6.99444
#
# Compressibility (1/GPa) = 0.01643249
#
# Stress axis : x y z
#
# Youngs Moduli (GPa) = 69.69022 32.38411 44.04178
#
# Poissons Ratio (x) = 0.24337 0.09727
# Poissons Ratio (y) = 0.52374 0.70586
# Poissons Ratio (z) = 0.15392 0.51902
#
# Static dielectric constant tensor:
#      x y z
#    x 3.317230 0.000000 0.000000 
#    y 0.000000 3.495460 0.000000 
#    z 0.000000 0.000000 3.332460 
# 
# 
# High freq. dielectric constant tensor:
#      x y z
#    x 1.746380 0.000000 0.000000 
#    y 0.000000 1.734410 0.000000 
#    z 0.000000 0.000000 1.731950 
# 
# From -- ./inp_files/17857.got.cif
#   From: 2010.03.12/outbox.cif.g09.slc.cpg/sg40_9_cif.got.tgz:17857.got - 2010.04.14 01:38:03.
