data_PCOD8183099
_publ_section_title
;
Structure prediction by ZEFSAII (Michael W. Deem and Ramdas Pophale) SiO2 
 PCOD8183099
Probable space group: A M A 2
;
_chemical_formula_sum "Si O2"
_cell_formula_units_Z 64
_cell_length_a 9.072132
_cell_length_b 14.487242
_cell_length_c 27.736432
_cell_angle_alpha 90.000000
_cell_angle_beta 90.000000
_cell_angle_gamma 90.000000
_cell_volume 3645.404021
_symmetry_space_group_name_H-M "A M A 2"
_symmetry_group_IT_number 40
_symmetry_cell_setting 'orthorhombic'
loop_
_space_group_symop_operation_xyz
x,y,z
-x,-y,z
1/2-x,y,z
1/2+x,-y,z
x,1/2+y,1/2+z
-x,1/2-y,1/2+z
1/2-x,1/2+y,1/2+z
1/2+x,1/2-y,1/2+z
loop_
_atom_site_type_symbol
_atom_site_label
_atom_site_fract_x
_atom_site_fract_y
_atom_site_fract_z
Si Si1 0.423922 0.404221 0.948470
Si Si2 0.082485 0.158214 0.735652
Si Si3 0.420562 0.223385 0.374366
Si Si4 0.923425 0.210929 0.646660
Si Si5 0.076365 0.592143 0.337812
Si Si6 0.914095 0.325572 0.771784
Si Si7 0.584077 0.411365 0.676293
Si Si8 0.421482 0.406909 0.058426
O O1 0.500000 0.500000 0.933301
O O2 0.250000 0.412767 0.939268
O O3 0.490639 0.320639 0.918192
O O4 0.461880 0.379869 0.003838
O O5 0.250000 0.156645 0.718659
O O6 0.053849 0.087886 0.779678
O O7 0.986081 0.140889 0.687583
O O8 0.044042 0.257766 0.757095
O O9 0.250000 0.238480 0.388927
O O10 0.493468 0.321207 0.361491
O O11 0.432765 0.152481 0.328608
O O12 0.750000 0.210297 0.653111
O O13 0.982911 0.315532 0.654933
O O14 0.972098 0.175785 0.593858
O O15 0.250000 0.595929 0.350939
O O16 0.000000 0.500000 0.358928
O O17 0.750000 0.280187 0.764372
O O18 0.925281 0.412146 0.735203
O O19 0.500000 0.500000 0.655579
O O20 0.750000 0.421863 0.658021
O O21 0.500000 0.500000 0.074884
O O22 0.250000 0.426273 0.063877
#
# Coordination Sequence:
#
# PCOD8183099 Si02
#       8
#     8   8   8   8   8   8   8   8
#     4  10  20  35  54  76 100 126 160 203 254 308
#     4   9  17  28  44  68  95 124 161 202 239 278
#     4  10  19  33  53  75 100 131 167 206 250 299
#     4   9  18  33  50  68  95 131 165 199 246 298
#     4  10  20  33  49  72 103 138 173 207 245 292
#     4   8  16  30  45  63  91 127 161 193 233 281
#     4   9  17  29  45  66  94 127 161 194 230 275
#     4   9  19  35  54  74  96 124 158 200 250 301
#
# _framework density 17.556353000000001
#
# number of rings (size 3 to 8) (size 9 to 14) (size 15 to 20)
#    0.000    2.750    0.000    2.250    0.000    6.000 
#    0.000    3.750    0.000    0.750    0.000    1.750 
#    0.000    0.000    0.000    0.000    0.000    0.000 
#
# Total GULP energy -396497.704856 kJ/mol
# GULP energy per Si atom -12390.553277 kJ/mol
# Density = 1.751639 g / cm^3
# Si number density = 17.556353 Si / 1000 Ang^3
#
#
#
# Elastic Constant Matrix: (Units=GPa)
#
#
# Indices 1 2 3 4 5 6 
#
# 1 75.6268 48.8051 39.5401 0.0000 0.0000 0.0000
# 2 48.8051 95.9075 55.4341 0.0000 0.0000 0.0000
# 3 39.5401 55.4341 96.0723 0.0000 0.0000 0.0000
# 4 0.0000 0.0000 0.0000 23.6366 0.0000 0.0000
# 5 0.0000 0.0000 0.0000 0.0000 22.3199 0.0000
# 6 0.0000 0.0000 0.0000 0.0000 0.0000 27.9820
#
#
#
# Elastic Compliance Matrix: (Units=1/GPa)
#
#
# Indices 1 2 3 4 5 6 
#
# 1 0.020498 -0.008334 -0.003627 0.000000 0.000000 0.000000
# 2 -0.008334 0.019033 -0.007552 0.000000 0.000000 0.000000
# 3 -0.003627 -0.007552 0.016259 0.000000 0.000000 0.000000
# 4 0.000000 0.000000 0.000000 0.042307 0.000000 0.000000
# 5 0.000000 0.000000 0.000000 0.000000 0.044803 0.000000
# 6 0.000000 0.000000 0.000000 0.000000 0.000000 0.035737
#
#
# Mechanical properties :
#
#
# Convention : Reuss Voigt Hill
#
# Bulk Modulus (GPa) = 59.65582 61.68502 60.67042
# Shear Modulus (GPa) = 22.39626 23.04288 22.71957
#
# Velocity S-wave (km/s) = 3.57554 3.62679 3.60125
# Velocity P-wave (km/s) = 7.14838 7.26291 7.20587
#
# Compressibility (1/GPa) = 0.01676282
#
# Stress axis : x y z
#
# Youngs Moduli (GPa) = 48.78588 52.54091 61.50383
#
# Poissons Ratio (x) = 0.43789 0.22309
# Poissons Ratio (y) = 0.40660 0.46447
# Poissons Ratio (z) = 0.17696 0.39678
#
# Static dielectric constant tensor:
#      x y z
#    x 3.302170 0.000000 0.000000 
#    y 0.000000 3.103840 0.000000 
#    z 0.000000 0.000000 3.339720 
# 
# 
# High freq. dielectric constant tensor:
#      x y z
#    x 1.686370 0.000000 0.000000 
#    y 0.000000 1.654970 0.000000 
#    z 0.000000 0.000000 1.662600 
# 
# From -- ./inp_files/26487.got.cif
#   From: 2010.03.12/outbox.cif.g09.slc.cpg/sg40_14_cif.got.tgz:26487.got - 2010.04.14 01:38:03.
