data_PCOD8183491
_publ_section_title
;
Structure prediction by ZEFSAII (Michael W. Deem and Ramdas Pophale) SiO2 
 PCOD8183491
Probable space group: A M A 2
;
_chemical_formula_sum "Si O2"
_cell_formula_units_Z 64
_cell_length_a 9.588597
_cell_length_b 12.493346
_cell_length_c 27.541166
_cell_angle_alpha 90.000000
_cell_angle_beta 90.000000
_cell_angle_gamma 90.000000
_cell_volume 3299.257075
_symmetry_space_group_name_H-M "A M A 2"
_symmetry_group_IT_number 40
_symmetry_cell_setting 'orthorhombic'
loop_
_space_group_symop_operation_xyz
x,y,z
-x,-y,z
1/2-x,y,z
1/2+x,-y,z
x,1/2+y,1/2+z
-x,1/2-y,1/2+z
1/2-x,1/2+y,1/2+z
1/2+x,1/2-y,1/2+z
loop_
_atom_site_type_symbol
_atom_site_label
_atom_site_fract_x
_atom_site_fract_y
_atom_site_fract_z
Si Si1 0.094018 0.604796 0.448320
Si Si2 0.914291 0.734288 0.683661
Si Si3 0.595248 0.411015 0.957444
Si Si4 0.493003 0.248631 0.531280
Si Si5 0.410369 0.298165 0.882974
Si Si6 0.413552 0.891135 0.618802
Si Si7 0.897736 0.586104 0.599765
Si Si8 0.411811 0.889830 0.278911
O O1 0.250000 0.561489 0.442520
O O2 0.089411 0.676768 0.497217
O O3 0.053216 0.677585 0.401177
O O4 0.000000 0.500000 0.451049
O O5 0.750000 0.767482 0.679680
O O6 0.946886 0.629619 0.651544
O O7 0.956278 0.694349 0.737132
O O8 0.013182 0.830148 0.664480
O O9 0.500000 0.500000 0.983431
O O10 0.750000 0.451514 0.943920
O O11 0.514200 0.380529 0.908596
O O12 0.607667 0.317424 0.996268
O O13 0.583272 0.177393 0.568862
O O14 0.384959 0.317377 0.562228
O O15 0.250000 0.323651 0.897402
O O16 0.436386 0.316764 0.826282
O O17 0.250000 0.913570 0.630923
O O18 0.500000 0.000000 0.610825
O O19 0.750000 0.528222 0.604920
O O20 0.000000 0.500000 0.577645
O O21 0.250000 0.923312 0.273305
O O22 0.500000 0.000000 0.278839
#
# Coordination Sequence:
#
# PCOD8183491 Si02
#       8
#     8   8   8   8   8   8   8   8
#     4  10  21  37  56  79 109 145 185 229 276 327
#     4   9  20  38  57  80 112 146 182 225 275 333
#     4  11  22  35  53  77 107 143 182 225 275 331
#     4  10  22  36  54  77 106 142 185 228 270 325
#     4   9  20  38  57  80 112 147 185 230 280 335
#     4  11  23  39  60  84 112 148 188 231 280 334
#     4  10  20  33  50  74 104 137 173 216 265 319
#     4  10  20  36  60  87 115 148 185 232 287 338
#
# _framework density 19.398306999999999
#
# number of rings (size 3 to 8) (size 9 to 14) (size 15 to 20)
#    0.000    2.000    0.000    3.000    0.000   12.000 
#    0.000    0.625    0.000    1.500    0.000    0.000 
#    0.000    0.000    0.000    0.000    0.000    0.000 
#
# Total GULP energy -396533.276688 kJ/mol
# GULP energy per Si atom -12391.664897 kJ/mol
# Density = 1.935416 g / cm^3
# Si number density = 19.398307 Si / 1000 Ang^3
#
#
#
# Elastic Constant Matrix: (Units=GPa)
#
#
# Indices 1 2 3 4 5 6 
#
# 1 123.7620 66.0721 40.6208 0.0000 0.0000 0.0000
# 2 66.0721 119.8855 56.3908 0.0000 0.0000 0.0000
# 3 40.6208 56.3908 133.8082 0.0000 0.0000 0.0000
# 4 0.0000 0.0000 0.0000 19.5310 0.0000 0.0000
# 5 0.0000 0.0000 0.0000 0.0000 -4.7088 0.0000
# 6 0.0000 0.0000 0.0000 0.0000 0.0000 31.1384
#
#
#
# Elastic Compliance Matrix: (Units=1/GPa)
#
#
# Indices 1 2 3 4 5 6 
#
# 1 0.011561 -0.005888 -0.001028 0.000000 0.000000 0.000000
# 2 -0.005888 0.013402 -0.003861 0.000000 0.000000 0.000000
# 3 -0.001028 -0.003861 0.009413 0.000000 0.000000 0.000000
# 4 0.000000 0.000000 0.000000 0.051201 0.000000 0.000000
# 5 0.000000 0.000000 0.000000 0.000000 -0.212370 0.000000
# 6 0.000000 0.000000 0.000000 0.000000 0.000000 0.032115
#
#
# Mechanical properties :
#
#
# Convention : Reuss Voigt Hill
#
# Bulk Modulus (GPa) = 77.99090 78.18033 78.08561
# Shear Modulus (GPa) = -72.62003 23.48359 -24.56822
#
# Velocity S-wave (km/s) = -6.12516 3.48314 -3.56267
# Velocity P-wave (km/s) = 3.11947 7.52107 4.83918
#
# Compressibility (1/GPa) = 0.01282201
#
# Stress axis : x y z
#
# Youngs Moduli (GPa) = 86.49916 74.61479 106.24105
#
# Poissons Ratio (x) = 0.43932 0.10925
# Poissons Ratio (y) = 0.50929 0.41016
# Poissons Ratio (z) = 0.08895 0.28806
#
# Static dielectric constant tensor:
#      x y z
#    x 3.473510 0.000000 0.000000 
#    y 0.000000 3.565950 0.000000 
#    z 0.000000 0.000000 3.605090 
# 
# 
# High freq. dielectric constant tensor:
#      x y z
#    x 1.755710 0.000000 0.000000 
#    y 0.000000 1.751110 0.000000 
#    z 0.000000 0.000000 1.751850 
# 
# From -- ./inp_files/26370.got.cif
#   From: 2010.03.12/outbox.cif.g09.slc.cpg/sg40_14_cif.got.tgz:26370.got - 2010.04.14 01:38:03.
