data_PCOD8183150
_publ_section_title
;
Structure prediction by ZEFSAII (Michael W. Deem and Ramdas Pophale) SiO2 
 PCOD8183150
Probable space group: A M A 2
;
_chemical_formula_sum "Si O2"
_cell_formula_units_Z 48
_cell_length_a 9.157062
_cell_length_b 27.498257
_cell_length_c 9.847267
_cell_angle_alpha 90.000000
_cell_angle_beta 90.000000
_cell_angle_gamma 90.000000
_cell_volume 2479.573778
_symmetry_space_group_name_H-M "A M A 2"
_symmetry_group_IT_number 40
_symmetry_cell_setting 'orthorhombic'
loop_
_space_group_symop_operation_xyz
x,y,z
-x,-y,z
1/2-x,y,z
1/2+x,-y,z
x,1/2+y,1/2+z
-x,1/2-y,1/2+z
1/2-x,1/2+y,1/2+z
1/2+x,1/2-y,1/2+z
loop_
_atom_site_type_symbol
_atom_site_label
_atom_site_fract_x
_atom_site_fract_y
_atom_site_fract_z
Si Si1 0.584507 0.121367 0.017550
Si Si2 0.423283 0.448218 0.758719
Si Si3 0.578775 0.287452 0.417520
Si Si4 0.086356 0.955004 0.788935
Si Si5 0.423558 0.900381 0.534293
Si Si6 0.578333 0.703750 0.131771
O O1 0.750000 0.138741 0.049167
O O2 0.527819 0.084960 0.133038
O O3 0.479771 0.167280 0.004939
O O4 0.577500 0.093406 0.876355
O O5 0.500000 0.500000 0.747753
O O6 0.250000 0.456860 0.760960
O O7 0.480571 0.418519 0.889230
O O8 0.750000 0.293983 0.391444
O O9 0.501218 0.281495 0.271719
O O10 0.544674 0.241114 0.510930
O O11 0.250000 0.973982 0.776607
O O12 0.021418 0.940436 0.642427
O O13 0.000000 0.000000 0.853721
O O14 0.250000 0.897218 0.535470
O O15 0.484311 0.847398 0.575193
O O16 0.750000 0.701111 0.165322
#
# Coordination Sequence:
#
# PCOD8183150 Si02
#       6
#     8   8   8   8   8   8
#     4  10  21  38  59  81 116 161 193 232 294 356
#     4  10  21  36  58  85 115 156 198 238 291 348
#     4  11  24  39  63  94 118 151 198 248 296 346
#     4  10  19  33  55  80 108 148 190 233 287 341
#     4   9  18  36  58  80 111 152 192 227 283 356
#     4  10  22  42  63  86 121 157 193 240 296 362
#
# _framework density 19.358165
#
# number of rings (size 3 to 8) (size 9 to 14) (size 15 to 20)
#    0.000    2.000    1.667    1.500    2.333    2.667 
#    0.000    0.833    0.000    0.000    0.000    0.000 
#    0.000    0.000    0.000    0.000    0.000    0.000 
#
# Total GULP energy -297580.298250 kJ/mol
# GULP energy per Si atom -12399.179094 kJ/mol
# Density = 1.931410 g / cm^3
# Si number density = 19.358165 Si / 1000 Ang^3
#
#
#
# Elastic Constant Matrix: (Units=GPa)
#
#
# Indices 1 2 3 4 5 6 
#
# 1 60.7160 43.8652 35.2830 0.0000 0.0000 0.0000
# 2 43.8652 99.8101 32.4844 0.0000 0.0000 0.0000
# 3 35.2830 32.4844 120.1309 0.0000 0.0000 0.0000
# 4 0.0000 0.0000 0.0000 30.0049 0.0000 0.0000
# 5 0.0000 0.0000 0.0000 0.0000 -17.1356 0.0000
# 6 0.0000 0.0000 0.0000 0.0000 0.0000 33.1274
#
#
#
# Elastic Compliance Matrix: (Units=1/GPa)
#
#
# Indices 1 2 3 4 5 6 
#
# 1 0.026731 -0.010080 -0.005125 0.000000 0.000000 0.000000
# 2 -0.010080 0.014787 -0.001038 0.000000 0.000000 0.000000
# 3 -0.005125 -0.001038 0.010110 0.000000 0.000000 0.000000
# 4 0.000000 0.000000 0.000000 0.033328 0.000000 0.000000
# 5 0.000000 0.000000 0.000000 0.000000 -0.058358 0.000000
# 6 0.000000 0.000000 0.000000 0.000000 0.000000 0.030186
#
#
# Mechanical properties :
#
#
# Convention : Reuss Voigt Hill
#
# Bulk Modulus (GPa) = 52.24188 55.99135 54.11662
# Shear Modulus (GPa) = 52.27353 20.46764 36.37059
#
# Velocity S-wave (km/s) = 5.20211 3.25516 4.33924
# Velocity P-wave (km/s) = 7.94533 6.56619 7.28845
#
# Compressibility (1/GPa) = 0.01914173
#
# Stress axis : x y z
#
# Youngs Moduli (GPa) = 37.41009 67.62812 98.90942
#
# Poissons Ratio (x) = 0.68167 0.50694
# Poissons Ratio (y) = 0.37708 0.10267
# Poissons Ratio (z) = 0.19174 0.07020
#
# Static dielectric constant tensor:
#      x y z
#    x 3.348690 0.000000 0.000000 
#    y 0.000000 3.552000 0.000000 
#    z 0.000000 0.000000 3.728040 
# 
# 
# High freq. dielectric constant tensor:
#      x y z
#    x 1.726720 0.000000 0.000000 
#    y 0.000000 1.763590 0.000000 
#    z 0.000000 0.000000 1.769340 
# 
# From -- ./inp_files/4585.got.cif
#   From: 2010.03.12/outbox.cif.g09.slc.cpg/sg40_3_cif.got.tgz:4585.got - 2010.04.14 01:38:03.
