data_PCOD8183624
_publ_section_title
;
Structure prediction by ZEFSAII (Michael W. Deem and Ramdas Pophale) SiO2 
 PCOD8183624
Probable space group: A M A 2
;
_chemical_formula_sum "Si O2"
_cell_formula_units_Z 48
_cell_length_a 14.461103
_cell_length_b 16.209310
_cell_length_c 9.807112
_cell_angle_alpha 90.000000
_cell_angle_beta 90.000000
_cell_angle_gamma 90.000000
_cell_volume 2298.831199
_symmetry_space_group_name_H-M "A M A 2"
_symmetry_group_IT_number 40
_symmetry_cell_setting 'orthorhombic'
loop_
_space_group_symop_operation_xyz
x,y,z
-x,-y,z
1/2-x,y,z
1/2+x,-y,z
x,1/2+y,1/2+z
-x,1/2-y,1/2+z
1/2-x,1/2+y,1/2+z
1/2+x,1/2-y,1/2+z
loop_
_atom_site_type_symbol
_atom_site_label
_atom_site_fract_x
_atom_site_fract_y
_atom_site_fract_z
Si Si1 0.750000 0.707227 0.305370
Si Si2 0.750000 0.348943 0.004821
Si Si3 0.556137 0.204361 0.686171
Si Si4 0.250000 0.424195 0.532060
Si Si5 0.081892 0.720690 0.403495
Si Si6 0.575176 0.941920 0.599884
Si Si7 0.400204 0.529957 0.393089
Si Si8 0.250000 0.787419 0.244591
O O1 0.750000 0.802490 0.358616
O O2 0.662204 0.682753 0.214942
O O3 0.750000 0.655497 0.440349
O O4 0.658391 0.407193 0.007595
O O5 0.750000 0.286316 0.132666
O O6 0.554094 0.263466 0.558073
O O7 0.511396 0.244589 0.821050
O O8 0.488592 0.128557 0.662415
O O9 0.337207 0.481182 0.499848
O O10 0.250000 0.381039 0.682110
O O11 0.116784 0.627095 0.405994
O O12 0.161367 0.779110 0.342213
O O13 0.617599 0.991154 0.731989
O O14 0.500000 0.000000 0.519033
O O15 0.500000 0.500000 0.438696
#
# Coordination Sequence:
#
# PCOD8183624 Si02
#       8
#     4   4   8   4   8   8   8   4
#     4  11  23  36  61  96 129 170 218 281 325 401
#     4  11  19  38  61  91 128 172 221 272 342 396
#     4  11  23  39  65  93 130 170 221 268 335 393
#     4  11  22  36  65  97 128 158 224 273 321 387
#     4  11  23  41  66  93 133 173 221 274 329 403
#     4  10  20  35  62  94 125 168 218 278 329 380
#     4  10  20  34  61  95 124 162 218 276 315 373
#     4  11  22  38  63  90 129 172 207 268 344 390
#
# _framework density 20.880177
#
# number of rings (size 3 to 8) (size 9 to 14) (size 15 to 20)
#    0.000    1.333    3.333    5.500    4.667    0.667 
#    0.000    0.000   11.000    0.000    0.000    0.000 
#    0.000    0.000    0.000    0.000    0.000    0.000 
#
# Total GULP energy -297361.983511 kJ/mol
# GULP energy per Si atom -12390.082646 kJ/mol
# Density = 2.083265 g / cm^3
# Si number density = 20.880177 Si / 1000 Ang^3
#
#
#
# Elastic Constant Matrix: (Units=GPa)
#
#
# Indices 1 2 3 4 5 6 
#
# 1 155.5727 45.2773 32.7762 0.0000 0.0000 0.0000
# 2 45.2773 86.8796 40.8321 0.0000 0.0000 0.0000
# 3 32.7762 40.8321 52.5453 0.0000 0.0000 0.0000
# 4 0.0000 0.0000 0.0000 24.5251 0.0000 0.0000
# 5 0.0000 0.0000 0.0000 0.0000 21.1799 0.0000
# 6 0.0000 0.0000 0.0000 0.0000 0.0000 32.9088
#
#
#
# Elastic Compliance Matrix: (Units=1/GPa)
#
#
# Indices 1 2 3 4 5 6 
#
# 1 0.007812 -0.002806 -0.002692 0.000000 0.000000 0.000000
# 2 -0.002806 0.019140 -0.013123 0.000000 0.000000 0.000000
# 3 -0.002692 -0.013123 0.030909 0.000000 0.000000 0.000000
# 4 0.000000 0.000000 0.000000 0.040775 0.000000 0.000000
# 5 0.000000 0.000000 0.000000 0.000000 0.047214 0.000000
# 6 0.000000 0.000000 0.000000 0.000000 0.000000 0.030387
#
#
# Mechanical properties :
#
#
# Convention : Reuss Voigt Hill
#
# Bulk Modulus (GPa) = 48.50265 59.19654 53.84959
# Shear Modulus (GPa) = 22.69094 27.46357 25.07725
#
# Velocity S-wave (km/s) = 3.30012 3.63063 3.46932
# Velocity P-wave (km/s) = 6.14821 6.78141 6.47256
#
# Compressibility (1/GPa) = 0.02061743
#
# Stress axis : x y z
#
# Youngs Moduli (GPa) = 128.01391 52.24611 32.35330
#
# Poissons Ratio (x) = 0.14658 0.08711
# Poissons Ratio (y) = 0.35916 0.42459
# Poissons Ratio (z) = 0.34467 0.68565
#
# Static dielectric constant tensor:
#      x y z
#    x 4.180940 0.000000 0.000000 
#    y 0.000000 3.855750 0.000000 
#    z 0.000000 0.000000 3.724400 
# 
# 
# High freq. dielectric constant tensor:
#      x y z
#    x 1.834050 0.000000 0.000000 
#    y 0.000000 1.807670 0.000000 
#    z 0.000000 0.000000 1.787810 
# 
# From -- ./inp_files/11245.got.cif
#   From: 2010.03.12/outbox.cif.g09.slc.cpg/sg40_6_cif.got.tgz:11245.got - 2010.04.14 01:38:03.
