data_PCOD8183609
_publ_section_title
;
Structure prediction by ZEFSAII (Michael W. Deem and Ramdas Pophale) SiO2 
 PCOD8183609
Probable space group: A M A 2
;
_chemical_formula_sum "Si O2"
_cell_formula_units_Z 64
_cell_length_a 8.881450
_cell_length_b 24.891574
_cell_length_c 14.955524
_cell_angle_alpha 90.000000
_cell_angle_beta 90.000000
_cell_angle_gamma 90.000000
_cell_volume 3306.266594
_symmetry_space_group_name_H-M "A M A 2"
_symmetry_group_IT_number 40
_symmetry_cell_setting 'orthorhombic'
loop_
_space_group_symop_operation_xyz
x,y,z
-x,-y,z
1/2-x,y,z
1/2+x,-y,z
x,1/2+y,1/2+z
-x,1/2-y,1/2+z
1/2-x,1/2+y,1/2+z
1/2+x,1/2-y,1/2+z
loop_
_atom_site_type_symbol
_atom_site_label
_atom_site_fract_x
_atom_site_fract_y
_atom_site_fract_z
Si Si1 0.075841 0.278297 0.752270
Si Si2 0.927931 0.857373 0.952245
Si Si3 0.072218 0.057289 0.098517
Si Si4 0.074095 0.331215 0.280864
Si Si5 0.927175 0.649713 0.077584
Si Si6 0.575310 0.387378 0.780312
Si Si7 0.575189 0.240226 0.046962
Si Si8 0.925751 0.442940 0.965815
O O1 0.250000 0.269411 0.775631
O O2 0.047389 0.281283 0.646563
O O3 0.982011 0.229681 0.794050
O O4 0.018878 0.333356 0.795882
O O5 0.750000 0.853297 0.952125
O O6 0.989731 0.869422 0.852582
O O7 0.983085 0.904056 0.018770
O O8 0.995376 0.800398 0.980461
O O9 0.250000 0.050458 0.098975
O O10 0.016027 0.081709 0.192527
O O11 0.000000 0.000000 0.081680
O O12 0.250000 0.333233 0.299828
O O13 0.033210 0.352572 0.182617
O O14 0.750000 0.652596 0.060985
O O15 0.002268 0.701564 0.032419
O O16 0.995709 0.597164 0.034054
O O17 0.750000 0.371751 0.769630
O O18 0.545521 0.425713 0.863960
O O19 0.750000 0.244404 0.023016
O O20 0.750000 0.445643 0.988092
O O21 0.000000 0.500000 0.981931
#
# Coordination Sequence:
#
# PCOD8183609 Si02
#       8
#     8   8   8   8   8   8   8   8
#     4  10  20  34  56  87 120 157 198 238 287 351
#     4  11  22  37  59  87 120 159 200 246 296 352
#     4  10  22  39  60  85 118 158 199 243 294 351
#     4  10  22  39  60  85 119 158 196 247 303 356
#     4  10  22  41  63  86 117 157 199 249 305 358
#     4  10  21  38  58  85 121 159 196 240 295 352
#     4  10  20  35  57  87 120 156 196 241 292 351
#     4  11  24  41  63  88 118 156 201 254 301 357
#
# _framework density 19.357181000000001
#
# number of rings (size 3 to 8) (size 9 to 14) (size 15 to 20)
#    0.000    1.750    1.250    2.625    1.750    5.000 
#    0.000    0.625    0.000    1.500    0.000    0.000 
#    0.000    0.000    0.000    0.000    0.000    0.000 
#
# Total GULP energy -396979.886777 kJ/mol
# GULP energy per Si atom -12405.621462 kJ/mol
# Density = 1.931312 g / cm^3
# Si number density = 19.357181 Si / 1000 Ang^3
#
#
#
# Elastic Constant Matrix: (Units=GPa)
#
#
# Indices 1 2 3 4 5 6 
#
# 1 82.4733 48.6704 47.3909 0.0000 0.0000 0.0000
# 2 48.6704 132.2771 62.5439 0.0000 0.0000 0.0000
# 3 47.3909 62.5439 103.8770 0.0000 0.0000 0.0000
# 4 0.0000 0.0000 0.0000 27.9368 0.0000 0.0000
# 5 0.0000 0.0000 0.0000 0.0000 32.0683 0.0000
# 6 0.0000 0.0000 0.0000 0.0000 0.0000 36.9804
#
#
#
# Elastic Compliance Matrix: (Units=1/GPa)
#
#
# Indices 1 2 3 4 5 6 
#
# 1 0.017678 -0.003762 -0.005800 0.000000 0.000000 0.000000
# 2 -0.003762 0.011369 -0.005129 0.000000 0.000000 0.000000
# 3 -0.005800 -0.005129 0.015361 0.000000 0.000000 0.000000
# 4 0.000000 0.000000 0.000000 0.035795 0.000000 0.000000
# 5 0.000000 0.000000 0.000000 0.000000 0.031183 0.000000
# 6 0.000000 0.000000 0.000000 0.000000 0.000000 0.027041
#
#
# Mechanical properties :
#
#
# Convention : Reuss Voigt Hill
#
# Bulk Modulus (GPa) = 66.55082 70.64864 68.59973
# Shear Modulus (GPa) = 28.93199 30.06525 29.49862
#
# Velocity S-wave (km/s) = 3.87025 3.94532 3.90797
# Velocity P-wave (km/s) = 7.37745 7.57170 7.47521
#
# Compressibility (1/GPa) = 0.01502611
#
# Stress axis : x y z
#
# Youngs Moduli (GPa) = 56.56720 87.95640 65.09997
#
# Poissons Ratio (x) = 0.33091 0.37758
# Poissons Ratio (y) = 0.21281 0.33390
# Poissons Ratio (z) = 0.32809 0.45113
#
# Static dielectric constant tensor:
#      x y z
#    x 3.573410 0.000000 0.000000 
#    y 0.000000 3.416310 0.000000 
#    z 0.000000 0.000000 3.727760 
# 
# 
# High freq. dielectric constant tensor:
#      x y z
#    x 1.762040 0.000000 0.000000 
#    y 0.000000 1.744110 0.000000 
#    z 0.000000 0.000000 1.761550 
# 
# From -- ./inp_files/15616.got.cif
#   From: 2010.03.12/outbox.cif.g09.slc.cpg/sg40_8_cif.got.tgz:15616.got - 2010.04.14 01:38:03.
