data_PCOD8183882
_publ_section_title
;
Structure prediction by ZEFSAII (Michael W. Deem and Ramdas Pophale) SiO2 
 PCOD8183882
Probable space group: A M A 2
;
_chemical_formula_sum "Si O2"
_cell_formula_units_Z 36
_cell_length_a 9.764153
_cell_length_b 21.507988
_cell_length_c 8.108547
_cell_angle_alpha 90.000000
_cell_angle_beta 90.000000
_cell_angle_gamma 90.000000
_cell_volume 1702.853945
_symmetry_space_group_name_H-M "A M A 2"
_symmetry_group_IT_number 40
_symmetry_cell_setting 'orthorhombic'
loop_
_space_group_symop_operation_xyz
x,y,z
-x,-y,z
1/2-x,y,z
1/2+x,-y,z
x,1/2+y,1/2+z
-x,1/2-y,1/2+z
1/2-x,1/2+y,1/2+z
1/2+x,1/2-y,1/2+z
loop_
_atom_site_type_symbol
_atom_site_label
_atom_site_fract_x
_atom_site_fract_y
_atom_site_fract_z
Si Si1 0.750000 0.408927 0.383950
Si Si2 0.250000 0.722339 0.051004
Si Si3 0.542057 0.678591 0.957960
Si Si4 0.250000 0.221421 0.950565
Si Si5 0.250000 0.455176 0.448942
Si Si6 0.982292 0.568557 0.193681
Si Si7 0.750000 0.652870 0.679680
O O1 0.750000 0.350255 0.511208
O O2 0.750000 0.471506 0.492855
O O3 0.623653 0.404615 0.259698
O O4 0.250000 0.714433 0.249834
O O5 0.250000 0.797650 0.026975
O O6 0.380058 0.691606 0.958636
O O7 0.617579 0.741729 0.020540
O O8 0.609315 0.663746 0.781146
O O9 0.579029 0.618284 0.066936
O O10 0.115775 0.438265 0.348805
O O11 0.250000 0.417585 0.618212
O O12 0.000000 0.500000 0.109974
#
# Coordination Sequence:
#
# PCOD8183882 Si02
#       7
#     4   4   8   4   4   8   4
#     4  10  20  39  63  91 119 158 210 256 288 366
#     4  10  20  37  61  88 125 157 205 245 302 367
#     4  10  20  39  63  92 125 163 198 259 304 359
#     4  10  21  36  61  96 125 153 207 258 297 358
#     4  10  22  38  63  89 124 159 204 255 306 365
#     4  10  20  38  68  93 114 164 214 247 296 368
#     4  10  25  38  58  94 131 155 198 254 317 360
#
# _framework density 21.140979999999999
#
# number of rings (size 3 to 8) (size 9 to 14) (size 15 to 20)
#    0.000    2.222    2.222    1.333    3.111    0.000 
#    0.000   13.333    0.000    0.000    0.000    0.000 
#    0.000    0.000    0.000    0.000    0.000    0.000 
#
# Total GULP energy -223050.529991 kJ/mol
# GULP energy per Si atom -12391.696111 kJ/mol
# Density = 2.109286 g / cm^3
# Si number density = 21.140980 Si / 1000 Ang^3
#
#
#
# Elastic Constant Matrix: (Units=GPa)
#
#
# Indices 1 2 3 4 5 6 
#
# 1 156.4098 53.5436 34.7652 0.0000 0.0000 0.0000
# 2 53.5436 216.2715 56.1487 0.0000 0.0000 0.0000
# 3 34.7652 56.1487 52.1858 0.0000 0.0000 0.0000
# 4 0.0000 0.0000 0.0000 44.8272 0.0000 0.0000
# 5 0.0000 0.0000 0.0000 0.0000 19.6860 0.0000
# 6 0.0000 0.0000 0.0000 0.0000 0.0000 37.6674
#
#
#
# Elastic Compliance Matrix: (Units=1/GPa)
#
#
# Indices 1 2 3 4 5 6 
#
# 1 0.007600 -0.000787 -0.004216 0.000000 0.000000 0.000000
# 2 -0.000787 0.006498 -0.006467 0.000000 0.000000 0.000000
# 3 -0.004216 -0.006467 0.028929 0.000000 0.000000 0.000000
# 4 0.000000 0.000000 0.000000 0.022308 0.000000 0.000000
# 5 0.000000 0.000000 0.000000 0.000000 0.050797 0.000000
# 6 0.000000 0.000000 0.000000 0.000000 0.000000 0.026548
#
#
# Mechanical properties :
#
#
# Convention : Reuss Voigt Hill
#
# Bulk Modulus (GPa) = 49.78448 79.30913 64.54680
# Shear Modulus (GPa) = 29.01656 39.13008 34.07332
#
# Velocity S-wave (km/s) = 3.70878 4.30689 4.01898
# Velocity P-wave (km/s) = 6.47611 7.89482 7.22040
#
# Compressibility (1/GPa) = 0.02008658
#
# Stress axis : x y z
#
# Youngs Moduli (GPa) = 131.57888 153.90435 34.56752
#
# Poissons Ratio (x) = 0.12111 0.14575
# Poissons Ratio (y) = 0.10355 0.22354
# Poissons Ratio (z) = 0.55477 0.99525
#
# Static dielectric constant tensor:
#      x y z
#    x 3.827580 0.000000 0.000000 
#    y 0.000000 4.542040 0.000000 
#    z 0.000000 0.000000 3.210000 
# 
# 
# High freq. dielectric constant tensor:
#      x y z
#    x 1.843290 0.000000 0.000000 
#    y 0.000000 1.857620 0.000000 
#    z 0.000000 0.000000 1.770350 
# 
# From -- ./inp_files/4167.got.cif
#   From: 2010.03.12/outbox.cif.g09.slc.cpg/sg40_3_cif.got.tgz:4167.got - 2010.04.14 01:38:03.
