data_PCOD8183440
_publ_section_title
;
Structure prediction by ZEFSAII (Michael W. Deem and Ramdas Pophale) SiO2 
 PCOD8183440
Probable space group: A M A 2
;
_chemical_formula_sum "Si O2"
_cell_formula_units_Z 52
_cell_length_a 23.470427
_cell_length_b 11.220865
_cell_length_c 8.949083
_cell_angle_alpha 90.000000
_cell_angle_beta 90.000000
_cell_angle_gamma 90.000000
_cell_volume 2356.817011
_symmetry_space_group_name_H-M "A M A 2"
_symmetry_group_IT_number 40
_symmetry_cell_setting 'orthorhombic'
loop_
_space_group_symop_operation_xyz
x,y,z
-x,-y,z
1/2-x,y,z
1/2+x,-y,z
x,1/2+y,1/2+z
-x,1/2-y,1/2+z
1/2-x,1/2+y,1/2+z
1/2+x,1/2-y,1/2+z
loop_
_atom_site_type_symbol
_atom_site_label
_atom_site_fract_x
_atom_site_fract_y
_atom_site_fract_z
Si Si1 0.130524 0.323722 0.384490
Si Si2 0.137030 0.829263 0.209487
Si Si3 0.860205 0.399787 0.682229
Si Si4 0.940896 0.792207 0.953523
Si Si5 0.250000 0.720240 0.573986
Si Si6 0.250000 0.202970 0.746365
Si Si7 0.750000 0.577007 0.306848
Si Si8 0.026827 0.381562 0.207004
O O1 0.103460 0.320423 0.551218
O O2 0.130963 0.189147 0.321418
O O3 0.192321 0.388713 0.396326
O O4 0.090526 0.400602 0.272780
O O5 0.105196 0.775519 0.351660
O O6 0.193709 0.753798 0.167837
O O7 0.146092 0.968205 0.248322
O O8 0.910034 0.392027 0.556434
O O9 0.802921 0.364852 0.599598
O O10 0.988310 0.843995 0.846411
O O11 0.973234 0.706064 0.067599
O O12 0.250000 0.765518 0.406526
O O13 0.250000 0.843281 0.660057
O O14 0.250000 0.059898 0.756646
O O15 0.000000 0.500000 0.138414
#
# Coordination Sequence:
#
# PCOD8183440 Si02
#       8
#     8   8   8   8   4   4   4   8
#     4  10  23  44  67  98 130 175 216 268 328 383
#     4  12  24  39  66  98 133 172 220 269 326 393
#     4  10  22  43  66  93 138 173 220 270 326 388
#     4  11  25  43  64  99 125 175 222 268 329 383
#     4  10  19  41  65  94 133 178 214 270 330 386
#     4  12  24  36  64 104 129 174 219 265 333 396
#     4  10  23  41  69  94 134 168 219 269 323 394
#     4  11  25  44  70  94 131 173 217 272 325 383
#
# _framework density 22.063656000000002
#
# number of rings (size 3 to 8) (size 9 to 14) (size 15 to 20)
#    0.000    1.231    1.538    3.692    2.154    4.923 
#    0.000    0.769    0.000    0.000    0.000    0.000 
#    0.000    0.000    0.000    0.000    0.000    0.000 
#
# Total GULP energy -322305.282979 kJ/mol
# GULP energy per Si atom -12396.357038 kJ/mol
# Density = 2.201344 g / cm^3
# Si number density = 22.063656 Si / 1000 Ang^3
#
#
#
# Elastic Constant Matrix: (Units=GPa)
#
#
# Indices 1 2 3 4 5 6 
#
# 1 94.8421 34.4298 9.0372 0.0000 0.0000 0.0000
# 2 34.4298 123.5679 25.5188 0.0000 0.0000 0.0000
# 3 9.0372 25.5188 66.8228 0.0000 0.0000 0.0000
# 4 0.0000 0.0000 0.0000 22.1667 0.0000 0.0000
# 5 0.0000 0.0000 0.0000 0.0000 48.5393 0.0000
# 6 0.0000 0.0000 0.0000 0.0000 0.0000 74.2691
#
#
#
# Elastic Compliance Matrix: (Units=1/GPa)
#
#
# Indices 1 2 3 4 5 6 
#
# 1 0.011739 -0.003195 -0.000367 0.000000 0.000000 0.000000
# 2 -0.003195 0.009655 -0.003255 0.000000 0.000000 0.000000
# 3 -0.000367 -0.003255 0.016258 0.000000 0.000000 0.000000
# 4 0.000000 0.000000 0.000000 0.045113 0.000000 0.000000
# 5 0.000000 0.000000 0.000000 0.000000 0.020602 0.000000
# 6 0.000000 0.000000 0.000000 0.000000 0.000000 0.013465
#
#
# Mechanical properties :
#
#
# Convention : Reuss Voigt Hill
#
# Bulk Modulus (GPa) = 41.63775 47.02270 44.33023
# Shear Modulus (GPa) = 36.10863 43.41149 39.76006
#
# Velocity S-wave (km/s) = 4.04984 4.44053 4.24967
# Velocity P-wave (km/s) = 6.38599 6.90287 6.64945
#
# Compressibility (1/GPa) = 0.02401667
#
# Stress axis : x y z
#
# Youngs Moduli (GPa) = 85.18859 103.57189 61.50920
#
# Poissons Ratio (x) = 0.33090 0.02260
# Poissons Ratio (y) = 0.27217 0.20022
# Poissons Ratio (z) = 0.03130 0.33714
#
# Static dielectric constant tensor:
#      x y z
#    x 4.211140 0.000000 0.000000 
#    y 0.000000 3.910030 0.000000 
#    z 0.000000 0.000000 4.013130 
# 
# 
# High freq. dielectric constant tensor:
#      x y z
#    x 1.874480 0.000000 0.000000 
#    y 0.000000 1.865810 0.000000 
#    z 0.000000 0.000000 1.879160 
# 
# From -- ./inp_files/9135.got.cif
#   From: 2010.03.12/outbox.cif.g09.slc.cpg/sg40_5_cif.got.tgz:9135.got - 2010.04.14 01:38:03.
