data_PCOD8183720
_publ_section_title
;
Structure prediction by ZEFSAII (Michael W. Deem and Ramdas Pophale) SiO2 
 PCOD8183720
Probable space group: A M A 2
;
_chemical_formula_sum "Si O2"
_cell_formula_units_Z 60
_cell_length_a 15.260065
_cell_length_b 13.319190
_cell_length_c 14.676908
_cell_angle_alpha 90.000000
_cell_angle_beta 90.000000
_cell_angle_gamma 90.000000
_cell_volume 2983.106577
_symmetry_space_group_name_H-M "A M A 2"
_symmetry_group_IT_number 40
_symmetry_cell_setting 'orthorhombic'
loop_
_space_group_symop_operation_xyz
x,y,z
-x,-y,z
1/2-x,y,z
1/2+x,-y,z
x,1/2+y,1/2+z
-x,1/2-y,1/2+z
1/2-x,1/2+y,1/2+z
1/2+x,1/2-y,1/2+z
loop_
_atom_site_type_symbol
_atom_site_label
_atom_site_fract_x
_atom_site_fract_y
_atom_site_fract_z
Si Si1 0.981957 0.894195 0.268800
Si Si2 0.652834 0.267146 0.660416
Si Si3 0.087607 0.697383 0.465784
Si Si4 0.000000 0.500000 0.399043
Si Si5 0.151946 0.622164 0.132753
Si Si6 0.346343 0.775925 0.288341
Si Si7 0.146509 0.444531 0.255250
Si Si8 0.465505 0.608796 0.967643
O O1 0.926547 0.828796 0.201249
O O2 0.929537 0.903938 0.364499
O O3 0.078850 0.857534 0.293324
O O4 0.000000 0.000000 0.220841
O O5 0.750000 0.299664 0.694138
O O6 0.650619 0.289793 0.552791
O O7 0.634384 0.154258 0.693358
O O8 0.143630 0.697461 0.372106
O O9 0.034385 0.591554 0.463467
O O10 0.031217 0.798398 0.470305
O O11 0.919677 0.550881 0.341507
O O12 0.250000 0.590331 0.111650
O O13 0.144061 0.722381 0.191488
O O14 0.110225 0.532465 0.190849
O O15 0.110460 0.641367 0.035257
O O16 0.250000 0.826314 0.295122
O O17 0.250000 0.457006 0.284852
O O18 0.500000 0.500000 0.000796
#
# Coordination Sequence:
#
# PCOD8183720 Si02
#       8
#     8   8   8   4   8   8   8   8
#     4  10  23  41  59  84 118 162 216 253 311 386
#     4  11  24  41  62  88 126 169 211 266 318 383
#     4  11  23  37  61  94 127 168 215 255 326 392
#     4  12  24  40  68  96 134 182 208 280 334 388
#     4  10  20  35  60  91 122 154 202 266 321 375
#     4  10  20  38  62  90 123 159 204 261 316 379
#     4  10  22  39  64  99 128 165 219 270 332 387
#     4  10  21  37  60  88 119 161 207 266 320 379
#
# _framework density 20.113261000000001
#
# number of rings (size 3 to 8) (size 9 to 14) (size 15 to 20)
#    0.000    1.600    1.333    3.600    3.733    1.600 
#    0.000    7.333    0.000    0.000    0.000    0.000 
#    0.000    0.000    0.000    0.000    0.000    0.000 
#
# Total GULP energy -371693.455188 kJ/mol
# GULP energy per Si atom -12389.781840 kJ/mol
# Density = 2.006748 g / cm^3
# Si number density = 20.113261 Si / 1000 Ang^3
#
#
#
# Elastic Constant Matrix: (Units=GPa)
#
#
# Indices 1 2 3 4 5 6 
#
# 1 80.5594 38.5745 29.0511 0.0000 0.0000 0.0000
# 2 38.5745 97.0933 18.3709 0.0000 0.0000 0.0000
# 3 29.0511 18.3709 68.0935 0.0000 0.0000 0.0000
# 4 0.0000 0.0000 0.0000 17.4612 0.0000 0.0000
# 5 0.0000 0.0000 0.0000 0.0000 19.3340 0.0000
# 6 0.0000 0.0000 0.0000 0.0000 0.0000 20.4759
#
#
#
# Elastic Compliance Matrix: (Units=1/GPa)
#
#
# Indices 1 2 3 4 5 6 
#
# 1 0.017268 -0.005761 -0.005813 0.000000 0.000000 0.000000
# 2 -0.005761 0.012775 -0.000989 0.000000 0.000000 0.000000
# 3 -0.005813 -0.000989 0.017432 0.000000 0.000000 0.000000
# 4 0.000000 0.000000 0.000000 0.057270 0.000000 0.000000
# 5 0.000000 0.000000 0.000000 0.000000 0.051722 0.000000
# 6 0.000000 0.000000 0.000000 0.000000 0.000000 0.048838
#
#
# Mechanical properties :
#
#
# Convention : Reuss Voigt Hill
#
# Bulk Modulus (GPa) = 44.74152 46.41548 45.57850
# Shear Modulus (GPa) = 21.01898 22.10421 21.56159
#
# Velocity S-wave (km/s) = 3.23620 3.31869 3.27771
# Velocity P-wave (km/s) = 6.02138 6.14916 6.08561
#
# Compressibility (1/GPa) = 0.02235060
#
# Stress axis : x y z
#
# Youngs Moduli (GPa) = 57.91133 78.27727 57.36416
#
# Poissons Ratio (x) = 0.45092 0.33345
# Poissons Ratio (y) = 0.33360 0.05673
# Poissons Ratio (z) = 0.33663 0.07741
#
# Static dielectric constant tensor:
#      x y z
#    x 3.707210 0.000000 0.000000 
#    y 0.000000 3.678320 0.000000 
#    z 0.000000 0.000000 3.855950 
# 
# 
# High freq. dielectric constant tensor:
#      x y z
#    x 1.783020 0.000000 0.000000 
#    y 0.000000 1.785250 0.000000 
#    z 0.000000 0.000000 1.785700 
# 
# From -- ./inp_files/20752.got.cif
#   From: 2010.03.12/outbox.cif.g09.slc.cpg/sg40_11_cif.got.tgz:20752.got - 2010.04.14 01:38:03.
