data_PCOD8183787
_publ_section_title
;
Structure prediction by ZEFSAII (Michael W. Deem and Ramdas Pophale) SiO2 
 PCOD8183787
Probable space group: A M A 2
;
_chemical_formula_sum "Si O2"
_cell_formula_units_Z 64
_cell_length_a 17.517171
_cell_length_b 9.280489
_cell_length_c 20.248926
_cell_angle_alpha 90.000000
_cell_angle_beta 90.000000
_cell_angle_gamma 90.000000
_cell_volume 3291.825636
_symmetry_space_group_name_H-M "A M A 2"
_symmetry_group_IT_number 40
_symmetry_cell_setting 'orthorhombic'
loop_
_space_group_symop_operation_xyz
x,y,z
-x,-y,z
1/2-x,y,z
1/2+x,-y,z
x,1/2+y,1/2+z
-x,1/2-y,1/2+z
1/2-x,1/2+y,1/2+z
1/2+x,1/2-y,1/2+z
loop_
_atom_site_type_symbol
_atom_site_label
_atom_site_fract_x
_atom_site_fract_y
_atom_site_fract_z
Si Si1 0.659697 0.013799 0.036650
Si Si2 0.410996 0.992613 0.653712
Si Si3 0.340427 0.163492 0.533738
Si Si4 0.661053 0.817586 0.917925
Si Si5 0.162482 0.663793 0.267525
Si Si6 0.410838 0.987129 0.417999
Si Si7 0.339388 0.182698 0.155816
Si Si8 0.837747 0.509138 0.780940
O O1 0.750000 0.021910 0.041749
O O2 0.625848 0.174688 0.040408
O O3 0.628863 0.918662 0.097395
O O4 0.634125 0.942145 0.967632
O O5 0.386723 0.827752 0.655277
O O6 0.500000 0.000000 0.639186
O O7 0.366586 0.071524 0.595764
O O8 0.392558 0.066484 0.723568
O O9 0.250000 0.165859 0.532534
O O10 0.369097 0.098252 0.465545
O O11 0.750000 0.779344 0.926844
O O12 0.644828 0.872199 0.843892
O O13 0.614534 0.674435 0.935146
O O14 0.250000 0.626473 0.249755
O O15 0.145051 0.831383 0.253123
O O16 0.390338 0.028970 0.343059
O O17 0.500000 0.000000 0.429545
O O18 0.250000 0.216599 0.146653
O O19 0.355917 0.105290 0.224821
O O20 0.750000 0.503066 0.804573
#
# Coordination Sequence:
#
# PCOD8183787 Si02
#       8
#     8   8   8   8   8   8   8   8
#     4   9  19  36  61  87 106 135 186 242 284 322
#     4  12  25  38  54  82 117 151 187 229 285 344
#     4  11  22  39  61  82 108 145 190 237 281 331
#     4   9  18  36  60  83 110 147 189 232 281 334
#     4   9  18  36  60  82 108 146 188 230 277 333
#     4  11  22  36  56  86 120 151 184 225 281 341
#     4  10  20  36  59  84 110 144 189 238 283 331
#     4   9  19  37  61  86 111 147 195 237 276 328
#
# _framework density 19.442098000000001
#
# number of rings (size 3 to 8) (size 9 to 14) (size 15 to 20)
#    0.000    2.000    0.000    4.875    0.000    6.000 
#    0.000    6.250    0.000    0.000    0.000    0.000 
#    0.000    0.000    0.000    0.000    0.000    0.000 
#
# Total GULP energy -396916.157415 kJ/mol
# GULP energy per Si atom -12403.629919 kJ/mol
# Density = 1.939785 g / cm^3
# Si number density = 19.442098 Si / 1000 Ang^3
#
#
#
# Elastic Constant Matrix: (Units=GPa)
#
#
# Indices 1 2 3 4 5 6 
#
# 1 74.1223 41.4843 35.0761 0.0000 0.0000 0.0000
# 2 41.4843 139.5367 72.0899 0.0000 0.0000 0.0000
# 3 35.0761 72.0899 101.8927 0.0000 0.0000 0.0000
# 4 0.0000 0.0000 0.0000 40.1110 0.0000 0.0000
# 5 0.0000 0.0000 0.0000 0.0000 11.8508 0.0000
# 6 0.0000 0.0000 0.0000 0.0000 0.0000 -3.2737
#
#
#
# Elastic Compliance Matrix: (Units=1/GPa)
#
#
# Indices 1 2 3 4 5 6 
#
# 1 0.016975 -0.003196 -0.003583 0.000000 0.000000 0.000000
# 2 -0.003196 0.011897 -0.007317 0.000000 0.000000 0.000000
# 3 -0.003583 -0.007317 0.016224 0.000000 0.000000 0.000000
# 4 0.000000 0.000000 0.000000 0.024931 0.000000 0.000000
# 5 0.000000 0.000000 0.000000 0.000000 0.084383 0.000000
# 6 0.000000 0.000000 0.000000 0.000000 0.000000 -0.305464
#
#
# Mechanical properties :
#
#
# Convention : Reuss Voigt Hill
#
# Bulk Modulus (GPa) = 59.15179 68.09472 63.62325
# Shear Modulus (GPa) = -42.65197 20.86436 -10.89381
#
# Velocity S-wave (km/s) = -4.68888 3.27946 -2.36968
# Velocity P-wave (km/s) = 1.08469 7.03137 5.03074
#
# Compressibility (1/GPa) = 0.01690566
#
# Stress axis : x y z
#
# Youngs Moduli (GPa) = 58.90952 84.05507 61.63562
#
# Poissons Ratio (x) = 0.26863 0.22081
# Poissons Ratio (y) = 0.18827 0.45099
# Poissons Ratio (z) = 0.21105 0.61503
#
# Static dielectric constant tensor:
#      x y z
#    x 3.303100 0.000000 0.000000 
#    y 0.000000 3.677450 0.000000 
#    z 0.000000 0.000000 3.696190 
# 
# 
# High freq. dielectric constant tensor:
#      x y z
#    x 1.733650 0.000000 0.000000 
#    y 0.000000 1.763980 0.000000 
#    z 0.000000 0.000000 1.772280 
# 
# From -- ./inp_files/23357.got.cif
#   From: 2010.03.12/outbox.cif.g09.slc.cpg/sg40_12_cif.got.tgz:23357.got - 2010.04.14 01:38:03.
