data_PCOD8183522
_publ_section_title
;
Structure prediction by ZEFSAII (Michael W. Deem and Ramdas Pophale) SiO2 
 PCOD8183522
Probable space group: A M A 2
;
_chemical_formula_sum "Si O2"
_cell_formula_units_Z 64
_cell_length_a 8.691112
_cell_length_b 16.159879
_cell_length_c 22.557255
_cell_angle_alpha 90.000000
_cell_angle_beta 90.000000
_cell_angle_gamma 90.000000
_cell_volume 3168.105973
_symmetry_space_group_name_H-M "A M A 2"
_symmetry_group_IT_number 40
_symmetry_cell_setting 'orthorhombic'
loop_
_space_group_symop_operation_xyz
x,y,z
-x,-y,z
1/2-x,y,z
1/2+x,-y,z
x,1/2+y,1/2+z
-x,1/2-y,1/2+z
1/2-x,1/2+y,1/2+z
1/2+x,1/2-y,1/2+z
loop_
_atom_site_type_symbol
_atom_site_label
_atom_site_fract_x
_atom_site_fract_y
_atom_site_fract_z
Si Si1 0.928120 0.420155 0.056690
Si Si2 0.921547 0.612514 0.938804
Si Si3 0.933257 0.588356 0.803526
Si Si4 0.931674 0.916909 0.889230
Si Si5 0.433280 0.088205 0.755468
Si Si6 0.930993 0.745503 0.601679
Si Si7 0.431933 0.235478 0.222847
Si Si8 0.577497 0.795045 0.985119
O O1 0.750000 0.421212 0.067372
O O2 0.994577 0.338258 0.087932
O O3 0.000000 0.500000 0.089376
O O4 0.964402 0.427967 0.986536
O O5 0.750000 0.574737 0.945756
O O6 0.983424 0.597788 0.872277
O O7 0.917708 0.707829 0.953627
O O8 0.750000 0.588963 0.796122
O O9 0.000000 0.500000 0.779909
O O10 0.999090 0.667883 0.768292
O O11 0.750000 0.918269 0.889115
O O12 0.990477 0.901336 0.822864
O O13 0.997947 0.849410 0.933664
O O14 0.000000 0.000000 0.915266
O O15 0.250000 0.086624 0.747232
O O16 0.497986 0.171512 0.725394
O O17 0.500000 0.000000 0.730645
O O18 0.750000 0.742608 0.614761
O O19 0.023538 0.706108 0.656545
O O20 0.969468 0.694486 0.542401
O O21 0.250000 0.238674 0.232113
O O22 0.750000 0.822874 0.003081
#
# Coordination Sequence:
#
# PCOD8183522 Si02
#       8
#     8   8   8   8   8   8   8   8
#     4  10  20  33  53  81 113 145 178 219 271 330
#     4   9  18  33  56  83 113 146 179 220 275 334
#     4  11  23  40  61  87 118 153 193 240 290 344
#     4   9  18  32  53  81 113 144 177 220 274 333
#     4  10  20  37  60  89 123 157 192 234 284 343
#     4  10  22  39  56  77 105 141 186 236 282 331
#     4  12  25  41  61  84 112 153 199 245 293 342
#     4   9  17  33  55  80 109 143 181 222 272 333
#
# _framework density 20.201343999999999
#
# number of rings (size 3 to 8) (size 9 to 14) (size 15 to 20)
#    0.000    2.000    0.000    3.750    0.000    7.000 
#    0.000    4.375    0.000    1.500    0.000    0.000 
#    0.000    0.000    0.000    0.000    0.000    0.000 
#
# Total GULP energy -396576.481118 kJ/mol
# GULP energy per Si atom -12393.015035 kJ/mol
# Density = 2.015536 g / cm^3
# Si number density = 20.201344 Si / 1000 Ang^3
#
#
#
# Elastic Constant Matrix: (Units=GPa)
#
#
# Indices 1 2 3 4 5 6 
#
# 1 75.5048 27.0753 25.3673 0.0000 0.0000 0.0000
# 2 27.0753 65.6864 25.8369 0.0000 0.0000 0.0000
# 3 25.3673 25.8369 83.7979 0.0000 0.0000 0.0000
# 4 0.0000 0.0000 0.0000 2.9075 0.0000 0.0000
# 5 0.0000 0.0000 0.0000 0.0000 26.1797 0.0000
# 6 0.0000 0.0000 0.0000 0.0000 0.0000 34.4613
#
#
#
# Elastic Compliance Matrix: (Units=1/GPa)
#
#
# Indices 1 2 3 4 5 6 
#
# 1 0.016286 -0.005433 -0.003255 0.000000 0.000000 0.000000
# 2 -0.005433 0.019137 -0.004256 0.000000 0.000000 0.000000
# 3 -0.003255 -0.004256 0.014231 0.000000 0.000000 0.000000
# 4 0.000000 0.000000 0.000000 0.343936 0.000000 0.000000
# 5 0.000000 0.000000 0.000000 0.000000 0.038198 0.000000
# 6 0.000000 0.000000 0.000000 0.000000 0.000000 0.029018
#
#
# Mechanical properties :
#
#
# Convention : Reuss Voigt Hill
#
# Bulk Modulus (GPa) = 42.07514 42.39422 42.23468
# Shear Modulus (GPa) = 10.10888 22.49035 16.29961
#
# Velocity S-wave (km/s) = 2.23940 3.34025 2.84361
# Velocity P-wave (km/s) = 5.24973 5.99231 5.63327
#
# Compressibility (1/GPa) = 0.02376700
#
# Stress axis : x y z
#
# Youngs Moduli (GPa) = 61.40299 52.25463 70.26891
#
# Poissons Ratio (x) = 0.28387 0.22873
# Poissons Ratio (y) = 0.33357 0.29906
# Poissons Ratio (z) = 0.19987 0.22239
#
# Static dielectric constant tensor:
#      x y z
#    x 3.666870 0.000000 0.000000 
#    y 0.000000 3.958930 0.000000 
#    z 0.000000 0.000000 3.771230 
# 
# 
# High freq. dielectric constant tensor:
#      x y z
#    x 1.785810 0.000000 0.000000 
#    y 0.000000 1.786980 0.000000 
#    z 0.000000 0.000000 1.788080 
# 
# From -- ./inp_files/22358.got.cif
#   From: 2010.03.12/outbox.cif.g09.slc.cpg/sg40_12_cif.got.tgz:22358.got - 2010.04.14 01:38:03.
