data_PCOD8183772
_publ_section_title
;
Structure prediction by ZEFSAII (Michael W. Deem and Ramdas Pophale) SiO2 
 PCOD8183772
Probable space group: A M A 2
;
_chemical_formula_sum "Si O2"
_cell_formula_units_Z 40
_cell_length_a 8.692711
_cell_length_b 13.460992
_cell_length_c 18.258374
_cell_angle_alpha 90.000000
_cell_angle_beta 90.000000
_cell_angle_gamma 90.000000
_cell_volume 2136.458229
_symmetry_space_group_name_H-M "A M A 2"
_symmetry_group_IT_number 40
_symmetry_cell_setting 'orthorhombic'
loop_
_space_group_symop_operation_xyz
x,y,z
-x,-y,z
1/2-x,y,z
1/2+x,-y,z
x,1/2+y,1/2+z
-x,1/2-y,1/2+z
1/2-x,1/2+y,1/2+z
1/2+x,1/2-y,1/2+z
loop_
_atom_site_type_symbol
_atom_site_label
_atom_site_fract_x
_atom_site_fract_y
_atom_site_fract_z
Si Si1 0.570141 0.105511 0.687440
Si Si2 0.926678 0.198873 0.533303
Si Si3 0.568278 0.702486 0.751682
Si Si4 0.930170 0.891584 0.394654
Si Si5 0.570666 0.898244 0.113528
O O1 0.750000 0.106419 0.703792
O O2 0.536068 0.129916 0.602885
O O3 0.492726 0.186629 0.739470
O O4 0.500000 0.000000 0.708175
O O5 0.750000 0.184543 0.508477
O O6 0.960285 0.313189 0.553713
O O7 0.041210 0.168952 0.469063
O O8 0.750000 0.702974 0.749438
O O9 0.511832 0.666648 0.829954
O O10 0.507843 0.627056 0.690471
O O11 0.750000 0.899428 0.379178
O O12 0.000000 0.000000 0.403479
O O13 0.750000 0.910290 0.129104
O O14 0.500000 0.000000 0.082185
#
# Coordination Sequence:
#
# PCOD8183772 Si02
#       5
#     8   8   8   8   8
#     4  10  20  36  58  84 113 145 183 225 271 322
#     4   9  20  37  56  81 112 144 181 224 269 322
#     4  11  22  37  57  81 111 145 185 228 272 323
#     4  12  24  38  57  81 111 144 181 225 276 329
#     4  10  20  36  58  83 112 144 182 226 272 324
#
# _framework density 18.722576
#
# number of rings (size 3 to 8) (size 9 to 14) (size 15 to 20)
#    0.000    1.600    0.000    7.200    0.000    6.400 
#    0.000    1.000    0.000    2.400    0.000    0.000 
#    0.000    0.000    0.000    0.000    0.000    0.000 
#
# Total GULP energy -248108.551475 kJ/mol
# GULP energy per Si atom -12405.427574 kJ/mol
# Density = 1.867996 g / cm^3
# Si number density = 18.722576 Si / 1000 Ang^3
#
#
#
# Elastic Constant Matrix: (Units=GPa)
#
#
# Indices 1 2 3 4 5 6 
#
# 1 140.7026 61.8771 47.1432 0.0000 0.0000 0.0000
# 2 61.8771 148.7768 52.1150 0.0000 0.0000 0.0000
# 3 47.1432 52.1150 91.3179 0.0000 0.0000 0.0000
# 4 0.0000 0.0000 0.0000 21.1026 0.0000 0.0000
# 5 0.0000 0.0000 0.0000 0.0000 29.0957 0.0000
# 6 0.0000 0.0000 0.0000 0.0000 0.0000 37.6482
#
#
#
# Elastic Compliance Matrix: (Units=1/GPa)
#
#
# Indices 1 2 3 4 5 6 
#
# 1 0.009426 -0.002769 -0.003286 0.000000 0.000000 0.000000
# 2 -0.002769 0.009215 -0.003829 0.000000 0.000000 0.000000
# 3 -0.003286 -0.003829 0.014832 0.000000 0.000000 0.000000
# 4 0.000000 0.000000 0.000000 0.047388 0.000000 0.000000
# 5 0.000000 0.000000 0.000000 0.000000 0.034369 0.000000
# 6 0.000000 0.000000 0.000000 0.000000 0.000000 0.026562
#
#
# Mechanical properties :
#
#
# Convention : Reuss Voigt Hill
#
# Bulk Modulus (GPa) = 72.96858 78.11866 75.54362
# Shear Modulus (GPa) = 30.09732 32.21344 31.15538
#
# Velocity S-wave (km/s) = 4.01377 4.15247 4.08371
# Velocity P-wave (km/s) = 7.78066 8.05019 7.91657
#
# Compressibility (1/GPa) = 0.01370453
#
# Stress axis : x y z
#
# Youngs Moduli (GPa) = 106.08978 108.52411 67.42069
#
# Poissons Ratio (x) = 0.30054 0.22153
# Poissons Ratio (y) = 0.29380 0.25816
# Poissons Ratio (z) = 0.34858 0.41554
#
# Static dielectric constant tensor:
#      x y z
#    x 3.543100 0.000000 0.000000 
#    y 0.000000 3.598950 0.000000 
#    z 0.000000 0.000000 3.282610 
# 
# 
# High freq. dielectric constant tensor:
#      x y z
#    x 1.743580 0.000000 0.000000 
#    y 0.000000 1.739270 0.000000 
#    z 0.000000 0.000000 1.712970 
# 
# From -- ./inp_files/14793.got.cif
#   From: 2010.03.12/outbox.cif.g09.slc.cpg/sg40_8_cif.got.tgz:14793.got - 2010.04.14 01:38:03.
