data_PCOD8183713
_publ_section_title
;
Structure prediction by ZEFSAII (Michael W. Deem and Ramdas Pophale) SiO2 
 PCOD8183713
Probable space group: A M A 2
;
_chemical_formula_sum "Si O2"
_cell_formula_units_Z 64
_cell_length_a 17.394278
_cell_length_b 12.077290
_cell_length_c 16.112976
_cell_angle_alpha 90.000000
_cell_angle_beta 90.000000
_cell_angle_gamma 90.000000
_cell_volume 3384.945353
_symmetry_space_group_name_H-M "A M A 2"
_symmetry_group_IT_number 40
_symmetry_cell_setting 'orthorhombic'
loop_
_space_group_symop_operation_xyz
x,y,z
-x,-y,z
1/2-x,y,z
1/2+x,-y,z
x,1/2+y,1/2+z
-x,1/2-y,1/2+z
1/2-x,1/2+y,1/2+z
1/2+x,1/2-y,1/2+z
loop_
_atom_site_type_symbol
_atom_site_label
_atom_site_fract_x
_atom_site_fract_y
_atom_site_fract_z
Si Si1 0.661914 0.230509 0.649680
Si Si2 0.090431 0.516944 0.392321
Si Si3 0.160167 0.805566 0.951168
Si Si4 0.910641 0.025583 0.424480
Si Si5 0.589934 0.509285 0.208118
Si Si6 0.660184 0.860385 0.308667
Si Si7 0.659232 0.257939 0.458542
Si Si8 0.340085 0.115850 0.566811
O O1 0.750000 0.196056 0.665810
O O2 0.638694 0.328149 0.714137
O O3 0.648738 0.272647 0.556986
O O4 0.610950 0.122843 0.663253
O O5 0.122925 0.425940 0.455729
O O6 0.124940 0.495998 0.300377
O O7 0.118440 0.636980 0.418569
O O8 0.000000 0.500000 0.393488
O O9 0.250000 0.822352 0.952185
O O10 0.134691 0.741256 0.867763
O O11 0.133764 0.735547 0.031921
O O12 0.889232 0.155037 0.421845
O O13 0.886150 0.969755 0.336886
O O14 0.861404 0.977407 0.500078
O O15 0.000000 0.000000 0.441033
O O16 0.500000 0.500000 0.213512
O O17 0.620057 0.405335 0.154775
O O18 0.750000 0.886255 0.319562
O O19 0.750000 0.249272 0.435417
O O20 0.250000 0.109492 0.580529
#
# Coordination Sequence:
#
# PCOD8183713 Si02
#       8
#     8   8   8   8   8   8   8   8
#     4  10  20  36  60  83 110 151 203 245 287 351
#     4  11  25  39  58  84 123 160 199 243 302 368
#     4   9  18  34  57  81 109 151 196 237 287 354
#     4  11  22  34  60  89 124 151 189 243 307 350
#     4  11  22  35  56  89 119 153 196 252 300 353
#     4   9  18  35  60  84 108 149 198 241 280 351
#     4  11  24  40  59  88 122 157 196 251 307 360
#     4  10  20  35  59  88 116 148 197 248 289 345
#
# _framework density 18.907249
#
# number of rings (size 3 to 8) (size 9 to 14) (size 15 to 20)
#    0.000    1.750    2.500    3.000    3.500    1.500 
#    0.000    1.875    0.000    1.500    0.000    0.000 
#    0.000    0.000    0.000    0.000    0.000    0.000 
#
# Total GULP energy -396796.989192 kJ/mol
# GULP energy per Si atom -12399.905912 kJ/mol
# Density = 1.886421 g / cm^3
# Si number density = 18.907249 Si / 1000 Ang^3
#
#
#
# Elastic Constant Matrix: (Units=GPa)
#
#
# Indices 1 2 3 4 5 6 
#
# 1 55.0400 42.3591 33.8814 0.0000 0.0000 0.0000
# 2 42.3591 135.1642 49.4926 0.0000 0.0000 0.0000
# 3 33.8814 49.4926 88.4079 0.0000 0.0000 0.0000
# 4 0.0000 0.0000 0.0000 4.9774 0.0000 0.0000
# 5 0.0000 0.0000 0.0000 0.0000 -13.1972 0.0000
# 6 0.0000 0.0000 0.0000 0.0000 0.0000 30.4613
#
#
#
# Elastic Compliance Matrix: (Units=1/GPa)
#
#
# Indices 1 2 3 4 5 6 
#
# 1 0.027054 -0.005889 -0.007071 0.000000 0.000000 0.000000
# 2 -0.005889 0.010588 -0.003670 0.000000 0.000000 0.000000
# 3 -0.007071 -0.003670 0.016076 0.000000 0.000000 0.000000
# 4 0.000000 0.000000 0.000000 0.200907 0.000000 0.000000
# 5 0.000000 0.000000 0.000000 0.000000 -0.075774 0.000000
# 6 0.000000 0.000000 0.000000 0.000000 0.000000 0.032829
#
#
# Mechanical properties :
#
#
# Convention : Reuss Voigt Hill
#
# Bulk Modulus (GPa) = 48.88503 58.89761 53.89132
# Shear Modulus (GPa) = 19.86017 14.64024 17.25020
#
# Velocity S-wave (km/s) = 3.24450 2.78568 3.02381
# Velocity P-wave (km/s) = 6.32037 6.44710 6.38405
#
# Compressibility (1/GPa) = 0.02045616
#
# Stress axis : x y z
#
# Youngs Moduli (GPa) = 36.96338 94.44648 62.20463
#
# Poissons Ratio (x) = 0.55621 0.43986
# Poissons Ratio (y) = 0.21768 0.22832
# Poissons Ratio (z) = 0.26138 0.34666
#
# Static dielectric constant tensor:
#      x y z
#    x 3.466610 0.000000 0.000000 
#    y 0.000000 3.514470 0.000000 
#    z 0.000000 0.000000 3.649030 
# 
# 
# High freq. dielectric constant tensor:
#      x y z
#    x 1.735020 0.000000 0.000000 
#    y 0.000000 1.728230 0.000000 
#    z 0.000000 0.000000 1.729080 
# 
# From -- ./inp_files/17868.got.cif
#   From: 2010.03.12/outbox.cif.g09.slc.cpg/sg40_9_cif.got.tgz:17868.got - 2010.04.14 01:38:03.
