data_PCOD8183817
_publ_section_title
;
Structure prediction by ZEFSAII (Michael W. Deem and Ramdas Pophale) SiO2 
 PCOD8183817
Probable space group: A M A 2
;
_chemical_formula_sum "Si O2"
_cell_formula_units_Z 48
_cell_length_a 8.570061
_cell_length_b 22.797212
_cell_length_c 11.416372
_cell_angle_alpha 90.000000
_cell_angle_beta 90.000000
_cell_angle_gamma 90.000000
_cell_volume 2230.456526
_symmetry_space_group_name_H-M "A M A 2"
_symmetry_group_IT_number 40
_symmetry_cell_setting 'orthorhombic'
loop_
_space_group_symop_operation_xyz
x,y,z
-x,-y,z
1/2-x,y,z
1/2+x,-y,z
x,1/2+y,1/2+z
-x,1/2-y,1/2+z
1/2-x,1/2+y,1/2+z
1/2+x,1/2-y,1/2+z
loop_
_atom_site_type_symbol
_atom_site_label
_atom_site_fract_x
_atom_site_fract_y
_atom_site_fract_z
Si Si1 0.432667 0.236375 0.157880
Si Si2 0.067173 0.935740 0.531796
Si Si3 0.570175 0.653763 0.468775
Si Si4 0.577474 0.440560 0.609699
Si Si5 0.577143 0.860258 0.333921
Si Si6 0.431338 0.146631 0.717538
O O1 0.250000 0.251559 0.161373
O O2 0.480574 0.202045 0.279019
O O3 0.534410 0.295124 0.141504
O O4 0.464391 0.198439 0.042264
O O5 0.250000 0.941695 0.552121
O O6 0.038467 0.888214 0.428788
O O7 0.986933 0.911626 0.649710
O O8 0.000000 0.000000 0.500056
O O9 0.750000 0.668892 0.490440
O O10 0.531518 0.588126 0.510975
O O11 0.532457 0.656775 0.332844
O O12 0.500000 0.500000 0.650784
O O13 0.750000 0.450330 0.556542
O O14 0.589194 0.402414 0.724535
O O15 0.750000 0.853622 0.391261
O O16 0.250000 0.140260 0.747393
#
# Coordination Sequence:
#
# PCOD8183817 Si02
#       6
#     8   8   8   8   8   8
#     4  10  22  42  67  96 129 165 213 265 322 383
#     4  12  26  44  66  94 131 173 222 269 325 390
#     4  11  23  41  63  91 125 162 208 259 317 379
#     4  10  20  36  60  91 125 163 208 258 312 371
#     4   9  20  39  64  94 129 166 210 263 317 375
#     4  12  26  44  66  92 127 169 214 264 324 386
#
# _framework density 21.520257999999998
#
# number of rings (size 3 to 8) (size 9 to 14) (size 15 to 20)
#    0.000    1.333    0.000    7.000    2.333    6.000 
#    0.000    3.333    0.000    0.000    0.000    0.000 
#    0.000    0.000    0.000    0.000    0.000    0.000 
#
# Total GULP energy -297631.963908 kJ/mol
# GULP energy per Si atom -12401.331829 kJ/mol
# Density = 2.147128 g / cm^3
# Si number density = 21.520258 Si / 1000 Ang^3
#
#
#
# Elastic Constant Matrix: (Units=GPa)
#
#
# Indices 1 2 3 4 5 6 
#
# 1 120.0773 29.1081 18.1666 0.0000 0.0000 0.0000
# 2 29.1081 75.8519 7.3546 0.0000 0.0000 0.0000
# 3 18.1666 7.3546 74.8969 0.0000 0.0000 0.0000
# 4 0.0000 0.0000 0.0000 10.2267 0.0000 0.0000
# 5 0.0000 0.0000 0.0000 0.0000 53.7930 0.0000
# 6 0.0000 0.0000 0.0000 0.0000 0.0000 33.7918
#
#
#
# Elastic Compliance Matrix: (Units=1/GPa)
#
#
# Indices 1 2 3 4 5 6 
#
# 1 0.009458 -0.003440 -0.001956 0.000000 0.000000 0.000000
# 2 -0.003440 0.014561 -0.000596 0.000000 0.000000 0.000000
# 3 -0.001956 -0.000596 0.013885 0.000000 0.000000 0.000000
# 4 0.000000 0.000000 0.000000 0.097784 0.000000 0.000000
# 5 0.000000 0.000000 0.000000 0.000000 0.018590 0.000000
# 6 0.000000 0.000000 0.000000 0.000000 0.000000 0.029593
#
#
# Mechanical properties :
#
#
# Convention : Reuss Voigt Hill
#
# Bulk Modulus (GPa) = 38.57923 42.23165 40.40544
# Shear Modulus (GPa) = 24.45065 33.97539 29.21302
#
# Velocity S-wave (km/s) = 3.37437 3.97768 3.68838
# Velocity P-wave (km/s) = 5.75740 6.38456 6.07907
#
# Compressibility (1/GPa) = 0.02592068
#
# Stress axis : x y z
#
# Youngs Moduli (GPa) = 105.73323 68.67505 72.02188
#
# Poissons Ratio (x) = 0.23622 0.14089
# Poissons Ratio (y) = 0.36369 0.04289
# Poissons Ratio (z) = 0.20684 0.04090
#
# Static dielectric constant tensor:
#      x y z
#    x 3.891020 0.000000 0.000000 
#    y 0.000000 4.563820 0.000000 
#    z 0.000000 0.000000 3.803250 
# 
# 
# High freq. dielectric constant tensor:
#      x y z
#    x 1.850530 0.000000 0.000000 
#    y 0.000000 1.851050 0.000000 
#    z 0.000000 0.000000 1.838840 
# 
# From -- ./inp_files/10267.got.cif
#   From: 2010.03.12/outbox.cif.g09.slc.cpg/sg40_6_cif.got.tgz:10267.got - 2010.04.14 01:38:03.
