data_PCOD8183242
_publ_section_title
;
Structure prediction by ZEFSAII (Michael W. Deem and Ramdas Pophale) SiO2 
 PCOD8183242
Probable space group: A M A 2
;
_chemical_formula_sum "Si O2"
_cell_formula_units_Z 48
_cell_length_a 8.929945
_cell_length_b 23.104550
_cell_length_c 11.661118
_cell_angle_alpha 90.000000
_cell_angle_beta 90.000000
_cell_angle_gamma 90.000000
_cell_volume 2405.949395
_symmetry_space_group_name_H-M "A M A 2"
_symmetry_group_IT_number 40
_symmetry_cell_setting 'orthorhombic'
loop_
_space_group_symop_operation_xyz
x,y,z
-x,-y,z
1/2-x,y,z
1/2+x,-y,z
x,1/2+y,1/2+z
-x,1/2-y,1/2+z
1/2-x,1/2+y,1/2+z
1/2+x,1/2-y,1/2+z
loop_
_atom_site_type_symbol
_atom_site_label
_atom_site_fract_x
_atom_site_fract_y
_atom_site_fract_z
Si Si1 0.414392 0.139346 0.526080
Si Si2 0.915427 0.443199 0.811626
Si Si3 0.072614 0.728005 0.850142
Si Si4 0.425297 0.851744 0.170453
Si Si5 0.070942 0.063388 0.732006
Si Si6 0.576050 0.643593 0.405838
O O1 0.250000 0.156976 0.571222
O O2 0.403027 0.094258 0.424228
O O3 0.490698 0.196748 0.468063
O O4 0.495140 0.107149 0.633124
O O5 0.750000 0.457126 0.763484
O O6 0.000000 0.500000 0.849900
O O7 0.009926 0.412400 0.712833
O O8 0.250000 0.715756 0.846707
O O9 0.034961 0.795587 0.846344
O O10 0.999717 0.701973 0.736189
O O11 0.250000 0.849310 0.193867
O O12 0.465702 0.847990 0.037672
O O13 0.250000 0.057110 0.724740
O O14 0.021904 0.091781 0.852470
O O15 0.000000 0.000000 0.717691
O O16 0.750000 0.627881 0.389771
#
# Coordination Sequence:
#
# PCOD8183242 Si02
#       6
#     8   8   8   8   8   8
#     4   8  17  34  58  86 114 149 186 235 292 341
#     4  10  19  34  57  83 114 148 187 234 287 339
#     4   9  19  38  61  85 117 150 187 238 297 349
#     4  10  21  37  57  83 113 147 190 236 285 344
#     4  11  23  39  61  86 119 158 202 243 289 351
#     4  10  23  40  59  83 117 156 192 238 292 346
#
# _framework density 19.950544000000001
#
# number of rings (size 3 to 8) (size 9 to 14) (size 15 to 20)
#    0.000    2.333    0.000    3.000    2.333    2.667 
#    0.000    7.500    0.000    0.000    0.000    0.000 
#    0.000    0.000    0.000    0.000    0.000    0.000 
#
# Total GULP energy -297458.445363 kJ/mol
# GULP energy per Si atom -12394.101890 kJ/mol
# Density = 1.990514 g / cm^3
# Si number density = 19.950544 Si / 1000 Ang^3
#
#
#
# Elastic Constant Matrix: (Units=GPa)
#
#
# Indices 1 2 3 4 5 6 
#
# 1 61.3958 24.3115 39.8918 0.0000 0.0000 0.0000
# 2 24.3115 75.8046 27.3350 0.0000 0.0000 0.0000
# 3 39.8918 27.3350 89.4328 0.0000 0.0000 0.0000
# 4 0.0000 0.0000 0.0000 40.1337 0.0000 0.0000
# 5 0.0000 0.0000 0.0000 0.0000 22.4670 0.0000
# 6 0.0000 0.0000 0.0000 0.0000 0.0000 28.9126
#
#
#
# Elastic Compliance Matrix: (Units=1/GPa)
#
#
# Indices 1 2 3 4 5 6 
#
# 1 0.024140 -0.004337 -0.009442 0.000000 0.000000 0.000000
# 2 -0.004337 0.015605 -0.002835 0.000000 0.000000 0.000000
# 3 -0.009442 -0.002835 0.016260 0.000000 0.000000 0.000000
# 4 0.000000 0.000000 0.000000 0.024917 0.000000 0.000000
# 5 0.000000 0.000000 0.000000 0.000000 0.044510 0.000000
# 6 0.000000 0.000000 0.000000 0.000000 0.000000 0.034587
#
#
# Mechanical properties :
#
#
# Convention : Reuss Voigt Hill
#
# Bulk Modulus (GPa) = 43.90531 45.52331 44.71431
# Shear Modulus (GPa) = 24.89550 27.30900 26.10225
#
# Velocity S-wave (km/s) = 3.53634 3.70379 3.62103
# Velocity P-wave (km/s) = 6.22327 6.41548 6.32011
#
# Compressibility (1/GPa) = 0.02277629
#
# Stress axis : x y z
#
# Youngs Moduli (GPa) = 41.42460 64.08149 61.50132
#
# Poissons Ratio (x) = 0.27794 0.58071
# Poissons Ratio (y) = 0.17967 0.17436
# Poissons Ratio (z) = 0.39114 0.18167
#
# Static dielectric constant tensor:
#      x y z
#    x 3.608110 0.000000 0.000000 
#    y 0.000000 3.423860 0.000000 
#    z 0.000000 0.000000 3.619960 
# 
# 
# High freq. dielectric constant tensor:
#      x y z
#    x 1.761400 0.000000 0.000000 
#    y 0.000000 1.786940 0.000000 
#    z 0.000000 0.000000 1.777240 
# 
# From -- ./inp_files/10249.got.cif
#   From: 2010.03.12/outbox.cif.g09.slc.cpg/sg40_6_cif.got.tgz:10249.got - 2010.04.14 01:38:03.
