data_PCOD8183938
_publ_section_title
;
Structure prediction by ZEFSAII (Michael W. Deem and Ramdas Pophale) SiO2 
 PCOD8183938
Probable space group: A M A 2
;
_chemical_formula_sum "Si O2"
_cell_formula_units_Z 44
_cell_length_a 22.934161
_cell_length_b 11.379223
_cell_length_c 8.545616
_cell_angle_alpha 90.000000
_cell_angle_beta 90.000000
_cell_angle_gamma 90.000000
_cell_volume 2230.174466
_symmetry_space_group_name_H-M "A M A 2"
_symmetry_group_IT_number 40
_symmetry_cell_setting 'orthorhombic'
loop_
_space_group_symop_operation_xyz
x,y,z
-x,-y,z
1/2-x,y,z
1/2+x,-y,z
x,1/2+y,1/2+z
-x,1/2-y,1/2+z
1/2-x,1/2+y,1/2+z
1/2+x,1/2-y,1/2+z
loop_
_atom_site_type_symbol
_atom_site_label
_atom_site_fract_x
_atom_site_fract_y
_atom_site_fract_z
Si Si1 0.367711 0.992521 0.867760
Si Si2 0.250000 0.533619 0.899804
Si Si3 0.535072 0.883083 0.674745
Si Si4 0.750000 0.435706 0.244001
Si Si5 0.937530 0.242882 0.861298
Si Si6 0.655837 0.368679 0.672044
Si Si7 0.250000 0.264802 0.995677
O O1 0.407110 0.081812 0.768034
O O2 0.305809 0.982827 0.780503
O O3 0.395123 0.865682 0.890675
O O4 0.358642 0.036581 0.042118
O O5 0.307955 0.566257 0.806603
O O6 0.250000 0.396327 0.937228
O O7 0.250000 0.603858 0.063275
O O8 0.498385 0.799467 0.789389
O O9 0.551333 0.811644 0.520812
O O10 0.500000 0.000000 0.625462
O O11 0.750000 0.317562 0.343910
O O12 0.905934 0.327209 0.738051
O O13 0.692493 0.260687 0.599047
#
# Coordination Sequence:
#
# PCOD8183938 Si02
#       7
#     8   4   8   4   8   8   4
#     4  10  22  40  59  86 119 151 191 237 286 346
#     4  11  21  35  56  84 116 153 195 237 290 352
#     4  10  23  40  59  85 114 151 197 237 286 345
#     4  10  20  38  62  86 118 154 190 234 288 346
#     4  11  22  39  62  84 116 155 192 244 292 334
#     4  10  22  36  56  87 115 150 199 239 287 349
#     4   9  21  39  56  82 124 159 189 241 290 340
#
# _framework density 19.729396999999999
#
# number of rings (size 3 to 8) (size 9 to 14) (size 15 to 20)
#    0.000    1.818    0.000    3.818    0.000    8.000 
#    0.000    2.727    0.000    0.000    0.000    0.000 
#    0.000    0.000    0.000    0.000    0.000    0.000 
#
# Total GULP energy -272880.475361 kJ/mol
# GULP energy per Si atom -12403.657971 kJ/mol
# Density = 1.968449 g / cm^3
# Si number density = 19.729397 Si / 1000 Ang^3
#
#
#
# Elastic Constant Matrix: (Units=GPa)
#
#
# Indices 1 2 3 4 5 6 
#
# 1 127.3240 32.7095 62.7595 0.0000 0.0000 0.0000
# 2 32.7095 78.6220 56.8772 0.0000 0.0000 0.0000
# 3 62.7595 56.8772 159.0915 0.0000 0.0000 0.0000
# 4 0.0000 0.0000 0.0000 35.5359 0.0000 0.0000
# 5 0.0000 0.0000 0.0000 0.0000 29.4775 0.0000
# 6 0.0000 0.0000 0.0000 0.0000 0.0000 -13.3257
#
#
#
# Elastic Compliance Matrix: (Units=1/GPa)
#
#
# Indices 1 2 3 4 5 6 
#
# 1 0.009925 -0.001749 -0.003290 0.000000 0.000000 0.000000
# 2 -0.001749 0.017465 -0.005554 0.000000 0.000000 0.000000
# 3 -0.003290 -0.005554 0.009569 0.000000 0.000000 0.000000
# 4 0.000000 0.000000 0.000000 0.028141 0.000000 0.000000
# 5 0.000000 0.000000 0.000000 0.000000 0.033924 0.000000
# 6 0.000000 0.000000 0.000000 0.000000 0.000000 -0.075043
#
#
# Mechanical properties :
#
#
# Convention : Reuss Voigt Hill
#
# Bulk Modulus (GPa) = 63.39985 74.41444 68.90715
# Shear Modulus (GPa) = 99.15996 24.51696 61.83846
#
# Velocity S-wave (km/s) = 7.09712 3.52896 5.60458
# Velocity P-wave (km/s) = 9.96811 7.37592 8.76834
#
# Compressibility (1/GPa) = 0.01577291
#
# Stress axis : x y z
#
# Youngs Moduli (GPa) = 100.75590 57.25895 104.50323
#
# Poissons Ratio (x) = 0.10015 0.34381
# Poissons Ratio (y) = 0.17623 0.58039
# Poissons Ratio (z) = 0.33148 0.31800
#
# Static dielectric constant tensor:
#      x y z
#    x 4.000970 0.000000 0.000000 
#    y 0.000000 3.474310 0.000000 
#    z 0.000000 0.000000 3.729390 
# 
# 
# High freq. dielectric constant tensor:
#      x y z
#    x 1.782250 0.000000 0.000000 
#    y 0.000000 1.767510 0.000000 
#    z 0.000000 0.000000 1.784370 
# 
# From -- ./inp_files/8686.got.cif
#   From: 2010.03.12/outbox.cif.g09.slc.cpg/sg40_5_cif.got.tgz:8686.got - 2010.04.14 01:38:03.
