data_PCOD8183414
_publ_section_title
;
Structure prediction by ZEFSAII (Michael W. Deem and Ramdas Pophale) SiO2 
 PCOD8183414
Probable space group: A M A 2
;
_chemical_formula_sum "Si O2"
_cell_formula_units_Z 48
_cell_length_a 17.615952
_cell_length_b 14.917438
_cell_length_c 9.222734
_cell_angle_alpha 90.000000
_cell_angle_beta 90.000000
_cell_angle_gamma 90.000000
_cell_volume 2423.594972
_symmetry_space_group_name_H-M "A M A 2"
_symmetry_group_IT_number 40
_symmetry_cell_setting 'orthorhombic'
loop_
_space_group_symop_operation_xyz
x,y,z
-x,-y,z
1/2-x,y,z
1/2+x,-y,z
x,1/2+y,1/2+z
-x,1/2-y,1/2+z
1/2-x,1/2+y,1/2+z
1/2+x,1/2-y,1/2+z
loop_
_atom_site_type_symbol
_atom_site_label
_atom_site_fract_x
_atom_site_fract_y
_atom_site_fract_z
Si Si1 0.335323 0.041321 0.532590
Si Si2 0.335083 0.682413 0.581101
Si Si3 0.956834 0.627479 0.324761
Si Si4 0.932601 0.324192 0.861617
Si Si5 0.117782 0.551664 0.355438
Si Si6 0.912722 0.140205 0.494931
O O1 0.250000 0.055182 0.478349
O O2 0.384942 0.124478 0.481295
O O3 0.337246 0.041733 0.705897
O O4 0.364396 0.948712 0.461281
O O5 0.250000 0.697886 0.645496
O O6 0.397270 0.658065 0.703268
O O7 0.328506 0.596600 0.475169
O O8 0.359367 0.772036 0.493843
O O9 0.926967 0.718572 0.397161
O O10 0.908901 0.548163 0.399768
O O11 0.949611 0.627502 0.151911
O O12 0.045738 0.617177 0.350243
O O13 0.021040 0.353445 0.872957
#
# Coordination Sequence:
#
# PCOD8183414 Si02
#       6
#     8   8   8   8   8   8
#     4  11  22  38  62  89 118 156 202 247 299 355
#     4  11  23  39  59  90 128 156 191 252 316 353
#     4   9  19  36  61  88 110 150 204 245 278 349
#     4  11  21  38  61  88 120 156 198 247 298 360
#     4  10  19  38  61  86 117 150 201 242 292 354
#     4  10  20  39  62  86 114 160 204 244 286 359
#
# _framework density 19.805289999999999
#
# number of rings (size 3 to 8) (size 9 to 14) (size 15 to 20)
#    0.000    1.667    3.333    2.000    0.000    0.000 
#    6.000    2.500    0.000    0.000    0.000    0.000 
#    0.000    0.000    0.000    0.000    0.000    0.000 
#
# Total GULP energy -297561.369022 kJ/mol
# GULP energy per Si atom -12398.390376 kJ/mol
# Density = 1.976021 g / cm^3
# Si number density = 19.805290 Si / 1000 Ang^3
#
#
#
# Elastic Constant Matrix: (Units=GPa)
#
#
# Indices 1 2 3 4 5 6 
#
# 1 110.7961 36.1539 28.6286 0.0000 0.0000 0.0000
# 2 36.1539 114.7876 32.9033 0.0000 0.0000 0.0000
# 3 28.6286 32.9033 43.7027 0.0000 0.0000 0.0000
# 4 0.0000 0.0000 0.0000 31.2666 0.0000 0.0000
# 5 0.0000 0.0000 0.0000 0.0000 20.8762 0.0000
# 6 0.0000 0.0000 0.0000 0.0000 0.0000 24.4001
#
#
#
# Elastic Compliance Matrix: (Units=1/GPa)
#
#
# Indices 1 2 3 4 5 6 
#
# 1 0.011151 -0.001809 -0.005943 0.000000 0.000000 0.000000
# 2 -0.001809 0.011403 -0.007400 0.000000 0.000000 0.000000
# 3 -0.005943 -0.007400 0.032347 0.000000 0.000000 0.000000
# 4 0.000000 0.000000 0.000000 0.031983 0.000000 0.000000
# 5 0.000000 0.000000 0.000000 0.000000 0.047901 0.000000
# 6 0.000000 0.000000 0.000000 0.000000 0.000000 0.040983
#
#
# Mechanical properties :
#
#
# Convention : Reuss Voigt Hill
#
# Bulk Modulus (GPa) = 40.65613 51.62869 46.14241
# Shear Modulus (GPa) = 23.33488 26.74863 25.04175
#
# Velocity S-wave (km/s) = 3.43624 3.67901 3.55969
# Velocity P-wave (km/s) = 6.02628 6.64617 6.34380
#
# Compressibility (1/GPa) = 0.02459654
#
# Stress axis : x y z
#
# Youngs Moduli (GPa) = 89.67418 87.69927 30.91512
#
# Poissons Ratio (x) = 0.15862 0.18374
# Poissons Ratio (y) = 0.16219 0.22877
# Poissons Ratio (z) = 0.53296 0.64898
#
# Static dielectric constant tensor:
#      x y z
#    x 3.644950 0.000000 0.000000 
#    y 0.000000 3.844570 0.000000 
#    z 0.000000 0.000000 3.280910 
# 
# 
# High freq. dielectric constant tensor:
#      x y z
#    x 1.775790 0.000000 0.000000 
#    y 0.000000 1.785580 0.000000 
#    z 0.000000 0.000000 1.739940 
# 
# From -- ./inp_files/7463.got.cif
#   From: 2010.03.12/outbox.cif.g09.slc.cpg/sg40_4_cif.got.tgz:7463.got - 2010.04.14 01:38:03.
