data_PCOD8183095
_publ_section_title
;
Structure prediction by ZEFSAII (Michael W. Deem and Ramdas Pophale) SiO2 
 PCOD8183095
Probable space group: A M A 2
;
_chemical_formula_sum "Si O2"
_cell_formula_units_Z 40
_cell_length_a 20.575652
_cell_length_b 5.233170
_cell_length_c 19.439148
_cell_angle_alpha 90.000000
_cell_angle_beta 90.000000
_cell_angle_gamma 90.000000
_cell_volume 2093.127460
_symmetry_space_group_name_H-M "A M A 2"
_symmetry_group_IT_number 40
_symmetry_cell_setting 'orthorhombic'
loop_
_space_group_symop_operation_xyz
x,y,z
-x,-y,z
1/2-x,y,z
1/2+x,-y,z
x,1/2+y,1/2+z
-x,1/2-y,1/2+z
1/2-x,1/2+y,1/2+z
1/2+x,1/2-y,1/2+z
loop_
_atom_site_type_symbol
_atom_site_label
_atom_site_fract_x
_atom_site_fract_y
_atom_site_fract_z
Si Si1 0.326796 0.507295 0.301940
Si Si2 0.379117 0.537169 0.453314
Si Si3 0.176660 0.821487 0.080939
Si Si4 0.928900 0.451307 0.008741
Si Si5 0.673283 0.493463 0.728218
O O1 0.250000 0.505076 0.293655
O O2 0.343910 0.498362 0.381559
O O3 0.356768 0.264337 0.260972
O O4 0.356340 0.762888 0.268250
O O5 0.326018 0.509319 0.514884
O O6 0.431788 0.308310 0.462833
O O7 0.411259 0.814911 0.458461
O O8 0.250000 0.711879 0.090012
O O9 0.125602 0.586673 0.068873
O O10 0.155071 0.981977 0.147862
O O11 0.000000 0.500000 0.041717
O O12 0.750000 0.487752 0.738557
#
# Coordination Sequence:
#
# PCOD8183095 Si02
#       5
#     8   8   8   8   8
#     4  10  19  33  52  82 118 148 177 229 293 343
#     4  10  21  35  59  82 108 148 195 237 275 340
#     4   9  21  35  58  89 115 146 192 245 285 337
#     4  10  22  38  59  85 113 155 192 239 290 341
#     4   9  19  32  50  78 119 151 177 223 293 345
#
# _framework density 19.110161000000002
#
# number of rings (size 3 to 8) (size 9 to 14) (size 15 to 20)
#    1.200    1.200    0.000    2.400    2.800    1.600 
#    0.000    0.000    0.000    4.800    0.000    0.000 
#    0.000    0.000    0.000    0.000    0.000    0.000 
#
# Total GULP energy -247785.850698 kJ/mol
# GULP energy per Si atom -12389.292535 kJ/mol
# Density = 1.906667 g / cm^3
# Si number density = 19.110161 Si / 1000 Ang^3
#
#
#
# Elastic Constant Matrix: (Units=GPa)
#
#
# Indices 1 2 3 4 5 6 
#
# 1 59.9677 24.5009 18.2150 0.0000 0.0000 0.0000
# 2 24.5009 143.4884 49.4503 0.0000 0.0000 0.0000
# 3 18.2150 49.4503 146.1220 0.0000 0.0000 0.0000
# 4 0.0000 0.0000 0.0000 26.2198 0.0000 0.0000
# 5 0.0000 0.0000 0.0000 0.0000 4.7863 0.0000
# 6 0.0000 0.0000 0.0000 0.0000 0.0000 11.2259
#
#
#
# Elastic Compliance Matrix: (Units=1/GPa)
#
#
# Indices 1 2 3 4 5 6 
#
# 1 0.018167 -0.002628 -0.001375 0.000000 0.000000 0.000000
# 2 -0.002628 0.008270 -0.002471 0.000000 0.000000 0.000000
# 3 -0.001375 -0.002471 0.007851 0.000000 0.000000 0.000000
# 4 0.000000 0.000000 0.000000 0.038139 0.000000 0.000000
# 5 0.000000 0.000000 0.000000 0.000000 0.208930 0.000000
# 6 0.000000 0.000000 0.000000 0.000000 0.000000 0.089079
#
#
# Mechanical properties :
#
#
# Convention : Reuss Voigt Hill
#
# Bulk Modulus (GPa) = 46.86192 59.32339 53.09265
# Shear Modulus (GPa) = 12.80416 25.60720 19.20568
#
# Velocity S-wave (km/s) = 2.59128 3.66454 3.17361
# Velocity P-wave (km/s) = 5.79035 7.00110 6.42431
#
# Compressibility (1/GPa) = 0.02133929
#
# Stress axis : x y z
#
# Youngs Moduli (GPa) = 55.04441 120.92600 127.36846
#
# Poissons Ratio (x) = 0.31781 0.17516
# Poissons Ratio (y) = 0.14466 0.31472
# Poissons Ratio (z) = 0.07570 0.29880
#
# Static dielectric constant tensor:
#      x y z
#    x 3.055530 0.000000 0.000000 
#    y 0.000000 3.748250 0.000000 
#    z 0.000000 0.000000 3.352500 
# 
# 
# High freq. dielectric constant tensor:
#      x y z
#    x 1.694740 0.000000 0.000000 
#    y 0.000000 1.754770 0.000000 
#    z 0.000000 0.000000 1.737680 
# 
# From -- ./inp_files/21271.got.cif
#   From: 2010.03.12/outbox.cif.g09.slc.cpg/sg40_11_cif.got.tgz:21271.got - 2010.04.14 01:38:03.
