data_PCOD8183923
_publ_section_title
;
Structure prediction by ZEFSAII (Michael W. Deem and Ramdas Pophale) SiO2 
 PCOD8183923
Probable space group: A M A 2
;
_chemical_formula_sum "Si O2"
_cell_formula_units_Z 64
_cell_length_a 15.335222
_cell_length_b 9.157684
_cell_length_c 22.909615
_cell_angle_alpha 90.000000
_cell_angle_beta 90.000000
_cell_angle_gamma 90.000000
_cell_volume 3217.314466
_symmetry_space_group_name_H-M "A M A 2"
_symmetry_group_IT_number 40
_symmetry_cell_setting 'orthorhombic'
loop_
_space_group_symop_operation_xyz
x,y,z
-x,-y,z
1/2-x,y,z
1/2+x,-y,z
x,1/2+y,1/2+z
-x,1/2-y,1/2+z
1/2-x,1/2+y,1/2+z
1/2+x,1/2-y,1/2+z
loop_
_atom_site_type_symbol
_atom_site_label
_atom_site_fract_x
_atom_site_fract_y
_atom_site_fract_z
Si Si1 0.152995 0.842342 0.966390
Si Si2 0.911267 0.921050 0.879235
Si Si3 0.097800 0.978515 0.078037
Si Si4 0.346868 0.794004 0.551130
Si Si5 0.347429 0.118170 0.754444
Si Si6 0.919861 0.097196 0.662056
Si Si7 0.036633 0.353259 0.697258
Si Si8 0.017956 0.336712 0.947618
O O1 0.250000 0.783161 0.950470
O O2 0.079565 0.724669 0.953402
O O3 0.135862 0.993463 0.931729
O O4 0.150499 0.872582 0.035326
O O5 0.850505 0.919419 0.822675
O O6 0.929721 0.755306 0.899302
O O7 0.000000 0.000000 0.860818
O O8 0.094277 0.904158 0.141699
O O9 0.146492 0.132228 0.077334
O O10 0.000000 0.000000 0.052762
O O11 0.250000 0.816863 0.523456
O O12 0.354374 0.899677 0.607390
O O13 0.424522 0.832347 0.506489
O O14 0.250000 0.159942 0.736901
O O15 0.406508 0.259279 0.741758
O O16 0.375981 0.975169 0.718662
O O17 0.953235 0.260027 0.676570
O O18 0.000000 0.000000 0.640885
O O19 0.000000 0.500000 0.728635
O O20 0.000000 0.500000 0.925853
#
# Coordination Sequence:
#
# PCOD8183923 Si02
#       8
#     8   8   8   8   8   8   8   8
#     4  11  21  38  66  92 119 160 209 257 302 364
#     4  10  21  42  66  87 115 162 212 247 301 367
#     4  11  18  36  60  90 123 162 206 250 301 358
#     4  12  22  35  59  92 129 167 204 249 308 372
#     4  11  24  40  61  92 122 155 206 260 306 363
#     4  10  20  38  60  84 121 167 204 249 303 365
#     4  10  20  38  61  82 120 164 205 247 305 366
#     4  11  24  41  61  92 128 160 198 256 319 376
#
# _framework density 19.892365000000002
#
# number of rings (size 3 to 8) (size 9 to 14) (size 15 to 20)
#    0.000    1.250    5.000    3.000    0.000    3.500 
#    0.000    0.000    0.000    0.000    0.000    0.000 
#    0.000    0.000    0.000    0.000    0.000    0.000 
#
# Total GULP energy -396723.945132 kJ/mol
# GULP energy per Si atom -12397.623285 kJ/mol
# Density = 1.984709 g / cm^3
# Si number density = 19.892365 Si / 1000 Ang^3
#
#
#
# Elastic Constant Matrix: (Units=GPa)
#
#
# Indices 1 2 3 4 5 6 
#
# 1 120.8673 23.8126 18.4525 0.0000 0.0000 0.0000
# 2 23.8126 110.9758 26.9383 0.0000 0.0000 0.0000
# 3 18.4525 26.9383 81.0420 0.0000 0.0000 0.0000
# 4 0.0000 0.0000 0.0000 23.9476 0.0000 0.0000
# 5 0.0000 0.0000 0.0000 0.0000 18.9286 0.0000
# 6 0.0000 0.0000 0.0000 0.0000 0.0000 16.7168
#
#
#
# Elastic Compliance Matrix: (Units=1/GPa)
#
#
# Indices 1 2 3 4 5 6 
#
# 1 0.008803 -0.001525 -0.001497 0.000000 0.000000 0.000000
# 2 -0.001525 0.010066 -0.002999 0.000000 0.000000 0.000000
# 3 -0.001497 -0.002999 0.013677 0.000000 0.000000 0.000000
# 4 0.000000 0.000000 0.000000 0.041758 0.000000 0.000000
# 5 0.000000 0.000000 0.000000 0.000000 0.052830 0.000000
# 6 0.000000 0.000000 0.000000 0.000000 0.000000 0.059820
#
#
# Mechanical properties :
#
#
# Convention : Reuss Voigt Hill
#
# Bulk Modulus (GPa) = 48.77295 50.14354 49.45825
# Shear Modulus (GPa) = 24.29179 28.16404 26.22792
#
# Velocity S-wave (km/s) = 3.49830 3.76682 3.63504
# Velocity P-wave (km/s) = 6.39446 6.64686 6.52188
#
# Compressibility (1/GPa) = 0.02050317
#
# Stress axis : x y z
#
# Youngs Moduli (GPa) = 113.60229 99.34251 73.11570
#
# Poissons Ratio (x) = 0.15154 0.10947
# Poissons Ratio (y) = 0.17329 0.21925
# Poissons Ratio (z) = 0.17009 0.29790
#
# Static dielectric constant tensor:
#      x y z
#    x 3.658900 0.000000 0.000000 
#    y 0.000000 3.648810 0.000000 
#    z 0.000000 0.000000 3.418360 
# 
# 
# High freq. dielectric constant tensor:
#      x y z
#    x 1.776000 0.000000 0.000000 
#    y 0.000000 1.773250 0.000000 
#    z 0.000000 0.000000 1.761500 
# 
# From -- ./inp_files/24847.got.cif
#   From: 2010.03.12/outbox.cif.g09.slc.cpg/sg40_13_cif.got.tgz:24847.got - 2010.04.14 01:38:03.
