data_PCOD8183282
_publ_section_title
;
Structure prediction by ZEFSAII (Michael W. Deem and Ramdas Pophale) SiO2 
 PCOD8183282
Probable space group: A M A 2
;
_chemical_formula_sum "Si O2"
_cell_formula_units_Z 48
_cell_length_a 16.725354
_cell_length_b 9.141380
_cell_length_c 15.902856
_cell_angle_alpha 90.000000
_cell_angle_beta 90.000000
_cell_angle_gamma 90.000000
_cell_volume 2431.432445
_symmetry_space_group_name_H-M "A M A 2"
_symmetry_group_IT_number 40
_symmetry_cell_setting 'orthorhombic'
loop_
_space_group_symop_operation_xyz
x,y,z
-x,-y,z
1/2-x,y,z
1/2+x,-y,z
x,1/2+y,1/2+z
-x,1/2-y,1/2+z
1/2-x,1/2+y,1/2+z
1/2+x,1/2-y,1/2+z
loop_
_atom_site_type_symbol
_atom_site_label
_atom_site_fract_x
_atom_site_fract_y
_atom_site_fract_z
Si Si1 0.091552 0.514869 0.055360
Si Si2 0.091491 0.028401 0.884292
Si Si3 0.157442 0.386549 0.220449
Si Si4 0.843943 0.878914 0.319034
Si Si5 0.342558 0.840685 0.402368
Si Si6 0.844568 0.715108 0.482905
O O1 0.101751 0.449292 0.148061
O O2 0.000000 0.500000 0.028073
O O3 0.146560 0.425049 0.990466
O O4 0.118645 0.686656 0.058450
O O5 0.101637 0.200557 0.898287
O O6 0.146094 0.977048 0.806433
O O7 0.118793 0.947932 0.971582
O O8 0.000000 0.000000 0.862477
O O9 0.250000 0.398256 0.193700
O O10 0.131787 0.214630 0.236178
O O11 0.750000 0.869772 0.329689
O O12 0.878301 0.796889 0.400283
O O13 0.868977 0.050186 0.324602
O O14 0.250000 0.794767 0.394185
O O15 0.750000 0.703647 0.494479
#
# Coordination Sequence:
#
# PCOD8183282 Si02
#       6
#     8   8   8   8   8   8
#     4  11  21  34  54  82 113 144 183 233 280 325
#     4  11  21  34  54  82 112 141 182 238 284 321
#     4  10  19  35  55  76 105 146 185 223 274 340
#     4   7  14  29  52  75  97 129 177 221 259 316
#     4  10  19  35  57  81 106 143 190 233 277 338
#     4   9  17  33  53  74 102 143 183 216 262 332
#
# _framework density 19.741447999999998
#
# number of rings (size 3 to 8) (size 9 to 14) (size 15 to 20)
#    0.000    2.333    0.000    6.500    0.000    0.000 
#    0.000    1.667    0.000    4.000    0.000    0.000 
#    0.000    0.000    0.000    0.000    0.000    0.000 
#
# Total GULP energy -297389.989790 kJ/mol
# GULP energy per Si atom -12391.249575 kJ/mol
# Density = 1.969652 g / cm^3
# Si number density = 19.741448 Si / 1000 Ang^3
#
#
#
# Elastic Constant Matrix: (Units=GPa)
#
#
# Indices 1 2 3 4 5 6 
#
# 1 76.5099 23.2010 9.6999 0.0000 0.0000 0.0000
# 2 23.2010 136.1532 41.1682 0.0000 0.0000 0.0000
# 3 9.6999 41.1682 63.0011 0.0000 0.0000 0.0000
# 4 0.0000 0.0000 0.0000 32.2946 0.0000 0.0000
# 5 0.0000 0.0000 0.0000 0.0000 12.3107 0.0000
# 6 0.0000 0.0000 0.0000 0.0000 0.0000 27.9958
#
#
#
# Elastic Compliance Matrix: (Units=1/GPa)
#
#
# Indices 1 2 3 4 5 6 
#
# 1 0.013810 -0.002131 -0.000733 0.000000 0.000000 0.000000
# 2 -0.002131 0.009482 -0.005868 0.000000 0.000000 0.000000
# 3 -0.000733 -0.005868 0.019820 0.000000 0.000000 0.000000
# 4 0.000000 0.000000 0.000000 0.030965 0.000000 0.000000
# 5 0.000000 0.000000 0.000000 0.000000 0.081230 0.000000
# 6 0.000000 0.000000 0.000000 0.000000 0.000000 0.035720
#
#
# Mechanical properties :
#
#
# Convention : Reuss Voigt Hill
#
# Bulk Modulus (GPa) = 38.99215 47.08916 43.04065
# Shear Modulus (GPa) = 23.03716 27.95991 25.49854
#
# Velocity S-wave (km/s) = 3.41976 3.76747 3.59782
# Velocity P-wave (km/s) = 5.94872 6.54445 6.25368
#
# Compressibility (1/GPa) = 0.02564619
#
# Stress axis : x y z
#
# Youngs Moduli (GPa) = 72.41380 105.46134 50.45388
#
# Poissons Ratio (x) = 0.22478 0.03700
# Poissons Ratio (y) = 0.15435 0.29606
# Poissons Ratio (z) = 0.05311 0.61884
#
# Static dielectric constant tensor:
#      x y z
#    x 3.335030 0.000000 0.000000 
#    y 0.000000 4.019850 0.000000 
#    z 0.000000 0.000000 3.291130 
# 
# 
# High freq. dielectric constant tensor:
#      x y z
#    x 1.764530 0.000000 0.000000 
#    y 0.000000 1.779030 0.000000 
#    z 0.000000 0.000000 1.727650 
# 
# From -- ./inp_files/17622.got.cif
#   From: 2010.03.12/outbox.cif.g09.slc.cpg/sg40_9_cif.got.tgz:17622.got - 2010.04.14 01:38:03.
