data_PCOD8183529
_publ_section_title
;
Structure prediction by ZEFSAII (Michael W. Deem and Ramdas Pophale) SiO2 
 PCOD8183529
Probable space group: A M A 2
;
_chemical_formula_sum "Si O2"
_cell_formula_units_Z 56
_cell_length_a 8.649250
_cell_length_b 23.824858
_cell_length_c 13.545194
_cell_angle_alpha 90.000000
_cell_angle_beta 90.000000
_cell_angle_gamma 90.000000
_cell_volume 2791.219565
_symmetry_space_group_name_H-M "A M A 2"
_symmetry_group_IT_number 40
_symmetry_cell_setting 'orthorhombic'
loop_
_space_group_symop_operation_xyz
x,y,z
-x,-y,z
1/2-x,y,z
1/2+x,-y,z
x,1/2+y,1/2+z
-x,1/2-y,1/2+z
1/2-x,1/2+y,1/2+z
1/2+x,1/2-y,1/2+z
loop_
_atom_site_type_symbol
_atom_site_label
_atom_site_fract_x
_atom_site_fract_y
_atom_site_fract_z
Si Si1 0.430505 0.666714 0.484000
Si Si2 0.932113 0.623398 0.002952
Si Si3 0.427529 0.160016 0.206807
Si Si4 0.933701 0.559969 0.390919
Si Si5 0.930362 0.059784 0.309329
Si Si6 0.069226 0.725569 0.898767
Si Si7 0.567303 0.940849 0.678479
O O1 0.250000 0.665748 0.458492
O O2 0.461829 0.683570 0.597825
O O3 0.502943 0.605739 0.466831
O O4 0.514935 0.710815 0.412884
O O5 0.750000 0.618755 0.022120
O O6 0.024874 0.607171 0.100783
O O7 0.989806 0.582573 0.915050
O O8 0.974813 0.686999 0.975219
O O9 0.250000 0.142200 0.218147
O O10 0.525853 0.103868 0.224491
O O11 0.470734 0.208116 0.286146
O O12 0.750000 0.558098 0.392967
O O13 0.000000 0.500000 0.424329
O O14 0.991062 0.575898 0.281823
O O15 0.750000 0.052609 0.312391
O O16 0.000000 0.000000 0.283634
O O17 0.250000 0.719744 0.921020
O O18 0.750000 0.945940 0.691856
O O19 0.500000 0.000000 0.640007
#
# Coordination Sequence:
#
# PCOD8183529 Si02
#       7
#     8   8   8   8   8   8   8
#     4  11  23  41  63  87 114 150 191 235 286 342
#     4  10  20  35  55  83 117 155 195 240 289 341
#     4   9  21  40  60  81 112 149 189 235 283 334
#     4  11  23  41  62  86 116 150 189 237 287 342
#     4  10  20  33  54  82 115 152 192 236 285 337
#     4  10  21  39  60  85 115 151 193 240 288 339
#     4  11  21  35  56  84 117 155 195 239 288 343
#
# _framework density 20.062915
#
# number of rings (size 3 to 8) (size 9 to 14) (size 15 to 20)
#    0.000    1.714    0.000    5.571    0.000    6.286 
#    0.000    4.286    0.000    0.000    0.000    0.000 
#    0.000    0.000    0.000    0.000    0.000    0.000 
#
# Total GULP energy -347342.754170 kJ/mol
# GULP energy per Si atom -12405.098363 kJ/mol
# Density = 2.001725 g / cm^3
# Si number density = 20.062915 Si / 1000 Ang^3
#
#
#
# Elastic Constant Matrix: (Units=GPa)
#
#
# Indices 1 2 3 4 5 6 
#
# 1 87.2542 27.5744 37.6837 0.0000 0.0000 0.0000
# 2 27.5744 111.8284 50.3303 0.0000 0.0000 0.0000
# 3 37.6837 50.3303 90.9511 0.0000 0.0000 0.0000
# 4 0.0000 0.0000 0.0000 19.4311 0.0000 0.0000
# 5 0.0000 0.0000 0.0000 0.0000 29.7343 0.0000
# 6 0.0000 0.0000 0.0000 0.0000 0.0000 39.0304
#
#
#
# Elastic Compliance Matrix: (Units=1/GPa)
#
#
# Indices 1 2 3 4 5 6 
#
# 1 0.014064 -0.001126 -0.005204 0.000000 0.000000 0.000000
# 2 -0.001126 0.011998 -0.006173 0.000000 0.000000 0.000000
# 3 -0.005204 -0.006173 0.016567 0.000000 0.000000 0.000000
# 4 0.000000 0.000000 0.000000 0.051464 0.000000 0.000000
# 5 0.000000 0.000000 0.000000 0.000000 0.033631 0.000000
# 6 0.000000 0.000000 0.000000 0.000000 0.000000 0.025621
#
#
# Mechanical properties :
#
#
# Convention : Reuss Voigt Hill
#
# Bulk Modulus (GPa) = 56.74246 57.91227 57.32736
# Shear Modulus (GPa) = 27.14054 29.26886 28.20470
#
# Velocity S-wave (km/s) = 3.68199 3.82364 3.75348
# Velocity P-wave (km/s) = 6.81321 6.95856 6.88627
#
# Compressibility (1/GPa) = 0.01762349
#
# Stress axis : x y z
#
# Youngs Moduli (GPa) = 71.10283 83.34625 60.36004
#
# Poissons Ratio (x) = 0.09382 0.31413
# Poissons Ratio (y) = 0.08004 0.37261
# Poissons Ratio (z) = 0.37004 0.51451
#
# Static dielectric constant tensor:
#      x y z
#    x 3.713120 0.000000 0.000000 
#    y 0.000000 3.782280 0.000000 
#    z 0.000000 0.000000 3.628540 
# 
# 
# High freq. dielectric constant tensor:
#      x y z
#    x 1.795650 0.000000 0.000000 
#    y 0.000000 1.780030 0.000000 
#    z 0.000000 0.000000 1.779440 
# 
# From -- ./inp_files/15314.got.cif
#   From: 2010.03.12/outbox.cif.g09.slc.cpg/sg40_8_cif.got.tgz:15314.got - 2010.04.14 01:38:03.
