data_PCOD8183109
_publ_section_title
;
Structure prediction by ZEFSAII (Michael W. Deem and Ramdas Pophale) SiO2 
 PCOD8183109
Probable space group: A M A 2
;
_chemical_formula_sum "Si O2"
_cell_formula_units_Z 64
_cell_length_a 8.851302
_cell_length_b 15.958123
_cell_length_c 22.649192
_cell_angle_alpha 90.000000
_cell_angle_beta 90.000000
_cell_angle_gamma 90.000000
_cell_volume 3199.202130
_symmetry_space_group_name_H-M "A M A 2"
_symmetry_group_IT_number 40
_symmetry_cell_setting 'orthorhombic'
loop_
_space_group_symop_operation_xyz
x,y,z
-x,-y,z
1/2-x,y,z
1/2+x,-y,z
x,1/2+y,1/2+z
-x,1/2-y,1/2+z
1/2-x,1/2+y,1/2+z
1/2+x,1/2-y,1/2+z
loop_
_atom_site_type_symbol
_atom_site_label
_atom_site_fract_x
_atom_site_fract_y
_atom_site_fract_z
Si Si1 0.079889 0.589964 0.811930
Si Si2 0.426407 0.419559 0.020837
Si Si3 0.077769 0.804605 0.089142
Si Si4 0.571830 0.257607 0.474132
Si Si5 0.570149 0.411613 0.271376
Si Si6 0.420451 0.084726 0.180952
Si Si7 0.930011 0.231680 0.853128
Si Si8 0.077205 0.123594 0.637331
O O1 0.250000 0.573031 0.832880
O O2 0.078456 0.627395 0.745201
O O3 0.011577 0.671414 0.845903
O O4 0.000000 0.500000 0.823286
O O5 0.500000 0.500000 0.988615
O O6 0.250000 0.426322 0.016010
O O7 0.472833 0.422487 0.089723
O O8 0.485060 0.337000 0.987574
O O9 0.250000 0.816889 0.069038
O O10 0.054918 0.721915 0.127757
O O11 0.027857 0.876832 0.132401
O O12 0.972686 0.810983 0.031559
O O13 0.750000 0.263160 0.463298
O O14 0.483533 0.295082 0.418383
O O15 0.500000 0.500000 0.293666
O O16 0.750000 0.413429 0.279575
O O17 0.504088 0.333266 0.307474
O O18 0.523426 0.399461 0.202993
O O19 0.250000 0.077100 0.156264
O O20 0.500000 0.000000 0.197303
O O21 0.750000 0.226021 0.846763
O O22 0.250000 0.096470 0.626455
#
# Coordination Sequence:
#
# PCOD8183109 Si02
#       8
#     8   8   8   8   8   8   8   8
#     4   9  20  36  57  86 119 152 188 229 278 335
#     4  10  20  33  53  80 112 146 180 220 270 326
#     4  10  19  34  56  82 110 142 179 223 274 329
#     4  10  22  39  56  77 105 143 187 229 273 327
#     4  11  23  39  59  85 115 150 190 235 284 337
#     4  10  19  33  53  80 112 144 178 221 272 329
#     4  11  23  40  60  83 112 150 193 239 285 332
#     4   9  19  34  55  83 114 145 179 220 272 331
#
# _framework density 20.004988000000001
#
# number of rings (size 3 to 8) (size 9 to 14) (size 15 to 20)
#    0.000    2.000    0.000    3.375    0.000    6.000 
#    0.000    3.125    0.000    0.000    0.000    0.000 
#    0.000    0.000    0.000    0.000    0.000    0.000 
#
# Total GULP energy -396636.290541 kJ/mol
# GULP energy per Si atom -12394.884079 kJ/mol
# Density = 1.995946 g / cm^3
# Si number density = 20.004988 Si / 1000 Ang^3
#
#
#
# Elastic Constant Matrix: (Units=GPa)
#
#
# Indices 1 2 3 4 5 6 
#
# 1 71.5678 29.2636 26.1537 0.0000 0.0000 0.0000
# 2 29.2636 63.5369 24.6999 0.0000 0.0000 0.0000
# 3 26.1537 24.6999 69.0616 0.0000 0.0000 0.0000
# 4 0.0000 0.0000 0.0000 13.1106 0.0000 0.0000
# 5 0.0000 0.0000 0.0000 0.0000 29.4802 0.0000
# 6 0.0000 0.0000 0.0000 0.0000 0.0000 33.8814
#
#
#
# Elastic Compliance Matrix: (Units=1/GPa)
#
#
# Indices 1 2 3 4 5 6 
#
# 1 0.018377 -0.006688 -0.004567 0.000000 0.000000 0.000000
# 2 -0.006688 0.020715 -0.004876 0.000000 0.000000 0.000000
# 3 -0.004567 -0.004876 0.017953 0.000000 0.000000 0.000000
# 4 0.000000 0.000000 0.000000 0.076274 0.000000 0.000000
# 5 0.000000 0.000000 0.000000 0.000000 0.033921 0.000000
# 6 0.000000 0.000000 0.000000 0.000000 0.000000 0.029515
#
#
# Mechanical properties :
#
#
# Convention : Reuss Voigt Hill
#
# Bulk Modulus (GPa) = 40.35169 40.48896 40.42033
# Shear Modulus (GPa) = 21.07235 23.56438 22.31836
#
# Velocity S-wave (km/s) = 3.24906 3.43581 3.34374
# Velocity P-wave (km/s) = 5.85575 6.00193 5.92929
#
# Compressibility (1/GPa) = 0.02478211
#
# Stress axis : x y z
#
# Youngs Moduli (GPa) = 54.41706 48.27461 55.70022
#
# Poissons Ratio (x) = 0.32288 0.25439
# Poissons Ratio (y) = 0.36396 0.27158
# Poissons Ratio (z) = 0.24853 0.23538
#
# Static dielectric constant tensor:
#      x y z
#    x 3.610130 0.000000 0.000000 
#    y 0.000000 3.658960 0.000000 
#    z 0.000000 0.000000 3.547710 
# 
# 
# High freq. dielectric constant tensor:
#      x y z
#    x 1.785350 0.000000 0.000000 
#    y 0.000000 1.774110 0.000000 
#    z 0.000000 0.000000 1.776980 
# 
# From -- ./inp_files/22415.got.cif
#   From: 2010.03.12/outbox.cif.g09.slc.cpg/sg40_12_cif.got.tgz:22415.got - 2010.04.14 01:38:03.
