data_PCOD8183753
_publ_section_title
;
Structure prediction by ZEFSAII (Michael W. Deem and Ramdas Pophale) SiO2 
 PCOD8183753
Probable space group: A M A 2
;
_chemical_formula_sum "Si O2"
_cell_formula_units_Z 40
_cell_length_a 8.531147
_cell_length_b 9.685687
_cell_length_c 25.196071
_cell_angle_alpha 90.000000
_cell_angle_beta 90.000000
_cell_angle_gamma 90.000000
_cell_volume 2081.951840
_symmetry_space_group_name_H-M "A M A 2"
_symmetry_group_IT_number 40
_symmetry_cell_setting 'orthorhombic'
loop_
_space_group_symop_operation_xyz
x,y,z
-x,-y,z
1/2-x,y,z
1/2+x,-y,z
x,1/2+y,1/2+z
-x,1/2-y,1/2+z
1/2-x,1/2+y,1/2+z
1/2+x,1/2-y,1/2+z
loop_
_atom_site_type_symbol
_atom_site_label
_atom_site_fract_x
_atom_site_fract_y
_atom_site_fract_z
Si Si1 0.064532 0.348374 0.984550
Si Si2 0.436173 0.351579 0.806812
Si Si3 0.064543 0.845744 0.893944
Si Si4 0.563795 0.851237 0.597518
Si Si5 0.065552 0.355821 0.686562
O O1 0.250000 0.355677 0.982253
O O2 0.000000 0.500000 0.970466
O O3 0.003671 0.236136 0.943629
O O4 0.008897 0.298537 0.042394
O O5 0.500000 0.500000 0.826362
O O6 0.250000 0.349554 0.813876
O O7 0.512499 0.229425 0.840218
O O8 0.491060 0.323698 0.746351
O O9 0.250000 0.849562 0.897808
O O10 0.000000 0.000000 0.893916
O O11 0.750000 0.852904 0.591905
O O12 0.502598 0.757371 0.645640
O O13 0.500000 0.000000 0.612043
O O14 0.250000 0.362746 0.685324
O O15 0.000000 0.500000 0.666142
#
# Coordination Sequence:
#
# PCOD8183753 Si02
#       5
#     8   8   8   8   8
#     4  11  22  39  61  85 112 149 190 232 278 334
#     4  10  20  38  60  85 114 150 191 232 276 332
#     4  12  25  41  59  84 114 147 185 233 285 336
#     4  10  20  36  56  83 114 148 188 232 277 330
#     4   9  20  36  57  83 114 148 187 229 275 328
#
# _framework density 19.212738999999999
#
# number of rings (size 3 to 8) (size 9 to 14) (size 15 to 20)
#    0.000    1.600    0.000    6.600    0.000    4.000 
#    0.000    4.000    0.000    0.000    0.000    0.000 
#    0.000    0.000    0.000    0.000    0.000    0.000 
#
# Total GULP energy -248053.425948 kJ/mol
# GULP energy per Si atom -12402.671297 kJ/mol
# Density = 1.916901 g / cm^3
# Si number density = 19.212739 Si / 1000 Ang^3
#
#
#
# Elastic Constant Matrix: (Units=GPa)
#
#
# Indices 1 2 3 4 5 6 
#
# 1 124.0257 54.4863 50.9063 0.0000 0.0000 0.0000
# 2 54.4863 147.8947 105.9340 0.0000 0.0000 0.0000
# 3 50.9063 105.9340 143.6625 0.0000 0.0000 0.0000
# 4 0.0000 0.0000 0.0000 49.4502 0.0000 0.0000
# 5 0.0000 0.0000 0.0000 0.0000 39.2609 0.0000
# 6 0.0000 0.0000 0.0000 0.0000 0.0000 35.1124
#
#
#
# Elastic Compliance Matrix: (Units=1/GPa)
#
#
# Indices 1 2 3 4 5 6 
#
# 1 0.009816 -0.002384 -0.001720 0.000000 0.000000 0.000000
# 2 -0.002384 0.014910 -0.010149 0.000000 0.000000 0.000000
# 3 -0.001720 -0.010149 0.015054 0.000000 0.000000 0.000000
# 4 0.000000 0.000000 0.000000 0.020222 0.000000 0.000000
# 5 0.000000 0.000000 0.000000 0.000000 0.025471 0.000000
# 6 0.000000 0.000000 0.000000 0.000000 0.000000 0.028480
#
#
# Mechanical properties :
#
#
# Convention : Reuss Voigt Hill
#
# Bulk Modulus (GPa) = 88.71039 93.13735 90.92387
# Shear Modulus (GPa) = 34.19545 38.38180 36.28863
#
# Velocity S-wave (km/s) = 4.22338 4.47444 4.35072
# Velocity P-wave (km/s) = 8.36992 8.67619 8.52443
#
# Compressibility (1/GPa) = 0.01127264
#
# Stress axis : x y z
#
# Youngs Moduli (GPa) = 101.87053 67.07059 66.42667
#
# Poissons Ratio (x) = 0.15992 0.11427
# Poissons Ratio (y) = 0.24289 0.67418
# Poissons Ratio (z) = 0.17525 0.68072
#
# Static dielectric constant tensor:
#      x y z
#    x 3.624400 0.000000 0.000000 
#    y 0.000000 3.566580 0.000000 
#    z 0.000000 0.000000 3.862590 
# 
# 
# High freq. dielectric constant tensor:
#      x y z
#    x 1.762660 0.000000 0.000000 
#    y 0.000000 1.747380 0.000000 
#    z 0.000000 0.000000 1.761280 
# 
# From -- ./inp_files/23817.got.cif
#   From: 2010.03.12/outbox.cif.g09.slc.cpg/sg40_12_cif.got.tgz:23817.got - 2010.04.14 01:38:03.
