data_PCOD8183016
_publ_section_title
;
Structure prediction by ZEFSAII (Michael W. Deem and Ramdas Pophale) SiO2 
 PCOD8183016
Probable space group: A M A 2
;
_chemical_formula_sum "Si O2"
_cell_formula_units_Z 48
_cell_length_a 8.679029
_cell_length_b 9.142436
_cell_length_c 31.556567
_cell_angle_alpha 90.000000
_cell_angle_beta 90.000000
_cell_angle_gamma 90.000000
_cell_volume 2503.933664
_symmetry_space_group_name_H-M "A M A 2"
_symmetry_group_IT_number 40
_symmetry_cell_setting 'orthorhombic'
loop_
_space_group_symop_operation_xyz
x,y,z
-x,-y,z
1/2-x,y,z
1/2+x,-y,z
x,1/2+y,1/2+z
-x,1/2-y,1/2+z
1/2-x,1/2+y,1/2+z
1/2+x,1/2-y,1/2+z
loop_
_atom_site_type_symbol
_atom_site_label
_atom_site_fract_x
_atom_site_fract_y
_atom_site_fract_z
Si Si1 0.068325 0.840463 0.360870
Si Si2 0.930072 0.660021 0.196239
Si Si3 0.432178 0.162449 0.519787
Si Si4 0.930539 0.659805 0.104499
Si Si5 0.432161 0.661632 0.280352
Si Si6 0.932645 0.340104 0.442715
O O1 0.250000 0.853420 0.359223
O O2 0.005432 0.759288 0.319009
O O3 0.014175 0.750963 0.401849
O O4 0.000000 0.000000 0.363681
O O5 0.750000 0.648195 0.205689
O O6 0.959203 0.739171 0.150361
O O7 0.000000 0.500000 0.193647
O O8 0.011363 0.739022 0.236306
O O9 0.250000 0.154206 0.516834
O O10 0.483886 0.236068 0.564792
O O11 0.496366 0.265986 0.483769
O O12 0.500000 0.000000 0.514788
O O13 0.750000 0.649792 0.094355
O O14 0.000000 0.500000 0.108272
O O15 0.500000 0.500000 0.285067
O O16 0.250000 0.651132 0.280789
O O17 0.750000 0.347019 0.447288
O O18 0.000000 0.500000 0.437332
#
# Coordination Sequence:
#
# PCOD8183016 Si02
#       6
#     8   8   8   8   8   8
#     4  10  23  39  57  80 106 138 176 217 262 315
#     4   9  16  26  44  72 104 139 176 216 261 307
#     4  11  21  34  54  81 111 144 181 222 269 317
#     4   9  16  27  45  72 105 139 177 219 262 310
#     4  10  19  32  51  78 108 139 176 217 262 312
#     4  11  23  40  59  81 108 139 177 219 267 321
#
# _framework density 19.169837999999999
#
# number of rings (size 3 to 8) (size 9 to 14) (size 15 to 20)
#    0.000    2.000    0.000    6.500    0.000    6.000 
#    0.000    0.000    0.000    1.000    0.000    2.333 
#    0.000    0.000    0.000    0.000    0.000    0.000 
#
# Total GULP energy -297440.894362 kJ/mol
# GULP energy per Si atom -12393.370598 kJ/mol
# Density = 1.912621 g / cm^3
# Si number density = 19.169838 Si / 1000 Ang^3
#
#
#
# Elastic Constant Matrix: (Units=GPa)
#
#
# Indices 1 2 3 4 5 6 
#
# 1 101.7793 38.1713 64.8740 0.0000 0.0000 0.0000
# 2 38.1713 90.2994 74.1522 0.0000 0.0000 0.0000
# 3 64.8740 74.1522 215.3794 0.0000 0.0000 0.0000
# 4 0.0000 0.0000 0.0000 27.9948 0.0000 0.0000
# 5 0.0000 0.0000 0.0000 0.0000 31.5480 0.0000
# 6 0.0000 0.0000 0.0000 0.0000 0.0000 24.3587
#
#
#
# Elastic Compliance Matrix: (Units=1/GPa)
#
#
# Indices 1 2 3 4 5 6 
#
# 1 0.012761 -0.003120 -0.002769 0.000000 0.000000 0.000000
# 2 -0.003120 0.016202 -0.004638 0.000000 0.000000 0.000000
# 3 -0.002769 -0.004638 0.007074 0.000000 0.000000 0.000000
# 4 0.000000 0.000000 0.000000 0.035721 0.000000 0.000000
# 5 0.000000 0.000000 0.000000 0.000000 0.031698 0.000000
# 6 0.000000 0.000000 0.000000 0.000000 0.000000 0.041053
#
#
# Mechanical properties :
#
#
# Convention : Reuss Voigt Hill
#
# Bulk Modulus (GPa) = 66.75040 84.65034 75.70037
# Shear Modulus (GPa) = 29.31558 32.13099 30.72329
#
# Velocity S-wave (km/s) = 3.91481 4.09849 4.00770
# Velocity P-wave (km/s) = 7.43845 8.16399 7.80965
#
# Compressibility (1/GPa) = 0.01498118
#
# Stress axis : x y z
#
# Youngs Moduli (GPa) = 78.36682 61.72035 141.36090
#
# Poissons Ratio (x) = 0.19256 0.39149
# Poissons Ratio (y) = 0.24450 0.65569
# Poissons Ratio (z) = 0.21703 0.28629
#
# Static dielectric constant tensor:
#      x y z
#    x 3.598200 0.000000 0.000000 
#    y 0.000000 3.063150 0.000000 
#    z 0.000000 0.000000 4.732400 
# 
# 
# High freq. dielectric constant tensor:
#      x y z
#    x 1.759070 0.000000 0.000000 
#    y 0.000000 1.691790 0.000000 
#    z 0.000000 0.000000 1.781900 
# 
# From -- ./inp_files/26153.got.cif
#   From: 2010.03.12/outbox.cif.g09.slc.cpg/sg40_14_cif.got.tgz:26153.got - 2010.04.14 01:38:03.
