data_PCOD8183259
_publ_section_title
;
Structure prediction by ZEFSAII (Michael W. Deem and Ramdas Pophale) SiO2 
 PCOD8183259
Probable space group: A M A 2
;
_chemical_formula_sum "Si O2"
_cell_formula_units_Z 48
_cell_length_a 8.825227
_cell_length_b 27.937216
_cell_length_c 10.119916
_cell_angle_alpha 90.000000
_cell_angle_beta 90.000000
_cell_angle_gamma 90.000000
_cell_volume 2495.088292
_symmetry_space_group_name_H-M "A M A 2"
_symmetry_group_IT_number 40
_symmetry_cell_setting 'orthorhombic'
loop_
_space_group_symop_operation_xyz
x,y,z
-x,-y,z
1/2-x,y,z
1/2+x,-y,z
x,1/2+y,1/2+z
-x,1/2-y,1/2+z
1/2-x,1/2+y,1/2+z
1/2+x,1/2-y,1/2+z
loop_
_atom_site_type_symbol
_atom_site_label
_atom_site_fract_x
_atom_site_fract_y
_atom_site_fract_z
Si Si1 0.427865 0.548190 0.976170
Si Si2 0.570341 0.352340 0.401233
Si Si3 0.072280 0.303157 0.642956
Si Si4 0.571840 0.451720 0.277173
Si Si5 0.925359 0.642121 0.907574
Si Si6 0.571552 0.202109 0.662993
O O1 0.500000 0.500000 0.916143
O O2 0.250000 0.543474 0.966753
O O3 0.481194 0.593320 0.890522
O O4 0.484869 0.555301 0.126850
O O5 0.750000 0.348240 0.419491
O O6 0.484993 0.341678 0.537020
O O7 0.519070 0.405720 0.360192
O O8 0.519879 0.314177 0.291519
O O9 0.250000 0.293268 0.623923
O O10 0.034694 0.323086 0.787459
O O11 0.978556 0.254956 0.622145
O O12 0.500000 0.500000 0.338456
O O13 0.750000 0.457613 0.281807
O O14 0.750000 0.628452 0.908235
O O15 0.973839 0.667915 0.042379
O O16 0.750000 0.201093 0.692018
#
# Coordination Sequence:
#
# PCOD8183259 Si02
#       6
#     8   8   8   8   8   8
#     4  10  19  34  58  87 115 147 187 236 288 340
#     4  11  22  39  59  86 120 154 195 240 286 345
#     4  11  24  40  58  84 119 157 195 241 292 344
#     4   9  19  34  56  85 114 145 185 236 286 337
#     4  10  22  39  58  84 117 151 193 240 286 341
#     4  11  22  38  62  88 113 152 197 243 294 343
#
# _framework density 19.237795999999999
#
# number of rings (size 3 to 8) (size 9 to 14) (size 15 to 20)
#    0.000    1.667    1.667    3.000    0.000    5.333 
#    0.000    0.833    0.000    2.000    0.000    0.000 
#    0.000    0.000    0.000    0.000    0.000    0.000 
#
# Total GULP energy -297731.251438 kJ/mol
# GULP energy per Si atom -12405.468810 kJ/mol
# Density = 1.919401 g / cm^3
# Si number density = 19.237796 Si / 1000 Ang^3
#
#
#
# Elastic Constant Matrix: (Units=GPa)
#
#
# Indices 1 2 3 4 5 6 
#
# 1 49.5661 37.4696 29.8442 0.0000 0.0000 0.0000
# 2 37.4696 124.6969 14.0879 0.0000 0.0000 0.0000
# 3 29.8442 14.0879 60.0041 0.0000 0.0000 0.0000
# 4 0.0000 0.0000 0.0000 16.2833 0.0000 0.0000
# 5 0.0000 0.0000 0.0000 0.0000 27.6265 0.0000
# 6 0.0000 0.0000 0.0000 0.0000 0.0000 40.3538
#
#
#
# Elastic Compliance Matrix: (Units=1/GPa)
#
#
# Indices 1 2 3 4 5 6 
#
# 1 0.036931 -0.009268 -0.016192 0.000000 0.000000 0.000000
# 2 -0.009268 0.010564 0.002129 0.000000 0.000000 0.000000
# 3 -0.016192 0.002129 0.024219 0.000000 0.000000 0.000000
# 4 0.000000 0.000000 0.000000 0.061413 0.000000 0.000000
# 5 0.000000 0.000000 0.000000 0.000000 0.036197 0.000000
# 6 0.000000 0.000000 0.000000 0.000000 0.000000 0.024781
#
#
# Mechanical properties :
#
#
# Convention : Reuss Voigt Hill
#
# Bulk Modulus (GPa) = 39.91687 44.11896 42.01791
# Shear Modulus (GPa) = 20.07098 27.04374 23.55736
#
# Velocity S-wave (km/s) = 3.23353 3.75342 3.50313
# Velocity P-wave (km/s) = 5.89366 6.46277 6.18477
#
# Compressibility (1/GPa) = 0.02505207
#
# Stress axis : x y z
#
# Youngs Moduli (GPa) = 27.07786 94.66376 41.28972
#
# Poissons Ratio (x) = 0.87732 0.66857
# Poissons Ratio (y) = 0.25095 -0.08792
# Poissons Ratio (z) = 0.43845 -0.20157
#
# Static dielectric constant tensor:
#      x y z
#    x 3.473980 0.000000 0.000000 
#    y 0.000000 3.618930 0.000000 
#    z 0.000000 0.000000 3.413770 
# 
# 
# High freq. dielectric constant tensor:
#      x y z
#    x 1.754560 0.000000 0.000000 
#    y 0.000000 1.762510 0.000000 
#    z 0.000000 0.000000 1.730580 
# 
# From -- ./inp_files/4606.got.cif
#   From: 2010.03.12/outbox.cif.g09.slc.cpg/sg40_3_cif.got.tgz:4606.got - 2010.04.14 01:38:03.
