data_PCOD8183927
_publ_section_title
;
Structure prediction by ZEFSAII (Michael W. Deem and Ramdas Pophale) SiO2 
 PCOD8183927
Probable space group: A M A 2
;
_chemical_formula_sum "Si O2"
_cell_formula_units_Z 64
_cell_length_a 20.395818
_cell_length_b 16.411353
_cell_length_c 9.410879
_cell_angle_alpha 90.000000
_cell_angle_beta 90.000000
_cell_angle_gamma 90.000000
_cell_volume 3150.037359
_symmetry_space_group_name_H-M "A M A 2"
_symmetry_group_IT_number 40
_symmetry_cell_setting 'orthorhombic'
loop_
_space_group_symop_operation_xyz
x,y,z
-x,-y,z
1/2-x,y,z
1/2+x,-y,z
x,1/2+y,1/2+z
-x,1/2-y,1/2+z
1/2-x,1/2+y,1/2+z
1/2+x,1/2-y,1/2+z
loop_
_atom_site_type_symbol
_atom_site_label
_atom_site_fract_x
_atom_site_fract_y
_atom_site_fract_z
Si Si1 0.114430 0.218730 0.989630
Si Si2 0.624812 0.596657 0.043383
Si Si3 0.473045 0.415281 0.286855
Si Si4 0.172023 0.548540 0.538941
Si Si5 0.321179 0.531539 0.217327
Si Si6 0.569865 0.544789 0.743681
Si Si7 0.903724 0.323454 0.185719
Si Si8 0.962192 0.183411 0.042837
O O1 0.129800 0.220861 0.820895
O O2 0.137277 0.306572 0.049755
O O3 0.157265 0.145282 0.056547
O O4 0.038380 0.206130 0.028390
O O5 0.568803 0.564928 0.149911
O O6 0.685285 0.548822 0.117346
O O7 0.606468 0.561062 0.891348
O O8 0.500000 0.500000 0.350279
O O9 0.527242 0.351639 0.243711
O O10 0.434168 0.370011 0.413038
O O11 0.250000 0.531793 0.570314
O O12 0.151166 0.518389 0.378845
O O13 0.123414 0.501550 0.646160
O O14 0.250000 0.569224 0.239351
O O15 0.362319 0.599650 0.131862
O O16 0.500000 0.500000 0.763116
O O17 0.549670 0.632979 0.685934
O O18 0.916539 0.263615 0.053263
#
# Coordination Sequence:
#
# PCOD8183927 Si02
#       8
#     8   8   8   8   8   8   8   8
#     4  10  21  38  61  96 126 164 205 262 323 387
#     4  12  23  38  61  96 135 161 206 268 328 376
#     4  11  21  36  60  91 123 169 206 253 327 388
#     4  10  23  47  70  89 122 176 225 262 317 396
#     4  10  23  43  67  88 122 175 222 257 317 398
#     4  12  24  38  64 101 135 167 213 272 325 380
#     4  10  20  38  60  89 126 160 207 264 318 374
#     4  11  21  36  62  94 131 160 216 263 316 380
#
# _framework density 20.317219000000001
#
# number of rings (size 3 to 8) (size 9 to 14) (size 15 to 20)
#    0.000    1.250    5.000    1.500    1.750    1.000 
#    2.250    0.625    0.000    0.750    0.000    0.000 
#    0.000    0.000    0.000    0.000    0.000    0.000 
#
# Total GULP energy -396488.243415 kJ/mol
# GULP energy per Si atom -12390.257607 kJ/mol
# Density = 2.027098 g / cm^3
# Si number density = 20.317219 Si / 1000 Ang^3
#
#
#
# Elastic Constant Matrix: (Units=GPa)
#
#
# Indices 1 2 3 4 5 6 
#
# 1 64.6083 26.0408 26.4442 0.0000 0.0000 0.0000
# 2 26.0408 127.2178 56.4502 0.0000 0.0000 0.0000
# 3 26.4442 56.4502 109.6544 0.0000 0.0000 0.0000
# 4 0.0000 0.0000 0.0000 42.3257 0.0000 0.0000
# 5 0.0000 0.0000 0.0000 0.0000 27.0309 0.0000
# 6 0.0000 0.0000 0.0000 0.0000 0.0000 17.9682
#
#
#
# Elastic Compliance Matrix: (Units=1/GPa)
#
#
# Indices 1 2 3 4 5 6 
#
# 1 0.017650 -0.002235 -0.003106 0.000000 0.000000 0.000000
# 2 -0.002235 0.010471 -0.004851 0.000000 0.000000 0.000000
# 3 -0.003106 -0.004851 0.012366 0.000000 0.000000 0.000000
# 4 0.000000 0.000000 0.000000 0.023626 0.000000 0.000000
# 5 0.000000 0.000000 0.000000 0.000000 0.036995 0.000000
# 6 0.000000 0.000000 0.000000 0.000000 0.000000 0.055654
#
#
# Mechanical properties :
#
#
# Convention : Reuss Voigt Hill
#
# Bulk Modulus (GPa) = 49.74499 57.70565 53.72532
# Shear Modulus (GPa) = 27.19662 30.30132 28.74897
#
# Velocity S-wave (km/s) = 3.66266 3.86607 3.76574
# Velocity P-wave (km/s) = 6.51337 6.95648 6.73857
#
# Compressibility (1/GPa) = 0.02010253
#
# Stress axis : x y z
#
# Youngs Moduli (GPa) = 56.65764 95.50498 80.86608
#
# Poissons Ratio (x) = 0.21341 0.25118
# Poissons Ratio (y) = 0.12661 0.39231
# Poissons Ratio (z) = 0.17598 0.46333
#
# Static dielectric constant tensor:
#      x y z
#    x 3.525250 0.000000 0.000000 
#    y 0.000000 3.791690 0.000000 
#    z 0.000000 0.000000 3.753180 
# 
# 
# High freq. dielectric constant tensor:
#      x y z
#    x 1.775580 0.000000 0.000000 
#    y 0.000000 1.806500 0.000000 
#    z 0.000000 0.000000 1.786300 
# 
# From -- ./inp_files/8468.got.cif
#   From: 2010.03.12/outbox.cif.g09.slc.cpg/sg40_5_cif.got.tgz:8468.got - 2010.04.14 01:38:03.
