data_PCOD8183820
_publ_section_title
;
Structure prediction by ZEFSAII (Michael W. Deem and Ramdas Pophale) SiO2 
 PCOD8183820
Probable space group: A M A 2
;
_chemical_formula_sum "Si O2"
_cell_formula_units_Z 64
_cell_length_a 17.467450
_cell_length_b 28.286747
_cell_length_c 6.722065
_cell_angle_alpha 90.000000
_cell_angle_beta 90.000000
_cell_angle_gamma 90.000000
_cell_volume 3321.354428
_symmetry_space_group_name_H-M "A M A 2"
_symmetry_group_IT_number 40
_symmetry_cell_setting 'orthorhombic'
loop_
_space_group_symop_operation_xyz
x,y,z
-x,-y,z
1/2-x,y,z
1/2+x,-y,z
x,1/2+y,1/2+z
-x,1/2-y,1/2+z
1/2-x,1/2+y,1/2+z
1/2+x,1/2-y,1/2+z
loop_
_atom_site_type_symbol
_atom_site_label
_atom_site_fract_x
_atom_site_fract_y
_atom_site_fract_z
Si Si1 0.047466 0.543051 0.197960
Si Si2 0.841772 0.478698 0.528887
Si Si3 0.431499 0.427675 0.538318
Si Si4 0.591342 0.721655 0.082075
Si Si5 0.838362 0.662955 0.418276
Si Si6 0.661785 0.749998 0.685593
Si Si7 0.938700 0.802825 0.390109
Si Si8 0.568019 0.907060 0.300225
O O1 0.127338 0.528873 0.304648
O O2 0.000000 0.500000 0.097271
O O3 0.991636 0.563135 0.364799
O O4 0.071266 0.580296 0.032379
O O5 0.750000 0.480746 0.529434
O O6 0.877794 0.528421 0.600434
O O7 0.869804 0.436945 0.675797
O O8 0.380858 0.384933 0.464588
O O9 0.480950 0.415374 0.731680
O O10 0.643080 0.748079 0.918680
O O11 0.523371 0.692602 0.979659
O O12 0.641222 0.683633 0.201905
O O13 0.558494 0.761793 0.226385
O O14 0.750000 0.650616 0.420060
O O15 0.861227 0.700047 0.588502
O O16 0.750000 0.761403 0.653876
O O17 0.617846 0.791824 0.572800
O O18 0.912541 0.851394 0.284708
#
# Coordination Sequence:
#
# PCOD8183820 Si02
#       8
#     8   8   8   8   8   8   8   8
#     4   9  19  37  58  82 111 150 194 241 287 348
#     4  10  22  39  58  84 120 157 197 249 303 356
#     4  10  20  36  61  87 118 151 197 245 301 358
#     4  11  21  38  59  85 118 154 198 249 298 364
#     4  10  21  36  59  89 119 149 187 239 305 366
#     4  10  22  39  56  82 119 154 193 247 301 357
#     4  11  23  36  61  86 115 154 204 244 300 359
#     4  11  22  37  60  87 115 156 201 247 294 360
#
# _framework density 19.269248000000001
#
# number of rings (size 3 to 8) (size 9 to 14) (size 15 to 20)
#    0.000    1.750    1.250    4.125    1.750    3.500 
#    0.000    1.250    0.000    6.000    0.000    0.000 
#    0.000    0.000    0.000    0.000    0.000    0.000 
#
# Total GULP energy -396830.518535 kJ/mol
# GULP energy per Si atom -12400.953704 kJ/mol
# Density = 1.922539 g / cm^3
# Si number density = 19.269248 Si / 1000 Ang^3
#
#
#
# Elastic Constant Matrix: (Units=GPa)
#
#
# Indices 1 2 3 4 5 6 
#
# 1 89.0439 50.0389 26.8181 0.0000 0.0000 0.0000
# 2 50.0389 105.1971 26.1377 0.0000 0.0000 0.0000
# 3 26.8181 26.1377 82.4554 0.0000 0.0000 0.0000
# 4 0.0000 0.0000 0.0000 32.6952 0.0000 0.0000
# 5 0.0000 0.0000 0.0000 0.0000 22.3845 0.0000
# 6 0.0000 0.0000 0.0000 0.0000 0.0000 18.8896
#
#
#
# Elastic Compliance Matrix: (Units=1/GPa)
#
#
# Indices 1 2 3 4 5 6 
#
# 1 0.015995 -0.006856 -0.003029 0.000000 0.000000 0.000000
# 2 -0.006856 0.013257 -0.001973 0.000000 0.000000 0.000000
# 3 -0.003029 -0.001973 0.013738 0.000000 0.000000 0.000000
# 4 0.000000 0.000000 0.000000 0.030586 0.000000 0.000000
# 5 0.000000 0.000000 0.000000 0.000000 0.044674 0.000000
# 6 0.000000 0.000000 0.000000 0.000000 0.000000 0.052939
#
#
# Mechanical properties :
#
#
# Convention : Reuss Voigt Hill
#
# Bulk Modulus (GPa) = 51.87892 53.63178 52.75535
# Shear Modulus (GPa) = 24.83486 26.37397 25.60442
#
# Velocity S-wave (km/s) = 3.59393 3.70362 3.64919
# Velocity P-wave (km/s) = 6.64856 6.79576 6.72256
#
# Compressibility (1/GPa) = 0.01927565
#
# Stress axis : x y z
#
# Youngs Moduli (GPa) = 62.51781 75.43069 72.78934
#
# Poissons Ratio (x) = 0.51714 0.22049
# Poissons Ratio (y) = 0.42861 0.14358
# Poissons Ratio (z) = 0.18938 0.14879
#
# Static dielectric constant tensor:
#      x y z
#    x 3.503820 0.000000 0.000000 
#    y 0.000000 3.498760 0.000000 
#    z 0.000000 0.000000 3.555270 
# 
# 
# High freq. dielectric constant tensor:
#      x y z
#    x 1.750010 0.000000 0.000000 
#    y 0.000000 1.749690 0.000000 
#    z 0.000000 0.000000 1.754320 
# 
# From -- ./inp_files/2028.got.cif
#   From: 2010.03.12/outbox.cif.g09.slc.cpg/sg40_2_cif.got.tgz:2028.got - 2010.04.14 01:38:03.
