data_PCOD8183872
_publ_section_title
;
Structure prediction by ZEFSAII (Michael W. Deem and Ramdas Pophale) SiO2 
 PCOD8183872
Probable space group: A M A 2
;
_chemical_formula_sum "Si O2"
_cell_formula_units_Z 48
_cell_length_a 8.826288
_cell_length_b 20.325506
_cell_length_c 14.225753
_cell_angle_alpha 90.000000
_cell_angle_beta 90.000000
_cell_angle_gamma 90.000000
_cell_volume 2552.082586
_symmetry_space_group_name_H-M "A M A 2"
_symmetry_group_IT_number 40
_symmetry_cell_setting 'orthorhombic'
loop_
_space_group_symop_operation_xyz
x,y,z
-x,-y,z
1/2-x,y,z
1/2+x,-y,z
x,1/2+y,1/2+z
-x,1/2-y,1/2+z
1/2-x,1/2+y,1/2+z
1/2+x,1/2-y,1/2+z
loop_
_atom_site_type_symbol
_atom_site_label
_atom_site_fract_x
_atom_site_fract_y
_atom_site_fract_z
Si Si1 0.928163 0.879647 0.978570
Si Si2 0.076238 0.771369 0.495693
Si Si3 0.427626 0.068511 0.180494
Si Si4 0.923797 0.183610 0.288614
Si Si5 0.570927 0.068524 0.792257
Si Si6 0.572166 0.814198 0.680915
O O1 0.750000 0.888045 0.959362
O O2 0.019203 0.916389 0.897911
O O3 0.974680 0.803453 0.979055
O O4 0.980997 0.911452 0.076357
O O5 0.250000 0.773217 0.530801
O O6 0.055159 0.811408 0.400013
O O7 0.968697 0.805024 0.572037
O O8 0.250000 0.060771 0.184567
O O9 0.475430 0.123473 0.254647
O O10 0.500000 0.000000 0.210972
O O11 0.750000 0.170403 0.261113
O O12 0.980580 0.250272 0.239019
O O13 0.750000 0.063095 0.789434
O O14 0.517172 0.123774 0.720131
O O15 0.500000 0.000000 0.758364
O O16 0.750000 0.826776 0.693430
#
# Coordination Sequence:
#
# PCOD8183872 Si02
#       6
#     8   8   8   8   8   8
#     4  10  20  37  60  90 125 157 193 246 300 355
#     4  10  20  38  61  90 123 155 196 246 294 348
#     4  11  23  38  59  86 122 159 199 244 295 354
#     4  10  21  38  61  86 120 158 197 243 292 347
#     4  12  25  40  61  88 122 162 202 247 302 361
#     4  11  22  39  62  90 122 157 199 246 295 355
#
# _framework density 18.808168999999999
#
# number of rings (size 3 to 8) (size 9 to 14) (size 15 to 20)
#    0.000    1.333    3.333    3.000    0.000    4.667 
#    0.000    0.833    0.000    4.000    0.000    0.000 
#    0.000    0.000    0.000    0.000    0.000    0.000 
#
# Total GULP energy -297764.311814 kJ/mol
# GULP energy per Si atom -12406.846326 kJ/mol
# Density = 1.876536 g / cm^3
# Si number density = 18.808169 Si / 1000 Ang^3
#
#
#
# Elastic Constant Matrix: (Units=GPa)
#
#
# Indices 1 2 3 4 5 6 
#
# 1 79.2172 48.4560 33.4772 0.0000 0.0000 0.0000
# 2 48.4560 130.4250 40.4684 0.0000 0.0000 0.0000
# 3 33.4772 40.4684 85.3279 0.0000 0.0000 0.0000
# 4 0.0000 0.0000 0.0000 19.4997 0.0000 0.0000
# 5 0.0000 0.0000 0.0000 0.0000 31.1365 0.0000
# 6 0.0000 0.0000 0.0000 0.0000 0.0000 32.4500
#
#
#
# Elastic Compliance Matrix: (Units=1/GPa)
#
#
# Indices 1 2 3 4 5 6 
#
# 1 0.017686 -0.005180 -0.004482 0.000000 0.000000 0.000000
# 2 -0.005180 0.010507 -0.002951 0.000000 0.000000 0.000000
# 3 -0.004482 -0.002951 0.014878 0.000000 0.000000 0.000000
# 4 0.000000 0.000000 0.000000 0.051283 0.000000 0.000000
# 5 0.000000 0.000000 0.000000 0.000000 0.032117 0.000000
# 6 0.000000 0.000000 0.000000 0.000000 0.000000 0.030817
#
#
# Mechanical properties :
#
#
# Convention : Reuss Voigt Hill
#
# Bulk Modulus (GPa) = 56.03917 59.97481 58.00699
# Shear Modulus (GPa) = 26.53050 28.12180 27.32615
#
# Velocity S-wave (km/s) = 3.75985 3.87096 3.81581
# Velocity P-wave (km/s) = 6.97914 7.20667 7.09382
#
# Compressibility (1/GPa) = 0.01784466
#
# Stress axis : x y z
#
# Youngs Moduli (GPa) = 56.54085 95.17075 67.21522
#
# Poissons Ratio (x) = 0.49300 0.30127
# Poissons Ratio (y) = 0.29289 0.19835
# Poissons Ratio (z) = 0.25343 0.28085
#
# Static dielectric constant tensor:
#      x y z
#    x 3.414340 0.000000 0.000000 
#    y 0.000000 3.497280 0.000000 
#    z 0.000000 0.000000 3.424180 
# 
# 
# High freq. dielectric constant tensor:
#      x y z
#    x 1.732200 0.000000 0.000000 
#    y 0.000000 1.734390 0.000000 
#    z 0.000000 0.000000 1.730310 
# 
# From -- ./inp_files/15025.got.cif
#   From: 2010.03.12/outbox.cif.g09.slc.cpg/sg40_8_cif.got.tgz:15025.got - 2010.04.14 01:38:03.
