data_PCOD8183545
_publ_section_title
;
Structure prediction by ZEFSAII (Michael W. Deem and Ramdas Pophale) SiO2 
 PCOD8183545
Probable space group: A M A 2
;
_chemical_formula_sum "Si O2"
_cell_formula_units_Z 64
_cell_length_a 8.856332
_cell_length_b 23.337121
_cell_length_c 18.782530
_cell_angle_alpha 90.000000
_cell_angle_beta 90.000000
_cell_angle_gamma 90.000000
_cell_volume 3881.997558
_symmetry_space_group_name_H-M "A M A 2"
_symmetry_group_IT_number 40
_symmetry_cell_setting 'orthorhombic'
loop_
_space_group_symop_operation_xyz
x,y,z
-x,-y,z
1/2-x,y,z
1/2+x,-y,z
x,1/2+y,1/2+z
-x,1/2-y,1/2+z
1/2-x,1/2+y,1/2+z
1/2+x,1/2-y,1/2+z
loop_
_atom_site_type_symbol
_atom_site_label
_atom_site_fract_x
_atom_site_fract_y
_atom_site_fract_z
Si Si1 0.071866 0.231163 0.797450
Si Si2 0.073053 0.938356 0.299906
Si Si3 0.573287 0.060214 0.011212
Si Si4 0.424458 0.334979 0.416898
Si Si5 0.426992 0.377059 0.652341
Si Si6 0.573051 0.837237 0.375464
Si Si7 0.427295 0.746643 0.655205
Si Si8 0.577448 0.271647 0.014519
O O1 0.250000 0.237468 0.794653
O O2 0.025922 0.178360 0.848147
O O3 0.003741 0.290737 0.824703
O O4 0.007785 0.219071 0.719030
O O5 0.250000 0.942813 0.313924
O O6 0.036298 0.912868 0.222656
O O7 0.999262 0.898811 0.360644
O O8 0.000000 0.000000 0.306424
O O9 0.750000 0.051121 0.016966
O O10 0.513921 0.085433 0.085961
O O11 0.500000 0.000000 0.993320
O O12 0.531645 0.102797 0.946605
O O13 0.250000 0.330877 0.393777
O O14 0.457341 0.289585 0.479074
O O15 0.250000 0.362313 0.645119
O O16 0.518100 0.318549 0.653550
O O17 0.750000 0.837277 0.358058
O O18 0.543113 0.821944 0.458009
O O19 0.250000 0.748636 0.666837
O O20 0.469641 0.779192 0.582241
O O21 0.750000 0.273987 0.040557
#
# Coordination Sequence:
#
# PCOD8183545 Si02
#       8
#     8   8   8   8   8   8   8   8
#     4  11  21  33  51  73 101 132 167 211 257 305
#     4  11  22  34  52  73 102 141 179 217 251 297
#     4  10  20  34  51  71 101 138 175 212 251 294
#     4   9  18  34  52  71  99 134 168 209 255 299
#     4  10  20  35  49  68 101 141 177 211 250 291
#     4  10  20  35  53  74 100 132 170 211 256 305
#     4  12  22  31  50  77 103 134 171 209 251 307
#     4   9  18  34  53  71 100 133 164 207 259 306
#
# _framework density 16.486356000000001
#
# number of rings (size 3 to 8) (size 9 to 14) (size 15 to 20)
#    0.000    1.750    2.500    4.125    0.000    4.000 
#    0.000    0.000    0.000    0.000    0.000    0.875 
#    0.000    2.000    0.000    0.000    0.000    0.000 
#
# Total GULP energy -396902.755442 kJ/mol
# GULP energy per Si atom -12403.211108 kJ/mol
# Density = 1.644883 g / cm^3
# Si number density = 16.486356 Si / 1000 Ang^3
#
#
#
# Elastic Constant Matrix: (Units=GPa)
#
#
# Indices 1 2 3 4 5 6 
#
# 1 101.5096 47.0904 60.0295 0.0000 0.0000 0.0000
# 2 47.0904 85.6348 56.7953 0.0000 0.0000 0.0000
# 3 60.0295 56.7953 110.4425 0.0000 0.0000 0.0000
# 4 0.0000 0.0000 0.0000 18.2756 0.0000 0.0000
# 5 0.0000 0.0000 0.0000 0.0000 26.4593 0.0000
# 6 0.0000 0.0000 0.0000 0.0000 0.0000 28.1137
#
#
#
# Elastic Compliance Matrix: (Units=1/GPa)
#
#
# Indices 1 2 3 4 5 6 
#
# 1 0.015572 -0.004476 -0.006162 0.000000 0.000000 0.000000
# 2 -0.004476 0.019008 -0.007342 0.000000 0.000000 0.000000
# 3 -0.006162 -0.007342 0.016179 0.000000 0.000000 0.000000
# 4 0.000000 0.000000 0.000000 0.054718 0.000000 0.000000
# 5 0.000000 0.000000 0.000000 0.000000 0.037794 0.000000
# 6 0.000000 0.000000 0.000000 0.000000 0.000000 0.035570
#
#
# Mechanical properties :
#
#
# Convention : Reuss Voigt Hill
#
# Bulk Modulus (GPa) = 67.57156 69.49083 68.53119
# Shear Modulus (GPa) = 22.75471 23.48117 23.11794
#
# Velocity S-wave (km/s) = 3.71915 3.77806 3.74872
# Velocity P-wave (km/s) = 7.71480 7.82775 7.77148
#
# Compressibility (1/GPa) = 0.01479913
#
# Stress axis : x y z
#
# Youngs Moduli (GPa) = 64.21895 52.60824 61.80664
#
# Poissons Ratio (x) = 0.23548 0.38085
# Poissons Ratio (y) = 0.28745 0.45380
# Poissons Ratio (z) = 0.39572 0.38626
#
# Static dielectric constant tensor:
#      x y z
#    x 3.126810 0.000000 0.000000 
#    y 0.000000 2.975700 0.000000 
#    z 0.000000 0.000000 3.278700 
# 
# 
# High freq. dielectric constant tensor:
#      x y z
#    x 1.641590 0.000000 0.000000 
#    y 0.000000 1.608890 0.000000 
#    z 0.000000 0.000000 1.633220 
# 
# From -- ./inp_files/19698.got.cif
#   From: 2010.03.12/outbox.cif.g09.slc.cpg/sg40_10_cif.got.tgz:19698.got - 2010.04.14 01:38:03.
