data_PCOD8183992
_publ_section_title
;
Structure prediction by ZEFSAII (Michael W. Deem and Ramdas Pophale) SiO2 
 PCOD8183992
Probable space group: A M A 2
;
_chemical_formula_sum "Si O2"
_cell_formula_units_Z 48
_cell_length_a 18.023224
_cell_length_b 11.283488
_cell_length_c 11.095170
_cell_angle_alpha 90.000000
_cell_angle_beta 90.000000
_cell_angle_gamma 90.000000
_cell_volume 2256.367380
_symmetry_space_group_name_H-M "A M A 2"
_symmetry_group_IT_number 40
_symmetry_cell_setting 'orthorhombic'
loop_
_space_group_symop_operation_xyz
x,y,z
-x,-y,z
1/2-x,y,z
1/2+x,-y,z
x,1/2+y,1/2+z
-x,1/2-y,1/2+z
1/2-x,1/2+y,1/2+z
1/2+x,1/2-y,1/2+z
loop_
_atom_site_type_symbol
_atom_site_label
_atom_site_fract_x
_atom_site_fract_y
_atom_site_fract_z
Si Si1 0.166831 0.632168 0.269160
Si Si2 0.163589 0.011600 0.523943
Si Si3 0.593446 0.308051 0.849828
Si Si4 0.426316 0.343524 0.876104
Si Si5 0.667581 0.581546 0.443867
Si Si6 0.420505 0.515220 0.659406
O O1 0.250000 0.681968 0.244863
O O2 0.136395 0.565166 0.151087
O O3 0.112405 0.735785 0.307909
O O4 0.168082 0.542769 0.378726
O O5 0.250000 0.976511 0.528439
O O6 0.150747 0.112768 0.425170
O O7 0.117729 0.890459 0.494537
O O8 0.510950 0.311975 0.907923
O O9 0.618819 0.172445 0.865896
O O10 0.595609 0.348902 0.706625
O O11 0.426627 0.453354 0.787511
O O12 0.750000 0.634640 0.457239
O O13 0.639961 0.549404 0.578013
O O14 0.500000 0.500000 0.591727
#
# Coordination Sequence:
#
# PCOD8183992 Si02
#       6
#     8   8   8   8   8   8
#     4  10  23  40  58  89 125 162 204 246 306 369
#     4  10  20  39  65  89 119 159 206 254 303 366
#     4  10  22  40  60  92 122 154 208 255 304 365
#     4  10  21  40  61  90 122 157 205 256 307 360
#     4  11  24  40  60  89 124 164 203 245 307 370
#     4   9  21  40  61  88 121 155 205 255 304 362
#
# _framework density 21.273132
#
# number of rings (size 3 to 8) (size 9 to 14) (size 15 to 20)
#    0.000    2.000    0.000    3.500    2.333    6.667 
#    9.000    3.333    0.000    0.000    0.000    0.000 
#    0.000    0.000    0.000    0.000    0.000    0.000 
#
# Total GULP energy -297462.142266 kJ/mol
# GULP energy per Si atom -12394.255928 kJ/mol
# Density = 2.122471 g / cm^3
# Si number density = 21.273132 Si / 1000 Ang^3
#
#
#
# Elastic Constant Matrix: (Units=GPa)
#
#
# Indices 1 2 3 4 5 6 
#
# 1 111.2098 60.3346 28.4819 0.0000 0.0000 0.0000
# 2 60.3346 79.4051 32.5226 0.0000 0.0000 0.0000
# 3 28.4819 32.5226 68.1187 0.0000 0.0000 0.0000
# 4 0.0000 0.0000 0.0000 34.8529 0.0000 0.0000
# 5 0.0000 0.0000 0.0000 0.0000 20.5587 0.0000
# 6 0.0000 0.0000 0.0000 0.0000 0.0000 34.9673
#
#
#
# Elastic Compliance Matrix: (Units=1/GPa)
#
#
# Indices 1 2 3 4 5 6 
#
# 1 0.015360 -0.011238 -0.001057 0.000000 0.000000 0.000000
# 2 -0.011238 0.023877 -0.006701 0.000000 0.000000 0.000000
# 3 -0.001057 -0.006701 0.018321 0.000000 0.000000 0.000000
# 4 0.000000 0.000000 0.000000 0.028692 0.000000 0.000000
# 5 0.000000 0.000000 0.000000 0.000000 0.048641 0.000000
# 6 0.000000 0.000000 0.000000 0.000000 0.000000 0.028598
#
#
# Mechanical properties :
#
#
# Convention : Reuss Voigt Hill
#
# Bulk Modulus (GPa) = 51.10713 55.71240 53.40977
# Shear Modulus (GPa) = 24.03809 27.23542 25.63676
#
# Velocity S-wave (km/s) = 3.36516 3.58197 3.47526
# Velocity P-wave (km/s) = 6.25903 6.58432 6.42374
#
# Compressibility (1/GPa) = 0.01956674
#
# Stress axis : x y z
#
# Youngs Moduli (GPa) = 65.10621 41.88104 54.58070
#
# Poissons Ratio (x) = 0.47065 0.05768
# Poissons Ratio (y) = 0.73165 0.36575
# Poissons Ratio (z) = 0.06880 0.28065
#
# Static dielectric constant tensor:
#      x y z
#    x 4.364220 0.000000 0.000000 
#    y 0.000000 3.873520 0.000000 
#    z 0.000000 0.000000 3.742410 
# 
# 
# High freq. dielectric constant tensor:
#      x y z
#    x 1.841630 0.000000 0.000000 
#    y 0.000000 1.835590 0.000000 
#    z 0.000000 0.000000 1.822500 
# 
# From -- ./inp_files/12884.got.cif
#   From: 2010.03.12/outbox.cif.g09.slc.cpg/sg40_7_cif.got.tgz:12884.got - 2010.04.14 01:38:03.
