data_PCOD8183791
_publ_section_title
;
Structure prediction by ZEFSAII (Michael W. Deem and Ramdas Pophale) SiO2 
 PCOD8183791
Probable space group: A M A 2
;
_chemical_formula_sum "Si O2"
_cell_formula_units_Z 64
_cell_length_a 8.829920
_cell_length_b 14.690561
_cell_length_c 24.117261
_cell_angle_alpha 90.000000
_cell_angle_beta 90.000000
_cell_angle_gamma 90.000000
_cell_volume 3128.406165
_symmetry_space_group_name_H-M "A M A 2"
_symmetry_group_IT_number 40
_symmetry_cell_setting 'orthorhombic'
loop_
_space_group_symop_operation_xyz
x,y,z
-x,-y,z
1/2-x,y,z
1/2+x,-y,z
x,1/2+y,1/2+z
-x,1/2-y,1/2+z
1/2-x,1/2+y,1/2+z
1/2+x,1/2-y,1/2+z
loop_
_atom_site_type_symbol
_atom_site_label
_atom_site_fract_x
_atom_site_fract_y
_atom_site_fract_z
Si Si1 0.427179 0.599056 0.423470
Si Si2 0.428252 0.264524 0.337191
Si Si3 0.571222 0.400412 0.122687
Si Si4 0.574010 0.402195 0.545590
Si Si5 0.074257 0.902351 0.514523
Si Si6 0.426491 0.901517 0.391974
Si Si7 0.074309 0.229944 0.722586
Si Si8 0.926076 0.597464 0.653707
O O1 0.500000 0.500000 0.419174
O O2 0.250000 0.590553 0.410133
O O3 0.504693 0.663404 0.379503
O O4 0.451299 0.643456 0.485128
O O5 0.250000 0.261981 0.344068
O O6 0.495811 0.164880 0.348219
O O7 0.472570 0.294055 0.275347
O O8 0.500000 0.500000 0.130799
O O9 0.750000 0.408867 0.117295
O O10 0.507148 0.351839 0.066167
O O11 0.523638 0.338637 0.174310
O O12 0.500000 0.500000 0.542192
O O13 0.750000 0.410196 0.559310
O O14 0.493375 0.354024 0.597949
O O15 0.250000 0.910765 0.529010
O O16 0.050517 0.857837 0.453770
O O17 0.000000 0.000000 0.510486
O O18 0.250000 0.910204 0.377865
O O19 0.500000 0.000000 0.386149
O O20 0.250000 0.216018 0.737711
O O21 0.043232 0.333868 0.704178
O O22 0.750000 0.582063 0.643868
O O23 0.000000 0.500000 0.667543
#
# Coordination Sequence:
#
# PCOD8183791 Si02
#       8
#     8   8   8   8   8   8   8   8
#     4  10  21  39  62  88 120 155 191 236 289 344
#     4  12  26  41  60  85 113 152 200 246 291 342
#     4  10  20  36  59  85 114 149 185 229 284 338
#     4   9  17  31  55  86 117 148 182 225 279 339
#     4   9  17  31  55  86 117 148 182 225 279 339
#     4  10  21  39  62  88 120 155 191 236 289 344
#     4  10  24  43  58  77 111 152 194 240 287 338
#     4  10  20  36  59  85 114 149 185 229 284 338
#
# _framework density 20.457701
#
# number of rings (size 3 to 8) (size 9 to 14) (size 15 to 20)
#    0.000    2.000    0.000    4.875    0.000    7.000 
#    0.000    5.000    0.000    0.000    0.000    0.000 
#    0.000    0.000    0.000    0.000    0.000    0.000 
#
# Total GULP energy -396647.419515 kJ/mol
# GULP energy per Si atom -12395.231860 kJ/mol
# Density = 2.041114 g / cm^3
# Si number density = 20.457701 Si / 1000 Ang^3
#
#
#
# Elastic Constant Matrix: (Units=GPa)
#
#
# Indices 1 2 3 4 5 6 
#
# 1 129.7867 15.6360 37.5877 0.0000 0.0000 0.0000
# 2 15.6360 36.8135 1.2644 0.0000 0.0000 0.0000
# 3 37.5877 1.2644 84.4851 0.0000 0.0000 0.0000
# 4 0.0000 0.0000 0.0000 30.5128 0.0000 0.0000
# 5 0.0000 0.0000 0.0000 0.0000 39.5787 0.0000
# 6 0.0000 0.0000 0.0000 0.0000 0.0000 25.0201
#
#
#
# Elastic Compliance Matrix: (Units=1/GPa)
#
#
# Indices 1 2 3 4 5 6 
#
# 1 0.009356 -0.003833 -0.004105 0.000000 0.000000 0.000000
# 2 -0.003833 0.028748 0.001275 0.000000 0.000000 0.000000
# 3 -0.004105 0.001275 0.013644 0.000000 0.000000 0.000000
# 4 0.000000 0.000000 0.000000 0.032773 0.000000 0.000000
# 5 0.000000 0.000000 0.000000 0.000000 0.025266 0.000000
# 6 0.000000 0.000000 0.000000 0.000000 0.000000 0.039968
#
#
# Mechanical properties :
#
#
# Convention : Reuss Voigt Hill
#
# Bulk Modulus (GPa) = 26.02688 40.00684 33.01686
# Shear Modulus (GPa) = 28.42737 32.12880 30.27809
#
# Velocity S-wave (km/s) = 3.73174 3.96725 3.85129
# Velocity P-wave (km/s) = 5.59622 6.37054 5.99589
#
# Compressibility (1/GPa) = 0.03842181
#
# Stress axis : x y z
#
# Youngs Moduli (GPa) = 106.88878 34.78504 73.29429
#
# Poissons Ratio (x) = 0.13332 0.30087
# Poissons Ratio (y) = 0.40966 -0.09344
# Poissons Ratio (z) = 0.43877 -0.04435
#
# Static dielectric constant tensor:
#      x y z
#    x 3.802610 0.000000 0.000000 
#    y 0.000000 3.511290 0.000000 
#    z 0.000000 0.000000 4.241520 
# 
# 
# High freq. dielectric constant tensor:
#      x y z
#    x 1.811610 0.000000 0.000000 
#    y 0.000000 1.783290 0.000000 
#    z 0.000000 0.000000 1.810610 
# 
# From -- ./inp_files/24238.got.cif
#   From: 2010.03.12/outbox.cif.g09.slc.cpg/sg40_13_cif.got.tgz:24238.got - 2010.04.14 01:38:03.
