data_PCOD8183379
_publ_section_title
;
Structure prediction by ZEFSAII (Michael W. Deem and Ramdas Pophale) SiO2 
 PCOD8183379
Probable space group: A M A 2
;
_chemical_formula_sum "Si O2"
_cell_formula_units_Z 64
_cell_length_a 14.539779
_cell_length_b 10.543194
_cell_length_c 19.315711
_cell_angle_alpha 90.000000
_cell_angle_beta 90.000000
_cell_angle_gamma 90.000000
_cell_volume 2961.015646
_symmetry_space_group_name_H-M "A M A 2"
_symmetry_group_IT_number 40
_symmetry_cell_setting 'orthorhombic'
loop_
_space_group_symop_operation_xyz
x,y,z
-x,-y,z
1/2-x,y,z
1/2+x,-y,z
x,1/2+y,1/2+z
-x,1/2-y,1/2+z
1/2-x,1/2+y,1/2+z
1/2+x,1/2-y,1/2+z
loop_
_atom_site_type_symbol
_atom_site_label
_atom_site_fract_x
_atom_site_fract_y
_atom_site_fract_z
Si Si1 0.101292 0.503993 0.465740
Si Si2 0.904917 0.773405 0.474742
Si Si3 0.354255 0.172823 0.241593
Si Si4 0.481743 0.643723 0.256955
Si Si5 0.855681 0.492407 0.616036
Si Si6 0.594872 0.757051 0.897248
Si Si7 0.890642 0.485319 0.873917
Si Si8 0.357616 0.720197 0.131691
O O1 0.146494 0.362970 0.459287
O O2 0.088484 0.536131 0.546546
O O3 0.153429 0.620732 0.426161
O O4 0.000000 0.500000 0.431293
O O5 0.895491 0.811421 0.554971
O O6 0.010700 0.761151 0.451278
O O7 0.856374 0.884158 0.431007
O O8 0.250000 0.221710 0.233489
O O9 0.417929 0.293771 0.251429
O O10 0.390990 0.106515 0.172234
O O11 0.356450 0.065761 0.300754
O O12 0.500000 0.500000 0.277915
O O13 0.432215 0.717693 0.318358
O O14 0.419446 0.646504 0.187792
O O15 0.750000 0.472334 0.596542
O O16 0.871348 0.631770 0.646751
O O17 0.651566 0.624197 0.893363
O O18 0.000000 0.500000 0.872465
O O19 0.250000 0.680547 0.137992
#
# Coordination Sequence:
#
# PCOD8183379 Si02
#       8
#     8   8   8   8   8   8   8   8
#     4   9  18  32  58  84 121 159 199 259 310 373
#     4   9  18  35  58  90 122 164 210 264 317 389
#     4  11  24  40  62  94 127 167 218 275 331 396
#     4  12  25  41  66  90 127 177 222 270 340 398
#     4   9  20  37  59  89 120 156 209 259 316 387
#     4  10  20  36  60  94 125 161 217 265 320 393
#     4  10  19  36  63  90 123 165 215 261 322 387
#     4  10  23  41  64  95 128 169 221 272 327 398
#
# _framework density 21.614205999999999
#
# number of rings (size 3 to 8) (size 9 to 14) (size 15 to 20)
#    0.000    2.000    2.500    1.875    5.250    2.500 
#    0.000    1.250    0.000    0.000    0.000    0.000 
#    0.000    0.000    0.000    0.000    0.000    0.000 
#
# Total GULP energy -396527.993482 kJ/mol
# GULP energy per Si atom -12391.499796 kJ/mol
# Density = 2.156501 g / cm^3
# Si number density = 21.614206 Si / 1000 Ang^3
#
#
#
# Elastic Constant Matrix: (Units=GPa)
#
#
# Indices 1 2 3 4 5 6 
#
# 1 55.1970 19.1519 29.0929 0.0000 0.0000 0.0000
# 2 19.1519 170.9528 63.0353 0.0000 0.0000 0.0000
# 3 29.0929 63.0353 121.5195 0.0000 0.0000 0.0000
# 4 0.0000 0.0000 0.0000 30.6394 0.0000 0.0000
# 5 0.0000 0.0000 0.0000 0.0000 -11.4897 0.0000
# 6 0.0000 0.0000 0.0000 0.0000 0.0000 10.4021
#
#
#
# Elastic Compliance Matrix: (Units=1/GPa)
#
#
# Indices 1 2 3 4 5 6 
#
# 1 0.020785 -0.000610 -0.004659 0.000000 0.000000 0.000000
# 2 -0.000610 0.007251 -0.003615 0.000000 0.000000 0.000000
# 3 -0.004659 -0.003615 0.011220 0.000000 0.000000 0.000000
# 4 0.000000 0.000000 0.000000 0.032638 0.000000 0.000000
# 5 0.000000 0.000000 0.000000 0.000000 -0.087035 0.000000
# 6 0.000000 0.000000 0.000000 0.000000 0.000000 0.096135
#
#
# Mechanical properties :
#
#
# Convention : Reuss Voigt Hill
#
# Bulk Modulus (GPa) = 46.54290 63.35882 54.95086
# Shear Modulus (GPa) = 47.20327 21.66965 34.43646
#
# Velocity S-wave (km/s) = 4.67829 3.16977 3.99586
# Velocity P-wave (km/s) = 7.12475 6.54016 6.83871
#
# Compressibility (1/GPa) = 0.02148555
#
# Stress axis : x y z
#
# Youngs Moduli (GPa) = 48.11262 137.91298 89.12758
#
# Poissons Ratio (x) = 0.08419 0.41528
# Poissons Ratio (y) = 0.02937 0.32221
# Poissons Ratio (z) = 0.22417 0.49857
#
# Static dielectric constant tensor:
#      x y z
#    x 3.531100 0.000000 0.000000 
#    y 0.000000 4.456110 0.000000 
#    z 0.000000 0.000000 3.921300 
# 
# 
# High freq. dielectric constant tensor:
#      x y z
#    x 1.820600 0.000000 0.000000 
#    y 0.000000 1.854320 0.000000 
#    z 0.000000 0.000000 1.855280 
# 
# From -- ./inp_files/20799.got.cif
#   From: 2010.03.12/outbox.cif.g09.slc.cpg/sg40_11_cif.got.tgz:20799.got - 2010.04.14 01:38:03.
