data_PCOD8183648
_publ_section_title
;
Structure prediction by ZEFSAII (Michael W. Deem and Ramdas Pophale) SiO2 
 PCOD8183648
Probable space group: A M A 2
;
_chemical_formula_sum "Si O2"
_cell_formula_units_Z 64
_cell_length_a 8.728202
_cell_length_b 23.440223
_cell_length_c 17.717427
_cell_angle_alpha 90.000000
_cell_angle_beta 90.000000
_cell_angle_gamma 90.000000
_cell_volume 3624.826130
_symmetry_space_group_name_H-M "A M A 2"
_symmetry_group_IT_number 40
_symmetry_cell_setting 'orthorhombic'
loop_
_space_group_symop_operation_xyz
x,y,z
-x,-y,z
1/2-x,y,z
1/2+x,-y,z
x,1/2+y,1/2+z
-x,1/2-y,1/2+z
1/2-x,1/2+y,1/2+z
1/2+x,1/2-y,1/2+z
loop_
_atom_site_type_symbol
_atom_site_label
_atom_site_fract_x
_atom_site_fract_y
_atom_site_fract_z
Si Si1 0.068251 0.439070 0.447990
Si Si2 0.430923 0.060058 0.108693
Si Si3 0.425083 0.630668 0.317435
Si Si4 0.429929 0.441178 0.867695
Si Si5 0.569462 0.558652 0.037559
Si Si6 0.568338 0.140822 0.667574
Si Si7 0.428186 0.138252 0.247966
Si Si8 0.075827 0.741236 0.236476
O O1 0.250000 0.443488 0.450567
O O2 0.000000 0.500000 0.422696
O O3 0.005783 0.421222 0.529872
O O4 0.017513 0.390159 0.390071
O O5 0.250000 0.053139 0.097621
O O6 0.473625 0.108250 0.169434
O O7 0.500000 0.000000 0.136718
O O8 0.250000 0.609142 0.322072
O O9 0.504850 0.606084 0.240990
O O10 0.431277 0.700345 0.311292
O O11 0.500000 0.500000 0.836304
O O12 0.250000 0.447727 0.865162
O O13 0.479539 0.388920 0.816478
O O14 0.488780 0.428835 0.952698
O O15 0.500000 0.500000 0.068373
O O16 0.750000 0.552696 0.040137
O O17 0.513804 0.609441 0.091701
O O18 0.750000 0.146047 0.673061
O O19 0.492238 0.204039 0.666589
O O20 0.250000 0.130688 0.264316
O O21 0.469912 0.204305 0.246381
O O22 0.250000 0.759813 0.219004
#
# Coordination Sequence:
#
# PCOD8183648 Si02
#       8
#     8   8   8   8   8   8   8   8
#     4  11  21  34  55  80 108 141 174 216 263 314
#     4  10  21  36  54  79 109 138 170 214 264 316
#     4   9  19  35  54  77 107 141 176 216 262 309
#     4  10  20  35  54  79 110 140 174 216 262 313
#     4   9  19  33  52  78 108 141 173 212 261 309
#     4   9  17  33  54  76 106 141 177 217 261 309
#     4  11  22  36  57  80 103 138 178 218 266 317
#     4   9  20  36  55  77 103 138 177 222 263 306
#
# _framework density 17.656020000000002
#
# number of rings (size 3 to 8) (size 9 to 14) (size 15 to 20)
#    0.750    1.500    0.000    4.125    0.000    5.000 
#    0.000    2.500    0.000    3.000    0.000    0.000 
#    0.000    0.000    0.000    0.000    0.000    0.000 
#
# Total GULP energy -396687.840098 kJ/mol
# GULP energy per Si atom -12396.495003 kJ/mol
# Density = 1.761583 g / cm^3
# Si number density = 17.656020 Si / 1000 Ang^3
#
#
#
# Elastic Constant Matrix: (Units=GPa)
#
#
# Indices 1 2 3 4 5 6 
#
# 1 82.9378 28.1333 37.3821 0.0000 0.0000 0.0000
# 2 28.1333 101.2487 56.4419 0.0000 0.0000 0.0000
# 3 37.3821 56.4419 92.2519 0.0000 0.0000 0.0000
# 4 0.0000 0.0000 0.0000 11.6014 0.0000 0.0000
# 5 0.0000 0.0000 0.0000 0.0000 5.5069 0.0000
# 6 0.0000 0.0000 0.0000 0.0000 0.0000 32.5567
#
#
#
# Elastic Compliance Matrix: (Units=1/GPa)
#
#
# Indices 1 2 3 4 5 6 
#
# 1 0.014842 -0.001171 -0.005298 0.000000 0.000000 0.000000
# 2 -0.001171 0.015081 -0.008753 0.000000 0.000000 0.000000
# 3 -0.005298 -0.008753 0.018342 0.000000 0.000000 0.000000
# 4 0.000000 0.000000 0.000000 0.086197 0.000000 0.000000
# 5 0.000000 0.000000 0.000000 0.000000 0.181592 0.000000
# 6 0.000000 0.000000 0.000000 0.000000 0.000000 0.030716
#
#
# Mechanical properties :
#
#
# Convention : Reuss Voigt Hill
#
# Bulk Modulus (GPa) = 56.10889 57.81699 56.96294
# Shear Modulus (GPa) = 13.04962 20.23174 16.64068
#
# Velocity S-wave (km/s) = 2.72159 3.38876 3.07334
# Velocity P-wave (km/s) = 6.45941 6.93751 6.70272
#
# Compressibility (1/GPa) = 0.01782249
#
# Stress axis : x y z
#
# Youngs Moduli (GPa) = 67.37493 66.30776 54.52003
#
# Poissons Ratio (x) = 0.07762 0.28885
# Poissons Ratio (y) = 0.07887 0.47720
# Poissons Ratio (z) = 0.35696 0.58037
#
# Static dielectric constant tensor:
#      x y z
#    x 3.375270 0.000000 0.000000 
#    y 0.000000 3.172730 0.000000 
#    z 0.000000 0.000000 3.303530 
# 
# 
# High freq. dielectric constant tensor:
#      x y z
#    x 1.699740 0.000000 0.000000 
#    y 0.000000 1.668450 0.000000 
#    z 0.000000 0.000000 1.674930 
# 
# From -- ./inp_files/19736.got.cif
#   From: 2010.03.12/outbox.cif.g09.slc.cpg/sg40_10_cif.got.tgz:19736.got - 2010.04.14 01:38:03.
