data_PCOD8183254
_publ_section_title
;
Structure prediction by ZEFSAII (Michael W. Deem and Ramdas Pophale) SiO2 
 PCOD8183254
Probable space group: A M A 2
;
_chemical_formula_sum "Si O2"
_cell_formula_units_Z 64
_cell_length_a 18.315617
_cell_length_b 12.176154
_cell_length_c 15.999528
_cell_angle_alpha 90.000000
_cell_angle_beta 90.000000
_cell_angle_gamma 90.000000
_cell_volume 3568.115109
_symmetry_space_group_name_H-M "A M A 2"
_symmetry_group_IT_number 40
_symmetry_cell_setting 'orthorhombic'
loop_
_space_group_symop_operation_xyz
x,y,z
-x,-y,z
1/2-x,y,z
1/2+x,-y,z
x,1/2+y,1/2+z
-x,1/2-y,1/2+z
1/2-x,1/2+y,1/2+z
1/2+x,1/2-y,1/2+z
loop_
_atom_site_type_symbol
_atom_site_label
_atom_site_fract_x
_atom_site_fract_y
_atom_site_fract_z
Si Si1 0.335219 0.104118 0.742280
Si Si2 0.833801 0.750563 0.154829
Si Si3 0.414221 0.503787 0.906605
Si Si4 0.586950 0.730946 0.848966
Si Si5 0.665962 0.515212 0.077387
Si Si6 0.415110 0.729278 0.826384
Si Si7 0.834086 0.865439 0.988781
Si Si8 0.666175 0.566391 0.382850
O O1 0.250000 0.124741 0.753052
O O2 0.375249 0.216457 0.767660
O O3 0.356569 0.072292 0.648416
O O4 0.359380 0.005167 0.803206
O O5 0.750000 0.754456 0.187377
O O6 0.849871 0.637059 0.108792
O O7 0.889390 0.760608 0.230969
O O8 0.849147 0.846953 0.087124
O O9 0.500000 0.500000 0.918291
O O10 0.388291 0.395881 0.856147
O O11 0.388083 0.610347 0.856340
O O12 0.381785 0.511258 0.998168
O O13 0.501154 0.742559 0.834999
O O14 0.611887 0.791292 0.933751
O O15 0.750000 0.501665 0.052824
O O16 0.380455 0.822663 0.885620
O O17 0.750000 0.832838 0.966852
O O18 0.846855 0.994025 0.966730
O O19 0.750000 0.601293 0.373274
#
# Coordination Sequence:
#
# PCOD8183254 Si02
#       8
#     8   8   8   8   8   8   8   8
#     4   9  18  33  55  84 111 134 176 236 276 316
#     4  10  19  35  58  84 108 143 191 229 267 329
#     4  10  23  39  53  75 115 152 185 225 273 334
#     4  10  20  36  55  79 112 148 189 219 276 333
#     4  10  19  34  58  85 107 137 186 233 276 325
#     4  11  22  35  54  81 116 147 182 225 280 332
#     4   9  18  34  60  83 106 140 186 234 269 319
#     4   9  17  33  54  80 111 139 172 226 278 317
#
# _framework density 17.936641999999999
#
# number of rings (size 3 to 8) (size 9 to 14) (size 15 to 20)
#    0.000    2.250    2.500    1.500    0.000    4.500 
#    0.000    1.250    5.500    3.000    0.000    0.000 
#    0.000    0.000    0.000    0.000    0.000    0.000 
#
# Total GULP energy -396773.295292 kJ/mol
# GULP energy per Si atom -12399.165478 kJ/mol
# Density = 1.789582 g / cm^3
# Si number density = 17.936642 Si / 1000 Ang^3
#
#
#
# Elastic Constant Matrix: (Units=GPa)
#
#
# Indices 1 2 3 4 5 6 
#
# 1 48.8654 40.2081 31.5614 0.0000 0.0000 0.0000
# 2 40.2081 116.0118 39.5455 0.0000 0.0000 0.0000
# 3 31.5614 39.5455 78.4132 0.0000 0.0000 0.0000
# 4 0.0000 0.0000 0.0000 24.3231 0.0000 0.0000
# 5 0.0000 0.0000 0.0000 0.0000 32.4857 0.0000
# 6 0.0000 0.0000 0.0000 0.0000 0.0000 18.3562
#
#
#
# Elastic Compliance Matrix: (Units=1/GPa)
#
#
# Indices 1 2 3 4 5 6 
#
# 1 0.033311 -0.008423 -0.009160 0.000000 0.000000 0.000000
# 2 -0.008423 0.012539 -0.002934 0.000000 0.000000 0.000000
# 3 -0.009160 -0.002934 0.017919 0.000000 0.000000 0.000000
# 4 0.000000 0.000000 0.000000 0.041113 0.000000 0.000000
# 5 0.000000 0.000000 0.000000 0.000000 0.030783 0.000000
# 6 0.000000 0.000000 0.000000 0.000000 0.000000 0.054478
#
#
# Mechanical properties :
#
#
# Convention : Reuss Voigt Hill
#
# Bulk Modulus (GPa) = 43.98136 51.76893 47.87515
# Shear Modulus (GPa) = 20.94200 23.83136 22.38668
#
# Velocity S-wave (km/s) = 3.42066 3.64901 3.53668
# Velocity P-wave (km/s) = 6.33836 6.83216 6.58989
#
# Compressibility (1/GPa) = 0.02273691
#
# Stress axis : x y z
#
# Youngs Moduli (GPa) = 30.01988 79.75114 55.80574
#
# Poissons Ratio (x) = 0.67173 0.51118
# Poissons Ratio (y) = 0.25285 0.16371
# Poissons Ratio (z) = 0.27498 0.23395
#
# Static dielectric constant tensor:
#      x y z
#    x 3.037800 0.000000 0.000000 
#    y 0.000000 3.521420 0.000000 
#    z 0.000000 0.000000 3.428290 
# 
# 
# High freq. dielectric constant tensor:
#      x y z
#    x 1.688100 0.000000 0.000000 
#    y 0.000000 1.694200 0.000000 
#    z 0.000000 0.000000 1.685930 
# 
# From -- ./inp_files/17860.got.cif
#   From: 2010.03.12/outbox.cif.g09.slc.cpg/sg40_9_cif.got.tgz:17860.got - 2010.04.14 01:38:03.
