data_PCOD8183210
_publ_section_title
;
Structure prediction by ZEFSAII (Michael W. Deem and Ramdas Pophale) SiO2 
 PCOD8183210
Probable space group: A M A 2
;
_chemical_formula_sum "Si O2"
_cell_formula_units_Z 64
_cell_length_a 8.524639
_cell_length_b 28.708538
_cell_length_c 12.772110
_cell_angle_alpha 90.000000
_cell_angle_beta 90.000000
_cell_angle_gamma 90.000000
_cell_volume 3125.717493
_symmetry_space_group_name_H-M "A M A 2"
_symmetry_group_IT_number 40
_symmetry_cell_setting 'orthorhombic'
loop_
_space_group_symop_operation_xyz
x,y,z
-x,-y,z
1/2-x,y,z
1/2+x,-y,z
x,1/2+y,1/2+z
-x,1/2-y,1/2+z
1/2-x,1/2+y,1/2+z
1/2+x,1/2-y,1/2+z
loop_
_atom_site_type_symbol
_atom_site_label
_atom_site_fract_x
_atom_site_fract_y
_atom_site_fract_z
Si Si1 0.065015 0.302280 0.119440
Si Si2 0.564505 0.046772 0.968502
Si Si3 0.063721 0.447788 0.835713
Si Si4 0.932966 0.329978 0.319966
Si Si5 0.933977 0.399016 0.041105
Si Si6 0.930761 0.576791 0.249415
Si Si7 0.067579 0.701903 0.546990
Si Si8 0.935015 0.614947 0.643123
O O1 0.250000 0.306675 0.139780
O O2 0.022115 0.255843 0.055977
O O3 0.968131 0.293549 0.227045
O O4 0.009189 0.347767 0.054599
O O5 0.750000 0.047309 0.970380
O O6 0.503497 0.047390 0.848086
O O7 0.500000 0.000000 0.021848
O O8 0.500595 0.089710 0.037514
O O9 0.250000 0.450578 0.835207
O O10 0.000295 0.413195 0.744101
O O11 0.000000 0.500000 0.819338
O O12 0.007235 0.426032 0.944213
O O13 0.750000 0.344935 0.319328
O O14 0.988850 0.310882 0.430845
O O15 0.051602 0.370657 0.288270
O O16 0.750000 0.393552 0.025094
O O17 0.968101 0.430854 0.144225
O O18 0.750000 0.565845 0.224074
O O19 0.250000 0.694024 0.561243
O O20 0.989300 0.668672 0.635391
O O21 0.750000 0.613628 0.648660
#
# Coordination Sequence:
#
# PCOD8183210 Si02
#       8
#     8   8   8   8   8   8   8   8
#     4  10  21  38  58  86 121 159 203 253 308 365
#     4  10  21  35  55  85 116 148 186 232 288 349
#     4  11  24  43  66  91 123 165 210 260 314 371
#     4  10  19  34  55  81 112 149 191 240 297 355
#     4  11  23  40  62  88 120 158 205 253 306 366
#     4  10  19  35  58  83 114 149 190 239 295 356
#     4  10  22  37  58  87 120 158 203 252 306 368
#     4  10  22  40  61  87 119 156 201 249 302 364
#
# _framework density 20.475299
#
# number of rings (size 3 to 8) (size 9 to 14) (size 15 to 20)
#    0.000    1.750    1.250    4.500    0.000    5.500 
#    0.000    5.000    0.000    0.000    0.000    0.000 
#    0.000    0.000    0.000    0.000    0.000    0.000 
#
# Total GULP energy -396611.562413 kJ/mol
# GULP energy per Si atom -12394.111325 kJ/mol
# Density = 2.042870 g / cm^3
# Si number density = 20.475299 Si / 1000 Ang^3
#
#
#
# Elastic Constant Matrix: (Units=GPa)
#
#
# Indices 1 2 3 4 5 6 
#
# 1 51.7406 24.2066 26.3606 0.0000 0.0000 0.0000
# 2 24.2066 79.8558 39.8475 0.0000 0.0000 0.0000
# 3 26.3606 39.8475 114.9998 0.0000 0.0000 0.0000
# 4 0.0000 0.0000 0.0000 26.5611 0.0000 0.0000
# 5 0.0000 0.0000 0.0000 0.0000 22.3617 0.0000
# 6 0.0000 0.0000 0.0000 0.0000 0.0000 31.7977
#
#
#
# Elastic Compliance Matrix: (Units=1/GPa)
#
#
# Indices 1 2 3 4 5 6 
#
# 1 0.023664 -0.005400 -0.003553 0.000000 0.000000 0.000000
# 2 -0.005400 0.016373 -0.004435 0.000000 0.000000 0.000000
# 3 -0.003553 -0.004435 0.011047 0.000000 0.000000 0.000000
# 4 0.000000 0.000000 0.000000 0.037649 0.000000 0.000000
# 5 0.000000 0.000000 0.000000 0.000000 0.044719 0.000000
# 6 0.000000 0.000000 0.000000 0.000000 0.000000 0.031449
#
#
# Mechanical properties :
#
#
# Convention : Reuss Voigt Hill
#
# Bulk Modulus (GPa) = 41.14165 47.49173 44.31669
# Shear Modulus (GPa) = 25.02751 26.55619 25.79185
#
# Velocity S-wave (km/s) = 3.49997 3.60528 3.55301
# Velocity P-wave (km/s) = 6.03904 6.36991 6.20668
#
# Compressibility (1/GPa) = 0.02430627
#
# Stress axis : x y z
#
# Youngs Moduli (GPa) = 42.25848 61.07721 90.52260
#
# Poissons Ratio (x) = 0.32983 0.32164
# Poissons Ratio (y) = 0.22820 0.40150
# Poissons Ratio (z) = 0.15015 0.27090
#
# Static dielectric constant tensor:
#      x y z
#    x 3.572440 0.000000 0.000000 
#    y 0.000000 3.891540 0.000000 
#    z 0.000000 0.000000 4.235050 
# 
# 
# High freq. dielectric constant tensor:
#      x y z
#    x 1.796470 0.000000 0.000000 
#    y 0.000000 1.797800 0.000000 
#    z 0.000000 0.000000 1.808630 
# 
# From -- ./inp_files/10604.got.cif
#   From: 2010.03.12/outbox.cif.g09.slc.cpg/sg40_6_cif.got.tgz:10604.got - 2010.04.14 01:38:03.
