data_PCOD8183478
_publ_section_title
;
Structure prediction by ZEFSAII (Michael W. Deem and Ramdas Pophale) SiO2 
 PCOD8183478
Probable space group: A M A 2
;
_chemical_formula_sum "Si O2"
_cell_formula_units_Z 64
_cell_length_a 9.091923
_cell_length_b 23.029688
_cell_length_c 18.433874
_cell_angle_alpha 90.000000
_cell_angle_beta 90.000000
_cell_angle_gamma 90.000000
_cell_volume 3859.761039
_symmetry_space_group_name_H-M "A M A 2"
_symmetry_group_IT_number 40
_symmetry_cell_setting 'orthorhombic'
loop_
_space_group_symop_operation_xyz
x,y,z
-x,-y,z
1/2-x,y,z
1/2+x,-y,z
x,1/2+y,1/2+z
-x,1/2-y,1/2+z
1/2-x,1/2+y,1/2+z
1/2+x,1/2-y,1/2+z
loop_
_atom_site_type_symbol
_atom_site_label
_atom_site_fract_x
_atom_site_fract_y
_atom_site_fract_z
Si Si1 0.089107 0.736857 0.393560
Si Si2 0.925970 0.625135 0.170702
Si Si3 0.414049 0.731241 0.108308
Si Si4 0.427024 0.060121 0.540191
Si Si5 0.410515 0.168371 0.455288
Si Si6 0.575162 0.376960 0.318191
Si Si7 0.423401 0.059856 0.964337
Si Si8 0.586649 0.828185 0.044969
O O1 0.250000 0.753429 0.365611
O O2 0.022644 0.688234 0.339945
O O3 0.097519 0.710584 0.473418
O O4 0.001731 0.797595 0.394094
O O5 0.750000 0.622475 0.163988
O O6 0.982530 0.690797 0.157867
O O7 0.000672 0.580695 0.115106
O O8 0.979609 0.603753 0.249398
O O9 0.250000 0.734673 0.142430
O O10 0.481858 0.796229 0.103403
O O11 0.403836 0.705055 0.028635
O O12 0.250000 0.056562 0.549398
O O13 0.472616 0.104800 0.475967
O O14 0.500000 0.000000 0.516981
O O15 0.250000 0.161373 0.421233
O O16 0.750000 0.378377 0.302316
O O17 0.533988 0.420921 0.382929
O O18 0.250000 0.052396 0.970275
O O19 0.500000 0.000000 0.984979
O O20 0.476204 0.108528 0.022513
O O21 0.750000 0.834024 0.078737
#
# Coordination Sequence:
#
# PCOD8183478 Si02
#       8
#     8   8   8   8   8   8   8   8
#     4   8  14  25  43  61  78 104 136 170 214 257
#     4  11  21  31  44  62  84 115 149 181 215 253
#     4   9  16  27  43  62  82 106 135 173 217 258
#     4  10  20  33  46  62  85 115 148 182 215 250
#     4   8  15  26  41  61  83 103 129 169 215 255
#     4   9  18  32  44  58  84 116 148 183 215 248
#     4   9  18  30  44  61  85 116 148 181 215 250
#     4   8  14  26  42  61  82 105 135 173 215 257
#
# _framework density 16.581337999999999
#
# number of rings (size 3 to 8) (size 9 to 14) (size 15 to 20)
#    0.000    3.000    0.000    4.125    0.000    5.500 
#    0.000    3.750    0.000    0.000    0.000    0.000 
#    0.000    1.000    0.000    5.000    0.000    5.125 
#
# Total GULP energy -396538.699477 kJ/mol
# GULP energy per Si atom -12391.834359 kJ/mol
# Density = 1.654360 g / cm^3
# Si number density = 16.581338 Si / 1000 Ang^3
#
#
#
# Elastic Constant Matrix: (Units=GPa)
#
#
# Indices 1 2 3 4 5 6 
#
# 1 74.5570 41.9602 6.0714 0.0000 0.0000 0.0000
# 2 41.9602 124.2788 14.1720 0.0000 0.0000 0.0000
# 3 6.0714 14.1720 4.3445 0.0000 0.0000 0.0000
# 4 0.0000 0.0000 0.0000 14.6416 0.0000 0.0000
# 5 0.0000 0.0000 0.0000 0.0000 14.8361 0.0000
# 6 0.0000 0.0000 0.0000 0.0000 0.0000 29.9261
#
#
#
# Elastic Compliance Matrix: (Units=1/GPa)
#
#
# Indices 1 2 3 4 5 6 
#
# 1 0.016727 -0.004748 -0.007887 0.000000 0.000000 0.000000
# 2 -0.004748 0.014160 -0.039557 0.000000 0.000000 0.000000
# 3 -0.007887 -0.039557 0.370237 0.000000 0.000000 0.000000
# 4 0.000000 0.000000 0.000000 0.068299 0.000000 0.000000
# 5 0.000000 0.000000 0.000000 0.000000 0.067403 0.000000
# 6 0.000000 0.000000 0.000000 0.000000 0.000000 0.033416
#
#
# Mechanical properties :
#
#
# Convention : Reuss Voigt Hill
#
# Bulk Modulus (GPa) = 3.36995 36.39861 19.88428
# Shear Modulus (GPa) = 6.46379 21.27920 13.87149
#
# Velocity S-wave (km/s) = 1.97654 3.58624 2.89549
# Velocity P-wave (km/s) = 2.69179 6.25678 4.81628
#
# Compressibility (1/GPa) = 0.29674047
#
# Stress axis : x y z
#
# Youngs Moduli (GPa) = 59.78340 70.61984 2.70097
#
# Poissons Ratio (x) = 0.33531 0.02130
# Poissons Ratio (y) = 0.28386 0.10684
# Poissons Ratio (z) = 0.47154 2.79348
#
# Static dielectric constant tensor:
#      x y z
#    x 3.313950 0.000000 0.000000 
#    y 0.000000 3.255350 0.000000 
#    z 0.000000 0.000000 2.745310 
# 
# 
# High freq. dielectric constant tensor:
#      x y z
#    x 1.641480 0.000000 0.000000 
#    y 0.000000 1.632400 0.000000 
#    z 0.000000 0.000000 1.585050 
# 
# From -- ./inp_files/22357.got.cif
#   From: 2010.03.12/outbox.cif.g09.slc.cpg/sg40_12_cif.got.tgz:22357.got - 2010.04.14 01:38:03.
