data_PCOD8183728
_publ_section_title
;
Structure prediction by ZEFSAII (Michael W. Deem and Ramdas Pophale) SiO2 
 PCOD8183728
Probable space group: A M A 2
;
_chemical_formula_sum "Si O2"
_cell_formula_units_Z 64
_cell_length_a 8.956991
_cell_length_b 29.213706
_cell_length_c 12.702147
_cell_angle_alpha 90.000000
_cell_angle_beta 90.000000
_cell_angle_gamma 90.000000
_cell_volume 3323.731451
_symmetry_space_group_name_H-M "A M A 2"
_symmetry_group_IT_number 40
_symmetry_cell_setting 'orthorhombic'
loop_
_space_group_symop_operation_xyz
x,y,z
-x,-y,z
1/2-x,y,z
1/2+x,-y,z
x,1/2+y,1/2+z
-x,1/2-y,1/2+z
1/2-x,1/2+y,1/2+z
1/2+x,1/2-y,1/2+z
loop_
_atom_site_type_symbol
_atom_site_label
_atom_site_fract_x
_atom_site_fract_y
_atom_site_fract_z
Si Si1 0.426283 0.451439 0.464820
Si Si2 0.925564 0.142253 0.596632
Si Si3 0.578830 0.245451 0.556144
Si Si4 0.574667 0.547966 0.704846
Si Si5 0.084655 0.290355 0.375296
Si Si6 0.074428 0.374968 0.862425
Si Si7 0.073515 0.620616 0.309316
Si Si8 0.412711 0.703385 0.751727
O O1 0.500000 0.500000 0.442081
O O2 0.250000 0.454647 0.445905
O O3 0.462155 0.436163 0.585372
O O4 0.497749 0.416727 0.383090
O O5 0.750000 0.133915 0.613752
O O6 0.965075 0.195952 0.603509
O O7 0.980224 0.121674 0.483633
O O8 0.012571 0.116194 0.689938
O O9 0.750000 0.243065 0.516575
O O10 0.465798 0.254358 0.462542
O O11 0.553000 0.290880 0.628173
O O12 0.500000 0.500000 0.732296
O O13 0.750000 0.541862 0.719937
O O14 0.508357 0.585007 0.787823
O O15 0.250000 0.311045 0.398883
O O16 0.092384 0.257690 0.274902
O O17 0.966275 0.330315 0.358298
O O18 0.250000 0.377706 0.860662
O O19 0.034048 0.325773 0.813496
O O20 0.250000 0.613594 0.309269
O O21 0.250000 0.680855 0.772667
#
# Coordination Sequence:
#
# PCOD8183728 Si02
#       8
#     8   8   8   8   8   8   8   8
#     4  10  21  41  66  91 121 150 187 239 297 355
#     4  10  20  38  59  80 117 160 197 243 292 340
#     4  10  20  36  53  77 113 155 198 243 291 341
#     4   9  20  39  63  91 117 147 184 230 289 350
#     4  11  22  37  55  80 115 155 198 243 292 344
#     4  10  21  37  59  86 115 151 196 238 290 351
#     4  12  25  39  59  87 118 156 203 244 293 353
#     4  10  21  35  52  78 114 152 195 240 288 340
#
# _framework density 19.255465999999998
#
# number of rings (size 3 to 8) (size 9 to 14) (size 15 to 20)
#    0.000    1.750    2.500    1.875    1.750    3.000 
#    0.000    0.625    0.000    1.500    0.000    0.000 
#    0.000    0.000    0.000    0.000    0.000    0.000 
#
# Total GULP energy -396631.870201 kJ/mol
# GULP energy per Si atom -12394.745944 kJ/mol
# Density = 1.921164 g / cm^3
# Si number density = 19.255466 Si / 1000 Ang^3
#
#
#
# Elastic Constant Matrix: (Units=GPa)
#
#
# Indices 1 2 3 4 5 6 
#
# 1 69.6058 39.2426 46.6651 0.0000 0.0000 0.0000
# 2 39.2426 101.6974 69.0927 0.0000 0.0000 0.0000
# 3 46.6651 69.0927 125.2703 0.0000 0.0000 0.0000
# 4 0.0000 0.0000 0.0000 34.7451 0.0000 0.0000
# 5 0.0000 0.0000 0.0000 0.0000 26.4074 0.0000
# 6 0.0000 0.0000 0.0000 0.0000 0.0000 31.8991
#
#
#
# Elastic Compliance Matrix: (Units=1/GPa)
#
#
# Indices 1 2 3 4 5 6 
#
# 1 0.020262 -0.004303 -0.005174 0.000000 0.000000 0.000000
# 2 -0.004303 0.016640 -0.007575 0.000000 0.000000 0.000000
# 3 -0.005174 -0.007575 0.014088 0.000000 0.000000 0.000000
# 4 0.000000 0.000000 0.000000 0.028781 0.000000 0.000000
# 5 0.000000 0.000000 0.000000 0.000000 0.037868 0.000000
# 6 0.000000 0.000000 0.000000 0.000000 0.000000 0.031349
#
#
# Mechanical properties :
#
#
# Convention : Reuss Voigt Hill
#
# Bulk Modulus (GPa) = 59.22344 67.39714 63.31029
# Shear Modulus (GPa) = 26.49424 28.04852 27.27138
#
# Velocity S-wave (km/s) = 3.71338 3.82075 3.76745
# Velocity P-wave (km/s) = 7.01492 7.38524 7.20246
#
# Compressibility (1/GPa) = 0.01688521
#
# Stress axis : x y z
#
# Youngs Moduli (GPa) = 49.35435 60.09721 70.98169
#
# Poissons Ratio (x) = 0.25860 0.36729
# Poissons Ratio (y) = 0.21237 0.53767
# Poissons Ratio (z) = 0.25538 0.45522
#
# Static dielectric constant tensor:
#      x y z
#    x 3.444640 0.000000 0.000000 
#    y 0.000000 3.440960 0.000000 
#    z 0.000000 0.000000 3.789980 
# 
# 
# High freq. dielectric constant tensor:
#      x y z
#    x 1.744190 0.000000 0.000000 
#    y 0.000000 1.731720 0.000000 
#    z 0.000000 0.000000 1.762740 
# 
# From -- ./inp_files/10703.got.cif
#   From: 2010.03.12/outbox.cif.g09.slc.cpg/sg40_6_cif.got.tgz:10703.got - 2010.04.14 01:38:03.
