data_PCOD8183711
_publ_section_title
;
Structure prediction by ZEFSAII (Michael W. Deem and Ramdas Pophale) SiO2 
 PCOD8183711
Probable space group: A M A 2
;
_chemical_formula_sum "Si O2"
_cell_formula_units_Z 48
_cell_length_a 13.946521
_cell_length_b 18.211345
_cell_length_c 9.511458
_cell_angle_alpha 90.000000
_cell_angle_beta 90.000000
_cell_angle_gamma 90.000000
_cell_volume 2415.766761
_symmetry_space_group_name_H-M "A M A 2"
_symmetry_group_IT_number 40
_symmetry_cell_setting 'orthorhombic'
loop_
_space_group_symop_operation_xyz
x,y,z
-x,-y,z
1/2-x,y,z
1/2+x,-y,z
x,1/2+y,1/2+z
-x,1/2-y,1/2+z
1/2-x,1/2+y,1/2+z
1/2+x,1/2-y,1/2+z
loop_
_atom_site_type_symbol
_atom_site_label
_atom_site_fract_x
_atom_site_fract_y
_atom_site_fract_z
Si Si1 0.983929 0.157358 0.654670
Si Si2 0.643016 0.026620 0.378822
Si Si3 0.138372 0.704658 0.635470
Si Si4 0.859372 0.870081 0.844848
Si Si5 0.035829 0.614290 0.856756
Si Si6 0.143147 0.973771 0.710811
O O1 0.906684 0.216306 0.598253
O O2 0.928969 0.092919 0.740575
O O3 0.067182 0.184119 0.762364
O O4 0.044787 0.129724 0.521706
O O5 0.750000 0.044328 0.326632
O O6 0.575897 0.093904 0.328432
O O7 0.637273 0.011601 0.544707
O O8 0.605071 0.952115 0.309076
O O9 0.250000 0.714038 0.676282
O O10 0.126556 0.645845 0.510183
O O11 0.073039 0.682465 0.767599
O O12 0.750000 0.851740 0.801075
O O13 0.885087 0.954178 0.801812
O O14 0.250000 0.949384 0.754125
#
# Coordination Sequence:
#
# PCOD8183711 Si02
#       6
#     8   8   8   8   8   8
#     4  11  20  37  60  86 113 153 200 244 283 355
#     4   9  17  33  59  87 108 140 195 249 286 334
#     4  11  24  39  55  83 124 159 189 239 308 362
#     4  10  21  37  58  85 116 154 195 242 297 356
#     4  10  20  35  59  84 113 153 195 238 292 352
#     4   9  17  33  60  87 109 143 196 247 287 336
#
# _framework density 19.869468000000001
#
# number of rings (size 3 to 8) (size 9 to 14) (size 15 to 20)
#    0.000    2.000    1.667    2.500    0.000    1.333 
#    6.000    0.833    0.000    1.000    0.000    0.000 
#    0.000    0.000    0.000    0.000    0.000    0.000 
#
# Total GULP energy -297409.574726 kJ/mol
# GULP energy per Si atom -12392.065614 kJ/mol
# Density = 1.982424 g / cm^3
# Si number density = 19.869468 Si / 1000 Ang^3
#
#
#
# Elastic Constant Matrix: (Units=GPa)
#
#
# Indices 1 2 3 4 5 6 
#
# 1 158.0035 49.8192 52.8731 0.0000 0.0000 0.0000
# 2 49.8192 74.7830 26.9807 0.0000 0.0000 0.0000
# 3 52.8731 26.9807 53.4009 0.0000 0.0000 0.0000
# 4 0.0000 0.0000 0.0000 21.9986 0.0000 0.0000
# 5 0.0000 0.0000 0.0000 0.0000 26.3623 0.0000
# 6 0.0000 0.0000 0.0000 0.0000 0.0000 31.1221
#
#
#
# Elastic Compliance Matrix: (Units=1/GPa)
#
#
# Indices 1 2 3 4 5 6 
#
# 1 0.010317 -0.003898 -0.008246 0.000000 0.000000 0.000000
# 2 -0.003898 0.017826 -0.005147 0.000000 0.000000 0.000000
# 3 -0.008246 -0.005147 0.029491 0.000000 0.000000 0.000000
# 4 0.000000 0.000000 0.000000 0.045458 0.000000 0.000000
# 5 0.000000 0.000000 0.000000 0.000000 0.037933 0.000000
# 6 0.000000 0.000000 0.000000 0.000000 0.000000 0.032132
#
#
# Mechanical properties :
#
#
# Convention : Reuss Voigt Hill
#
# Bulk Modulus (GPa) = 43.37908 60.61479 51.99694
# Shear Modulus (GPa) = 23.21022 26.33088 24.77055
#
# Velocity S-wave (km/s) = 3.42151 3.64427 3.53464
# Velocity P-wave (km/s) = 6.12277 6.94840 6.54861
#
# Compressibility (1/GPa) = 0.02305259
#
# Stress axis : x y z
#
# Youngs Moduli (GPa) = 96.92303 56.09818 33.90862
#
# Poissons Ratio (x) = 0.21869 0.27961
# Poissons Ratio (y) = 0.37784 0.17452
# Poissons Ratio (z) = 0.79921 0.28872
#
# Static dielectric constant tensor:
#      x y z
#    x 3.942700 0.000000 0.000000 
#    y 0.000000 3.417410 0.000000 
#    z 0.000000 0.000000 3.252470 
# 
# 
# High freq. dielectric constant tensor:
#      x y z
#    x 1.797660 0.000000 0.000000 
#    y 0.000000 1.759850 0.000000 
#    z 0.000000 0.000000 1.740120 
# 
# From -- ./inp_files/6428.got.cif
#   From: 2010.03.12/outbox.cif.g09.slc.cpg/sg40_4_cif.got.tgz:6428.got - 2010.04.14 01:38:03.
