data_PCOD8183861
_publ_section_title
;
Structure prediction by ZEFSAII (Michael W. Deem and Ramdas Pophale) SiO2 
 PCOD8183861
Probable space group: A M A 2
;
_chemical_formula_sum "Si O2"
_cell_formula_units_Z 64
_cell_length_a 9.193189
_cell_length_b 32.413860
_cell_length_c 11.660428
_cell_angle_alpha 90.000000
_cell_angle_beta 90.000000
_cell_angle_gamma 90.000000
_cell_volume 3474.652941
_symmetry_space_group_name_H-M "A M A 2"
_symmetry_group_IT_number 40
_symmetry_cell_setting 'orthorhombic'
loop_
_space_group_symop_operation_xyz
x,y,z
-x,-y,z
1/2-x,y,z
1/2+x,-y,z
x,1/2+y,1/2+z
-x,1/2-y,1/2+z
1/2-x,1/2+y,1/2+z
1/2+x,1/2-y,1/2+z
loop_
_atom_site_type_symbol
_atom_site_label
_atom_site_fract_x
_atom_site_fract_y
_atom_site_fract_z
Si Si1 0.922751 0.456576 0.921830
Si Si2 0.579908 0.816508 0.486132
Si Si3 0.089472 0.603559 0.373654
Si Si4 0.590663 0.812967 0.739414
Si Si5 0.418360 0.776446 0.928828
Si Si6 0.920046 0.643280 0.562641
Si Si7 0.920190 0.958285 0.683518
Si Si8 0.577177 0.621334 0.820389
O O1 0.750000 0.459936 0.897352
O O2 0.000000 0.500000 0.893508
O O3 0.995197 0.421709 0.842938
O O4 0.953574 0.443651 0.053790
O O5 0.750000 0.826338 0.461246
O O6 0.532923 0.827450 0.615713
O O7 0.542726 0.768362 0.475246
O O8 0.478916 0.843366 0.404875
O O9 0.250000 0.587676 0.409098
O O10 0.101702 0.648242 0.320430
O O11 0.019778 0.574290 0.276302
O O12 0.991468 0.606586 0.487230
O O13 0.750000 0.792542 0.721536
O O14 0.490014 0.779927 0.803042
O O15 0.250000 0.782538 0.907282
O O16 0.472460 0.811251 0.019972
O O17 0.750000 0.638256 0.546044
O O18 0.965539 0.636755 0.693793
O O19 0.750000 0.965249 0.698311
O O20 0.000000 0.000000 0.713240
O O21 0.750000 0.615306 0.835397
#
# Coordination Sequence:
#
# PCOD8183861 Si02
#       8
#     8   8   8   8   8   8   8   8
#     4  10  20  37  60  85 117 149 182 226 278 331
#     4  10  21  35  54  78 107 142 179 223 276 329
#     4   9  17  32  53  76 101 134 175 214 258 318
#     4   9  18  33  53  74  99 134 173 215 266 320
#     4   9  19  35  53  75 104 139 178 223 275 326
#     4   9  20  37  54  74 105 144 182 225 274 324
#     4   9  18  32  53  82 111 138 170 214 268 322
#     4  11  23  37  56  82 111 146 190 232 276 330
#
# _framework density 18.419105999999999
#
# number of rings (size 3 to 8) (size 9 to 14) (size 15 to 20)
#    0.000    2.500    0.000    1.500    1.750    5.000 
#    0.000    3.125    0.000    1.500    0.000    0.000 
#    0.000    0.000    0.000    0.000    0.000    0.000 
#
# Total GULP energy -396690.173927 kJ/mol
# GULP energy per Si atom -12396.567935 kJ/mol
# Density = 1.837718 g / cm^3
# Si number density = 18.419106 Si / 1000 Ang^3
#
#
#
# Elastic Constant Matrix: (Units=GPa)
#
#
# Indices 1 2 3 4 5 6 
#
# 1 64.3844 46.7009 54.2055 0.0000 0.0000 0.0000
# 2 46.7009 83.0702 48.7903 0.0000 0.0000 0.0000
# 3 54.2055 48.7903 128.8165 0.0000 0.0000 0.0000
# 4 0.0000 0.0000 0.0000 20.7319 0.0000 0.0000
# 5 0.0000 0.0000 0.0000 0.0000 30.5761 0.0000
# 6 0.0000 0.0000 0.0000 0.0000 0.0000 30.4029
#
#
#
# Elastic Compliance Matrix: (Units=1/GPa)
#
#
# Indices 1 2 3 4 5 6 
#
# 1 0.032288 -0.013082 -0.008632 0.000000 0.000000 0.000000
# 2 -0.013082 0.020783 -0.002367 0.000000 0.000000 0.000000
# 3 -0.008632 -0.002367 0.012292 0.000000 0.000000 0.000000
# 4 0.000000 0.000000 0.000000 0.048235 0.000000 0.000000
# 5 0.000000 0.000000 0.000000 0.000000 0.032705 0.000000
# 6 0.000000 0.000000 0.000000 0.000000 0.000000 0.032892
#
#
# Mechanical properties :
#
#
# Convention : Reuss Voigt Hill
#
# Bulk Modulus (GPa) = 58.13571 63.96275 61.04923
# Shear Modulus (GPa) = 21.45114 24.78048 23.11581
#
# Velocity S-wave (km/s) = 3.41635 3.67191 3.54643
# Velocity P-wave (km/s) = 6.86973 7.26491 7.07008
#
# Compressibility (1/GPa) = 0.01720113
#
# Stress axis : x y z
#
# Youngs Moduli (GPa) = 30.97157 48.11715 81.35668
#
# Poissons Ratio (x) = 0.62947 0.70224
# Poissons Ratio (y) = 0.40517 0.19255
# Poissons Ratio (z) = 0.26733 0.11388
#
# Static dielectric constant tensor:
#      x y z
#    x 3.616790 0.000000 0.000000 
#    y 0.000000 3.386120 0.000000 
#    z 0.000000 0.000000 3.510900 
# 
# 
# High freq. dielectric constant tensor:
#      x y z
#    x 1.710350 0.000000 0.000000 
#    y 0.000000 1.708500 0.000000 
#    z 0.000000 0.000000 1.715690 
# 
# From -- ./inp_files/10705.got.cif
#   From: 2010.03.12/outbox.cif.g09.slc.cpg/sg40_6_cif.got.tgz:10705.got - 2010.04.14 01:38:03.
