data_PCOD8183757
_publ_section_title
;
Structure prediction by ZEFSAII (Michael W. Deem and Ramdas Pophale) SiO2 
 PCOD8183757
Probable space group: A M A 2
;
_chemical_formula_sum "Si O2"
_cell_formula_units_Z 64
_cell_length_a 8.770200
_cell_length_b 30.015745
_cell_length_c 12.542755
_cell_angle_alpha 90.000000
_cell_angle_beta 90.000000
_cell_angle_gamma 90.000000
_cell_volume 3301.806086
_symmetry_space_group_name_H-M "A M A 2"
_symmetry_group_IT_number 40
_symmetry_cell_setting 'orthorhombic'
loop_
_space_group_symop_operation_xyz
x,y,z
-x,-y,z
1/2-x,y,z
1/2+x,-y,z
x,1/2+y,1/2+z
-x,1/2-y,1/2+z
1/2-x,1/2+y,1/2+z
1/2+x,1/2-y,1/2+z
loop_
_atom_site_type_symbol
_atom_site_label
_atom_site_fract_x
_atom_site_fract_y
_atom_site_fract_z
Si Si1 0.927897 0.871656 0.690760
Si Si2 0.924900 0.347428 0.425469
Si Si3 0.926436 0.717129 0.711219
Si Si4 0.572993 0.373513 0.657356
Si Si5 0.429621 0.546731 0.046910
Si Si6 0.573503 0.746049 0.407875
Si Si7 0.573104 0.212920 0.583042
Si Si8 0.570598 0.953485 0.305644
O O1 0.750000 0.863347 0.667609
O O2 0.960828 0.875535 0.817628
O O3 0.986322 0.915856 0.630309
O O4 0.022323 0.830852 0.643903
O O5 0.750000 0.330828 0.422750
O O6 0.953600 0.378552 0.529667
O O7 0.031206 0.304700 0.436537
O O8 0.750000 0.721406 0.741907
O O9 0.973400 0.666055 0.705805
O O10 0.036210 0.747385 0.784200
O O11 0.965816 0.743052 0.602559
O O12 0.750000 0.364037 0.682534
O O13 0.515182 0.417209 0.719546
O O14 0.500000 0.500000 0.083450
O O15 0.250000 0.541753 0.052465
O O16 0.482456 0.559295 0.926249
O O17 0.750000 0.754283 0.431530
O O18 0.468225 0.786604 0.457486
O O19 0.750000 0.221623 0.604781
O O20 0.750000 0.958701 0.302464
O O21 0.500000 0.000000 0.269370
#
# Coordination Sequence:
#
# PCOD8183757 Si02
#       8
#     8   8   8   8   8   8   8   8
#     4  10  21  37  58  84 114 151 195 240 291 346
#     4  10  20  36  57  79 113 155 195 237 285 343
#     4  12  24  38  56  83 117 155 198 242 291 344
#     4  10  21  37  58  84 114 151 195 240 291 346
#     4   9  19  37  60  85 112 145 184 234 294 352
#     4  12  24  38  56  79 114 157 199 245 291 341
#     4  12  24  38  56  83 117 155 198 242 291 344
#     4   9  19  37  60  85 112 145 184 234 294 352
#
# _framework density 19.383330000000001
#
# number of rings (size 3 to 8) (size 9 to 14) (size 15 to 20)
#    0.000    1.500    2.500    3.375    1.750    1.000 
#    0.000    0.625    0.000    0.000    0.000    0.000 
#    0.000    0.000    0.000    0.000    0.000    0.000 
#
# Total GULP energy -396678.109194 kJ/mol
# GULP energy per Si atom -12396.190912 kJ/mol
# Density = 1.933921 g / cm^3
# Si number density = 19.383330 Si / 1000 Ang^3
#
#
#
# Elastic Constant Matrix: (Units=GPa)
#
#
# Indices 1 2 3 4 5 6 
#
# 1 82.8161 50.2853 39.6996 0.0000 0.0000 0.0000
# 2 50.2853 137.6281 73.9567 0.0000 0.0000 0.0000
# 3 39.6996 73.9567 107.1576 0.0000 0.0000 0.0000
# 4 0.0000 0.0000 0.0000 40.1126 0.0000 0.0000
# 5 0.0000 0.0000 0.0000 0.0000 23.4339 0.0000
# 6 0.0000 0.0000 0.0000 0.0000 0.0000 32.7228
#
#
#
# Elastic Compliance Matrix: (Units=1/GPa)
#
#
# Indices 1 2 3 4 5 6 
#
# 1 0.016114 -0.004259 -0.003030 0.000000 0.000000 0.000000
# 2 -0.004259 0.012675 -0.007170 0.000000 0.000000 0.000000
# 3 -0.003030 -0.007170 0.015403 0.000000 0.000000 0.000000
# 4 0.000000 0.000000 0.000000 0.024930 0.000000 0.000000
# 5 0.000000 0.000000 0.000000 0.000000 0.042673 0.000000
# 6 0.000000 0.000000 0.000000 0.000000 0.000000 0.030560
#
#
# Mechanical properties :
#
#
# Convention : Reuss Voigt Hill
#
# Bulk Modulus (GPa) = 65.47433 72.83167 69.15300
# Shear Modulus (GPa) = 28.35040 30.16453 29.25747
#
# Velocity S-wave (km/s) = 3.82857 3.94916 3.88933
# Velocity P-wave (km/s) = 7.30725 7.64529 7.47818
#
# Compressibility (1/GPa) = 0.01527316
#
# Stress axis : x y z
#
# Youngs Moduli (GPa) = 62.05915 78.89537 64.92167
#
# Poissons Ratio (x) = 0.33602 0.19673
# Poissons Ratio (y) = 0.26432 0.46549
# Poissons Ratio (z) = 0.18806 0.56568
#
# Static dielectric constant tensor:
#      x y z
#    x 3.369650 0.000000 0.000000 
#    y 0.000000 3.371130 0.000000 
#    z 0.000000 0.000000 3.912160 
# 
# 
# High freq. dielectric constant tensor:
#      x y z
#    x 1.748570 0.000000 0.000000 
#    y 0.000000 1.732440 0.000000 
#    z 0.000000 0.000000 1.775650 
# 
# From -- ./inp_files/10681.got.cif
#   From: 2010.03.12/outbox.cif.g09.slc.cpg/sg40_6_cif.got.tgz:10681.got - 2010.04.14 01:38:03.
