data_PCOD8183287
_publ_section_title
;
Structure prediction by ZEFSAII (Michael W. Deem and Ramdas Pophale) SiO2 
 PCOD8183287
Probable space group: A M A 2
;
_chemical_formula_sum "Si O2"
_cell_formula_units_Z 48
_cell_length_a 8.593704
_cell_length_b 25.545030
_cell_length_c 12.141159
_cell_angle_alpha 90.000000
_cell_angle_beta 90.000000
_cell_angle_gamma 90.000000
_cell_volume 2665.305249
_symmetry_space_group_name_H-M "A M A 2"
_symmetry_group_IT_number 40
_symmetry_cell_setting 'orthorhombic'
loop_
_space_group_symop_operation_xyz
x,y,z
-x,-y,z
1/2-x,y,z
1/2+x,-y,z
x,1/2+y,1/2+z
-x,1/2-y,1/2+z
1/2-x,1/2+y,1/2+z
1/2+x,1/2-y,1/2+z
loop_
_atom_site_type_symbol
_atom_site_label
_atom_site_fract_x
_atom_site_fract_y
_atom_site_fract_z
Si Si1 0.431310 0.134501 0.802820
Si Si2 0.565498 0.944329 0.396660
Si Si3 0.567369 0.054684 0.634369
Si Si4 0.072301 0.762406 0.842129
Si Si5 0.072652 0.839783 0.019440
Si Si6 0.066291 0.652897 0.758491
O O1 0.250000 0.122427 0.789364
O O2 0.530818 0.098897 0.722258
O O3 0.469749 0.195356 0.773161
O O4 0.488497 0.122987 0.928492
O O5 0.750000 0.946804 0.393999
O O6 0.511379 0.930409 0.519092
O O7 0.498812 0.899163 0.316020
O O8 0.500000 0.000000 0.355962
O O9 0.750000 0.049201 0.615815
O O10 0.500000 0.000000 0.679083
O O11 0.250000 0.765374 0.799189
O O12 0.003844 0.704296 0.823746
O O13 0.065449 0.779811 0.971662
O O14 0.250000 0.858256 0.035544
O O15 0.983075 0.844110 0.132721
O O16 0.250000 0.651213 0.765614
#
# Coordination Sequence:
#
# PCOD8183287 Si02
#       6
#     8   8   8   8   8   8
#     4  10  19  35  56  80 111 147 183 225 276 326
#     4  10  21  37  56  81 112 146 186 233 279 331
#     4  11  21  36  58  84 113 147 186 232 278 330
#     4   8  18  35  52  78 111 143 178 226 272 326
#     4   9  19  35  54  79 112 145 182 227 274 326
#     4  10  20  36  58  82 111 146 185 228 279 334
#
# _framework density 18.009193
#
# number of rings (size 3 to 8) (size 9 to 14) (size 15 to 20)
#    1.000    1.333    0.000    4.500    0.000    3.333 
#    0.000    2.500    0.000    2.000    0.000    0.000 
#    0.000    0.000    0.000    0.000    0.000    0.000 
#
# Total GULP energy -297413.211965 kJ/mol
# GULP energy per Si atom -12392.217165 kJ/mol
# Density = 1.796820 g / cm^3
# Si number density = 18.009193 Si / 1000 Ang^3
#
#
#
# Elastic Constant Matrix: (Units=GPa)
#
#
# Indices 1 2 3 4 5 6 
#
# 1 44.7245 26.4459 7.3756 0.0000 0.0000 0.0000
# 2 26.4459 130.5283 71.4401 0.0000 0.0000 0.0000
# 3 7.3756 71.4401 96.7908 0.0000 0.0000 0.0000
# 4 0.0000 0.0000 0.0000 31.1308 0.0000 0.0000
# 5 0.0000 0.0000 0.0000 0.0000 29.9656 0.0000
# 6 0.0000 0.0000 0.0000 0.0000 0.0000 25.5884
#
#
#
# Elastic Compliance Matrix: (Units=1/GPa)
#
#
# Indices 1 2 3 4 5 6 
#
# 1 0.025979 -0.007013 0.003197 0.000000 0.000000 0.000000
# 2 -0.007013 0.014747 -0.010350 0.000000 0.000000 0.000000
# 3 0.003197 -0.010350 0.017727 0.000000 0.000000 0.000000
# 4 0.000000 0.000000 0.000000 0.032123 0.000000 0.000000
# 5 0.000000 0.000000 0.000000 0.000000 0.033372 0.000000
# 6 0.000000 0.000000 0.000000 0.000000 0.000000 0.039080
#
#
# Mechanical properties :
#
#
# Convention : Reuss Voigt Hill
#
# Bulk Modulus (GPa) = 33.20065 53.61854 43.40960
# Shear Modulus (GPa) = 24.82624 28.45577 26.64101
#
# Velocity S-wave (km/s) = 3.71689 3.97932 3.85034
# Velocity P-wave (km/s) = 6.07419 7.13799 6.62746
#
# Compressibility (1/GPa) = 0.03011989
#
# Stress axis : x y z
#
# Youngs Moduli (GPa) = 38.49296 67.81149 56.41057
#
# Poissons Ratio (x) = 0.47556 -0.18032
# Poissons Ratio (y) = 0.26995 0.58385
# Poissons Ratio (z) = -0.12305 0.70185
#
# Static dielectric constant tensor:
#      x y z
#    x 3.279010 0.000000 0.000000 
#    y 0.000000 3.445950 0.000000 
#    z 0.000000 0.000000 3.184290 
# 
# 
# High freq. dielectric constant tensor:
#      x y z
#    x 1.704540 0.000000 0.000000 
#    y 0.000000 1.688760 0.000000 
#    z 0.000000 0.000000 1.684270 
# 
# From -- ./inp_files/10311.got.cif
#   From: 2010.03.12/outbox.cif.g09.slc.cpg/sg40_6_cif.got.tgz:10311.got - 2010.04.14 01:38:03.
