data_PCOD8183714
_publ_section_title
;
Structure prediction by ZEFSAII (Michael W. Deem and Ramdas Pophale) SiO2 
 PCOD8183714
Probable space group: A M A 2
;
_chemical_formula_sum "Si O2"
_cell_formula_units_Z 64
_cell_length_a 15.186484
_cell_length_b 22.195146
_cell_length_c 9.410561
_cell_angle_alpha 90.000000
_cell_angle_beta 90.000000
_cell_angle_gamma 90.000000
_cell_volume 3171.982315
_symmetry_space_group_name_H-M "A M A 2"
_symmetry_group_IT_number 40
_symmetry_cell_setting 'orthorhombic'
loop_
_space_group_symop_operation_xyz
x,y,z
-x,-y,z
1/2-x,y,z
1/2+x,-y,z
x,1/2+y,1/2+z
-x,1/2-y,1/2+z
1/2-x,1/2+y,1/2+z
1/2+x,1/2-y,1/2+z
loop_
_atom_site_type_symbol
_atom_site_label
_atom_site_fract_x
_atom_site_fract_y
_atom_site_fract_z
Si Si1 0.649875 0.259684 0.872840
Si Si2 0.653955 0.182582 0.459553
Si Si3 0.967665 0.646362 0.462775
Si Si4 0.847567 0.015547 0.463148
Si Si5 0.849068 0.308398 0.562397
Si Si6 0.440804 0.898029 0.660016
Si Si7 0.443927 0.899312 0.259350
Si Si8 0.903232 0.386629 0.952891
O O1 0.750000 0.234198 0.883175
O O2 0.580496 0.210924 0.936617
O O3 0.625545 0.278482 0.712695
O O4 0.645708 0.322489 0.960302
O O5 0.750000 0.155620 0.432419
O O6 0.655863 0.254069 0.451350
O O7 0.621378 0.157579 0.612789
O O8 0.591579 0.160692 0.334739
O O9 0.953195 0.602815 0.328776
O O10 0.925266 0.608663 0.592607
O O11 0.071755 0.650801 0.501960
O O12 0.750000 0.042679 0.463623
O O13 0.898855 0.039144 0.604042
O O14 0.897712 0.040757 0.322436
O O15 0.838331 0.943516 0.464295
O O16 0.750000 0.339408 0.569165
O O17 0.534706 0.888708 0.588919
O O18 0.546931 0.898015 0.301970
#
# Coordination Sequence:
#
# PCOD8183714 Si02
#       8
#     8   8   8   8   8   8   8   8
#     4  11  23  36  60  95 128 162 202 248 300 362
#     4   9  17  33  54  80 117 163 205 242 284 353
#     4  12  23  37  61  94 129 163 191 253 312 365
#     4  10  21  41  65  86 112 157 208 255 298 357
#     4  10  21  37  56  83 124 172 204 235 298 369
#     4  10  20  35  60  84 116 155 202 246 303 355
#     4  10  20  35  59  89 117 155 205 249 301 351
#     4  10  20  40  62  84 113 159 207 249 290 358
#
# _framework density 20.176656000000001
#
# number of rings (size 3 to 8) (size 9 to 14) (size 15 to 20)
#    0.000    2.000    2.500    4.875    0.000    1.500 
#    0.000    5.000    0.000    0.000    0.000    0.000 
#    0.000    0.000    0.000    0.000    0.000    0.000 
#
# Total GULP energy -396431.866711 kJ/mol
# GULP energy per Si atom -12388.495835 kJ/mol
# Density = 2.013073 g / cm^3
# Si number density = 20.176656 Si / 1000 Ang^3
#
#
#
# Elastic Constant Matrix: (Units=GPa)
#
#
# Indices 1 2 3 4 5 6 
#
# 1 99.6782 20.2557 29.7671 0.0000 0.0000 0.0000
# 2 20.2557 83.4122 32.1640 0.0000 0.0000 0.0000
# 3 29.7671 32.1640 140.1946 0.0000 0.0000 0.0000
# 4 0.0000 0.0000 0.0000 10.8693 0.0000 0.0000
# 5 0.0000 0.0000 0.0000 0.0000 9.0244 0.0000
# 6 0.0000 0.0000 0.0000 0.0000 0.0000 23.8743
#
#
#
# Elastic Compliance Matrix: (Units=1/GPa)
#
#
# Indices 1 2 3 4 5 6 
#
# 1 0.010991 -0.001941 -0.001888 0.000000 0.000000 0.000000
# 2 -0.001941 0.013495 -0.002684 0.000000 0.000000 0.000000
# 3 -0.001888 -0.002684 0.008150 0.000000 0.000000 0.000000
# 4 0.000000 0.000000 0.000000 0.092002 0.000000 0.000000
# 5 0.000000 0.000000 0.000000 0.000000 0.110811 0.000000
# 6 0.000000 0.000000 0.000000 0.000000 0.000000 0.041886
#
#
# Mechanical properties :
#
#
# Convention : Reuss Voigt Hill
#
# Bulk Modulus (GPa) = 50.99711 54.18429 52.59070
# Shear Modulus (GPa) = 16.84087 24.82682 20.83385
#
# Velocity S-wave (km/s) = 2.89220 3.51161 3.21685
# Velocity P-wave (km/s) = 6.04014 6.58446 6.31817
#
# Compressibility (1/GPa) = 0.01960895
#
# Stress axis : x y z
#
# Youngs Moduli (GPa) = 90.98690 74.10204 122.70463
#
# Poissons Ratio (x) = 0.14382 0.23171
# Poissons Ratio (y) = 0.17659 0.32934
# Poissons Ratio (z) = 0.17181 0.19889
#
# Static dielectric constant tensor:
#      x y z
#    x 3.813960 0.000000 0.000000 
#    y 0.000000 3.487300 0.000000 
#    z 0.000000 0.000000 3.461930 
# 
# 
# High freq. dielectric constant tensor:
#      x y z
#    x 1.795970 0.000000 0.000000 
#    y 0.000000 1.772150 0.000000 
#    z 0.000000 0.000000 1.762200 
# 
# From -- ./inp_files/6904.got.cif
#   From: 2010.03.12/outbox.cif.g09.slc.cpg/sg40_4_cif.got.tgz:6904.got - 2010.04.14 01:38:03.
