data_PCOD8183367
_publ_section_title
;
Structure prediction by ZEFSAII (Michael W. Deem and Ramdas Pophale) SiO2 
 PCOD8183367
Probable space group: A M A 2
;
_chemical_formula_sum "Si O2"
_cell_formula_units_Z 56
_cell_length_a 14.789682
_cell_length_b 11.327777
_cell_length_c 14.371359
_cell_angle_alpha 90.000000
_cell_angle_beta 90.000000
_cell_angle_gamma 90.000000
_cell_volume 2407.694415
_symmetry_space_group_name_H-M "A M A 2"
_symmetry_group_IT_number 40
_symmetry_cell_setting 'orthorhombic'
loop_
_space_group_symop_operation_xyz
x,y,z
-x,-y,z
1/2-x,y,z
1/2+x,-y,z
x,1/2+y,1/2+z
-x,1/2-y,1/2+z
1/2-x,1/2+y,1/2+z
1/2+x,1/2-y,1/2+z
loop_
_atom_site_type_symbol
_atom_site_label
_atom_site_fract_x
_atom_site_fract_y
_atom_site_fract_z
Si Si1 0.644901 0.173473 0.012920
Si Si2 0.143917 0.906209 0.214853
Si Si3 0.512883 0.866757 0.551986
Si Si4 0.648289 0.829722 0.254777
Si Si5 0.473895 0.695618 0.265799
Si Si6 0.654657 0.273775 0.539726
Si Si7 0.851742 0.963543 0.889995
O O1 0.750000 0.199360 0.019101
O O2 0.611538 0.106743 0.107175
O O3 0.598503 0.302440 0.004775
O O4 0.621186 0.096378 0.921066
O O5 0.250000 0.883734 0.222832
O O6 0.094303 0.805451 0.274211
O O7 0.118695 0.032874 0.259643
O O8 0.517095 0.856038 0.662760
O O9 0.425955 0.806859 0.505747
O O10 0.500000 0.000000 0.520460
O O11 0.750000 0.808536 0.297501
O O12 0.572789 0.743287 0.301291
O O13 0.649651 0.800283 0.147292
O O14 0.430053 0.587889 0.323998
O O15 0.750000 0.209098 0.517165
O O16 0.650928 0.397300 0.487623
O O17 0.750000 0.961016 0.843853
#
# Coordination Sequence:
#
# PCOD8183367 Si02
#       7
#     8   8   8   8   8   8   8
#     4   9  18  34  61  91 121 164 219 273 323 377
#     4   9  15  28  52  87 125 164 216 270 314 384
#     4  10  22  39  57  89 126 168 217 257 315 390
#     4   9  16  30  54  84 122 169 222 265 308 383
#     4  10  20  32  54  89 130 167 206 266 336 388
#     4   9  18  35  61  87 114 160 217 268 314 370
#     4  10  19  36  60  95 128 161 212 275 334 382
#
# _framework density 23.258766000000001
#
# number of rings (size 3 to 8) (size 9 to 14) (size 15 to 20)
#    0.000    2.571    1.429    0.857    0.000    1.714 
#    2.571    1.429    0.000    1.714    0.000    0.000 
#    0.000    0.000    0.000    0.000    0.000    0.000 
#
# Total GULP energy -346963.374026 kJ/mol
# GULP energy per Si atom -12391.549072 kJ/mol
# Density = 2.320583 g / cm^3
# Si number density = 23.258766 Si / 1000 Ang^3
#
#
#
# Elastic Constant Matrix: (Units=GPa)
#
#
# Indices 1 2 3 4 5 6 
#
# 1 130.9433 74.5181 35.9376 0.0000 0.0000 0.0000
# 2 74.5181 135.9156 34.8075 0.0000 0.0000 0.0000
# 3 35.9376 34.8075 37.1511 0.0000 0.0000 0.0000
# 4 0.0000 0.0000 0.0000 32.2540 0.0000 0.0000
# 5 0.0000 0.0000 0.0000 0.0000 19.2723 0.0000
# 6 0.0000 0.0000 0.0000 0.0000 0.0000 12.2673
#
#
#
# Elastic Compliance Matrix: (Units=1/GPa)
#
#
# Indices 1 2 3 4 5 6 
#
# 1 0.012496 -0.004941 -0.007458 0.000000 0.000000 0.000000
# 2 -0.004941 0.011634 -0.006120 0.000000 0.000000 0.000000
# 3 -0.007458 -0.006120 0.039866 0.000000 0.000000 0.000000
# 4 0.000000 0.000000 0.000000 0.031004 0.000000 0.000000
# 5 0.000000 0.000000 0.000000 0.000000 0.051888 0.000000
# 6 0.000000 0.000000 0.000000 0.000000 0.000000 0.081518
#
#
# Mechanical properties :
#
#
# Convention : Reuss Voigt Hill
#
# Bulk Modulus (GPa) = 37.09697 66.05961 51.57829
# Shear Modulus (GPa) = 18.21958 23.34182 20.78070
#
# Velocity S-wave (km/s) = 2.80186 3.17136 2.99232
# Velocity P-wave (km/s) = 5.14311 6.47099 5.84488
#
# Compressibility (1/GPa) = 0.02695638
#
# Stress axis : x y z
#
# Youngs Moduli (GPa) = 80.02800 85.95580 25.08395
#
# Poissons Ratio (x) = 0.42470 0.18708
# Poissons Ratio (y) = 0.39541 0.15353
# Poissons Ratio (z) = 0.59687 0.52609
#
# Static dielectric constant tensor:
#      x y z
#    x 5.000070 0.000000 0.000000 
#    y 0.000000 4.259120 0.000000 
#    z 0.000000 0.000000 3.801430 
# 
# 
# High freq. dielectric constant tensor:
#      x y z
#    x 1.934550 0.000000 0.000000 
#    y 0.000000 1.911720 0.000000 
#    z 0.000000 0.000000 1.894100 
# 
# From -- ./inp_files/17078.got.cif
#   From: 2010.03.12/outbox.cif.g09.slc.cpg/sg40_9_cif.got.tgz:17078.got - 2010.04.14 01:38:03.
