data_PCOD8184615
_publ_section_title
;
Structure prediction by ZEFSAII (Michael W. Deem and Ramdas Pophale) SiO2 
 PCOD8184615
Probable space group: A M A 2
;
_chemical_formula_sum "Si O2"
_cell_formula_units_Z 64
_cell_length_a 18.943762
_cell_length_b 19.912643
_cell_length_c 9.116733
_cell_angle_alpha 90.000000
_cell_angle_beta 90.000000
_cell_angle_gamma 90.000000
_cell_volume 3439.017393
_symmetry_space_group_name_H-M "A M A 2"
_symmetry_group_IT_number 40
_symmetry_cell_setting 'orthorhombic'
loop_
_space_group_symop_operation_xyz
x,y,z
-x,-y,z
1/2-x,y,z
1/2+x,-y,z
x,1/2+y,1/2+z
-x,1/2-y,1/2+z
1/2-x,1/2+y,1/2+z
1/2+x,1/2-y,1/2+z
loop_
_atom_site_type_symbol
_atom_site_label
_atom_site_fract_x
_atom_site_fract_y
_atom_site_fract_z
Si Si1 0.962115 0.314696 0.014330
Si Si2 0.829262 0.898091 0.452958
Si Si3 0.670738 0.601909 0.775939
Si Si4 0.471017 0.571762 0.523437
Si Si5 0.537885 0.185304 0.214567
Si Si6 0.170816 0.962026 0.591243
Si Si7 0.329184 0.537974 0.637655
Si Si8 0.971017 0.571762 0.205461
O O1 0.960395 0.250000 0.114449
O O2 0.006867 0.373741 0.087414
O O3 0.882090 0.337848 0.987954
O O4 0.000000 0.294203 0.864449
O O5 0.750000 0.869399 0.465935
O O6 0.843032 0.925147 0.290594
O O7 0.839941 0.958377 0.568884
O O8 0.750000 0.630601 0.762962
O O9 0.617910 0.662152 0.740943
O O10 0.660059 0.541623 0.660013
O O11 0.656968 0.574853 0.938304
O O12 0.500000 0.500000 0.576063
O O13 0.493133 0.626259 0.641484
O O14 0.385477 0.566088 0.519630
O O15 0.500000 0.592105 0.364449
O O16 0.250000 0.947154 0.649542
O O17 0.114523 0.933912 0.709267
O O18 0.250000 0.552846 0.579355
O O19 0.000000 0.500000 0.152834
#
# Coordination Sequence:
#
# PCOD8184615 Si02
#       8
#     8   8   8   8   8   8   8   8
#     4  12  24  39  60  85 121 161 203 250 298 354
#     4   9  18  34  61  93 118 151 197 244 301 365
#     4   9  18  34  61  93 118 151 197 244 301 365
#     4  11  22  37  59  91 122 155 198 248 297 356
#     4  12  24  39  60  85 121 161 203 250 298 354
#     4   9  17  34  62  93 120 150 195 246 301 362
#     4   9  17  34  62  93 120 150 195 246 301 362
#     4  11  22  37  59  91 122 155 198 248 297 356
#
# _framework density 18.609967000000001
#
# number of rings (size 3 to 8) (size 9 to 14) (size 15 to 20)
#    0.000    1.750    5.000    2.250    0.000    1.000 
#    0.000    3.750    0.000    6.000    0.000    0.000 
#    0.000    0.000    0.000    0.000    0.000    0.000 
#
# Total GULP energy -396806.930169 kJ/mol
# GULP energy per Si atom -12400.216568 kJ/mol
# Density = 1.856761 g / cm^3
# Si number density = 18.609967 Si / 1000 Ang^3
#
#
#
# Elastic Constant Matrix: (Units=GPa)
#
#
# Indices 1 2 3 4 5 6 
#
# 1 169.9104 47.6452 60.8309 0.0000 0.0000 0.0000
# 2 47.6452 96.3307 42.1306 0.0000 0.0000 0.0000
# 3 60.8309 42.1306 91.7070 0.0000 0.0000 0.0000
# 4 0.0000 0.0000 0.0000 15.0795 0.0000 0.0000
# 5 0.0000 0.0000 0.0000 0.0000 32.4369 0.0000
# 6 0.0000 0.0000 0.0000 0.0000 0.0000 14.2641
#
#
#
# Elastic Compliance Matrix: (Units=1/GPa)
#
#
# Indices 1 2 3 4 5 6 
#
# 1 0.008031 -0.002055 -0.004383 0.000000 0.000000 0.000000
# 2 -0.002055 0.013517 -0.004847 0.000000 0.000000 0.000000
# 3 -0.004383 -0.004847 0.016038 0.000000 0.000000 0.000000
# 4 0.000000 0.000000 0.000000 0.066315 0.000000 0.000000
# 5 0.000000 0.000000 0.000000 0.000000 0.030829 0.000000
# 6 0.000000 0.000000 0.000000 0.000000 0.000000 0.070106
#
#
# Mechanical properties :
#
#
# Convention : Reuss Voigt Hill
#
# Bulk Modulus (GPa) = 66.59222 73.24018 69.91620
# Shear Modulus (GPa) = 21.51360 26.17887 23.84624
#
# Velocity S-wave (km/s) = 3.40373 3.75469 3.58351
# Velocity P-wave (km/s) = 7.16295 7.63136 7.40086
#
# Compressibility (1/GPa) = 0.01501677
#
# Stress axis : x y z
#
# Youngs Moduli (GPa) = 124.51894 73.98055 62.35180
#
# Poissons Ratio (x) = 0.15205 0.27328
# Poissons Ratio (y) = 0.25591 0.30219
# Poissons Ratio (z) = 0.54575 0.35855
#
# Static dielectric constant tensor:
#      x y z
#    x 3.669220 0.000000 0.000000 
#    y 0.000000 3.209870 0.000000 
#    z 0.000000 0.000000 3.202440 
# 
# 
# High freq. dielectric constant tensor:
#      x y z
#    x 1.740420 0.000000 0.000000 
#    y 0.000000 1.699400 0.000000 
#    z 0.000000 0.000000 1.708800 
# 
# From -- ./inp_files/7843.got.cif
#   From: 2010.03.12/outbox.cif.g09.slc.cpg/sg40_4_cif.got.tgz:7843.got - 2010.04.14 01:38:03.
