data_PCOD8184541
_publ_section_title
;
Structure prediction by ZEFSAII (Michael W. Deem and Ramdas Pophale) SiO2 
 PCOD8184541
Probable space group: A M A 2
;
_chemical_formula_sum "Si O2"
_cell_formula_units_Z 40
_cell_length_a 8.133737
_cell_length_b 17.500709
_cell_length_c 12.796448
_cell_angle_alpha 90.000000
_cell_angle_beta 90.000000
_cell_angle_gamma 90.000000
_cell_volume 1821.525290
_symmetry_space_group_name_H-M "A M A 2"
_symmetry_group_IT_number 40
_symmetry_cell_setting 'orthorhombic'
loop_
_space_group_symop_operation_xyz
x,y,z
-x,-y,z
1/2-x,y,z
1/2+x,-y,z
x,1/2+y,1/2+z
-x,1/2-y,1/2+z
1/2-x,1/2+y,1/2+z
1/2+x,1/2-y,1/2+z
loop_
_atom_site_type_symbol
_atom_site_label
_atom_site_fract_x
_atom_site_fract_y
_atom_site_fract_z
Si Si1 0.438564 0.671629 0.270160
Si Si2 0.443131 0.414946 0.460133
Si Si3 0.940657 0.087776 0.566172
Si Si4 0.056722 0.085304 0.173049
Si Si5 0.561579 0.172633 0.363515
O O1 0.250000 0.685003 0.237842
O O2 0.451617 0.610803 0.361740
O O3 0.530500 0.638137 0.169351
O O4 0.521382 0.749084 0.318534
O O5 0.500000 0.500000 0.478036
O O6 0.250000 0.405422 0.439477
O O7 0.498975 0.370390 0.566649
O O8 0.750000 0.080792 0.543599
O O9 0.020623 0.134857 0.467853
O O10 0.000000 0.000000 0.576929
O O11 0.250000 0.095359 0.191717
O O12 0.953909 0.112489 0.271510
O O13 0.000000 0.000000 0.158356
O O14 0.750000 0.191974 0.388618
#
# Coordination Sequence:
#
# PCOD8184541 Si02
#       5
#     8   8   8   8   8
#     4  11  24  42  64  94 130 168 211 265 324 383
#     4  11  22  39  63  91 124 164 209 257 314 376
#     4  11  24  44  68  96 130 174 222 270 324 390
#     4  11  22  38  63  92 125 163 208 257 314 376
#     4  10  24  43  64  93 130 167 211 265 322 383
#
# _framework density 21.959619
#
# number of rings (size 3 to 8) (size 9 to 14) (size 15 to 20)
#    0.000    1.200    0.000    7.200    2.800    4.800 
#    0.000    0.000    0.000    0.000    0.000    0.000 
#    0.000    0.000    0.000    0.000    0.000    0.000 
#
# Total GULP energy -247833.142072 kJ/mol
# GULP energy per Si atom -12391.657104 kJ/mol
# Density = 2.190964 g / cm^3
# Si number density = 21.959619 Si / 1000 Ang^3
#
#
#
# Elastic Constant Matrix: (Units=GPa)
#
#
# Indices 1 2 3 4 5 6 
#
# 1 55.0913 14.1581 -3.5552 0.0000 0.0000 0.0000
# 2 14.1581 114.2915 69.9025 0.0000 0.0000 0.0000
# 3 -3.5552 69.9025 192.9109 0.0000 0.0000 0.0000
# 4 0.0000 0.0000 0.0000 44.5796 0.0000 0.0000
# 5 0.0000 0.0000 0.0000 0.0000 -17.1935 0.0000
# 6 0.0000 0.0000 0.0000 0.0000 0.0000 17.2274
#
#
#
# Elastic Compliance Matrix: (Units=1/GPa)
#
#
# Indices 1 2 3 4 5 6 
#
# 1 0.019104 -0.003317 0.001554 0.000000 0.000000 0.000000
# 2 -0.003317 0.011817 -0.004343 0.000000 0.000000 0.000000
# 3 0.001554 -0.004343 0.006786 0.000000 0.000000 0.000000
# 4 0.000000 0.000000 0.000000 0.022432 0.000000 0.000000
# 5 0.000000 0.000000 0.000000 0.000000 -0.058162 0.000000
# 6 0.000000 0.000000 0.000000 0.000000 0.000000 0.058047
#
#
# Mechanical properties :
#
#
# Convention : Reuss Voigt Hill
#
# Bulk Modulus (GPa) = 39.22307 58.14492 48.68399
# Shear Modulus (GPa) = 61.93103 27.70859 44.81981
#
# Velocity S-wave (km/s) = 5.31634 3.55603 4.52266
# Velocity P-wave (km/s) = 7.45552 6.58757 7.03495
#
# Compressibility (1/GPa) = 0.02549520
#
# Stress axis : x y z
#
# Youngs Moduli (GPa) = 52.34383 84.62591 147.36025
#
# Poissons Ratio (x) = 0.28071 -0.22900
# Poissons Ratio (y) = 0.17363 0.63998
# Poissons Ratio (z) = -0.08134 0.36753
#
# Static dielectric constant tensor:
#      x y z
#    x 3.796870 0.000000 0.000000 
#    y 0.000000 4.068040 0.000000 
#    z 0.000000 0.000000 4.992940 
# 
# 
# High freq. dielectric constant tensor:
#      x y z
#    x 1.850620 0.000000 0.000000 
#    y 0.000000 1.859840 0.000000 
#    z 0.000000 0.000000 1.891520 
# 
# From -- ./inp_files/9999.got.cif
#   From: 2010.03.12/outbox.cif.g09.slc.cpg/sg40_5_cif.got.tgz:9999.got - 2010.04.14 01:38:03.
