data_PCOD8184611
_publ_section_title
;
Structure prediction by ZEFSAII (Michael W. Deem and Ramdas Pophale) SiO2 
 PCOD8184611
Probable space group: A M A 2
;
_chemical_formula_sum "Si O2"
_cell_formula_units_Z 64
_cell_length_a 30.213737
_cell_length_b 9.220654
_cell_length_c 11.063087
_cell_angle_alpha 90.000000
_cell_angle_beta 90.000000
_cell_angle_gamma 90.000000
_cell_volume 3082.069998
_symmetry_space_group_name_H-M "A M A 2"
_symmetry_group_IT_number 40
_symmetry_cell_setting 'orthorhombic'
loop_
_space_group_symop_operation_xyz
x,y,z
-x,-y,z
1/2-x,y,z
1/2+x,-y,z
x,1/2+y,1/2+z
-x,1/2-y,1/2+z
1/2-x,1/2+y,1/2+z
1/2+x,1/2-y,1/2+z
loop_
_atom_site_type_symbol
_atom_site_label
_atom_site_fract_x
_atom_site_fract_y
_atom_site_fract_z
Si Si1 0.332192 0.621197 0.336220
Si Si2 0.459459 0.420362 0.073577
Si Si3 0.959744 0.391210 0.533323
Si Si4 0.201124 0.419885 0.538823
Si Si5 0.075633 0.628077 0.270685
Si Si6 0.888282 0.062585 0.182587
Si Si7 0.368169 0.921505 0.436918
Si Si8 0.298161 0.605321 0.074735
O O1 0.303828 0.519516 0.421890
O O2 0.378722 0.544094 0.302103
O O3 0.344631 0.771141 0.402851
O O4 0.304412 0.648666 0.214998
O O5 0.500000 0.500000 0.001039
O O6 0.453744 0.521540 0.190688
O O7 0.473372 0.254954 0.106490
O O8 0.414607 0.400603 0.001335
O O9 0.950792 0.343708 0.394815
O O10 0.917217 0.463444 0.595385
O O11 0.000000 0.500000 0.541962
O O12 0.250000 0.454760 0.596318
O O13 0.161221 0.437842 0.631464
O O14 0.200631 0.252443 0.496367
O O15 0.089281 0.777808 0.200489
O O16 0.880745 0.990794 0.314732
O O17 0.336285 0.002192 0.528100
O O18 0.250000 0.529957 0.059641
#
# Coordination Sequence:
#
# PCOD8184611 Si02
#       8
#     8   8   8   8   8   8   8   8
#     4  11  21  44  71  92 132 175 225 270 333 396
#     4  12  24  44  66  98 133 171 223 279 333 399
#     4  12  26  45  68  99 132 174 226 280 337 399
#     4  11  22  39  66  98 131 174 219 274 336 390
#     4  11  22  45  70  94 129 175 224 271 336 393
#     4  11  22  45  68  95 135 175 224 273 329 405
#     4  11  23  44  70  95 132 179 223 270 337 399
#     4  11  24  42  67  99 134 175 222 279 336 393
#
# _framework density 20.765263999999998
#
# number of rings (size 3 to 8) (size 9 to 14) (size 15 to 20)
#    0.000    0.750    7.500    1.500    0.000    3.000 
#    9.000    0.000    0.000    0.000    0.000    0.000 
#    0.000    0.000    0.000    0.000    0.000    0.000 
#
# Total GULP energy -396496.675213 kJ/mol
# GULP energy per Si atom -12390.521100 kJ/mol
# Density = 2.071800 g / cm^3
# Si number density = 20.765264 Si / 1000 Ang^3
#
#
#
# Elastic Constant Matrix: (Units=GPa)
#
#
# Indices 1 2 3 4 5 6 
#
# 1 136.6887 69.2994 33.7714 0.0000 0.0000 0.0000
# 2 69.2994 126.4596 63.1494 0.0000 0.0000 0.0000
# 3 33.7714 63.1494 100.7358 0.0000 0.0000 0.0000
# 4 0.0000 0.0000 0.0000 26.4613 0.0000 0.0000
# 5 0.0000 0.0000 0.0000 0.0000 10.3430 0.0000
# 6 0.0000 0.0000 0.0000 0.0000 0.0000 30.3003
#
#
#
# Elastic Compliance Matrix: (Units=1/GPa)
#
#
# Indices 1 2 3 4 5 6 
#
# 1 0.010131 -0.005613 0.000122 0.000000 0.000000 0.000000
# 2 -0.005613 0.014621 -0.007284 0.000000 0.000000 0.000000
# 3 0.000122 -0.007284 0.014452 0.000000 0.000000 0.000000
# 4 0.000000 0.000000 0.000000 0.037791 0.000000 0.000000
# 5 0.000000 0.000000 0.000000 0.000000 0.096684 0.000000
# 6 0.000000 0.000000 0.000000 0.000000 0.000000 0.033003
#
#
# Mechanical properties :
#
#
# Convention : Reuss Voigt Hill
#
# Bulk Modulus (GPa) = 73.23283 77.36939 75.30111
# Shear Modulus (GPa) = 21.11639 26.59852 23.85746
#
# Velocity S-wave (km/s) = 3.19236 3.58287 3.39324
# Velocity P-wave (km/s) = 6.99513 7.37942 7.18984
#
# Compressibility (1/GPa) = 0.01365508
#
# Stress axis : x y z
#
# Youngs Moduli (GPa) = 98.70287 68.39565 69.19419
#
# Poissons Ratio (x) = 0.38390 -0.00845
# Poissons Ratio (y) = 0.55402 0.50400
# Poissons Ratio (z) = -0.01206 0.49818
#
# Static dielectric constant tensor:
#      x y z
#    x 4.103340 0.000000 0.000000 
#    y 0.000000 3.826790 0.000000 
#    z 0.000000 0.000000 3.783020 
# 
# 
# High freq. dielectric constant tensor:
#      x y z
#    x 1.839360 0.000000 0.000000 
#    y 0.000000 1.802530 0.000000 
#    z 0.000000 0.000000 1.803510 
# 
# From -- ./inp_files/14419.got.cif
#   From: 2010.03.12/outbox.cif.g09.slc.cpg/sg40_8_cif.got.tgz:14419.got - 2010.04.14 01:38:03.
