data_PCOD8184268
_publ_section_title
;
Structure prediction by ZEFSAII (Michael W. Deem and Ramdas Pophale) SiO2 
 PCOD8184268
Probable space group: A M A 2
;
_chemical_formula_sum "Si O2"
_cell_formula_units_Z 64
_cell_length_a 21.884945
_cell_length_b 14.874635
_cell_length_c 8.830192
_cell_angle_alpha 90.000000
_cell_angle_beta 90.000000
_cell_angle_gamma 90.000000
_cell_volume 2874.497425
_symmetry_space_group_name_H-M "A M A 2"
_symmetry_group_IT_number 40
_symmetry_cell_setting 'orthorhombic'
loop_
_space_group_symop_operation_xyz
x,y,z
-x,-y,z
1/2-x,y,z
1/2+x,-y,z
x,1/2+y,1/2+z
-x,1/2-y,1/2+z
1/2-x,1/2+y,1/2+z
1/2+x,1/2-y,1/2+z
loop_
_atom_site_type_symbol
_atom_site_label
_atom_site_fract_x
_atom_site_fract_y
_atom_site_fract_z
Si Si1 0.493423 0.103245 0.862660
Si Si2 0.084180 0.242221 0.371885
Si Si3 0.608207 0.827752 0.048736
Si Si4 0.181745 0.014690 0.920303
Si Si5 0.181683 0.825461 0.404664
Si Si6 0.450421 0.078084 0.531362
Si Si7 0.180432 0.509612 0.065594
Si Si8 0.819422 0.171806 0.061948
O O1 0.555566 0.159376 0.837024
O O2 0.454842 0.101653 0.708169
O O3 0.500000 0.000000 0.915934
O O4 0.461462 0.158319 0.997660
O O5 0.114455 0.204686 0.219688
O O6 0.035302 0.167780 0.432969
O O7 0.136520 0.249559 0.501021
O O8 0.636556 0.754678 0.938579
O O9 0.639741 0.923415 0.023459
O O10 0.250000 0.038475 0.969505
O O11 0.171984 0.027334 0.742564
O O12 0.166382 0.912399 0.956297
O O13 0.250000 0.786162 0.413139
O O14 0.174361 0.904922 0.525273
O O15 0.166649 0.857331 0.234196
O O16 0.500000 0.000000 0.489730
O O17 0.379443 0.054384 0.488153
O O18 0.250000 0.542235 0.015082
O O19 0.750000 0.206266 0.044507
#
# Coordination Sequence:
#
# PCOD8184268 Si02
#       8
#     8   8   8   8   8   8   8   8
#     4  11  25  46  69  91 131 181 233 288 353 415
#     4  12  27  43  65 104 133 181 233 289 347 420
#     4  12  24  40  68  94 134 175 226 285 339 421
#     4  10  21  40  66  99 134 173 224 282 343 408
#     4  10  23  41  67  99 132 175 223 281 348 414
#     4  11  26  46  70  99 140 183 228 288 352 419
#     4  10  22  43  72  99 132 182 235 282 343 416
#     4  10  23  43  67  97 139 176 223 289 351 413
#
# _framework density 22.264761
#
# number of rings (size 3 to 8) (size 9 to 14) (size 15 to 20)
#    0.000    1.250    1.250    3.375    8.750    3.000 
#    0.000    0.000    0.000    0.000    0.000    0.000 
#    0.000    0.000    0.000    0.000    0.000    0.000 
#
# Total GULP energy -396665.037590 kJ/mol
# GULP energy per Si atom -12395.782425 kJ/mol
# Density = 2.221409 g / cm^3
# Si number density = 22.264761 Si / 1000 Ang^3
#
#
#
# Elastic Constant Matrix: (Units=GPa)
#
#
# Indices 1 2 3 4 5 6 
#
# 1 117.8150 50.3098 36.6381 0.0000 0.0000 0.0000
# 2 50.3098 95.9895 36.2725 0.0000 0.0000 0.0000
# 3 36.6381 36.2725 62.5417 0.0000 0.0000 0.0000
# 4 0.0000 0.0000 0.0000 39.2673 0.0000 0.0000
# 5 0.0000 0.0000 0.0000 0.0000 26.6383 0.0000
# 6 0.0000 0.0000 0.0000 0.0000 0.0000 38.3476
#
#
#
# Elastic Compliance Matrix: (Units=1/GPa)
#
#
# Indices 1 2 3 4 5 6 
#
# 1 0.011753 -0.004557 -0.004242 0.000000 0.000000 0.000000
# 2 -0.004557 0.015109 -0.006093 0.000000 0.000000 0.000000
# 3 -0.004242 -0.006093 0.022008 0.000000 0.000000 0.000000
# 4 0.000000 0.000000 0.000000 0.025466 0.000000 0.000000
# 5 0.000000 0.000000 0.000000 0.000000 0.037540 0.000000
# 6 0.000000 0.000000 0.000000 0.000000 0.000000 0.026077
#
#
# Mechanical properties :
#
#
# Convention : Reuss Voigt Hill
#
# Bulk Modulus (GPa) = 52.39577 58.08745 55.24161
# Shear Modulus (GPa) = 28.71912 31.05902 29.88907
#
# Velocity S-wave (km/s) = 3.59540 3.73900 3.66790
# Velocity P-wave (km/s) = 6.38905 6.69225 6.54241
#
# Compressibility (1/GPa) = 0.01908551
#
# Stress axis : x y z
#
# Youngs Moduli (GPa) = 85.08428 66.18742 45.43731
#
# Poissons Ratio (x) = 0.30161 0.19276
# Poissons Ratio (y) = 0.38772 0.27685
# Poissons Ratio (z) = 0.36095 0.40328
#
# Static dielectric constant tensor:
#      x y z
#    x 4.185220 0.000000 0.000000 
#    y 0.000000 4.051870 0.000000 
#    z 0.000000 0.000000 3.848740 
# 
# 
# High freq. dielectric constant tensor:
#      x y z
#    x 1.883480 0.000000 0.000000 
#    y 0.000000 1.882040 0.000000 
#    z 0.000000 0.000000 1.867520 
# 
# From -- ./inp_files/8924.got.cif
#   From: 2010.03.12/outbox.cif.g09.slc.cpg/sg40_5_cif.got.tgz:8924.got - 2010.04.14 01:38:03.
