data_PCOD8184381
_publ_section_title
;
Structure prediction by ZEFSAII (Michael W. Deem and Ramdas Pophale) SiO2 
 PCOD8184381
Probable space group: A M A 2
;
_chemical_formula_sum "Si O2"
_cell_formula_units_Z 64
_cell_length_a 14.898053
_cell_length_b 12.041675
_cell_length_c 17.067602
_cell_angle_alpha 90.000000
_cell_angle_beta 90.000000
_cell_angle_gamma 90.000000
_cell_volume 3061.885341
_symmetry_space_group_name_H-M "A M A 2"
_symmetry_group_IT_number 40
_symmetry_cell_setting 'orthorhombic'
loop_
_space_group_symop_operation_xyz
x,y,z
-x,-y,z
1/2-x,y,z
1/2+x,-y,z
x,1/2+y,1/2+z
-x,1/2-y,1/2+z
1/2-x,1/2+y,1/2+z
1/2+x,1/2-y,1/2+z
loop_
_atom_site_type_symbol
_atom_site_label
_atom_site_fract_x
_atom_site_fract_y
_atom_site_fract_z
Si Si1 0.355767 0.000001 0.187810
Si Si2 0.146310 0.779110 0.449421
Si Si3 0.488621 0.123764 0.687165
Si Si4 0.488621 0.623764 0.365023
Si Si5 0.144233 0.000001 0.364378
Si Si6 0.852981 0.760885 0.421692
Si Si7 0.853690 0.720890 0.602766
Si Si8 0.852981 0.760885 0.130496
O O1 0.250000 0.992123 0.193187
O O2 0.396616 0.999026 0.276094
O O3 0.383797 0.111383 0.141774
O O4 0.391443 0.894436 0.138717
O O5 0.250000 0.759282 0.426759
O O6 0.088415 0.679240 0.416206
O O7 0.133464 0.779584 0.542154
O O8 0.108557 0.894436 0.413470
O O9 0.454459 0.122264 0.776094
O O10 0.411585 0.179240 0.635982
O O11 0.584161 0.185512 0.684078
O O12 0.500000 0.000000 0.654283
O O13 0.500000 0.500000 0.397905
O O14 0.584161 0.685512 0.368109
O O15 0.250000 0.992123 0.359001
O O16 0.116203 0.111383 0.410413
O O17 0.750000 0.745379 0.394322
O O18 0.866536 0.720416 0.510034
O O19 0.750000 0.740718 0.625428
O O20 0.750000 0.745379 0.157866
#
# Coordination Sequence:
#
# PCOD8184381 Si02
#       8
#     8   8   8   8   8   8   8   8
#     4   9  18  35  61  91 118 150 202 258 306 365
#     4  10  22  40  64  90 122 162 205 258 315 366
#     4  11  25  41  59  89 127 167 209 249 299 373
#     4  11  25  41  59  89 127 167 209 249 299 373
#     4   9  18  35  61  91 118 150 202 258 306 365
#     4  10  22  40  64  90 122 162 205 258 315 366
#     4  10  22  40  64  90 122 162 205 258 315 366
#     4  10  22  40  64  90 122 162 205 258 315 366
#
# _framework density 20.902153999999999
#
# number of rings (size 3 to 8) (size 9 to 14) (size 15 to 20)
#    0.000    2.000    0.000    2.250    3.500    5.000 
#    0.000    5.000    0.000    0.000    0.000    0.000 
#    0.000    0.000    0.000    0.000    0.000    0.000 
#
# Total GULP energy -396862.587647 kJ/mol
# GULP energy per Si atom -12401.955864 kJ/mol
# Density = 2.085458 g / cm^3
# Si number density = 20.902154 Si / 1000 Ang^3
#
#
#
# Elastic Constant Matrix: (Units=GPa)
#
#
# Indices 1 2 3 4 5 6 
#
# 1 75.6466 37.9056 10.2591 0.0000 0.0000 0.0000
# 2 37.9056 158.8683 39.5644 0.0000 0.0000 0.0000
# 3 10.2591 39.5644 82.1582 0.0000 0.0000 0.0000
# 4 0.0000 0.0000 0.0000 70.9601 0.0000 0.0000
# 5 0.0000 0.0000 0.0000 0.0000 -0.2170 0.0000
# 6 0.0000 0.0000 0.0000 0.0000 0.0000 30.6813
#
#
#
# Elastic Compliance Matrix: (Units=1/GPa)
#
#
# Indices 1 2 3 4 5 6 
#
# 1 0.015017 -0.003541 -0.000170 0.000000 0.000000 0.000000
# 2 -0.003541 0.007987 -0.003404 0.000000 0.000000 0.000000
# 3 -0.000170 -0.003404 0.013832 0.000000 0.000000 0.000000
# 4 0.000000 0.000000 0.000000 0.014092 0.000000 0.000000
# 5 0.000000 0.000000 0.000000 0.000000 -4.608316 0.000000
# 6 0.000000 0.000000 0.000000 0.000000 0.000000 0.032593
#
#
# Mechanical properties :
#
#
# Convention : Reuss Voigt Hill
#
# Bulk Modulus (GPa) = 44.23574 54.68126 49.45850
# Shear Modulus (GPa) = -1.11036 35.54782 17.21873
#
# Velocity S-wave (km/s) = -0.72964 4.12840 2.87327
# Velocity P-wave (km/s) = 4.52762 6.99588 5.89244
#
# Compressibility (1/GPa) = 0.02260616
#
# Stress axis : x y z
#
# Youngs Moduli (GPa) = 66.59313 125.20249 72.29511
#
# Poissons Ratio (x) = 0.44329 0.01230
# Poissons Ratio (y) = 0.23578 0.24610
# Poissons Ratio (z) = 0.01133 0.42621
#
# Static dielectric constant tensor:
#      x y z
#    x 3.665940 0.000000 0.000000 
#    y 0.000000 3.968200 0.000000 
#    z 0.000000 0.000000 3.805660 
# 
# 
# High freq. dielectric constant tensor:
#      x y z
#    x 1.814780 0.000000 0.000000 
#    y 0.000000 1.825510 0.000000 
#    z 0.000000 0.000000 1.822590 
# 
# From -- ./inp_files/20792.got.cif
#   From: 2010.03.12/outbox.cif.g09.slc.cpg/sg40_11_cif.got.tgz:20792.got - 2010.04.14 01:38:03.
