data_PCOD8184290
_publ_section_title
;
Structure prediction by ZEFSAII (Michael W. Deem and Ramdas Pophale) SiO2 
 PCOD8184290
Probable space group: A M A 2
;
_chemical_formula_sum "Si O2"
_cell_formula_units_Z 48
_cell_length_a 16.756581
_cell_length_b 10.737542
_cell_length_c 11.621750
_cell_angle_alpha 90.000000
_cell_angle_beta 90.000000
_cell_angle_gamma 90.000000
_cell_volume 2091.037468
_symmetry_space_group_name_H-M "A M A 2"
_symmetry_group_IT_number 40
_symmetry_cell_setting 'orthorhombic'
loop_
_space_group_symop_operation_xyz
x,y,z
-x,-y,z
1/2-x,y,z
1/2+x,-y,z
x,1/2+y,1/2+z
-x,1/2-y,1/2+z
1/2-x,1/2+y,1/2+z
1/2+x,1/2-y,1/2+z
loop_
_atom_site_type_symbol
_atom_site_label
_atom_site_fract_x
_atom_site_fract_y
_atom_site_fract_z
Si Si1 0.582904 0.701862 0.958520
Si Si2 0.844219 0.808278 0.182010
Si Si3 0.595284 0.738359 0.418478
Si Si4 0.660073 0.965396 0.529931
Si Si5 0.658795 0.070086 0.091848
Si Si6 0.341556 0.186667 0.741772
O O1 0.488815 0.715830 0.969798
O O2 0.608127 0.797203 0.857773
O O3 0.634900 0.730517 0.070416
O O4 0.604133 0.554815 0.951338
O O5 0.750000 0.801478 0.210478
O O6 0.897713 0.742909 0.280866
O O7 0.875039 0.948870 0.157473
O O8 0.662517 0.833754 0.463795
O O9 0.613529 0.600653 0.470926
O O10 0.750000 0.018631 0.532852
O O11 0.631167 0.931235 0.661737
O O12 0.750000 0.043628 0.060271
O O13 0.645621 0.184806 0.175570
O O14 0.250000 0.168336 0.776769
#
# Coordination Sequence:
#
# PCOD8184290 Si02
#       6
#     8   8   8   8   8   8
#     4  12  25  39  62 100 136 167 217 278 339 398
#     4  11  24  42  67  96 131 179 227 267 333 416
#     4  11  24  41  64  97 134 169 217 279 339 394
#     4  10  21  41  67  92 125 173 224 267 325 405
#     4   9  20  41  68  92 123 170 223 269 320 398
#     4   9  19  38  65  91 123 169 219 269 324 391
#
# _framework density 22.955110999999999
#
# number of rings (size 3 to 8) (size 9 to 14) (size 15 to 20)
#    0.000    1.667    0.000    5.500    4.667    3.333 
#    0.000    1.667    0.000    0.000    0.000    0.000 
#    0.000    0.000    0.000    0.000    0.000    0.000 
#
# Total GULP energy -297423.687987 kJ/mol
# GULP energy per Si atom -12392.653666 kJ/mol
# Density = 2.290286 g / cm^3
# Si number density = 22.955111 Si / 1000 Ang^3
#
#
#
# Elastic Constant Matrix: (Units=GPa)
#
#
# Indices 1 2 3 4 5 6 
#
# 1 70.3062 20.7212 28.4628 0.0000 0.0000 0.0000
# 2 20.7212 36.6346 12.0417 0.0000 0.0000 0.0000
# 3 28.4628 12.0417 112.6614 0.0000 0.0000 0.0000
# 4 0.0000 0.0000 0.0000 29.8622 0.0000 0.0000
# 5 0.0000 0.0000 0.0000 0.0000 31.3743 0.0000
# 6 0.0000 0.0000 0.0000 0.0000 0.0000 23.2822
#
#
#
# Elastic Compliance Matrix: (Units=1/GPa)
#
#
# Indices 1 2 3 4 5 6 
#
# 1 0.018425 -0.009215 -0.003670 0.000000 0.000000 0.000000
# 2 -0.009215 0.032900 -0.001188 0.000000 0.000000 0.000000
# 3 -0.003670 -0.001188 0.009930 0.000000 0.000000 0.000000
# 4 0.000000 0.000000 0.000000 0.033487 0.000000 0.000000
# 5 0.000000 0.000000 0.000000 0.000000 0.031873 0.000000
# 6 0.000000 0.000000 0.000000 0.000000 0.000000 0.042951
#
#
# Mechanical properties :
#
#
# Convention : Reuss Voigt Hill
#
# Bulk Modulus (GPa) = 30.20423 38.00596 34.10510
# Shear Modulus (GPa) = 23.95208 27.46217 25.70712
#
# Velocity S-wave (km/s) = 3.23372 3.46257 3.35010
# Velocity P-wave (km/s) = 5.20856 5.70775 5.46386
#
# Compressibility (1/GPa) = 0.03310795
#
# Stress axis : x y z
#
# Youngs Moduli (GPa) = 54.27327 30.39553 100.70143
#
# Poissons Ratio (x) = 0.28011 0.36957
# Poissons Ratio (y) = 0.50015 0.11966
# Poissons Ratio (z) = 0.19918 0.03612
#
# Static dielectric constant tensor:
#      x y z
#    x 3.791010 0.000000 0.000000 
#    y 0.000000 4.362320 0.000000 
#    z 0.000000 0.000000 4.440750 
# 
# 
# High freq. dielectric constant tensor:
#      x y z
#    x 1.888820 0.000000 0.000000 
#    y 0.000000 1.905000 0.000000 
#    z 0.000000 0.000000 1.907570 
# 
# From -- ./inp_files/12907.got.cif
#   From: 2010.03.12/outbox.cif.g09.slc.cpg/sg40_7_cif.got.tgz:12907.got - 2010.04.14 01:38:03.
