data_PCOD8184626
_publ_section_title
;
Structure prediction by ZEFSAII (Michael W. Deem and Ramdas Pophale) SiO2 
 PCOD8184626
Probable space group: A M A 2
;
_chemical_formula_sum "Si O2"
_cell_formula_units_Z 48
_cell_length_a 21.856102
_cell_length_b 11.276418
_cell_length_c 9.336954
_cell_angle_alpha 90.000000
_cell_angle_beta 90.000000
_cell_angle_gamma 90.000000
_cell_volume 2301.172070
_symmetry_space_group_name_H-M "A M A 2"
_symmetry_group_IT_number 40
_symmetry_cell_setting 'orthorhombic'
loop_
_space_group_symop_operation_xyz
x,y,z
-x,-y,z
1/2-x,y,z
1/2+x,-y,z
x,1/2+y,1/2+z
-x,1/2-y,1/2+z
1/2-x,1/2+y,1/2+z
1/2+x,1/2-y,1/2+z
loop_
_atom_site_type_symbol
_atom_site_label
_atom_site_fract_x
_atom_site_fract_y
_atom_site_fract_z
Si Si1 0.022143 0.882487 0.411520
Si Si2 0.817397 0.161402 0.118296
Si Si3 0.603319 0.260004 0.877451
Si Si4 0.176900 0.111323 0.136889
Si Si5 0.375764 0.701256 0.341409
Si Si6 0.065374 0.971335 0.719663
O O1 0.067852 0.794290 0.331778
O O2 0.054290 0.936836 0.553747
O O3 0.960762 0.808070 0.436691
O O4 0.000000 0.000000 0.320800
O O5 0.750000 0.165896 0.053142
O O6 0.819236 0.227887 0.271424
O O7 0.838404 0.026566 0.129310
O O8 0.861011 0.237884 0.021217
O O9 0.643265 0.347938 0.780653
O O10 0.597278 0.138847 0.792228
O O11 0.250000 0.137663 0.141356
O O12 0.143963 0.172855 0.002514
O O13 0.391182 0.584540 0.247514
O O14 0.000000 0.000000 0.792995
#
# Coordination Sequence:
#
# PCOD8184626 Si02
#       6
#     8   8   8   8   8   8
#     4  11  24  41  66 100 133 166 213 269 330 396
#     4  11  25  43  65  94 129 175 222 269 325 388
#     4  12  23  43  69  95 135 173 214 275 333 384
#     4  11  25  45  67  96 131 177 231 274 323 390
#     4  12  23  44  70  96 135 173 219 274 333 389
#     4  11  22  41  66 100 132 170 212 264 331 400
#
# _framework density 20.858934999999999
#
# number of rings (size 3 to 8) (size 9 to 14) (size 15 to 20)
#    0.000    0.667    5.000    4.000    0.000    0.000 
#    0.000    0.000    0.000    0.000    0.000    0.000 
#    0.000    0.000    0.000    0.000    0.000    0.000 
#
# Total GULP energy -297451.830176 kJ/mol
# GULP energy per Si atom -12393.826257 kJ/mol
# Density = 2.081146 g / cm^3
# Si number density = 20.858935 Si / 1000 Ang^3
#
#
#
# Elastic Constant Matrix: (Units=GPa)
#
#
# Indices 1 2 3 4 5 6 
#
# 1 77.8463 33.6774 26.8306 0.0000 0.0000 0.0000
# 2 33.6774 112.3957 35.0277 0.0000 0.0000 0.0000
# 3 26.8306 35.0277 59.2819 0.0000 0.0000 0.0000
# 4 0.0000 0.0000 0.0000 28.0069 0.0000 0.0000
# 5 0.0000 0.0000 0.0000 0.0000 24.5818 0.0000
# 6 0.0000 0.0000 0.0000 0.0000 0.0000 27.8914
#
#
#
# Elastic Compliance Matrix: (Units=1/GPa)
#
#
# Indices 1 2 3 4 5 6 
#
# 1 0.016067 -0.003123 -0.005427 0.000000 0.000000 0.000000
# 2 -0.003123 0.011512 -0.005389 0.000000 0.000000 0.000000
# 3 -0.005427 -0.005389 0.022509 0.000000 0.000000 0.000000
# 4 0.000000 0.000000 0.000000 0.035705 0.000000 0.000000
# 5 0.000000 0.000000 0.000000 0.000000 0.040680 0.000000
# 6 0.000000 0.000000 0.000000 0.000000 0.000000 0.035853
#
#
# Mechanical properties :
#
#
# Convention : Reuss Voigt Hill
#
# Bulk Modulus (GPa) = 45.02212 48.95504 46.98858
# Shear Modulus (GPa) = 25.30260 26.36190 25.83225
#
# Velocity S-wave (km/s) = 3.48664 3.55888 3.52295
# Velocity P-wave (km/s) = 6.15141 6.35673 6.25491
#
# Compressibility (1/GPa) = 0.02221130
#
# Stress axis : x y z
#
# Youngs Moduli (GPa) = 62.23838 86.86369 44.42739
#
# Poissons Ratio (x) = 0.27128 0.24109
# Poissons Ratio (y) = 0.19438 0.23941
# Poissons Ratio (z) = 0.33774 0.46809
#
# Static dielectric constant tensor:
#      x y z
#    x 3.777000 0.000000 0.000000 
#    y 0.000000 4.122950 0.000000 
#    z 0.000000 0.000000 3.637010 
# 
# 
# High freq. dielectric constant tensor:
#      x y z
#    x 1.820970 0.000000 0.000000 
#    y 0.000000 1.844000 0.000000 
#    z 0.000000 0.000000 1.805270 
# 
# From -- ./inp_files/8756.got.cif
#   From: 2010.03.12/outbox.cif.g09.slc.cpg/sg40_5_cif.got.tgz:8756.got - 2010.04.14 01:38:03.
