data_PCOD8184895
_publ_section_title
;
Structure prediction by ZEFSAII (Michael W. Deem and Ramdas Pophale) SiO2 
 PCOD8184895
Probable space group: A B A 2
;
_chemical_formula_sum "Si O2"
_cell_formula_units_Z 64
_cell_length_a 14.081184
_cell_length_b 24.886514
_cell_length_c 9.726672
_cell_angle_alpha 90.000000
_cell_angle_beta 90.000000
_cell_angle_gamma 90.000000
_cell_volume 3408.533064
_symmetry_space_group_name_H-M "A B A 2"
_symmetry_group_IT_number 41
_symmetry_cell_setting 'orthorhombic'
loop_
_space_group_symop_operation_xyz
x,y,z
-x,-y,z
1/2-x,y,1/2+z
1/2+x,-y,1/2+z
x,1/2+y,1/2+z
-x,1/2-y,1/2+z
1/2-x,1/2+y,z
1/2+x,1/2-y,z
loop_
_atom_site_type_symbol
_atom_site_label
_atom_site_fract_x
_atom_site_fract_y
_atom_site_fract_z
Si Si1 0.848511 0.001592 0.634460
Si Si2 0.531094 0.185906 0.996339
Si Si3 0.596920 0.121063 0.445167
Si Si4 0.216825 0.278445 0.158718
Si Si5 0.504700 0.411547 0.684193
Si Si6 0.872831 0.136852 0.243480
Si Si7 0.354835 0.257434 0.933079
Si Si8 0.765354 0.543000 0.871534
O O1 0.804899 0.000735 0.482507
O O2 0.764760 0.006611 0.743947
O O3 0.913540 0.054340 0.641126
O O4 0.901374 0.946747 0.670272
O O5 0.560345 0.171541 0.841602
O O6 0.455318 0.233238 0.976423
O O7 0.621600 0.204259 0.081976
O O8 0.482379 0.137620 0.079543
O O9 0.509222 0.106985 0.343440
O O10 0.566455 0.123177 0.605743
O O11 0.636483 0.179070 0.403605
O O12 0.679015 0.076728 0.435030
O O13 0.276323 0.331373 0.203790
O O14 0.189413 0.238937 0.286286
O O15 0.281149 0.243843 0.054469
O O16 0.848368 0.082642 0.323540
#
# Coordination Sequence:
#
# PCOD8184895 Si02
#       8
#     8   8   8   8   8   8   8   8
#     4  10  21  35  64  87 115 154 202 248 318 359
#     4  12  23  38  61  91 128 163 207 254 323 378
#     4  10  20  33  59  89 117 148 200 256 301 357
#     4  11  21  39  56  92 123 159 212 260 297 368
#     4  10  21  40  57  87 123 155 191 258 314 368
#     4  11  19  34  60  91 119 153 206 263 307 347
#     4  11  24  36  62  91 122 168 209 255 312 373
#     4  11  17  35  60  92 111 151 202 257 298 361
#
# _framework density 18.776405
#
# number of rings (size 3 to 8) (size 9 to 14) (size 15 to 20)
#    0.000    1.250    6.250    1.500    3.500    0.000 
#    0.000    2.500    2.750    0.000    0.000    0.000 
#    0.000    0.000    0.000    0.000    0.000    0.000 
#
# Total GULP energy -396746.044273 kJ/mol
# GULP energy per Si atom -12398.313884 kJ/mol
# Density = 1.873367 g / cm^3
# Si number density = 18.776405 Si / 1000 Ang^3
#
#
#
# Elastic Constant Matrix: (Units=GPa)
#
#
# Indices 1 2 3 4 5 6 
#
# 1 69.9903 34.6996 48.5780 0.0000 0.0000 0.0000
# 2 34.6996 40.3295 34.6790 0.0000 0.0000 0.0000
# 3 48.5780 34.6790 161.1248 0.0000 0.0000 0.0000
# 4 0.0000 0.0000 0.0000 22.0206 0.0000 0.0000
# 5 0.0000 0.0000 0.0000 0.0000 31.6803 0.0000
# 6 0.0000 0.0000 0.0000 0.0000 0.0000 29.0141
#
#
#
# Elastic Compliance Matrix: (Units=1/GPa)
#
#
# Indices 1 2 3 4 5 6 
#
# 1 0.026695 -0.019692 -0.003810 0.000000 0.000000 0.000000
# 2 -0.019692 0.044954 -0.003738 0.000000 0.000000 0.000000
# 3 -0.003810 -0.003738 0.008160 0.000000 0.000000 0.000000
# 4 0.000000 0.000000 0.000000 0.045412 0.000000 0.000000
# 5 0.000000 0.000000 0.000000 0.000000 0.031565 0.000000
# 6 0.000000 0.000000 0.000000 0.000000 0.000000 0.034466
#
#
# Mechanical properties :
#
#
# Convention : Reuss Voigt Hill
#
# Bulk Modulus (GPa) = 39.48338 56.37306 47.92822
# Shear Modulus (GPa) = 19.67147 26.77555 23.22351
#
# Velocity S-wave (km/s) = 3.24028 3.78037 3.52070
# Velocity P-wave (km/s) = 5.92225 7.01024 6.48909
#
# Compressibility (1/GPa) = 0.02532711
#
# Stress axis : x y z
#
# Youngs Moduli (GPa) = 37.46005 22.24516 122.55426
#
# Poissons Ratio (x) = 0.43806 0.46693
# Poissons Ratio (y) = 0.73768 0.45814
# Poissons Ratio (z) = 0.14272 0.08316
#
# Static dielectric constant tensor:
#      x y z
#    x 3.200240 0.000000 0.000000 
#    y 0.000000 3.174280 0.000000 
#    z 0.000000 0.000000 3.925570 
# 
# 
# High freq. dielectric constant tensor:
#      x y z
#    x 1.705110 0.000000 0.000000 
#    y 0.000000 1.693600 0.000000 
#    z 0.000000 0.000000 1.759010 
# 
# From -- ./inp_files/2799.got.cif
#   From: 2010.03.12/outbox.cif.g09.slc.cpg/sg41_2_cif.got.tgz:2799.got - 2010.04.14 01:55:53.
