data_PCOD8184364
_publ_section_title
;
Structure prediction by ZEFSAII (Michael W. Deem and Ramdas Pophale) SiO2 
 PCOD8184364
Probable space group: A M A 2
;
_chemical_formula_sum "Si O2"
_cell_formula_units_Z 64
_cell_length_a 14.825033
_cell_length_b 9.997076
_cell_length_c 16.414599
_cell_angle_alpha 90.000000
_cell_angle_beta 90.000000
_cell_angle_gamma 90.000000
_cell_volume 2432.758172
_symmetry_space_group_name_H-M "A M A 2"
_symmetry_group_IT_number 40
_symmetry_cell_setting 'orthorhombic'
loop_
_space_group_symop_operation_xyz
x,y,z
-x,-y,z
1/2-x,y,z
1/2+x,-y,z
x,1/2+y,1/2+z
-x,1/2-y,1/2+z
1/2-x,1/2+y,1/2+z
1/2+x,1/2-y,1/2+z
loop_
_atom_site_type_symbol
_atom_site_label
_atom_site_fract_x
_atom_site_fract_y
_atom_site_fract_z
Si Si1 0.111999 0.852113 0.196280
Si Si2 0.851475 0.703012 0.522743
Si Si3 0.088078 0.136033 0.238482
Si Si4 0.347565 0.078911 0.987233
Si Si5 0.103428 0.139240 0.819020
Si Si6 0.357700 0.371999 0.015463
Si Si7 0.016495 0.666334 0.906993
Si Si8 0.648021 0.575603 0.198472
O O1 0.153401 0.774738 0.119296
O O2 0.146268 0.769155 0.274769
O O3 0.004133 0.841264 0.189334
O O4 0.142152 0.008243 0.201521
O O5 0.750000 0.712222 0.486286
O O6 0.900157 0.557826 0.508652
O O7 0.910639 0.815517 0.478937
O O8 0.144804 0.271414 0.229515
O O9 0.064886 0.092119 0.331605
O O10 0.250000 0.061706 0.028589
O O11 0.331693 0.087062 0.889708
O O12 0.388842 0.215471 0.023798
O O13 0.013002 0.189414 0.867253
O O14 0.084309 0.021812 0.752488
O O15 0.250000 0.385162 0.991372
O O16 0.377053 0.439537 0.102520
O O17 0.429302 0.419746 0.944405
O O18 0.750000 0.526052 0.211277
#
# Coordination Sequence:
#
# PCOD8184364 Si02
#       8
#     8   8   8   8   8   8   8   8
#     4  10  23  43  65  93 131 175 226 277 334 404
#     4  11  23  39  63  96 134 178 229 282 335 396
#     4  10  22  41  66  93 129 178 227 277 337 405
#     4   9  18  34  57  88 124 167 219 266 321 397
#     4  10  22  39  64  95 129 171 220 277 338 396
#     4   9  19  36  61  93 130 174 222 276 341 407
#     4  10  22  41  65  96 135 180 226 280 339 407
#     4  11  22  38  64 100 136 172 224 286 343 405
#
# _framework density 26.307587000000002
#
# number of rings (size 3 to 8) (size 9 to 14) (size 15 to 20)
#    0.000    2.000    0.000    2.625    0.000   14.500 
#    0.000    8.125    0.000    2.250    0.000    0.000 
#    0.000    0.000    0.000    0.000    0.000    0.000 
#
# Total GULP energy -396453.273819 kJ/mol
# GULP energy per Si atom -12389.164807 kJ/mol
# Density = 2.624771 g / cm^3
# Si number density = 26.307587 Si / 1000 Ang^3
#
#
#
# Elastic Constant Matrix: (Units=GPa)
#
#
# Indices 1 2 3 4 5 6 
#
# 1 76.4231 1.2637 42.7401 0.0000 0.0000 0.0000
# 2 1.2637 70.4368 20.7154 0.0000 0.0000 0.0000
# 3 42.7401 20.7154 144.7889 0.0000 0.0000 0.0000
# 4 0.0000 0.0000 0.0000 48.1417 0.0000 0.0000
# 5 0.0000 0.0000 0.0000 0.0000 16.3812 0.0000
# 6 0.0000 0.0000 0.0000 0.0000 0.0000 13.0289
#
#
#
# Elastic Compliance Matrix: (Units=1/GPa)
#
#
# Indices 1 2 3 4 5 6 
#
# 1 0.015758 0.001133 -0.004814 0.000000 0.000000 0.000000
# 2 0.001133 0.014902 -0.002467 0.000000 0.000000 0.000000
# 3 -0.004814 -0.002467 0.008680 0.000000 0.000000 0.000000
# 4 0.000000 0.000000 0.000000 0.020772 0.000000 0.000000
# 5 0.000000 0.000000 0.000000 0.000000 0.061046 0.000000
# 6 0.000000 0.000000 0.000000 0.000000 0.000000 0.076752
#
#
# Mechanical properties :
#
#
# Convention : Reuss Voigt Hill
#
# Bulk Modulus (GPa) = 36.97345 46.78747 41.88046
# Shear Modulus (GPa) = 22.80801 30.63900 26.72350
#
# Velocity S-wave (km/s) = 2.94764 3.41639 3.19063
# Velocity P-wave (km/s) = 5.06651 5.77804 5.43393
#
# Compressibility (1/GPa) = 0.02704644
#
# Stress axis : x y z
#
# Youngs Moduli (GPa) = 63.45792 67.10410 115.20080
#
# Poissons Ratio (x) = -0.07603 0.55456
# Poissons Ratio (y) = -0.07190 0.28415
# Poissons Ratio (z) = 0.30548 0.16552
#
# Static dielectric constant tensor:
#      x y z
#    x 4.520930 0.000000 0.000000 
#    y 0.000000 4.819660 0.000000 
#    z 0.000000 0.000000 4.843990 
# 
# 
# High freq. dielectric constant tensor:
#      x y z
#    x 2.026540 0.000000 0.000000 
#    y 0.000000 2.058750 0.000000 
#    z 0.000000 0.000000 2.060220 
# 
# From -- ./inp_files/17870.got.cif
#   From: 2010.03.12/outbox.cif.g09.slc.cpg/sg40_9_cif.got.tgz:17870.got - 2010.04.14 01:38:03.
