data_PCOD8184214
_publ_section_title
;
Structure prediction by ZEFSAII (Michael W. Deem and Ramdas Pophale) SiO2 
 PCOD8184214
Probable space group: A M A 2
;
_chemical_formula_sum "Si O2"
_cell_formula_units_Z 64
_cell_length_a 16.922673
_cell_length_b 14.681381
_cell_length_c 12.576412
_cell_angle_alpha 90.000000
_cell_angle_beta 90.000000
_cell_angle_gamma 90.000000
_cell_volume 3124.587048
_symmetry_space_group_name_H-M "A M A 2"
_symmetry_group_IT_number 40
_symmetry_cell_setting 'orthorhombic'
loop_
_space_group_symop_operation_xyz
x,y,z
-x,-y,z
1/2-x,y,z
1/2+x,-y,z
x,1/2+y,1/2+z
-x,1/2-y,1/2+z
1/2-x,1/2+y,1/2+z
1/2+x,1/2-y,1/2+z
loop_
_atom_site_type_symbol
_atom_site_label
_atom_site_fract_x
_atom_site_fract_y
_atom_site_fract_z
Si Si1 0.450143 0.765428 0.407770
Si Si2 0.839819 0.509833 0.232286
Si Si3 0.974713 0.403718 0.766395
Si Si4 0.838686 0.872182 0.123982
Si Si5 0.340090 0.836262 0.571276
Si Si6 0.592322 0.003575 0.959511
Si Si7 0.567810 0.672389 0.570670
Si Si8 0.841873 0.304671 0.217790
O O1 0.518595 0.823583 0.351853
O O2 0.392468 0.837790 0.465284
O O3 0.495894 0.703209 0.493207
O O4 0.396561 0.709110 0.323070
O O5 0.750000 0.533885 0.264705
O O6 0.872519 0.586569 0.151653
O O7 0.894152 0.509252 0.335047
O O8 0.844968 0.409713 0.181156
O O9 0.885362 0.411038 0.724879
O O10 0.000000 0.500000 0.816899
O O11 0.030744 0.381256 0.668316
O O12 0.750000 0.901711 0.144646
O O13 0.848891 0.763512 0.122278
O O14 0.865110 0.915881 0.011169
O O15 0.250000 0.858040 0.540177
O O16 0.500000 0.000000 0.984605
O O17 0.623157 0.099013 0.010118
O O18 0.623282 0.752352 0.615435
O O19 0.750000 0.276412 0.241303
#
# Coordination Sequence:
#
# PCOD8184214 Si02
#       8
#     8   8   8   8   8   8   8   8
#     4  11  23  38  66  88 122 166 206 251 314 369
#     4  10  23  39  60  92 124 156 203 253 302 365
#     4  11  22  42  59  91 126 156 209 258 299 367
#     4  11  21  38  63  87 123 164 203 251 312 366
#     4  10  21  39  62  90 122 161 207 252 303 369
#     4  12  21  37  63  95 121 156 201 255 305 363
#     4  11  22  39  62  89 124 159 201 255 312 363
#     4  10  23  42  61  88 124 163 207 255 308 375
#
# _framework density 20.482706
#
# number of rings (size 3 to 8) (size 9 to 14) (size 15 to 20)
#    0.000    1.250    3.750    2.250    1.750    5.000 
#    0.000    1.250    0.000    0.000    0.000    0.000 
#    0.000    0.000    0.000    0.000    0.000    0.000 
#
# Total GULP energy -396736.180882 kJ/mol
# GULP energy per Si atom -12398.005653 kJ/mol
# Density = 2.043609 g / cm^3
# Si number density = 20.482706 Si / 1000 Ang^3
#
#
#
# Elastic Constant Matrix: (Units=GPa)
#
#
# Indices 1 2 3 4 5 6 
#
# 1 85.4393 34.0260 22.4853 0.0000 0.0000 0.0000
# 2 34.0260 124.8293 45.4816 0.0000 0.0000 0.0000
# 3 22.4853 45.4816 67.8179 0.0000 0.0000 0.0000
# 4 0.0000 0.0000 0.0000 31.4251 0.0000 0.0000
# 5 0.0000 0.0000 0.0000 0.0000 31.7777 0.0000
# 6 0.0000 0.0000 0.0000 0.0000 0.0000 25.3032
#
#
#
# Elastic Compliance Matrix: (Units=1/GPa)
#
#
# Indices 1 2 3 4 5 6 
#
# 1 0.013481 -0.002708 -0.002654 0.000000 0.000000 0.000000
# 2 -0.002708 0.011145 -0.006577 0.000000 0.000000 0.000000
# 3 -0.002654 -0.006577 0.020036 0.000000 0.000000 0.000000
# 4 0.000000 0.000000 0.000000 0.031822 0.000000 0.000000
# 5 0.000000 0.000000 0.000000 0.000000 0.031469 0.000000
# 6 0.000000 0.000000 0.000000 0.000000 0.000000 0.039521
#
#
# Mechanical properties :
#
#
# Convention : Reuss Voigt Hill
#
# Bulk Modulus (GPa) = 48.11011 53.56361 50.83686
# Shear Modulus (GPa) = 28.04609 29.44078 28.74343
#
# Velocity S-wave (km/s) = 3.70436 3.79535 3.75013
# Velocity P-wave (km/s) = 6.46804 6.73897 6.60489
#
# Compressibility (1/GPa) = 0.02078565
#
# Stress axis : x y z
#
# Youngs Moduli (GPa) = 74.17870 89.72430 49.91055
#
# Poissons Ratio (x) = 0.24295 0.13245
# Poissons Ratio (y) = 0.20086 0.32825
# Poissons Ratio (z) = 0.19685 0.59009
#
# Static dielectric constant tensor:
#      x y z
#    x 3.816100 0.000000 0.000000 
#    y 0.000000 3.936140 0.000000 
#    z 0.000000 0.000000 3.636630 
# 
# 
# High freq. dielectric constant tensor:
#      x y z
#    x 1.796690 0.000000 0.000000 
#    y 0.000000 1.812960 0.000000 
#    z 0.000000 0.000000 1.785910 
# 
# From -- ./inp_files/13151.got.cif
#   From: 2010.03.12/outbox.cif.g09.slc.cpg/sg40_7_cif.got.tgz:13151.got - 2010.04.14 01:38:03.
