data_PCOD8184291
_publ_section_title
;
Structure prediction by ZEFSAII (Michael W. Deem and Ramdas Pophale) SiO2 
 PCOD8184291
Probable space group: A M A 2
;
_chemical_formula_sum "Si O2"
_cell_formula_units_Z 64
_cell_length_a 8.880001
_cell_length_b 29.306163
_cell_length_c 12.548881
_cell_angle_alpha 90.000000
_cell_angle_beta 90.000000
_cell_angle_gamma 90.000000
_cell_volume 3265.705190
_symmetry_space_group_name_H-M "A M A 2"
_symmetry_group_IT_number 40
_symmetry_cell_setting 'orthorhombic'
loop_
_space_group_symop_operation_xyz
x,y,z
-x,-y,z
1/2-x,y,z
1/2+x,-y,z
x,1/2+y,1/2+z
-x,1/2-y,1/2+z
1/2-x,1/2+y,1/2+z
1/2+x,1/2-y,1/2+z
loop_
_atom_site_type_symbol
_atom_site_label
_atom_site_fract_x
_atom_site_fract_y
_atom_site_fract_z
Si Si1 0.583096 0.211500 0.407750
Si Si2 0.572480 0.047741 0.742641
Si Si3 0.926741 0.125667 0.904351
Si Si4 0.574180 0.350982 0.620856
Si Si5 0.084890 0.702068 0.282889
Si Si6 0.576696 0.379128 0.852991
Si Si7 0.072956 0.952293 0.501263
Si Si8 0.425413 0.756820 0.093768
O O1 0.750000 0.192615 0.437628
O O2 0.593439 0.243395 0.304575
O O3 0.466608 0.170794 0.394374
O O4 0.522752 0.249048 0.489412
O O5 0.750000 0.042308 0.750083
O O6 0.514776 0.085833 0.825721
O O7 0.524101 0.061732 0.622042
O O8 0.500000 0.000000 0.776494
O O9 0.750000 0.122266 0.924807
O O10 0.960392 0.173731 0.846220
O O11 0.009829 0.122366 0.017758
O O12 0.750000 0.341105 0.602991
O O13 0.548285 0.382487 0.725630
O O14 0.488847 0.303763 0.643309
O O15 0.250000 0.679570 0.302934
O O16 0.047023 0.708842 0.158228
O O17 0.750000 0.387765 0.881166
O O18 0.477498 0.415611 0.914950
O O19 0.250000 0.957984 0.494328
O O20 0.000000 0.000000 0.469007
O O21 0.250000 0.764059 0.067234
#
# Coordination Sequence:
#
# PCOD8184291 Si02
#       8
#     8   8   8   8   8   8   8   8
#     4  11  22  37  56  82 117 155 199 245 292 347
#     4   9  21  41  64  93 119 149 186 234 294 352
#     4  11  23  38  60  88 119 154 199 242 291 352
#     4  11  23  39  58  82 117 159 201 244 293 345
#     4  10  22  37  54  81 116 155 199 240 291 346
#     4  11  24  40  60  88 119 157 204 246 295 353
#     4  10  21  41  67  93 122 152 188 239 299 356
#     4  11  22  37  55  79 113 155 201 246 293 346
#
# _framework density 19.597602999999999
#
# number of rings (size 3 to 8) (size 9 to 14) (size 15 to 20)
#    0.000    1.500    2.500    2.250    1.750    4.500 
#    0.000    0.625    0.000    1.500    0.000    0.000 
#    0.000    0.000    0.000    0.000    0.000    0.000 
#
# Total GULP energy -396687.147556 kJ/mol
# GULP energy per Si atom -12396.473361 kJ/mol
# Density = 1.955300 g / cm^3
# Si number density = 19.597603 Si / 1000 Ang^3
#
#
#
# Elastic Constant Matrix: (Units=GPa)
#
#
# Indices 1 2 3 4 5 6 
#
# 1 78.8572 26.3558 38.6098 0.0000 0.0000 0.0000
# 2 26.3558 94.7440 50.8962 0.0000 0.0000 0.0000
# 3 38.6098 50.8962 95.1876 0.0000 0.0000 0.0000
# 4 0.0000 0.0000 0.0000 32.6008 0.0000 0.0000
# 5 0.0000 0.0000 0.0000 0.0000 25.4017 0.0000
# 6 0.0000 0.0000 0.0000 0.0000 0.0000 35.5541
#
#
#
# Elastic Compliance Matrix: (Units=1/GPa)
#
#
# Indices 1 2 3 4 5 6 
#
# 1 0.015946 -0.001349 -0.005747 0.000000 0.000000 0.000000
# 2 -0.001349 0.014922 -0.007432 0.000000 0.000000 0.000000
# 3 -0.005747 -0.007432 0.016810 0.000000 0.000000 0.000000
# 4 0.000000 0.000000 0.000000 0.030674 0.000000 0.000000
# 5 0.000000 0.000000 0.000000 0.000000 0.039367 0.000000
# 6 0.000000 0.000000 0.000000 0.000000 0.000000 0.028126
#
#
# Mechanical properties :
#
#
# Convention : Reuss Voigt Hill
#
# Bulk Modulus (GPa) = 53.69462 55.61247 54.65355
# Shear Modulus (GPa) = 27.60782 28.90644 28.25713
#
# Velocity S-wave (km/s) = 3.75738 3.84474 3.80131
# Velocity P-wave (km/s) = 6.80308 6.93889 6.87132
#
# Compressibility (1/GPa) = 0.01862384
#
# Stress axis : x y z
#
# Youngs Moduli (GPa) = 62.71330 67.01397 59.48741
#
# Poissons Ratio (x) = 0.09038 0.34186
# Poissons Ratio (y) = 0.08458 0.44210
# Poissons Ratio (z) = 0.36040 0.49803
#
# Static dielectric constant tensor:
#      x y z
#    x 3.584460 0.000000 0.000000 
#    y 0.000000 3.359160 0.000000 
#    z 0.000000 0.000000 3.744050 
# 
# 
# High freq. dielectric constant tensor:
#      x y z
#    x 1.772600 0.000000 0.000000 
#    y 0.000000 1.742120 0.000000 
#    z 0.000000 0.000000 1.776060 
# 
# From -- ./inp_files/10591.got.cif
#   From: 2010.03.12/outbox.cif.g09.slc.cpg/sg40_6_cif.got.tgz:10591.got - 2010.04.14 01:38:03.
