data_PCOD8184485
_publ_section_title
;
Structure prediction by ZEFSAII (Michael W. Deem and Ramdas Pophale) SiO2 
 PCOD8184485
Probable space group: A M A 2
;
_chemical_formula_sum "Si O2"
_cell_formula_units_Z 64
_cell_length_a 29.931157
_cell_length_b 9.838592
_cell_length_c 10.016153
_cell_angle_alpha 90.000000
_cell_angle_beta 90.000000
_cell_angle_gamma 90.000000
_cell_volume 2949.561161
_symmetry_space_group_name_H-M "A M A 2"
_symmetry_group_IT_number 40
_symmetry_cell_setting 'orthorhombic'
loop_
_space_group_symop_operation_xyz
x,y,z
-x,-y,z
1/2-x,y,z
1/2+x,-y,z
x,1/2+y,1/2+z
-x,1/2-y,1/2+z
1/2-x,1/2+y,1/2+z
1/2+x,1/2-y,1/2+z
loop_
_atom_site_type_symbol
_atom_site_label
_atom_site_fract_x
_atom_site_fract_y
_atom_site_fract_z
Si Si1 0.825292 0.402636 0.107800
Si Si2 0.640560 0.181966 0.714418
Si Si3 0.395959 0.248854 0.950968
Si Si4 0.950112 0.497789 0.537305
Si Si5 0.200421 0.083021 0.300827
Si Si6 0.550743 0.002434 0.342260
Si Si7 0.901287 0.757157 0.480621
Si Si8 0.200464 0.781760 0.325255
O O1 0.831389 0.550043 0.173382
O O2 0.869820 0.309125 0.100891
O O3 0.792179 0.324034 0.205616
O O4 0.806340 0.411970 0.959798
O O5 0.601636 0.199453 0.604287
O O6 0.669816 0.319536 0.713056
O O7 0.622272 0.168268 0.864184
O O8 0.419042 0.099893 0.945765
O O9 0.424915 0.351685 0.860316
O O10 0.342810 0.240332 0.914287
O O11 0.948931 0.450154 0.690443
O O12 0.936679 0.655398 0.542010
O O13 0.000000 0.500000 0.477942
O O14 0.250000 0.129160 0.266200
O O15 0.190526 0.928366 0.258927
O O16 0.578210 0.894089 0.424598
O O17 0.500000 0.000000 0.396392
O O18 0.250000 0.785854 0.399519
#
# Coordination Sequence:
#
# PCOD8184485 Si02
#       8
#     8   8   8   8   8   8   8   8
#     4  11  22  41  65  90 125 168 215 270 323 380
#     4  11  22  39  65  91 122 172 212 258 330 386
#     4  12  22  43  68  92 135 172 213 273 325 388
#     4  11  25  42  66  96 130 171 217 271 331 395
#     4  10  23  41  61  89 127 166 213 269 318 378
#     4  11  23  42  66  95 130 170 217 267 329 394
#     4  11  22  40  63  91 126 165 214 263 326 389
#     4  11  24  42  67  96 128 174 223 269 327 388
#
# _framework density 21.698143999999999
#
# number of rings (size 3 to 8) (size 9 to 14) (size 15 to 20)
#    0.000    1.000    3.750    3.375    1.750    1.500 
#    0.000    0.625    0.000    0.000    0.000    0.000 
#    0.000    0.000    0.000    0.000    0.000    0.000 
#
# Total GULP energy -396616.444526 kJ/mol
# GULP energy per Si atom -12394.263891 kJ/mol
# Density = 2.164876 g / cm^3
# Si number density = 21.698144 Si / 1000 Ang^3
#
#
#
# Elastic Constant Matrix: (Units=GPa)
#
#
# Indices 1 2 3 4 5 6 
#
# 1 125.7722 40.4362 16.0630 0.0000 0.0000 0.0000
# 2 40.4362 128.9890 23.2815 0.0000 0.0000 0.0000
# 3 16.0630 23.2815 46.9042 0.0000 0.0000 0.0000
# 4 0.0000 0.0000 0.0000 26.0465 0.0000 0.0000
# 5 0.0000 0.0000 0.0000 0.0000 24.9102 0.0000
# 6 0.0000 0.0000 0.0000 0.0000 0.0000 28.5343
#
#
#
# Elastic Compliance Matrix: (Units=1/GPa)
#
#
# Indices 1 2 3 4 5 6 
#
# 1 0.008985 -0.002484 -0.001844 0.000000 0.000000 0.000000
# 2 -0.002484 0.009202 -0.003717 0.000000 0.000000 0.000000
# 3 -0.001844 -0.003717 0.023797 0.000000 0.000000 0.000000
# 4 0.000000 0.000000 0.000000 0.038393 0.000000 0.000000
# 5 0.000000 0.000000 0.000000 0.000000 0.040144 0.000000
# 6 0.000000 0.000000 0.000000 0.000000 0.000000 0.035046
#
#
# Mechanical properties :
#
#
# Convention : Reuss Voigt Hill
#
# Bulk Modulus (GPa) = 38.61933 51.24743 44.93338
# Shear Modulus (GPa) = 27.73349 30.69050 29.21200
#
# Velocity S-wave (km/s) = 3.57900 3.76497 3.67316
# Velocity P-wave (km/s) = 5.90898 6.52454 6.22438
#
# Compressibility (1/GPa) = 0.02589377
#
# Stress axis : x y z
#
# Youngs Moduli (GPa) = 111.29710 108.67061 42.02287
#
# Poissons Ratio (x) = 0.26992 0.07750
# Poissons Ratio (y) = 0.27644 0.15620
# Poissons Ratio (z) = 0.20525 0.40393
#
# Static dielectric constant tensor:
#      x y z
#    x 4.448390 0.000000 0.000000 
#    y 0.000000 3.946020 0.000000 
#    z 0.000000 0.000000 3.818170 
# 
# 
# High freq. dielectric constant tensor:
#      x y z
#    x 1.855130 0.000000 0.000000 
#    y 0.000000 1.864870 0.000000 
#    z 0.000000 0.000000 1.840320 
# 
# From -- ./inp_files/14399.got.cif
#   From: 2010.03.12/outbox.cif.g09.slc.cpg/sg40_8_cif.got.tgz:14399.got - 2010.04.14 01:38:03.
