data_PCOD8184295
_publ_section_title
;
Structure prediction by ZEFSAII (Michael W. Deem and Ramdas Pophale) SiO2 
 PCOD8184295
Probable space group: A M A 2
;
_chemical_formula_sum "Si O2"
_cell_formula_units_Z 64
_cell_length_a 17.285425
_cell_length_b 15.113553
_cell_length_c 11.891133
_cell_angle_alpha 90.000000
_cell_angle_beta 90.000000
_cell_angle_gamma 90.000000
_cell_volume 3106.489371
_symmetry_space_group_name_H-M "A M A 2"
_symmetry_group_IT_number 40
_symmetry_cell_setting 'orthorhombic'
loop_
_space_group_symop_operation_xyz
x,y,z
-x,-y,z
1/2-x,y,z
1/2+x,-y,z
x,1/2+y,1/2+z
-x,1/2-y,1/2+z
1/2-x,1/2+y,1/2+z
1/2+x,1/2-y,1/2+z
loop_
_atom_site_type_symbol
_atom_site_label
_atom_site_fract_x
_atom_site_fract_y
_atom_site_fract_z
Si Si1 0.661698 0.282742 0.439720
Si Si2 0.835881 0.482393 0.454858
Si Si3 0.411480 0.760750 0.674697
Si Si4 0.340628 0.615119 0.085297
Si Si5 0.659107 0.053976 0.719854
Si Si6 0.410581 0.772984 0.215971
Si Si7 0.587203 0.023289 0.179370
Si Si8 0.840710 0.881690 0.333446
O O1 0.750000 0.245194 0.448502
O O2 0.664499 0.384517 0.402374
O O3 0.617551 0.278920 0.557626
O O4 0.611377 0.231001 0.347520
O O5 0.750000 0.504786 0.502012
O O6 0.857794 0.546878 0.352748
O O7 0.897765 0.490159 0.553364
O O8 0.387327 0.862350 0.675908
O O9 0.502842 0.755438 0.688324
O O10 0.375162 0.704904 0.775298
O O11 0.250000 0.602404 0.077961
O O12 0.374484 0.532109 0.155288
O O13 0.356248 0.708752 0.144219
O O14 0.375739 0.613225 0.959291
O O15 0.750000 0.066862 0.696710
O O16 0.395052 0.873298 0.180589
O O17 0.500000 0.000000 0.212438
O O18 0.640867 0.971981 0.267613
O O19 0.750000 0.868024 0.336197
#
# Coordination Sequence:
#
# PCOD8184295 Si02
#       8
#     8   8   8   8   8   8   8   8
#     4  11  23  45  71  97 133 181 232 275 325 407
#     4  10  21  41  69  94 127 169 221 276 324 389
#     4  12  26  42  67  99 137 175 222 275 336 402
#     4  10  24  46  68  97 134 171 221 278 332 401
#     4  10  22  43  67  96 129 170 222 273 326 399
#     4  12  27  43  68 100 139 175 218 281 345 397
#     4  12  25  44  64  95 136 174 217 277 333 398
#     4  11  24  45  70  95 132 177 222 272 331 401
#
# _framework density 20.602034
#
# number of rings (size 3 to 8) (size 9 to 14) (size 15 to 20)
#    0.000    1.000    3.750    1.875    5.250    3.500 
#    0.000    0.000    0.000    0.000    0.000    0.000 
#    0.000    0.000    0.000    0.000    0.000    0.000 
#
# Total GULP energy -396913.562836 kJ/mol
# GULP energy per Si atom -12403.548839 kJ/mol
# Density = 2.055514 g / cm^3
# Si number density = 20.602034 Si / 1000 Ang^3
#
#
#
# Elastic Constant Matrix: (Units=GPa)
#
#
# Indices 1 2 3 4 5 6 
#
# 1 45.9579 -1.6926 22.9932 0.0000 0.0000 0.0000
# 2 -1.6926 131.7368 30.9432 0.0000 0.0000 0.0000
# 3 22.9932 30.9432 112.0597 0.0000 0.0000 0.0000
# 4 0.0000 0.0000 0.0000 12.7783 0.0000 0.0000
# 5 0.0000 0.0000 0.0000 0.0000 20.3985 0.0000
# 6 0.0000 0.0000 0.0000 0.0000 0.0000 26.2468
#
#
#
# Elastic Compliance Matrix: (Units=1/GPa)
#
#
# Indices 1 2 3 4 5 6 
#
# 1 0.024561 0.001603 -0.005482 0.000000 0.000000 0.000000
# 2 0.001603 0.008222 -0.002599 0.000000 0.000000 0.000000
# 3 -0.005482 -0.002599 0.010766 0.000000 0.000000 0.000000
# 4 0.000000 0.000000 0.000000 0.078258 0.000000 0.000000
# 5 0.000000 0.000000 0.000000 0.000000 0.049023 0.000000
# 6 0.000000 0.000000 0.000000 0.000000 0.000000 0.038100
#
#
# Mechanical properties :
#
#
# Convention : Reuss Voigt Hill
#
# Bulk Modulus (GPa) = 32.68747 43.80467 38.24607
# Shear Modulus (GPa) = 21.54388 27.71876 24.63132
#
# Velocity S-wave (km/s) = 3.23726 3.67200 3.46146
# Velocity P-wave (km/s) = 5.46569 6.26790 5.88049
#
# Compressibility (1/GPa) = 0.03059276
#
# Stress axis : x y z
#
# Youngs Moduli (GPa) = 40.71501 121.62427 92.88088
#
# Poissons Ratio (x) = -0.19500 0.50920
# Poissons Ratio (y) = -0.06528 0.24143
# Poissons Ratio (z) = 0.22321 0.31614
#
# Static dielectric constant tensor:
#      x y z
#    x 3.525050 0.000000 0.000000 
#    y 0.000000 3.881630 0.000000 
#    z 0.000000 0.000000 3.935650 
# 
# 
# High freq. dielectric constant tensor:
#      x y z
#    x 1.800230 0.000000 0.000000 
#    y 0.000000 1.813490 0.000000 
#    z 0.000000 0.000000 1.817450 
# 
# From -- ./inp_files/13108.got.cif
#   From: 2010.03.12/outbox.cif.g09.slc.cpg/sg40_7_cif.got.tgz:13108.got - 2010.04.14 01:38:03.
