data_PCOD8184758
_publ_section_title
;
Structure prediction by ZEFSAII (Michael W. Deem and Ramdas Pophale) SiO2 
 PCOD8184758
Probable space group: A B A 2
;
_chemical_formula_sum "Si O2"
_cell_formula_units_Z 52
_cell_length_a 17.610619
_cell_length_b 28.856258
_cell_length_c 5.093858
_cell_angle_alpha 90.000000
_cell_angle_beta 90.000000
_cell_angle_gamma 90.000000
_cell_volume 2588.579263
_symmetry_space_group_name_H-M "A B A 2"
_symmetry_group_IT_number 41
_symmetry_cell_setting 'orthorhombic'
loop_
_space_group_symop_operation_xyz
x,y,z
-x,-y,z
1/2-x,y,1/2+z
1/2+x,-y,1/2+z
x,1/2+y,1/2+z
-x,1/2-y,1/2+z
1/2-x,1/2+y,z
1/2+x,1/2-y,z
loop_
_atom_site_type_symbol
_atom_site_label
_atom_site_fract_x
_atom_site_fract_y
_atom_site_fract_z
Si Si1 0.652645 0.503922 0.050060
Si Si2 0.549304 0.649992 0.563313
Si Si3 0.795010 0.904176 0.030795
Si Si4 0.445784 0.151108 0.562816
Si Si5 0.500000 0.000000 0.791662
Si Si6 0.878938 0.056839 0.530724
Si Si7 0.452686 0.250573 0.466297
O O1 0.707774 0.460249 0.021336
O O2 0.568509 0.482270 0.105883
O O3 0.675244 0.537535 0.295781
O O4 0.654468 0.535764 0.794797
O O5 0.483515 0.643963 0.346282
O O6 0.617191 0.612551 0.537827
O O7 0.589607 0.700756 0.531416
O O8 0.511528 0.643979 0.847893
O O9 0.752912 0.885184 0.286958
O O10 0.880377 0.886127 0.020175
O O11 0.408304 0.202924 0.535706
O O12 0.466563 0.959374 0.978491
O O13 0.473274 0.249789 0.158016
#
# Coordination Sequence:
#
# PCOD8184758 Si02
#       7
#     8   8   8   8   4   8   8
#     4  10  21  33  47  71 101 129 170 210 252 298
#     4  10  18  30  53  81 107 132 160 204 273 332
#     4  12  25  38  52  72 101 146 187 210 246 301
#     4  10  20  33  51  72 106 139 168 214 251 313
#     4   8  20  28  50  72 102 132 154 212 260 314
#     4  10  19  28  47  74 102 129 160 202 258 314
#     4   8  16  30  47  74 104 132 156 191 260 312
#
# _framework density 20.088238
#
# number of rings (size 3 to 8) (size 9 to 14) (size 15 to 20)
#    0.923    1.231    0.000    4.154    4.308    0.000 
#    0.000    0.000    0.000    0.000    0.000    6.462 
#    0.000    0.000    0.000    0.000    0.000    0.000 
#
# Total GULP energy -322117.467219 kJ/mol
# GULP energy per Si atom -12389.133355 kJ/mol
# Density = 2.004252 g / cm^3
# Si number density = 20.088238 Si / 1000 Ang^3
#
#
#
# Elastic Constant Matrix: (Units=GPa)
#
#
# Indices 1 2 3 4 5 6 
#
# 1 15.9503 7.0319 6.7393 0.0000 0.0000 0.0000
# 2 7.0319 127.7351 27.2281 0.0000 0.0000 0.0000
# 3 6.7393 27.2281 130.1852 0.0000 0.0000 0.0000
# 4 0.0000 0.0000 0.0000 5.9417 0.0000 0.0000
# 5 0.0000 0.0000 0.0000 0.0000 13.6031 0.0000
# 6 0.0000 0.0000 0.0000 0.0000 0.0000 26.5687
#
#
#
# Elastic Compliance Matrix: (Units=1/GPa)
#
#
# Indices 1 2 3 4 5 6 
#
# 1 0.065179 -0.003003 -0.002746 0.000000 0.000000 0.000000
# 2 -0.003003 0.008332 -0.001587 0.000000 0.000000 0.000000
# 3 -0.002746 -0.001587 0.008155 0.000000 0.000000 0.000000
# 4 0.000000 0.000000 0.000000 0.168303 0.000000 0.000000
# 5 0.000000 0.000000 0.000000 0.000000 0.073513 0.000000
# 6 0.000000 0.000000 0.000000 0.000000 0.000000 0.037638
#
#
# Mechanical properties :
#
#
# Convention : Reuss Voigt Hill
#
# Bulk Modulus (GPa) = 14.92660 39.54102 27.23381
# Shear Modulus (GPa) = 12.55888 24.74745 18.65316
#
# Velocity S-wave (km/s) = 2.50308 3.51370 3.05054
# Velocity P-wave (km/s) = 3.97499 6.01564 5.09845
#
# Compressibility (1/GPa) = 0.06699451
#
# Stress axis : x y z
#
# Youngs Moduli (GPa) = 15.34239 120.01424 122.61671
#
# Poissons Ratio (x) = 0.36037 0.33672
# Poissons Ratio (y) = 0.04607 0.19462
# Poissons Ratio (z) = 0.04213 0.19049
#
# Static dielectric constant tensor:
#      x y z
#    x 3.009470 0.000000 0.000000 
#    y 0.000000 3.899910 0.000000 
#    z 0.000000 0.000000 3.802860 
# 
# 
# High freq. dielectric constant tensor:
#      x y z
#    x 1.715170 0.000000 0.000000 
#    y 0.000000 1.790320 0.000000 
#    z 0.000000 0.000000 1.806520 
# 
# From -- ./inp_files/561.got.cif
#   From: 2010.03.12/outbox.cif.g09.slc.cpg/sg41_1_cif.got.tgz:561.got - 2010.04.14 01:55:53.
