data_PCOD8184756
_publ_section_title
;
Structure prediction by ZEFSAII (Michael W. Deem and Ramdas Pophale) SiO2 
 PCOD8184756
Probable space group: A B A 2
;
_chemical_formula_sum "Si O2"
_cell_formula_units_Z 64
_cell_length_a 29.695295
_cell_length_b 17.024885
_cell_length_c 5.379220
_cell_angle_alpha 90.000000
_cell_angle_beta 90.000000
_cell_angle_gamma 90.000000
_cell_volume 2719.512989
_symmetry_space_group_name_H-M "A B A 2"
_symmetry_group_IT_number 41
_symmetry_cell_setting 'orthorhombic'
loop_
_space_group_symop_operation_xyz
x,y,z
-x,-y,z
1/2-x,y,1/2+z
1/2+x,-y,1/2+z
x,1/2+y,1/2+z
-x,1/2-y,1/2+z
1/2-x,1/2+y,z
1/2+x,1/2-y,z
loop_
_atom_site_type_symbol
_atom_site_label
_atom_site_fract_x
_atom_site_fract_y
_atom_site_fract_z
Si Si1 0.571064 0.548325 0.125000
Si Si2 0.368386 0.187395 0.005662
Si Si3 0.763566 0.129317 0.394143
Si Si4 0.772256 0.803901 0.342632
Si Si5 0.071774 0.598736 0.333371
Si Si6 0.478721 0.902641 0.125576
Si Si7 0.638285 0.664501 0.326523
Si Si8 0.933835 0.247809 0.623333
O O1 0.538279 0.562239 0.360963
O O2 0.617679 0.594935 0.158325
O O3 0.581819 0.455967 0.074364
O O4 0.550127 0.574401 0.864859
O O5 0.325492 0.171351 0.827660
O O6 0.415029 0.214190 0.875527
O O7 0.383022 0.110227 0.166288
O O8 0.350076 0.257027 0.177143
O O9 0.742355 0.083231 0.630823
O O10 0.735842 0.210092 0.341480
O O11 0.815930 0.138049 0.454741
O O12 0.750288 0.840393 0.593781
O O13 0.056669 0.684279 0.426867
O O14 0.030007 0.566090 0.165337
O O15 0.478540 0.806490 0.131925
O O16 0.603682 0.684405 0.543157
#
# Coordination Sequence:
#
# PCOD8184756 Si02
#       8
#     8   8   8   8   8   8   8   8
#     4  11  26  47  67  93 131 181 228 275 335 410
#     4  11  21  38  64  96 133 170 218 280 343 398
#     4  10  18  29  57  93 126 159 215 271 322 378
#     4  10  19  32  57  92 128 162 213 267 324 392
#     4  11  28  41  66  98 135 177 222 284 351 409
#     4  11  26  46  69  92 128 179 233 277 331 408
#     4  10  20  38  62  96 129 172 221 276 329 401
#     4  10  23  39  66  97 133 167 223 288 342 396
#
# _framework density 23.533625000000001
#
# number of rings (size 3 to 8) (size 9 to 14) (size 15 to 20)
#    0.000    1.500    3.750    1.875    7.000    1.000 
#    0.000    0.000    0.000    1.500    0.000    0.000 
#    0.000    0.000    0.000    0.000    0.000    0.000 
#
# Total GULP energy -396513.990164 kJ/mol
# GULP energy per Si atom -12391.062193 kJ/mol
# Density = 2.348006 g / cm^3
# Si number density = 23.533625 Si / 1000 Ang^3
#
#
#
# Elastic Constant Matrix: (Units=GPa)
#
#
# Indices 1 2 3 4 5 6 
#
# 1 94.5782 29.3628 21.5429 0.0000 0.0000 0.0000
# 2 29.3628 72.4233 32.1828 0.0000 0.0000 0.0000
# 3 21.5429 32.1828 149.9810 0.0000 0.0000 0.0000
# 4 0.0000 0.0000 0.0000 31.1769 0.0000 0.0000
# 5 0.0000 0.0000 0.0000 0.0000 28.0148 0.0000
# 6 0.0000 0.0000 0.0000 0.0000 0.0000 12.6977
#
#
#
# Elastic Compliance Matrix: (Units=1/GPa)
#
#
# Indices 1 2 3 4 5 6 
#
# 1 0.012174 -0.004597 -0.000762 0.000000 0.000000 0.000000
# 2 -0.004597 0.016999 -0.002987 0.000000 0.000000 0.000000
# 3 -0.000762 -0.002987 0.007418 0.000000 0.000000 0.000000
# 4 0.000000 0.000000 0.000000 0.032075 0.000000 0.000000
# 5 0.000000 0.000000 0.000000 0.000000 0.035695 0.000000
# 6 0.000000 0.000000 0.000000 0.000000 0.000000 0.078754
#
#
# Mechanical properties :
#
#
# Convention : Reuss Voigt Hill
#
# Bulk Modulus (GPa) = 50.25664 53.68440 51.97052
# Shear Modulus (GPa) = 24.21992 29.97082 27.09537
#
# Velocity S-wave (km/s) = 3.21154 3.57253 3.39683
# Velocity P-wave (km/s) = 5.92904 6.31495 6.12504
#
# Compressibility (1/GPa) = 0.01989787
#
# Stress axis : x y z
#
# Youngs Moduli (GPa) = 82.14166 58.82704 134.80702
#
# Poissons Ratio (x) = 0.27043 0.10275
# Poissons Ratio (y) = 0.37761 0.40271
# Poissons Ratio (z) = 0.06261 0.17574
#
# Static dielectric constant tensor:
#      x y z
#    x 4.154650 0.000000 0.000000 
#    y 0.000000 4.276070 0.000000 
#    z 0.000000 0.000000 4.688030 
# 
# 
# High freq. dielectric constant tensor:
#      x y z
#    x 1.924620 0.000000 0.000000 
#    y 0.000000 1.890250 0.000000 
#    z 0.000000 0.000000 1.950240 
# 
# From -- ./inp_files/1407.got.cif
#   From: 2010.03.12/outbox.cif.g09.slc.cpg/sg41_1_cif.got.tgz:1407.got - 2010.04.14 01:55:53.
