data_PCOD8184686
_publ_section_title
;
Structure prediction by ZEFSAII (Michael W. Deem and Ramdas Pophale) SiO2 
 PCOD8184686
Probable space group: A M A 2
;
_chemical_formula_sum "Si O2"
_cell_formula_units_Z 64
_cell_length_a 13.569820
_cell_length_b 12.805008
_cell_length_c 16.628807
_cell_angle_alpha 90.000000
_cell_angle_beta 90.000000
_cell_angle_gamma 90.000000
_cell_volume 2889.449003
_symmetry_space_group_name_H-M "A M A 2"
_symmetry_group_IT_number 40
_symmetry_cell_setting 'orthorhombic'
loop_
_space_group_symop_operation_xyz
x,y,z
-x,-y,z
1/2-x,y,z
1/2+x,-y,z
x,1/2+y,1/2+z
-x,1/2-y,1/2+z
1/2-x,1/2+y,1/2+z
1/2+x,1/2-y,1/2+z
loop_
_atom_site_type_symbol
_atom_site_label
_atom_site_fract_x
_atom_site_fract_y
_atom_site_fract_z
Si Si1 0.980488 0.110180 0.767690
Si Si2 0.366947 0.577494 0.568458
Si Si3 0.469076 0.385358 0.973751
Si Si4 0.133435 0.776721 0.325490
Si Si5 0.641453 0.546923 0.421363
Si Si6 0.858137 0.249350 0.028981
Si Si7 0.865714 0.113914 0.167600
Si Si8 0.367298 0.804416 0.621653
O O1 0.925366 0.072725 0.846957
O O2 0.912389 0.180069 0.710317
O O3 0.078398 0.171043 0.797049
O O4 0.000000 0.000000 0.721362
O O5 0.250000 0.576316 0.570569
O O6 0.402139 0.547539 0.477607
O O7 0.410513 0.495095 0.634198
O O8 0.405756 0.691787 0.590789
O O9 0.500000 0.500000 0.944096
O O10 0.404812 0.321689 0.909360
O O11 0.573343 0.330864 0.985110
O O12 0.407133 0.388753 0.057065
O O13 0.250000 0.752083 0.331540
O O14 0.109951 0.867999 0.260853
O O15 0.750000 0.515165 0.389645
O O16 0.650979 0.645292 0.478305
O O17 0.750000 0.301913 0.037389
O O18 0.902463 0.215194 0.116158
O O19 0.750000 0.109035 0.152219
O O20 0.250000 0.811978 0.628670
#
# Coordination Sequence:
#
# PCOD8184686 Si02
#       8
#     8   8   8   8   8   8   8   8
#     4  12  26  43  66 101 138 182 230 285 353 425
#     4   8  17  36  69 103 130 168 218 277 345 408
#     4  12  26  44  64  92 132 184 241 280 341 426
#     4  11  25  45  67  98 140 183 232 293 354 422
#     4   9  18  37  67 103 135 168 218 279 342 407
#     4   9  18  38  67  95 127 165 218 284 345 409
#     4   8  16  36  66  97 125 163 215 272 339 408
#     4  11  25  45  68  99 141 183 229 291 355 421
#
# _framework density 22.149552
#
# number of rings (size 3 to 8) (size 9 to 14) (size 15 to 20)
#    0.000    2.000    1.250    3.375    1.750    3.000 
#    0.000    5.625    0.000    0.000    0.000    0.000 
#    0.000    0.000    0.000    0.000    0.000    0.000 
#
# Total GULP energy -396658.261883 kJ/mol
# GULP energy per Si atom -12395.570684 kJ/mol
# Density = 2.209914 g / cm^3
# Si number density = 22.149552 Si / 1000 Ang^3
#
#
#
# Elastic Constant Matrix: (Units=GPa)
#
#
# Indices 1 2 3 4 5 6 
#
# 1 122.4966 45.7547 53.4151 0.0000 0.0000 0.0000
# 2 45.7547 107.5822 41.8409 0.0000 0.0000 0.0000
# 3 53.4151 41.8409 123.6811 0.0000 0.0000 0.0000
# 4 0.0000 0.0000 0.0000 12.6799 0.0000 0.0000
# 5 0.0000 0.0000 0.0000 0.0000 37.1540 0.0000
# 6 0.0000 0.0000 0.0000 0.0000 0.0000 38.0765
#
#
#
# Elastic Compliance Matrix: (Units=1/GPa)
#
#
# Indices 1 2 3 4 5 6 
#
# 1 0.010962 -0.003248 -0.003635 0.000000 0.000000 0.000000
# 2 -0.003248 0.011666 -0.002544 0.000000 0.000000 0.000000
# 3 -0.003635 -0.002544 0.010516 0.000000 0.000000 0.000000
# 4 0.000000 0.000000 0.000000 0.078865 0.000000 0.000000
# 5 0.000000 0.000000 0.000000 0.000000 0.026915 0.000000
# 6 0.000000 0.000000 0.000000 0.000000 0.000000 0.026263
#
#
# Mechanical properties :
#
#
# Convention : Reuss Voigt Hill
#
# Bulk Modulus (GPa) = 69.98302 70.64237 70.31269
# Shear Modulus (GPa) = 26.48242 31.76536 29.12389
#
# Velocity S-wave (km/s) = 3.46152 3.79110 3.63005
# Velocity P-wave (km/s) = 6.90221 7.15023 7.02732
#
# Compressibility (1/GPa) = 0.01428918
#
# Stress axis : x y z
#
# Youngs Moduli (GPa) = 91.22432 85.71912 95.09439
#
# Poissons Ratio (x) = 0.27844 0.34570
# Poissons Ratio (y) = 0.29632 0.24189
# Poissons Ratio (z) = 0.33163 0.21805
#
# Static dielectric constant tensor:
#      x y z
#    x 3.799770 0.000000 0.000000 
#    y 0.000000 4.424400 0.000000 
#    z 0.000000 0.000000 4.156530 
# 
# 
# High freq. dielectric constant tensor:
#      x y z
#    x 1.888600 0.000000 0.000000 
#    y 0.000000 1.861050 0.000000 
#    z 0.000000 0.000000 1.871100 
# 
# From -- ./inp_files/20788.got.cif
#   From: 2010.03.12/outbox.cif.g09.slc.cpg/sg40_11_cif.got.tgz:20788.got - 2010.04.14 01:38:03.
