data_PCOD8184215
_publ_section_title
;
Structure prediction by ZEFSAII (Michael W. Deem and Ramdas Pophale) SiO2 
 PCOD8184215
Probable space group: A M A 2
;
_chemical_formula_sum "Si O2"
_cell_formula_units_Z 64
_cell_length_a 8.796162
_cell_length_b 23.793114
_cell_length_c 15.368980
_cell_angle_alpha 90.000000
_cell_angle_beta 90.000000
_cell_angle_gamma 90.000000
_cell_volume 3216.544396
_symmetry_space_group_name_H-M "A M A 2"
_symmetry_group_IT_number 40
_symmetry_cell_setting 'orthorhombic'
loop_
_space_group_symop_operation_xyz
x,y,z
-x,-y,z
1/2-x,y,z
1/2+x,-y,z
x,1/2+y,1/2+z
-x,1/2-y,1/2+z
1/2-x,1/2+y,1/2+z
1/2+x,1/2-y,1/2+z
loop_
_atom_site_type_symbol
_atom_site_label
_atom_site_fract_x
_atom_site_fract_y
_atom_site_fract_z
Si Si1 0.428671 0.745542 0.470870
Si Si2 0.575417 0.630872 0.417778
Si Si3 0.424866 0.859121 0.721726
Si Si4 0.576638 0.629763 0.715008
Si Si5 0.429514 0.439221 0.066194
Si Si6 0.928196 0.939738 0.065434
Si Si7 0.430054 0.865119 0.408130
Si Si8 0.922921 0.253187 0.152838
O O1 0.250000 0.735791 0.457082
O O2 0.518813 0.694002 0.430185
O O3 0.490165 0.802093 0.425060
O O4 0.461935 0.750482 0.572827
O O5 0.750000 0.628025 0.447814
O O6 0.554821 0.613840 0.317125
O O7 0.482915 0.586723 0.475040
O O8 0.250000 0.841950 0.705049
O O9 0.479562 0.904617 0.651300
O O10 0.528986 0.804014 0.715426
O O11 0.750000 0.610033 0.698624
O O12 0.468799 0.600371 0.645658
O O13 0.521512 0.613473 0.812348
O O14 0.563680 0.696703 0.708568
O O15 0.500000 0.500000 0.072403
O O16 0.250000 0.445278 0.060723
O O17 0.495348 0.407672 0.980672
O O18 0.750000 0.946937 0.060523
O O19 0.000000 0.000000 0.081274
O O20 0.250000 0.862709 0.416546
O O21 0.750000 0.261798 0.120246
#
# Coordination Sequence:
#
# PCOD8184215 Si02
#       8
#     8   8   8   8   8   8   8   8
#     4  11  20  36  62  90 123 163 199 240 303 367
#     4  11  23  40  62  92 124 157 199 253 304 360
#     4  10  22  40  62  87 123 162 200 247 303 362
#     4  10  21  39  62  90 123 157 196 247 300 358
#     4  10  21  40  60  83 114 155 200 246 296 349
#     4  12  26  44  65  87 117 160 204 255 307 364
#     4   9  19  37  62  87 120 161 198 239 297 361
#     4  11  21  34  59  92 127 160 198 247 299 355
#
# _framework density 19.897130000000001
#
# number of rings (size 3 to 8) (size 9 to 14) (size 15 to 20)
#    0.000    1.500    2.500    3.000    0.000    4.000 
#    0.000    4.375    0.000    0.000    0.000    0.000 
#    0.000    0.000    0.000    0.000    0.000    0.000 
#
# Total GULP energy -396917.020636 kJ/mol
# GULP energy per Si atom -12403.656895 kJ/mol
# Density = 1.985184 g / cm^3
# Si number density = 19.897130 Si / 1000 Ang^3
#
#
#
# Elastic Constant Matrix: (Units=GPa)
#
#
# Indices 1 2 3 4 5 6 
#
# 1 88.9017 43.0512 38.5558 0.0000 0.0000 0.0000
# 2 43.0512 109.9610 39.3713 0.0000 0.0000 0.0000
# 3 38.5558 39.3713 132.0551 0.0000 0.0000 0.0000
# 4 0.0000 0.0000 0.0000 12.3670 0.0000 0.0000
# 5 0.0000 0.0000 0.0000 0.0000 -12.3739 0.0000
# 6 0.0000 0.0000 0.0000 0.0000 0.0000 31.0847
#
#
#
# Elastic Compliance Matrix: (Units=1/GPa)
#
#
# Indices 1 2 3 4 5 6 
#
# 1 0.014813 -0.004759 -0.002906 0.000000 0.000000 0.000000
# 2 -0.004759 0.011710 -0.002102 0.000000 0.000000 0.000000
# 3 -0.002906 -0.002102 0.009048 0.000000 0.000000 0.000000
# 4 0.000000 0.000000 0.000000 0.080860 0.000000 0.000000
# 5 0.000000 0.000000 0.000000 0.000000 -0.080815 0.000000
# 6 0.000000 0.000000 0.000000 0.000000 0.000000 0.032170
#
#
# Mechanical properties :
#
#
# Convention : Reuss Voigt Hill
#
# Bulk Modulus (GPa) = 62.35552 63.65270 63.00411
# Shear Modulus (GPa) = 53.95727 20.21153 37.08440
#
# Velocity S-wave (km/s) = 5.21316 3.19062 4.32187
# Velocity P-wave (km/s) = 8.22453 6.75528 7.52585
#
# Compressibility (1/GPa) = 0.01603707
#
# Stress axis : x y z
#
# Youngs Moduli (GPa) = 67.50665 85.39782 110.52525
#
# Poissons Ratio (x) = 0.40642 0.32120
# Poissons Ratio (y) = 0.32127 0.23229
# Poissons Ratio (z) = 0.19618 0.17948
#
# Static dielectric constant tensor:
#      x y z
#    x 3.627120 0.000000 0.000000 
#    y 0.000000 3.624320 0.000000 
#    z 0.000000 0.000000 3.819360 
# 
# 
# High freq. dielectric constant tensor:
#      x y z
#    x 1.764800 0.000000 0.000000 
#    y 0.000000 1.773180 0.000000 
#    z 0.000000 0.000000 1.790200 
# 
# From -- ./inp_files/15555.got.cif
#   From: 2010.03.12/outbox.cif.g09.slc.cpg/sg40_8_cif.got.tgz:15555.got - 2010.04.14 01:38:03.
