data_PCOD8184293
_publ_section_title
;
Structure prediction by ZEFSAII (Michael W. Deem and Ramdas Pophale) SiO2 
 PCOD8184293
Probable space group: A M A 2
;
_chemical_formula_sum "Si O2"
_cell_formula_units_Z 64
_cell_length_a 28.590224
_cell_length_b 9.293703
_cell_length_c 11.137162
_cell_angle_alpha 90.000000
_cell_angle_beta 90.000000
_cell_angle_gamma 90.000000
_cell_volume 2959.244741
_symmetry_space_group_name_H-M "A M A 2"
_symmetry_group_IT_number 40
_symmetry_cell_setting 'orthorhombic'
loop_
_space_group_symop_operation_xyz
x,y,z
-x,-y,z
1/2-x,y,z
1/2+x,-y,z
x,1/2+y,1/2+z
-x,1/2-y,1/2+z
1/2-x,1/2+y,1/2+z
1/2+x,1/2-y,1/2+z
loop_
_atom_site_type_symbol
_atom_site_label
_atom_site_fract_x
_atom_site_fract_y
_atom_site_fract_z
Si Si1 0.419688 0.086486 0.319460
Si Si2 0.197966 0.153657 0.532429
Si Si3 0.122126 0.584944 0.213921
Si Si4 0.336865 0.789568 0.790088
Si Si5 0.101990 0.276875 0.923408
Si Si6 0.538677 0.883609 0.552954
Si Si7 0.699084 0.681559 0.034553
Si Si8 0.475798 0.135735 0.090276
O O1 0.374952 0.166964 0.266098
O O2 0.443210 0.181419 0.425460
O O3 0.455254 0.064690 0.210978
O O4 0.406257 0.941697 0.390429
O O5 0.250000 0.194459 0.577180
O O6 0.162092 0.175426 0.642497
O O7 0.187159 0.256095 0.418086
O O8 0.195277 0.985856 0.498857
O O9 0.140254 0.448056 0.288386
O O10 0.096568 0.692514 0.301257
O O11 0.081422 0.537741 0.122045
O O12 0.301126 0.789424 0.678144
O O13 0.154364 0.244242 0.973914
O O14 0.063709 0.216021 0.014299
O O15 0.515830 0.751218 0.625244
O O16 0.500000 0.000000 0.522610
O O17 0.750000 0.739852 0.988590
O O18 0.500000 0.000000 0.021399
#
# Coordination Sequence:
#
# PCOD8184293 Si02
#       8
#     8   8   8   8   8   8   8   8
#     4  12  23  45  71  94 134 178 226 279 337 403
#     4  10  21  42  70  98 130 174 222 273 336 409
#     4  11  26  40  65  97 137 173 220 280 336 404
#     4  11  20  41  71  97 127 174 224 277 336 399
#     4  12  25  45  65  98 139 181 218 276 346 401
#     4  12  24  44  68  96 130 178 229 277 342 401
#     4  10  21  41  69 101 131 171 223 274 334 411
#     4  12  28  43  67 100 137 179 230 287 339 405
#
# _framework density 21.627140000000001
#
# number of rings (size 3 to 8) (size 9 to 14) (size 15 to 20)
#    0.000    0.750    5.000    3.000    3.500    2.500 
#    0.000    0.000    0.000    0.000    0.000    0.000 
#    0.000    0.000    0.000    0.000    0.000    0.000 
#
# Total GULP energy -396605.366879 kJ/mol
# GULP energy per Si atom -12393.917715 kJ/mol
# Density = 2.157792 g / cm^3
# Si number density = 21.627140 Si / 1000 Ang^3
#
#
#
# Elastic Constant Matrix: (Units=GPa)
#
#
# Indices 1 2 3 4 5 6 
#
# 1 137.9781 45.7308 44.1495 0.0000 0.0000 0.0000
# 2 45.7308 81.3343 44.0070 0.0000 0.0000 0.0000
# 3 44.1495 44.0070 109.2828 0.0000 0.0000 0.0000
# 4 0.0000 0.0000 0.0000 39.0563 0.0000 0.0000
# 5 0.0000 0.0000 0.0000 0.0000 21.8327 0.0000
# 6 0.0000 0.0000 0.0000 0.0000 0.0000 22.9619
#
#
#
# Elastic Compliance Matrix: (Units=1/GPa)
#
#
# Indices 1 2 3 4 5 6 
#
# 1 0.009271 -0.004074 -0.002105 0.000000 0.000000 0.000000
# 2 -0.004074 0.017510 -0.005405 0.000000 0.000000 0.000000
# 3 -0.002105 -0.005405 0.012178 0.000000 0.000000 0.000000
# 4 0.000000 0.000000 0.000000 0.025604 0.000000 0.000000
# 5 0.000000 0.000000 0.000000 0.000000 0.045803 0.000000
# 6 0.000000 0.000000 0.000000 0.000000 0.000000 0.043550
#
#
# Mechanical properties :
#
#
# Convention : Reuss Voigt Hill
#
# Bulk Modulus (GPa) = 63.32881 66.26332 64.79607
# Shear Modulus (GPa) = 27.42003 29.75070 28.58537
#
# Velocity S-wave (km/s) = 3.56455 3.71296 3.63951
# Velocity P-wave (km/s) = 6.80346 7.00620 6.90558
#
# Compressibility (1/GPa) = 0.01579060
#
# Stress axis : x y z
#
# Youngs Moduli (GPa) = 107.85945 57.10973 82.11766
#
# Poissons Ratio (x) = 0.23266 0.17286
# Poissons Ratio (y) = 0.43941 0.44387
# Poissons Ratio (z) = 0.22705 0.30870
#
# Static dielectric constant tensor:
#      x y z
#    x 4.238150 0.000000 0.000000 
#    y 0.000000 3.749270 0.000000 
#    z 0.000000 0.000000 3.846770 
# 
# 
# High freq. dielectric constant tensor:
#      x y z
#    x 1.870560 0.000000 0.000000 
#    y 0.000000 1.832750 0.000000 
#    z 0.000000 0.000000 1.846050 
# 
# From -- ./inp_files/14397.got.cif
#   From: 2010.03.12/outbox.cif.g09.slc.cpg/sg40_8_cif.got.tgz:14397.got - 2010.04.14 01:38:03.
