data_PCOD8184992
_publ_section_title
;
Structure prediction by ZEFSAII (Michael W. Deem and Ramdas Pophale) SiO2 
 PCOD8184992
Probable space group: A B A 2
;
_chemical_formula_sum "Si O2"
_cell_formula_units_Z 40
_cell_length_a 18.411300
_cell_length_b 11.412790
_cell_length_c 8.231134
_cell_angle_alpha 90.000000
_cell_angle_beta 90.000000
_cell_angle_gamma 90.000000
_cell_volume 1729.561274
_symmetry_space_group_name_H-M "A B A 2"
_symmetry_group_IT_number 41
_symmetry_cell_setting 'orthorhombic'
loop_
_space_group_symop_operation_xyz
x,y,z
-x,-y,z
1/2-x,y,1/2+z
1/2+x,-y,1/2+z
x,1/2+y,1/2+z
-x,1/2-y,1/2+z
1/2-x,1/2+y,z
1/2+x,1/2-y,z
loop_
_atom_site_type_symbol
_atom_site_label
_atom_site_fract_x
_atom_site_fract_y
_atom_site_fract_z
Si Si1 0.841515 0.143874 0.775220
Si Si2 0.020565 0.265508 0.407422
Si Si3 0.798150 0.710891 0.943267
Si Si4 0.890533 0.929955 0.976951
Si Si5 0.918995 0.629670 0.717328
O O1 0.917432 0.215663 0.770209
O O2 0.810021 0.123899 0.595361
O O3 0.785765 0.214489 0.892199
O O4 0.856439 0.016704 0.846629
O O5 0.059290 0.270884 0.583265
O O6 0.961860 0.370601 0.401859
O O7 0.979218 0.143426 0.362758
O O8 0.826942 0.835961 0.009922
O O9 0.840605 0.663557 0.786049
O O10 0.914609 0.999517 0.141295
#
# Coordination Sequence:
#
# PCOD8184992 Si02
#       5
#     8   8   8   8   8
#     4  11  22  41  66  94 131 170 219 270 324 389
#     4  10  20  39  67  96 128 169 215 271 327 388
#     4  11  25  42  64  95 134 178 219 271 327 393
#     4  10  23  44  66  94 132 173 216 272 334 392
#     4  10  20  40  65  93 131 170 215 266 324 390
#
# _framework density 23.127253
#
# number of rings (size 3 to 8) (size 9 to 14) (size 15 to 20)
#    0.000    1.600    0.000    7.200    0.000    3.200 
#    0.000   20.000    0.000    0.000    0.000    0.000 
#    0.000    0.000    0.000    0.000    0.000    0.000 
#
# Total GULP energy -247898.267251 kJ/mol
# GULP energy per Si atom -12394.913363 kJ/mol
# Density = 2.307461 g / cm^3
# Si number density = 23.127253 Si / 1000 Ang^3
#
#
#
# Elastic Constant Matrix: (Units=GPa)
#
#
# Indices 1 2 3 4 5 6 
#
# 1 143.6911 66.5629 43.0765 0.0000 0.0000 0.0000
# 2 66.5629 101.2530 46.3893 0.0000 0.0000 0.0000
# 3 43.0765 46.3893 108.0528 0.0000 0.0000 0.0000
# 4 0.0000 0.0000 0.0000 32.1946 0.0000 0.0000
# 5 0.0000 0.0000 0.0000 0.0000 48.5728 0.0000
# 6 0.0000 0.0000 0.0000 0.0000 0.0000 34.7124
#
#
#
# Elastic Compliance Matrix: (Units=1/GPa)
#
#
# Indices 1 2 3 4 5 6 
#
# 1 0.010193 -0.006024 -0.001477 0.000000 0.000000 0.000000
# 2 -0.006024 0.015854 -0.004405 0.000000 0.000000 0.000000
# 3 -0.001477 -0.004405 0.011735 0.000000 0.000000 0.000000
# 4 0.000000 0.000000 0.000000 0.031061 0.000000 0.000000
# 5 0.000000 0.000000 0.000000 0.000000 0.020588 0.000000
# 6 0.000000 0.000000 0.000000 0.000000 0.000000 0.028808
#
#
# Mechanical properties :
#
#
# Convention : Reuss Voigt Hill
#
# Bulk Modulus (GPa) = 71.58437 73.89493 72.73965
# Shear Modulus (GPa) = 34.08130 36.22716 35.15423
#
# Velocity S-wave (km/s) = 3.84297 3.96211 3.90299
# Velocity P-wave (km/s) = 7.12115 7.27680 7.19940
#
# Compressibility (1/GPa) = 0.01396953
#
# Stress axis : x y z
#
# Youngs Moduli (GPa) = 98.10979 63.07373 85.21568
#
# Poissons Ratio (x) = 0.37994 0.12589
# Poissons Ratio (y) = 0.59099 0.37539
# Poissons Ratio (z) = 0.14494 0.27785
#
# Static dielectric constant tensor:
#      x y z
#    x 4.455470 0.000000 0.000000 
#    y 0.000000 3.922050 0.000000 
#    z 0.000000 0.000000 4.245350 
# 
# 
# High freq. dielectric constant tensor:
#      x y z
#    x 1.937030 0.000000 0.000000 
#    y 0.000000 1.880670 0.000000 
#    z 0.000000 0.000000 1.916860 
# 
# From -- ./inp_files/3326.got.cif
#   From: 2010.03.12/outbox.cif.g09.slc.cpg/sg41_2_cif.got.tgz:3326.got - 2010.04.14 01:55:53.
