data_PCOD8184509
_publ_section_title
;
Structure prediction by ZEFSAII (Michael W. Deem and Ramdas Pophale) SiO2 
 PCOD8184509
Probable space group: A M A 2
;
_chemical_formula_sum "Si O2"
_cell_formula_units_Z 32
_cell_length_a 12.599220
_cell_length_b 17.039095
_cell_length_c 6.433514
_cell_angle_alpha 90.000000
_cell_angle_beta 90.000000
_cell_angle_gamma 90.000000
_cell_volume 1381.142324
_symmetry_space_group_name_H-M "A M A 2"
_symmetry_group_IT_number 40
_symmetry_cell_setting 'orthorhombic'
loop_
_space_group_symop_operation_xyz
x,y,z
-x,-y,z
1/2-x,y,z
1/2+x,-y,z
x,1/2+y,1/2+z
-x,1/2-y,1/2+z
1/2-x,1/2+y,1/2+z
1/2+x,1/2-y,1/2+z
loop_
_atom_site_type_symbol
_atom_site_label
_atom_site_fract_x
_atom_site_fract_y
_atom_site_fract_z
Si Si1 0.871976 0.556877 0.773560
Si Si2 0.007882 0.870607 0.634456
Si Si3 0.065584 0.101314 0.054055
Si Si4 0.630512 0.768795 0.320506
O O1 0.750000 0.583957 0.772895
O O2 0.882468 0.467709 0.692797
O O3 0.941415 0.611709 0.622024
O O4 0.921109 0.566905 0.005980
O O5 0.083317 0.815954 0.773665
O O6 0.935222 0.816717 0.490684
O O7 0.933366 0.915515 0.805561
O O8 0.128527 0.180821 0.105786
O O9 0.750000 0.758320 0.400397
#
# Coordination Sequence:
#
# PCOD8184509 Si02
#       4
#     8   8   8   8
#     4  10  23  42  68  98 133 180 229 282 346 406
#     4  11  23  45  66 102 140 175 232 288 334 418
#     4  10  23  43  65  98 140 175 227 286 337 416
#     4  11  23  41  69 100 136 184 227 282 351 404
#
# _framework density 23.169228
#
# number of rings (size 3 to 8) (size 9 to 14) (size 15 to 20)
#    0.000    1.500    2.500    1.500    0.000   12.000 
#    0.000    0.000    0.000    0.000    0.000    0.000 
#    0.000    0.000    0.000    0.000    0.000    0.000 
#
# Total GULP energy -198284.267332 kJ/mol
# GULP energy per Si atom -12392.766708 kJ/mol
# Density = 2.311649 g / cm^3
# Si number density = 23.169228 Si / 1000 Ang^3
#
#
#
# Elastic Constant Matrix: (Units=GPa)
#
#
# Indices 1 2 3 4 5 6 
#
# 1 136.1560 7.4256 28.9806 0.0000 0.0000 0.0000
# 2 7.4256 75.1794 36.9228 0.0000 0.0000 0.0000
# 3 28.9806 36.9228 148.5711 0.0000 0.0000 0.0000
# 4 0.0000 0.0000 0.0000 39.4119 0.0000 0.0000
# 5 0.0000 0.0000 0.0000 0.0000 16.3114 0.0000
# 6 0.0000 0.0000 0.0000 0.0000 0.0000 19.8174
#
#
#
# Elastic Compliance Matrix: (Units=1/GPa)
#
#
# Indices 1 2 3 4 5 6 
#
# 1 0.007663 -0.000026 -0.001488 0.000000 0.000000 0.000000
# 2 -0.000026 0.015151 -0.003760 0.000000 0.000000 0.000000
# 3 -0.001488 -0.003760 0.007956 0.000000 0.000000 0.000000
# 4 0.000000 0.000000 0.000000 0.025373 0.000000 0.000000
# 5 0.000000 0.000000 0.000000 0.000000 0.061307 0.000000
# 6 0.000000 0.000000 0.000000 0.000000 0.000000 0.050461
#
#
# Mechanical properties :
#
#
# Convention : Reuss Voigt Hill
#
# Bulk Modulus (GPa) = 49.45523 56.28493 52.87008
# Shear Modulus (GPa) = 26.99803 34.21330 30.60566
#
# Velocity S-wave (km/s) = 3.41728 3.84691 3.63845
# Velocity P-wave (km/s) = 6.07964 6.63908 6.36551
#
# Compressibility (1/GPa) = 0.02022031
#
# Stress axis : x y z
#
# Youngs Moduli (GPa) = 130.50226 66.00296 125.69802
#
# Poissons Ratio (x) = 0.00171 0.18707
# Poissons Ratio (y) = 0.00338 0.47265
# Poissons Ratio (z) = 0.19422 0.24819
#
# Static dielectric constant tensor:
#      x y z
#    x 4.118340 0.000000 0.000000 
#    y 0.000000 4.054430 0.000000 
#    z 0.000000 0.000000 4.444720 
# 
# 
# High freq. dielectric constant tensor:
#      x y z
#    x 1.899910 0.000000 0.000000 
#    y 0.000000 1.911800 0.000000 
#    z 0.000000 0.000000 1.924730 
# 
# From -- ./inp_files/1091.got.cif
#   From: 2010.03.12/outbox.cif.g09.slc.cpg/sg40_1_cif.got.tgz:1091.got - 2010.04.14 01:38:03.
