data_PCOD8184138
_publ_section_title
;
Structure prediction by ZEFSAII (Michael W. Deem and Ramdas Pophale) SiO2 
 PCOD8184138
Probable space group: A M A 2
;
_chemical_formula_sum "Si O2"
_cell_formula_units_Z 64
_cell_length_a 18.626820
_cell_length_b 15.534130
_cell_length_c 11.370712
_cell_angle_alpha 90.000000
_cell_angle_beta 90.000000
_cell_angle_gamma 90.000000
_cell_volume 3290.131929
_symmetry_space_group_name_H-M "A M A 2"
_symmetry_group_IT_number 40
_symmetry_cell_setting 'orthorhombic'
loop_
_space_group_symop_operation_xyz
x,y,z
-x,-y,z
1/2-x,y,z
1/2+x,-y,z
x,1/2+y,1/2+z
-x,1/2-y,1/2+z
1/2-x,1/2+y,1/2+z
1/2+x,1/2-y,1/2+z
loop_
_atom_site_type_symbol
_atom_site_label
_atom_site_fract_x
_atom_site_fract_y
_atom_site_fract_z
Si Si1 0.058589 0.927590 0.755310
Si Si2 0.543092 0.217809 0.570004
Si Si3 0.334617 0.504279 0.836430
Si Si4 0.579622 0.841524 0.256793
Si Si5 0.095804 0.792468 0.944523
Si Si6 0.415814 0.837472 0.327417
Si Si7 0.831266 0.768578 0.656966
Si Si8 0.166953 0.533725 0.103292
O O1 0.025517 0.855424 0.667636
O O2 0.082087 0.883841 0.879518
O O3 0.126620 0.972480 0.694974
O O4 0.000000 0.000000 0.783673
O O5 0.585479 0.296741 0.629754
O O6 0.472630 0.258512 0.515023
O O7 0.591443 0.178134 0.466817
O O8 0.250000 0.514019 0.820212
O O9 0.374854 0.571892 0.752972
O O10 0.361412 0.412559 0.790784
O O11 0.359813 0.516225 0.970896
O O12 0.617787 0.777702 0.348244
O O13 0.496933 0.860034 0.291220
O O14 0.158440 0.794054 0.042727
O O15 0.387841 0.753612 0.259291
O O16 0.750000 0.757422 0.701879
O O17 0.848614 0.866714 0.626000
O O18 0.250000 0.510260 0.116641
#
# Coordination Sequence:
#
# PCOD8184138 Si02
#       8
#     8   8   8   8   8   8   8   8
#     4  11  23  37  64  92 119 157 204 262 303 357
#     4  10  21  39  60  90 121 154 199 255 304 359
#     4  11  22  39  59  89 122 155 204 254 303 361
#     4  10  21  37  64  89 119 155 202 254 303 358
#     4  10  21  38  58  91 120 154 201 250 299 363
#     4  11  22  38  63  91 120 158 205 253 301 369
#     4  11  22  41  64  86 124 170 204 242 306 381
#     4  10  22  39  60  87 121 159 206 252 302 364
#
# _framework density 19.452107000000002
#
# number of rings (size 3 to 8) (size 9 to 14) (size 15 to 20)
#    0.000    1.500    3.750    1.500    5.250    0.500 
#    2.250    3.125    0.000    1.500    0.000    0.000 
#    0.000    0.000    0.000    0.000    0.000    0.000 
#
# Total GULP energy -396778.885055 kJ/mol
# GULP energy per Si atom -12399.340158 kJ/mol
# Density = 1.940783 g / cm^3
# Si number density = 19.452107 Si / 1000 Ang^3
#
#
#
# Elastic Constant Matrix: (Units=GPa)
#
#
# Indices 1 2 3 4 5 6 
#
# 1 79.5828 37.8435 18.2711 0.0000 0.0000 0.0000
# 2 37.8435 106.3352 39.5310 0.0000 0.0000 0.0000
# 3 18.2711 39.5310 67.2490 0.0000 0.0000 0.0000
# 4 0.0000 0.0000 0.0000 34.5624 0.0000 0.0000
# 5 0.0000 0.0000 0.0000 0.0000 20.2629 0.0000
# 6 0.0000 0.0000 0.0000 0.0000 0.0000 28.4248
#
#
#
# Elastic Compliance Matrix: (Units=1/GPa)
#
#
# Indices 1 2 3 4 5 6 
#
# 1 0.015202 -0.004958 -0.001216 0.000000 0.000000 0.000000
# 2 -0.004958 0.013651 -0.006677 0.000000 0.000000 0.000000
# 3 -0.001216 -0.006677 0.019126 0.000000 0.000000 0.000000
# 4 0.000000 0.000000 0.000000 0.028933 0.000000 0.000000
# 5 0.000000 0.000000 0.000000 0.000000 0.049351 0.000000
# 6 0.000000 0.000000 0.000000 0.000000 0.000000 0.035180
#
#
# Mechanical properties :
#
#
# Convention : Reuss Voigt Hill
#
# Bulk Modulus (GPa) = 44.89100 49.38427 47.13764
# Shear Modulus (GPa) = 25.69730 27.15144 26.42437
#
# Velocity S-wave (km/s) = 3.63857 3.74011 3.68969
# Velocity P-wave (km/s) = 6.38593 6.64033 6.51437
#
# Compressibility (1/GPa) = 0.02227618
#
# Stress axis : x y z
#
# Youngs Moduli (GPa) = 65.77867 73.25317 52.28591
#
# Poissons Ratio (x) = 0.36322 0.06356
# Poissons Ratio (y) = 0.32616 0.34914
# Poissons Ratio (z) = 0.07997 0.48914
#
# Static dielectric constant tensor:
#      x y z
#    x 3.411860 0.000000 0.000000 
#    y 0.000000 3.584310 0.000000 
#    z 0.000000 0.000000 3.796700 
# 
# 
# High freq. dielectric constant tensor:
#      x y z
#    x 1.747730 0.000000 0.000000 
#    y 0.000000 1.760790 0.000000 
#    z 0.000000 0.000000 1.753660 
# 
# From -- ./inp_files/13139.got.cif
#   From: 2010.03.12/outbox.cif.g09.slc.cpg/sg40_7_cif.got.tgz:13139.got - 2010.04.14 01:38:03.
