data_PCOD8184598
_publ_section_title
;
Structure prediction by ZEFSAII (Michael W. Deem and Ramdas Pophale) SiO2 
 PCOD8184598
Probable space group: A M A 2
;
_chemical_formula_sum "Si O2"
_cell_formula_units_Z 48
_cell_length_a 21.468158
_cell_length_b 21.339328
_cell_length_c 5.023489
_cell_angle_alpha 90.000000
_cell_angle_beta 90.000000
_cell_angle_gamma 90.000000
_cell_volume 2301.341014
_symmetry_space_group_name_H-M "A M A 2"
_symmetry_group_IT_number 40
_symmetry_cell_setting 'orthorhombic'
loop_
_space_group_symop_operation_xyz
x,y,z
-x,-y,z
1/2-x,y,z
1/2+x,-y,z
x,1/2+y,1/2+z
-x,1/2-y,1/2+z
1/2-x,1/2+y,1/2+z
1/2+x,1/2-y,1/2+z
loop_
_atom_site_type_symbol
_atom_site_label
_atom_site_fract_x
_atom_site_fract_y
_atom_site_fract_z
Si Si1 0.067967 0.521367 0.309440
Si Si2 0.677832 0.168932 0.192047
Si Si3 0.617216 0.109070 0.695588
Si Si4 0.929829 0.896274 0.294619
Si Si5 0.402795 0.216563 0.599512
Si Si6 0.991858 0.675272 0.443520
O O1 0.116176 0.465425 0.244367
O O2 0.097916 0.564310 0.544609
O O3 0.000000 0.500000 0.413763
O O4 0.057322 0.558553 0.038951
O O5 0.750000 0.167558 0.262916
O O6 0.640010 0.126809 0.401235
O O7 0.655579 0.241720 0.193797
O O8 0.665062 0.140834 0.902011
O O9 0.547167 0.133945 0.735329
O O10 0.884102 0.838617 0.390420
O O11 0.997076 0.864880 0.213699
O O12 0.456544 0.259765 0.472891
O O13 0.436761 0.184278 0.849009
#
# Coordination Sequence:
#
# PCOD8184598 Si02
#       6
#     8   8   8   8   8   8
#     4  12  24  36  60  93 135 171 203 253 317 403
#     4  11  26  45  70  94 121 171 229 281 321 378
#     4  11  24  42  66  95 132 169 219 271 331 387
#     4  12  23  35  56  93 138 165 207 249 326 400
#     4  11  22  36  64  91 138 162 211 264 329 399
#     4  11  21  35  60  97 131 171 200 259 333 395
#
# _framework density 20.857406000000001
#
# number of rings (size 3 to 8) (size 9 to 14) (size 15 to 20)
#    0.000    0.667    5.000    3.000    9.333    0.000 
#    0.000    0.000    0.000    6.000    0.000    0.000 
#    0.000    0.000    0.000    0.000    0.000    0.000 
#
# Total GULP energy -297456.270884 kJ/mol
# GULP energy per Si atom -12394.011287 kJ/mol
# Density = 2.080993 g / cm^3
# Si number density = 20.857406 Si / 1000 Ang^3
#
#
#
# Elastic Constant Matrix: (Units=GPa)
#
#
# Indices 1 2 3 4 5 6 
#
# 1 68.0584 34.6941 9.8995 0.0000 0.0000 0.0000
# 2 34.6941 141.3917 42.8337 0.0000 0.0000 0.0000
# 3 9.8995 42.8337 98.0341 0.0000 0.0000 0.0000
# 4 0.0000 0.0000 0.0000 45.9227 0.0000 0.0000
# 5 0.0000 0.0000 0.0000 0.0000 19.3797 0.0000
# 6 0.0000 0.0000 0.0000 0.0000 0.0000 11.7443
#
#
#
# Elastic Compliance Matrix: (Units=1/GPa)
#
#
# Indices 1 2 3 4 5 6 
#
# 1 0.016795 -0.004158 0.000121 0.000000 0.000000 0.000000
# 2 -0.004158 0.009181 -0.003591 0.000000 0.000000 0.000000
# 3 0.000121 -0.003591 0.011758 0.000000 0.000000 0.000000
# 4 0.000000 0.000000 0.000000 0.021776 0.000000 0.000000
# 5 0.000000 0.000000 0.000000 0.000000 0.051600 0.000000
# 6 0.000000 0.000000 0.000000 0.000000 0.000000 0.085148
#
#
# Mechanical properties :
#
#
# Convention : Reuss Voigt Hill
#
# Bulk Modulus (GPa) = 44.49103 53.59320 49.04211
# Shear Modulus (GPa) = 22.83036 30.07980 26.45508
#
# Velocity S-wave (km/s) = 3.31205 3.80170 3.56529
# Velocity P-wave (km/s) = 6.00030 6.70980 6.36494
#
# Compressibility (1/GPa) = 0.02247644
#
# Stress axis : x y z
#
# Youngs Moduli (GPa) = 59.54093 108.92351 85.05165
#
# Poissons Ratio (x) = 0.45287 -0.01026
# Poissons Ratio (y) = 0.24755 0.30546
# Poissons Ratio (z) = -0.00718 0.39120
#
# Static dielectric constant tensor:
#      x y z
#    x 3.260380 0.000000 0.000000 
#    y 0.000000 4.405110 0.000000 
#    z 0.000000 0.000000 3.947170 
# 
# 
# High freq. dielectric constant tensor:
#      x y z
#    x 1.740440 0.000000 0.000000 
#    y 0.000000 1.843530 0.000000 
#    z 0.000000 0.000000 1.838000 
# 
# From -- ./inp_files/2769.got.cif
#   From: 2010.03.12/outbox.cif.g09.slc.cpg/sg40_2_cif.got.tgz:2769.got - 2010.04.14 01:38:03.
