data_PCOD8184057
_publ_section_title
;
Structure prediction by ZEFSAII (Michael W. Deem and Ramdas Pophale) SiO2 
 PCOD8184057
Probable space group: A M A 2
;
_chemical_formula_sum "Si O2"
_cell_formula_units_Z 56
_cell_length_a 15.358013
_cell_length_b 20.445091
_cell_length_c 8.927776
_cell_angle_alpha 90.000000
_cell_angle_beta 90.000000
_cell_angle_gamma 90.000000
_cell_volume 2803.285715
_symmetry_space_group_name_H-M "A M A 2"
_symmetry_group_IT_number 40
_symmetry_cell_setting 'orthorhombic'
loop_
_space_group_symop_operation_xyz
x,y,z
-x,-y,z
1/2-x,y,z
1/2+x,-y,z
x,1/2+y,1/2+z
-x,1/2-y,1/2+z
1/2-x,1/2+y,1/2+z
1/2+x,1/2-y,1/2+z
loop_
_atom_site_type_symbol
_atom_site_label
_atom_site_fract_x
_atom_site_fract_y
_atom_site_fract_z
Si Si1 0.969191 0.364217 0.534010
Si Si2 0.649960 0.285456 0.339666
Si Si3 0.012567 0.076546 0.354769
Si Si4 0.344104 0.365929 0.834986
Si Si5 0.655506 0.107773 0.000304
Si Si6 0.152564 0.609448 0.100472
Si Si7 0.906348 0.981284 0.842278
O O1 0.909388 0.303072 0.484494
O O2 0.973137 0.376650 0.711125
O O3 0.925289 0.429286 0.471288
O O4 0.067305 0.350841 0.466867
O O5 0.750000 0.302737 0.378429
O O6 0.637307 0.210006 0.300834
O O7 0.619971 0.326676 0.193002
O O8 0.091587 0.092671 0.462271
O O9 0.921741 0.101661 0.431935
O O10 0.000000 0.000000 0.316128
O O11 0.250000 0.373873 0.917083
O O12 0.341722 0.404998 0.678184
O O13 0.750000 0.140110 0.953160
O O14 0.647737 0.039338 0.915730
O O15 0.250000 0.620423 0.038563
O O16 0.152969 0.547810 0.211600
O O17 0.000000 0.000000 0.770677
#
# Coordination Sequence:
#
# PCOD8184057 Si02
#       7
#     8   8   8   8   8   8   8
#     4   9  18  32  52  78 107 141 184 227 267 320
#     4   9  19  37  59  81 104 139 188 233 278 333
#     4  11  22  35  52  81 116 148 183 226 279 333
#     4   9  19  36  58  82 109 142 182 231 282 330
#     4   9  16  28  51  81 108 136 176 224 273 328
#     4  10  21  35  53  78 111 148 182 225 279 331
#     4   9  16  31  53  77 107 142 181 222 266 319
#
# _framework density 19.976558000000001
#
# number of rings (size 3 to 8) (size 9 to 14) (size 15 to 20)
#    0.000    2.571    0.000    3.000    0.000    4.000 
#    0.000    1.429    0.000    5.143    0.000    4.000 
#    0.000    0.000    0.000    0.000    0.000    0.000 
#
# Total GULP energy -346881.616505 kJ/mol
# GULP energy per Si atom -12388.629161 kJ/mol
# Density = 1.993109 g / cm^3
# Si number density = 19.976558 Si / 1000 Ang^3
#
#
#
# Elastic Constant Matrix: (Units=GPa)
#
#
# Indices 1 2 3 4 5 6 
#
# 1 140.0034 43.1578 49.8478 0.0000 0.0000 0.0000
# 2 43.1578 70.4035 29.7592 0.0000 0.0000 0.0000
# 3 49.8478 29.7592 67.6316 0.0000 0.0000 0.0000
# 4 0.0000 0.0000 0.0000 16.0398 0.0000 0.0000
# 5 0.0000 0.0000 0.0000 0.0000 28.2144 0.0000
# 6 0.0000 0.0000 0.0000 0.0000 0.0000 29.5975
#
#
#
# Elastic Compliance Matrix: (Units=1/GPa)
#
#
# Indices 1 2 3 4 5 6 
#
# 1 0.010482 -0.003882 -0.006018 0.000000 0.000000 0.000000
# 2 -0.003882 0.018887 -0.005449 0.000000 0.000000 0.000000
# 3 -0.006018 -0.005449 0.021619 0.000000 0.000000 0.000000
# 4 0.000000 0.000000 0.000000 0.062345 0.000000 0.000000
# 5 0.000000 0.000000 0.000000 0.000000 0.035443 0.000000
# 6 0.000000 0.000000 0.000000 0.000000 0.000000 0.033787
#
#
# Mechanical properties :
#
#
# Convention : Reuss Voigt Hill
#
# Bulk Modulus (GPa) = 49.28516 58.17422 53.72969
# Shear Modulus (GPa) = 22.72484 25.12192 23.92338
#
# Velocity S-wave (km/s) = 3.37646 3.55007 3.46435
# Velocity P-wave (km/s) = 6.31868 6.78148 6.55416
#
# Compressibility (1/GPa) = 0.02029008
#
# Stress axis : x y z
#
# Youngs Moduli (GPa) = 95.40315 52.94672 46.25542
#
# Poissons Ratio (x) = 0.20553 0.27834
# Poissons Ratio (y) = 0.37034 0.25207
# Poissons Ratio (z) = 0.57409 0.28853
#
# Static dielectric constant tensor:
#      x y z
#    x 4.183470 0.000000 0.000000 
#    y 0.000000 3.547850 0.000000 
#    z 0.000000 0.000000 3.305800 
# 
# 
# High freq. dielectric constant tensor:
#      x y z
#    x 1.803720 0.000000 0.000000 
#    y 0.000000 1.762340 0.000000 
#    z 0.000000 0.000000 1.742720 
# 
# From -- ./inp_files/6737.got.cif
#   From: 2010.03.12/outbox.cif.g09.slc.cpg/sg40_4_cif.got.tgz:6737.got - 2010.04.14 01:38:03.
