data_PCOD8184175
_publ_section_title
;
Structure prediction by ZEFSAII (Michael W. Deem and Ramdas Pophale) SiO2 
 PCOD8184175
Probable space group: A M A 2
;
_chemical_formula_sum "Si O2"
_cell_formula_units_Z 60
_cell_length_a 19.619781
_cell_length_b 9.912440
_cell_length_c 15.629852
_cell_angle_alpha 90.000000
_cell_angle_beta 90.000000
_cell_angle_gamma 90.000000
_cell_volume 3039.692085
_symmetry_space_group_name_H-M "A M A 2"
_symmetry_group_IT_number 40
_symmetry_cell_setting 'orthorhombic'
loop_
_space_group_symop_operation_xyz
x,y,z
-x,-y,z
1/2-x,y,z
1/2+x,-y,z
x,1/2+y,1/2+z
-x,1/2-y,1/2+z
1/2-x,1/2+y,1/2+z
1/2+x,1/2-y,1/2+z
loop_
_atom_site_type_symbol
_atom_site_label
_atom_site_fract_x
_atom_site_fract_y
_atom_site_fract_z
Si Si1 0.668954 0.004964 0.181910
Si Si2 0.000000 0.500000 0.392516
Si Si3 0.057891 0.904770 0.055804
Si Si4 0.328665 0.803400 0.694219
Si Si5 0.562621 0.397517 0.084560
Si Si6 0.170304 0.428109 0.011807
Si Si7 0.172886 0.812314 0.334391
Si Si8 0.889230 0.440943 0.269979
O O1 0.750000 0.020557 0.164845
O O2 0.631063 0.055115 0.095461
O O3 0.639708 0.095173 0.260043
O O4 0.649829 0.851494 0.206631
O O5 0.944486 0.576008 0.452448
O O6 0.954863 0.410081 0.328753
O O7 0.035723 0.750724 0.065922
O O8 0.000000 0.000000 0.099277
O O9 0.250000 0.825821 0.714801
O O10 0.344812 0.838864 0.595707
O O11 0.368374 0.900998 0.761288
O O12 0.500000 0.500000 0.080477
O O13 0.622769 0.439187 0.018347
O O14 0.595843 0.386589 0.176837
O O15 0.250000 0.469764 0.006848
O O16 0.144108 0.344205 0.929190
O O17 0.250000 0.858324 0.336971
O O18 0.168706 0.654035 0.311279
#
# Coordination Sequence:
#
# PCOD8184175 Si02
#       8
#     8   4   8   8   8   8   8   8
#     4  10  21  40  64  91 123 162 203 251 307 366
#     4  10  26  38  60  82 126 156 210 248 294 356
#     4  10  25  42  60  87 128 162 203 252 307 363
#     4   9  20  37  62  90 120 156 196 244 305 365
#     4  11  23  40  63  88 120 165 204 249 307 367
#     4   9  21  38  63  92 121 155 200 253 304 361
#     4  10  21  38  62  91 120 151 200 255 306 361
#     4  11  21  38  61  87 120 159 204 249 302 357
#
# _framework density 19.738842000000002
#
# number of rings (size 3 to 8) (size 9 to 14) (size 15 to 20)
#    0.400    1.600    2.000    0.400    7.467    2.133 
#    0.000    1.333    0.000    0.000    0.000    0.000 
#    0.000    0.000    0.000    0.000    0.000    0.000 
#
# Total GULP energy -371727.235727 kJ/mol
# GULP energy per Si atom -12390.907858 kJ/mol
# Density = 1.969392 g / cm^3
# Si number density = 19.738842 Si / 1000 Ang^3
#
#
#
# Elastic Constant Matrix: (Units=GPa)
#
#
# Indices 1 2 3 4 5 6 
#
# 1 67.5975 33.1981 35.5888 0.0000 0.0000 0.0000
# 2 33.1981 137.2273 39.4581 0.0000 0.0000 0.0000
# 3 35.5888 39.4581 108.9306 0.0000 0.0000 0.0000
# 4 0.0000 0.0000 0.0000 3.4965 0.0000 0.0000
# 5 0.0000 0.0000 0.0000 0.0000 34.4306 0.0000
# 6 0.0000 0.0000 0.0000 0.0000 0.0000 31.9347
#
#
#
# Elastic Compliance Matrix: (Units=1/GPa)
#
#
# Indices 1 2 3 4 5 6 
#
# 1 0.019006 -0.003139 -0.005072 0.000000 0.000000 0.000000
# 2 -0.003139 0.008653 -0.002109 0.000000 0.000000 0.000000
# 3 -0.005072 -0.002109 0.011601 0.000000 0.000000 0.000000
# 4 0.000000 0.000000 0.000000 0.286002 0.000000 0.000000
# 5 0.000000 0.000000 0.000000 0.000000 0.029044 0.000000
# 6 0.000000 0.000000 0.000000 0.000000 0.000000 0.031314
#
#
# Mechanical properties :
#
#
# Convention : Reuss Voigt Hill
#
# Bulk Modulus (GPa) = 53.70793 58.91615 56.31204
# Shear Modulus (GPa) = 12.12220 27.67304 19.89762
#
# Velocity S-wave (km/s) = 2.48085 3.74834 3.17842
# Velocity P-wave (km/s) = 5.95605 6.97467 6.48539
#
# Compressibility (1/GPa) = 0.01861922
#
# Stress axis : x y z
#
# Youngs Moduli (GPa) = 52.61589 115.56678 86.19855
#
# Poissons Ratio (x) = 0.36281 0.43721
# Poissons Ratio (y) = 0.16518 0.18177
# Poissons Ratio (z) = 0.26688 0.24370
#
# Static dielectric constant tensor:
#      x y z
#    x 3.494360 0.000000 0.000000 
#    y 0.000000 3.570020 0.000000 
#    z 0.000000 0.000000 3.723760 
# 
# 
# High freq. dielectric constant tensor:
#      x y z
#    x 1.760430 0.000000 0.000000 
#    y 0.000000 1.765290 0.000000 
#    z 0.000000 0.000000 1.768910 
# 
# From -- ./inp_files/18460.got.cif
#   From: 2010.03.12/outbox.cif.g09.slc.cpg/sg40_10_cif.got.tgz:18460.got - 2010.04.14 01:38:03.
