data_PCOD8184415
_publ_section_title
;
Structure prediction by ZEFSAII (Michael W. Deem and Ramdas Pophale) SiO2 
 PCOD8184415
Probable space group: A M A 2
;
_chemical_formula_sum "Si O2"
_cell_formula_units_Z 64
_cell_length_a 28.478553
_cell_length_b 11.251937
_cell_length_c 9.363234
_cell_angle_alpha 90.000000
_cell_angle_beta 90.000000
_cell_angle_gamma 90.000000
_cell_volume 3000.344256
_symmetry_space_group_name_H-M "A M A 2"
_symmetry_group_IT_number 40
_symmetry_cell_setting 'orthorhombic'
loop_
_space_group_symop_operation_xyz
x,y,z
-x,-y,z
1/2-x,y,z
1/2+x,-y,z
x,1/2+y,1/2+z
-x,1/2-y,1/2+z
1/2-x,1/2+y,1/2+z
1/2+x,1/2-y,1/2+z
loop_
_atom_site_type_symbol
_atom_site_label
_atom_site_fract_x
_atom_site_fract_y
_atom_site_fract_z
Si Si1 0.448280 0.512369 0.947820
Si Si2 0.801615 0.205181 0.174525
Si Si3 0.964620 0.722490 0.495738
Si Si4 0.395107 0.938800 0.175855
Si Si5 0.301726 0.331926 0.990524
Si Si6 0.367438 0.189345 0.193390
Si Si7 0.458230 0.332139 0.190094
Si Si8 0.195795 0.099325 0.448288
O O1 0.500000 0.500000 0.877416
O O2 0.436965 0.652682 0.964411
O O3 0.411785 0.444546 0.843162
O O4 0.449670 0.456266 0.107655
O O5 0.750000 0.152846 0.126996
O O6 0.842831 0.110843 0.152255
O O7 0.799435 0.236066 0.340545
O O8 0.811558 0.327509 0.093102
O O9 0.931291 0.635101 0.582867
O O10 0.981635 0.657864 0.348196
O O11 0.011139 0.746891 0.588526
O O12 0.391667 0.074020 0.121306
O O13 0.250000 0.339073 0.060636
O O14 0.321894 0.465497 0.975081
O O15 0.334618 0.252152 0.082627
O O16 0.408130 0.279674 0.233314
O O17 0.336903 0.157089 0.330247
O O18 0.250000 0.099002 0.396492
#
# Coordination Sequence:
#
# PCOD8184415 Si02
#       8
#     8   8   8   8   8   8   8   8
#     4  10  23  47  68  94 127 174 221 278 328 396
#     4  10  22  41  66  96 127 168 214 263 324 388
#     4  11  24  47  64  96 131 173 222 275 330 394
#     4  12  24  41  69  94 135 174 212 274 328 391
#     4  10  22  43  66  93 131 170 216 267 325 388
#     4  12  24  40  65 101 128 172 217 270 328 393
#     4  11  24  43  70  93 131 172 222 273 334 392
#     4  10  22  45  70  93 131 176 217 269 329 390
#
# _framework density 21.330886
#
# number of rings (size 3 to 8) (size 9 to 14) (size 15 to 20)
#    0.000    1.250    2.500    3.375    0.000    0.500 
#   15.750    0.000    0.000    0.000    0.000    0.000 
#    0.000    0.000    0.000    0.000    0.000    0.000 
#
# Total GULP energy -396633.238017 kJ/mol
# GULP energy per Si atom -12394.788688 kJ/mol
# Density = 2.128234 g / cm^3
# Si number density = 21.330886 Si / 1000 Ang^3
#
#
#
# Elastic Constant Matrix: (Units=GPa)
#
#
# Indices 1 2 3 4 5 6 
#
# 1 68.9400 27.1135 30.3737 0.0000 0.0000 0.0000
# 2 27.1135 100.1068 56.5398 0.0000 0.0000 0.0000
# 3 30.3737 56.5398 121.0712 0.0000 0.0000 0.0000
# 4 0.0000 0.0000 0.0000 43.3242 0.0000 0.0000
# 5 0.0000 0.0000 0.0000 0.0000 37.9447 0.0000
# 6 0.0000 0.0000 0.0000 0.0000 0.0000 42.7212
#
#
#
# Elastic Compliance Matrix: (Units=1/GPa)
#
#
# Indices 1 2 3 4 5 6 
#
# 1 0.016934 -0.002971 -0.002861 0.000000 0.000000 0.000000
# 2 -0.002971 0.014089 -0.005834 0.000000 0.000000 0.000000
# 3 -0.002861 -0.005834 0.011702 0.000000 0.000000 0.000000
# 4 0.000000 0.000000 0.000000 0.023082 0.000000 0.000000
# 5 0.000000 0.000000 0.000000 0.000000 0.026354 0.000000
# 6 0.000000 0.000000 0.000000 0.000000 0.000000 0.023408
#
#
# Mechanical properties :
#
#
# Convention : Reuss Voigt Hill
#
# Bulk Modulus (GPa) = 51.56431 57.57464 54.56947
# Shear Modulus (GPa) = 34.39610 36.53742 35.46676
#
# Velocity S-wave (km/s) = 4.01995 4.14319 4.08204
# Velocity P-wave (km/s) = 6.76555 7.06667 6.91775
#
# Compressibility (1/GPa) = 0.01939326
#
# Stress axis : x y z
#
# Youngs Moduli (GPa) = 59.05193 70.97684 85.45567
#
# Poissons Ratio (x) = 0.21085 0.24450
# Poissons Ratio (y) = 0.17542 0.49857
# Poissons Ratio (z) = 0.16895 0.41410
#
# Static dielectric constant tensor:
#      x y z
#    x 4.187950 0.000000 0.000000 
#    y 0.000000 3.945440 0.000000 
#    z 0.000000 0.000000 3.973960 
# 
# 
# High freq. dielectric constant tensor:
#      x y z
#    x 1.858110 0.000000 0.000000 
#    y 0.000000 1.830550 0.000000 
#    z 0.000000 0.000000 1.829810 
# 
# From -- ./inp_files/9424.got.cif
#   From: 2010.03.12/outbox.cif.g09.slc.cpg/sg40_5_cif.got.tgz:9424.got - 2010.04.14 01:38:03.
