data_PCOD8184261
_publ_section_title
;
Structure prediction by ZEFSAII (Michael W. Deem and Ramdas Pophale) SiO2 
 PCOD8184261
Probable space group: A M A 2
;
_chemical_formula_sum "Si O2"
_cell_formula_units_Z 36
_cell_length_a 14.350202
_cell_length_b 5.429046
_cell_length_c 18.469327
_cell_angle_alpha 90.000000
_cell_angle_beta 90.000000
_cell_angle_gamma 90.000000
_cell_volume 1438.906606
_symmetry_space_group_name_H-M "A M A 2"
_symmetry_group_IT_number 40
_symmetry_cell_setting 'orthorhombic'
loop_
_space_group_symop_operation_xyz
x,y,z
-x,-y,z
1/2-x,y,z
1/2+x,-y,z
x,1/2+y,1/2+z
-x,1/2-y,1/2+z
1/2-x,1/2+y,1/2+z
1/2+x,1/2-y,1/2+z
loop_
_atom_site_type_symbol
_atom_site_label
_atom_site_fract_x
_atom_site_fract_y
_atom_site_fract_z
Si Si1 0.905289 0.124947 0.730730
Si Si2 0.858199 0.140552 0.007443
Si Si3 0.145381 0.856869 0.571364
Si Si4 0.352484 0.630587 0.368410
Si Si5 0.500000 0.500000 0.828501
O O1 0.925947 0.371378 0.775288
O O2 0.847552 0.163500 0.658080
O O3 0.848999 0.948301 0.784875
O O4 0.000000 0.000000 0.704873
O O5 0.750000 0.147446 0.029992
O O6 0.904673 0.891716 0.041859
O O7 0.904090 0.392221 0.040037
O O8 0.871708 0.107906 0.920324
O O9 0.250000 0.858211 0.540072
O O10 0.250000 0.744133 0.387721
O O11 0.437850 0.821508 0.379655
#
# Coordination Sequence:
#
# PCOD8184261 Si02
#       5
#     8   8   8   8   4
#     4  10  23  41  60  91 131 173 228 282 338 416
#     4   9  21  39  64  97 129 166 223 278 337 414
#     4  10  21  40  65  95 128 167 219 278 339 413
#     4  10  22  42  69  96 134 186 232 291 354 413
#     4  10  24  42  66 102 140 174 244 298 340 436
#
# _framework density 25.018998
#
# number of rings (size 3 to 8) (size 9 to 14) (size 15 to 20)
#    0.000    2.222    0.000    0.667    9.333    1.778 
#    2.000    0.000    0.000    0.000    0.000    0.000 
#    0.000    0.000    0.000    0.000    0.000    0.000 
#
# Total GULP energy -223043.442494 kJ/mol
# GULP energy per Si atom -12391.302361 kJ/mol
# Density = 2.496205 g / cm^3
# Si number density = 25.018998 Si / 1000 Ang^3
#
#
#
# Elastic Constant Matrix: (Units=GPa)
#
#
# Indices 1 2 3 4 5 6 
#
# 1 63.5092 31.9907 16.7825 0.0000 0.0000 0.0000
# 2 31.9907 156.9794 38.3866 0.0000 0.0000 0.0000
# 3 16.7825 38.3866 138.7579 0.0000 0.0000 0.0000
# 4 0.0000 0.0000 0.0000 35.6183 0.0000 0.0000
# 5 0.0000 0.0000 0.0000 0.0000 -2.4497 0.0000
# 6 0.0000 0.0000 0.0000 0.0000 0.0000 19.2512
#
#
#
# Elastic Compliance Matrix: (Units=1/GPa)
#
#
# Indices 1 2 3 4 5 6 
#
# 1 0.017740 -0.003315 -0.001229 0.000000 0.000000 0.000000
# 2 -0.003315 0.007452 -0.001661 0.000000 0.000000 0.000000
# 3 -0.001229 -0.001661 0.007815 0.000000 0.000000 0.000000
# 4 0.000000 0.000000 0.000000 0.028075 0.000000 0.000000
# 5 0.000000 0.000000 0.000000 0.000000 -0.408219 0.000000
# 6 0.000000 0.000000 0.000000 0.000000 0.000000 0.051945
#
#
# Mechanical properties :
#
#
# Convention : Reuss Voigt Hill
#
# Bulk Modulus (GPa) = 48.54662 59.28511 53.91587
# Shear Modulus (GPa) = -18.12134 28.62308 5.25087
#
# Velocity S-wave (km/s) = -2.69421 3.38606 1.45028
# Velocity P-wave (km/s) = 3.12533 6.24777 4.93975
#
# Compressibility (1/GPa) = 0.02059876
#
# Stress axis : x y z
#
# Youngs Moduli (GPa) = 56.36931 134.19478 127.96257
#
# Poissons Ratio (x) = 0.44483 0.15722
# Poissons Ratio (y) = 0.18685 0.21249
# Poissons Ratio (z) = 0.06926 0.22284
#
# Static dielectric constant tensor:
#      x y z
#    x 4.305120 0.000000 0.000000 
#    y 0.000000 4.761840 0.000000 
#    z 0.000000 0.000000 4.211370 
# 
# 
# High freq. dielectric constant tensor:
#      x y z
#    x 1.979180 0.000000 0.000000 
#    y 0.000000 1.993700 0.000000 
#    z 0.000000 0.000000 1.997320 
# 
# From -- ./inp_files/22914.got.cif
#   From: 2010.03.12/outbox.cif.g09.slc.cpg/sg40_12_cif.got.tgz:22914.got - 2010.04.14 01:38:03.
