data_PCOD8184100
_publ_section_title
;
Structure prediction by ZEFSAII (Michael W. Deem and Ramdas Pophale) SiO2 
 PCOD8184100
Probable space group: A M A 2
;
_chemical_formula_sum "Si O2"
_cell_formula_units_Z 48
_cell_length_a 9.479010
_cell_length_b 30.820271
_cell_length_c 9.030524
_cell_angle_alpha 90.000000
_cell_angle_beta 90.000000
_cell_angle_gamma 90.000000
_cell_volume 2638.228367
_symmetry_space_group_name_H-M "A M A 2"
_symmetry_group_IT_number 40
_symmetry_cell_setting 'orthorhombic'
loop_
_space_group_symop_operation_xyz
x,y,z
-x,-y,z
1/2-x,y,z
1/2+x,-y,z
x,1/2+y,1/2+z
-x,1/2-y,1/2+z
1/2-x,1/2+y,1/2+z
1/2+x,1/2-y,1/2+z
loop_
_atom_site_type_symbol
_atom_site_label
_atom_site_fract_x
_atom_site_fract_y
_atom_site_fract_z
Si Si1 0.913140 0.205716 0.699420
Si Si2 0.917407 0.366493 0.691547
Si Si3 0.917397 0.364823 0.024829
Si Si4 0.912371 0.787622 0.989083
Si Si5 0.906594 0.961289 0.172750
Si Si6 0.904620 0.462057 0.024615
O O1 0.750000 0.193653 0.726752
O O2 0.927141 0.245850 0.590363
O O3 0.995601 0.164771 0.635766
O O4 0.985081 0.219609 0.852121
O O5 0.750000 0.369659 0.701318
O O6 0.967799 0.329548 0.579183
O O7 0.972814 0.413713 0.635731
O O8 0.970527 0.355371 0.857325
O O9 0.750000 0.356238 0.041643
O O10 0.957112 0.414131 0.069332
O O11 0.750000 0.794201 0.938289
O O12 0.750000 0.965798 0.104794
O O13 0.899569 0.965666 0.348519
O O14 0.000000 0.000000 0.103385
O O15 0.750000 0.469603 0.091258
O O16 0.000000 0.500000 0.094294
#
# Coordination Sequence:
#
# PCOD8184100 Si02
#       6
#     8   8   8   8   8   8
#     4  11  23  36  53  78 102 126 163 210 253 296
#     4   8  15  30  52  74  97 131 171 202 235 293
#     4   9  17  32  53  75 103 138 170 202 248 302
#     4  10  21  37  55  73  97 131 166 201 248 303
#     4   8  13  23  41  67  97 126 159 198 238 282
#     4   8  14  24  42  69  99 132 166 201 243 288
#
# _framework density 18.194027999999999
#
# number of rings (size 3 to 8) (size 9 to 14) (size 15 to 20)
#    0.000    3.000    0.000    3.500    0.000    3.333 
#    0.000    4.167    0.000    1.000    0.000    2.333 
#    0.000    0.000    0.000    0.000    0.000    0.000 
#
# Total GULP energy -297475.916719 kJ/mol
# GULP energy per Si atom -12394.829863 kJ/mol
# Density = 1.815262 g / cm^3
# Si number density = 18.194028 Si / 1000 Ang^3
#
#
#
# Elastic Constant Matrix: (Units=GPa)
#
#
# Indices 1 2 3 4 5 6 
#
# 1 87.4748 60.7807 42.4180 0.0000 0.0000 0.0000
# 2 60.7807 125.5424 33.2449 0.0000 0.0000 0.0000
# 3 42.4180 33.2449 61.8693 0.0000 0.0000 0.0000
# 4 0.0000 0.0000 0.0000 24.9185 0.0000 0.0000
# 5 0.0000 0.0000 0.0000 0.0000 21.5814 0.0000
# 6 0.0000 0.0000 0.0000 0.0000 0.0000 31.2073
#
#
#
# Elastic Compliance Matrix: (Units=1/GPa)
#
#
# Indices 1 2 3 4 5 6 
#
# 1 0.022227 -0.007841 -0.011025 0.000000 0.000000 0.000000
# 2 -0.007841 0.012053 -0.001101 0.000000 0.000000 0.000000
# 3 -0.011025 -0.001101 0.024314 0.000000 0.000000 0.000000
# 4 0.000000 0.000000 0.000000 0.040131 0.000000 0.000000
# 5 0.000000 0.000000 0.000000 0.000000 0.046336 0.000000
# 6 0.000000 0.000000 0.000000 0.000000 0.000000 0.032044
#
#
# Mechanical properties :
#
#
# Convention : Reuss Voigt Hill
#
# Bulk Modulus (GPa) = 53.59358 60.86375 57.22867
# Shear Modulus (GPa) = 22.39559 24.77098 23.58329
#
# Velocity S-wave (km/s) = 3.51227 3.69384 3.60420
# Velocity P-wave (km/s) = 6.78002 7.19151 6.98879
#
# Compressibility (1/GPa) = 0.01865895
#
# Stress axis : x y z
#
# Youngs Moduli (GPa) = 44.99109 82.96540 41.12936
#
# Poissons Ratio (x) = 0.65056 0.45346
# Poissons Ratio (y) = 0.35279 0.04527
# Poissons Ratio (z) = 0.49604 0.09131
#
# Static dielectric constant tensor:
#      x y z
#    x 3.390360 0.000000 0.000000 
#    y 0.000000 3.720200 0.000000 
#    z 0.000000 0.000000 3.011000 
# 
# 
# High freq. dielectric constant tensor:
#      x y z
#    x 1.684720 0.000000 0.000000 
#    y 0.000000 1.723770 0.000000 
#    z 0.000000 0.000000 1.667200 
# 
# From -- ./inp_files/4604.got.cif
#   From: 2010.03.12/outbox.cif.g09.slc.cpg/sg40_3_cif.got.tgz:4604.got - 2010.04.14 01:38:03.
