data_PCOD8184388
_publ_section_title
;
Structure prediction by ZEFSAII (Michael W. Deem and Ramdas Pophale) SiO2 
 PCOD8184388
Probable space group: A M A 2
;
_chemical_formula_sum "Si O2"
_cell_formula_units_Z 32
_cell_length_a 9.328991
_cell_length_b 13.945532
_cell_length_c 11.561418
_cell_angle_alpha 90.000000
_cell_angle_beta 90.000000
_cell_angle_gamma 90.000000
_cell_volume 1504.114382
_symmetry_space_group_name_H-M "A M A 2"
_symmetry_group_IT_number 40
_symmetry_cell_setting 'orthorhombic'
loop_
_space_group_symop_operation_xyz
x,y,z
-x,-y,z
1/2-x,y,z
1/2+x,-y,z
x,1/2+y,1/2+z
-x,1/2-y,1/2+z
1/2-x,1/2+y,1/2+z
1/2+x,1/2-y,1/2+z
loop_
_atom_site_type_symbol
_atom_site_label
_atom_site_fract_x
_atom_site_fract_y
_atom_site_fract_z
Si Si1 0.250000 0.219475 0.770121
Si Si2 0.000000 0.500000 0.680924
Si Si3 0.750000 0.872233 0.237584
Si Si4 0.250000 0.882519 0.101213
Si Si5 0.473605 0.889433 0.682975
Si Si6 0.750000 0.728488 0.040670
Si Si7 0.250000 0.825848 0.852990
O O1 0.250000 0.326075 0.720845
O O2 0.381683 0.162950 0.716340
O O3 0.250000 0.238486 0.907606
O O4 0.104385 0.566486 0.759852
O O5 0.105208 0.443633 0.595625
O O6 0.750000 0.829803 0.107631
O O7 0.750000 0.785939 0.325680
O O8 0.250000 0.817413 0.989453
O O9 0.390479 0.834004 0.578198
O O10 0.384315 0.883121 0.801470
O O11 0.500000 0.000000 0.646980
#
# Coordination Sequence:
#
# PCOD8184388 Si02
#       7
#     4   4   4   4   8   4   4
#     4  12  25  42  73  93 135 183 217 261 353 387
#     4  10  22  40  64  92 132 160 228 258 316 394
#     4   9  20  42  62  95 127 169 209 280 320 390
#     4  11  24  41  64 101 127 177 216 269 330 395
#     4  10  23  44  69 101 130 170 227 271 324 394
#     4  10  24  46  64  98 140 169 219 279 326 395
#     4  10  23  39  69  95 141 164 215 279 333 381
#
# _framework density 21.274978999999998
#
# number of rings (size 3 to 8) (size 9 to 14) (size 15 to 20)
#    0.000    2.000    0.000    4.500    8.750    2.000 
#    2.250    2.500    0.000    0.000    0.000    0.000 
#    0.000    0.000    0.000    0.000    0.000    0.000 
#
# Total GULP energy -198252.293775 kJ/mol
# GULP energy per Si atom -12390.768361 kJ/mol
# Density = 2.122656 g / cm^3
# Si number density = 21.274979 Si / 1000 Ang^3
#
#
#
# Elastic Constant Matrix: (Units=GPa)
#
#
# Indices 1 2 3 4 5 6 
#
# 1 189.3514 66.5593 38.7949 0.0000 0.0000 0.0000
# 2 66.5593 141.4668 38.0441 0.0000 0.0000 0.0000
# 3 38.7949 38.0441 94.9926 0.0000 0.0000 0.0000
# 4 0.0000 0.0000 0.0000 9.8779 0.0000 0.0000
# 5 0.0000 0.0000 0.0000 0.0000 9.7817 0.0000
# 6 0.0000 0.0000 0.0000 0.0000 0.0000 68.4180
#
#
#
# Elastic Compliance Matrix: (Units=1/GPa)
#
#
# Indices 1 2 3 4 5 6 
#
# 1 0.006541 -0.002644 -0.001612 0.000000 0.000000 0.000000
# 2 -0.002644 0.008991 -0.002521 0.000000 0.000000 0.000000
# 3 -0.001612 -0.002521 0.012195 0.000000 0.000000 0.000000
# 4 0.000000 0.000000 0.000000 0.101236 0.000000 0.000000
# 5 0.000000 0.000000 0.000000 0.000000 0.102232 0.000000
# 6 0.000000 0.000000 0.000000 0.000000 0.000000 0.014616
#
#
# Mechanical properties :
#
#
# Convention : Reuss Voigt Hill
#
# Bulk Modulus (GPa) = 70.56002 79.17859 74.86931
# Shear Modulus (GPa) = 18.93299 36.44303 27.68801
#
# Velocity S-wave (km/s) = 2.98639 4.14327 3.61145
# Velocity P-wave (km/s) = 6.71782 7.75800 7.25657
#
# Compressibility (1/GPa) = 0.01417233
#
# Stress axis : x y z
#
# Youngs Moduli (GPa) = 152.88451 111.22668 81.99883
#
# Poissons Ratio (x) = 0.29406 0.13222
# Poissons Ratio (y) = 0.40420 0.20672
# Poissons Ratio (z) = 0.24652 0.28040
#
# Static dielectric constant tensor:
#      x y z
#    x 4.189210 0.000000 0.000000 
#    y 0.000000 4.049700 0.000000 
#    z 0.000000 0.000000 3.459880 
# 
# 
# High freq. dielectric constant tensor:
#      x y z
#    x 1.859900 0.000000 0.000000 
#    y 0.000000 1.849150 0.000000 
#    z 0.000000 0.000000 1.803250 
# 
# From -- ./inp_files/9915.got.cif
#   From: 2010.03.12/outbox.cif.g09.slc.cpg/sg40_5_cif.got.tgz:9915.got - 2010.04.14 01:38:03.
