data_PCOD8184980
_publ_section_title
;
Structure prediction by ZEFSAII (Michael W. Deem and Ramdas Pophale) SiO2 
 PCOD8184980
Probable space group: A B A 2
;
_chemical_formula_sum "Si O2"
_cell_formula_units_Z 64
_cell_length_a 17.227399
_cell_length_b 17.562570
_cell_length_c 10.016697
_cell_angle_alpha 90.000000
_cell_angle_beta 90.000000
_cell_angle_gamma 90.000000
_cell_volume 3030.625809
_symmetry_space_group_name_H-M "A B A 2"
_symmetry_group_IT_number 41
_symmetry_cell_setting 'orthorhombic'
loop_
_space_group_symop_operation_xyz
x,y,z
-x,-y,z
1/2-x,y,1/2+z
1/2+x,-y,1/2+z
x,1/2+y,1/2+z
-x,1/2-y,1/2+z
1/2-x,1/2+y,z
1/2+x,1/2-y,z
loop_
_atom_site_type_symbol
_atom_site_label
_atom_site_fract_x
_atom_site_fract_y
_atom_site_fract_z
Si Si1 0.145216 0.821703 0.473750
Si Si2 0.130294 0.874692 0.199447
Si Si3 0.544363 0.868966 0.655740
Si Si4 0.424230 0.801569 0.238740
Si Si5 0.315413 0.033741 0.677857
Si Si6 0.682826 0.234084 0.479768
Si Si7 0.742450 0.886357 0.414198
Si Si8 0.078003 0.674424 0.375406
O O1 0.156231 0.881269 0.354554
O O2 0.112402 0.851364 0.616631
O O3 0.228190 0.786032 0.497888
O O4 0.081266 0.762635 0.417162
O O5 0.146490 0.793747 0.122894
O O6 0.039752 0.889754 0.205856
O O7 0.177711 0.944971 0.134483
O O8 0.575836 0.786671 0.699506
O O9 0.600129 0.933565 0.713188
O O10 0.545102 0.875857 0.495858
O O11 0.367925 0.809938 0.367832
O O12 0.512174 0.832386 0.260382
O O13 0.276771 0.078912 0.557107
O O14 0.267795 0.047172 0.813795
O O15 0.688372 0.324192 0.443751
O O16 0.665733 0.851441 0.340539
#
# Coordination Sequence:
#
# PCOD8184980 Si02
#       8
#     8   8   8   8   8   8   8   8
#     4  10  23  36  59  99 130 156 217 268 322 375
#     4  12  24  39  66  94 131 168 210 272 327 384
#     4  10  20  39  62  93 123 172 208 259 324 392
#     4  11  19  39  66  99 127 166 220 275 318 378
#     4  11  25  44  62  91 133 173 215 262 330 395
#     4  11  23  40  68  95 125 167 215 272 320 378
#     4  10  24  44  66  93 127 177 219 266 326 400
#     4   9  19  37  65  93 126 161 221 265 318 377
#
# _framework density 21.117750000000001
#
# number of rings (size 3 to 8) (size 9 to 14) (size 15 to 20)
#    0.000    1.500    3.750    1.875    5.250    0.000 
#    2.250    0.000    0.000    0.000    0.000    0.000 
#    0.000    0.000    0.000    0.000    0.000    0.000 
#
# Total GULP energy -396435.452398 kJ/mol
# GULP energy per Si atom -12388.607887 kJ/mol
# Density = 2.106969 g / cm^3
# Si number density = 21.117750 Si / 1000 Ang^3
#
#
#
# Elastic Constant Matrix: (Units=GPa)
#
#
# Indices 1 2 3 4 5 6 
#
# 1 83.5046 10.0608 45.6853 0.0000 0.0000 0.0000
# 2 10.0608 52.0876 20.5551 0.0000 0.0000 0.0000
# 3 45.6853 20.5551 108.8532 0.0000 0.0000 0.0000
# 4 0.0000 0.0000 0.0000 23.3045 0.0000 0.0000
# 5 0.0000 0.0000 0.0000 0.0000 30.7060 0.0000
# 6 0.0000 0.0000 0.0000 0.0000 0.0000 13.4664
#
#
#
# Elastic Compliance Matrix: (Units=1/GPa)
#
#
# Indices 1 2 3 4 5 6 
#
# 1 0.015555 -0.000463 -0.006441 0.000000 0.000000 0.000000
# 2 -0.000463 0.020758 -0.003726 0.000000 0.000000 0.000000
# 3 -0.006441 -0.003726 0.012593 0.000000 0.000000 0.000000
# 4 0.000000 0.000000 0.000000 0.042910 0.000000 0.000000
# 5 0.000000 0.000000 0.000000 0.000000 0.032567 0.000000
# 6 0.000000 0.000000 0.000000 0.000000 0.000000 0.074259
#
#
# Mechanical properties :
#
#
# Convention : Reuss Voigt Hill
#
# Bulk Modulus (GPa) = 36.16915 44.11642 40.14279
# Shear Modulus (GPa) = 21.82292 24.70499 23.26395
#
# Velocity S-wave (km/s) = 3.21813 3.42404 3.32268
# Velocity P-wave (km/s) = 5.56534 6.04716 5.81125
#
# Compressibility (1/GPa) = 0.02764787
#
# Stress axis : x y z
#
# Youngs Moduli (GPa) = 64.28801 48.17416 79.40626
#
# Poissons Ratio (x) = 0.02229 0.51146
# Poissons Ratio (y) = 0.02975 0.29584
# Poissons Ratio (z) = 0.41408 0.17948
#
# Static dielectric constant tensor:
#      x y z
#    x 3.899780 0.000000 0.000000 
#    y 0.000000 3.607750 0.000000 
#    z 0.000000 0.000000 3.969940 
# 
# 
# High freq. dielectric constant tensor:
#      x y z
#    x 1.839380 0.000000 0.000000 
#    y 0.000000 1.784600 0.000000 
#    z 0.000000 0.000000 1.830210 
# 
# From -- ./inp_files/3239.got.cif
#   From: 2010.03.12/outbox.cif.g09.slc.cpg/sg41_2_cif.got.tgz:3239.got - 2010.04.14 01:55:53.
