data_PCOD8184619
_publ_section_title
;
Structure prediction by ZEFSAII (Michael W. Deem and Ramdas Pophale) SiO2 
 PCOD8184619
Probable space group: A M A 2
;
_chemical_formula_sum "Si O2"
_cell_formula_units_Z 64
_cell_length_a 17.549903
_cell_length_b 9.022680
_cell_length_c 20.287334
_cell_angle_alpha 90.000000
_cell_angle_beta 90.000000
_cell_angle_gamma 90.000000
_cell_volume 3212.441699
_symmetry_space_group_name_H-M "A M A 2"
_symmetry_group_IT_number 40
_symmetry_cell_setting 'orthorhombic'
loop_
_space_group_symop_operation_xyz
x,y,z
-x,-y,z
1/2-x,y,z
1/2+x,-y,z
x,1/2+y,1/2+z
-x,1/2-y,1/2+z
1/2-x,1/2+y,1/2+z
1/2+x,1/2-y,1/2+z
loop_
_atom_site_type_symbol
_atom_site_label
_atom_site_fract_x
_atom_site_fract_y
_atom_site_fract_z
Si Si1 0.571526 0.706751 0.773360
Si Si2 0.839570 0.225522 0.038398
Si Si3 0.921257 0.914125 0.646419
Si Si4 0.662222 0.214143 0.892649
Si Si5 0.340756 0.613497 0.382559
Si Si6 0.661041 0.706669 0.152890
Si Si7 0.338708 0.115783 0.029989
Si Si8 0.097647 0.123336 0.275571
O O1 0.572030 0.811224 0.710109
O O2 0.616945 0.778903 0.832942
O O3 0.486559 0.671787 0.797295
O O4 0.609553 0.548349 0.756822
O O5 0.750000 0.264589 0.050869
O O6 0.896216 0.315232 0.085017
O O7 0.855374 0.052403 0.051237
O O8 0.868018 0.265020 0.964284
O O9 0.854328 0.032471 0.657645
O O10 0.000000 0.000000 0.632056
O O11 0.750000 0.183076 0.905570
O O12 0.649913 0.340125 0.838479
O O13 0.630313 0.054727 0.868316
O O14 0.250000 0.632024 0.373411
O O15 0.368961 0.653411 0.456742
O O16 0.750000 0.738295 0.159515
O O17 0.626258 0.773537 0.084793
O O18 0.618968 0.783974 0.212378
O O19 0.250000 0.145031 0.027705
#
# Coordination Sequence:
#
# PCOD8184619 Si02
#       8
#     8   8   8   8   8   8   8   8
#     4  11  25  40  57  81 121 161 198 247 293 348
#     4   9  19  39  64  89 118 154 194 241 293 351
#     4  12  24  41  58  84 122 157 197 250 296 346
#     4   9  19  38  64  90 119 151 192 242 291 353
#     4   9  19  37  64  93 119 153 195 239 293 353
#     4  11  22  38  64  90 116 155 199 243 294 351
#     4   8  17  37  63  93 121 148 192 244 288 347
#     4  11  23  41  57  85 119 160 200 243 297 349
#
# _framework density 19.922540000000001
#
# number of rings (size 3 to 8) (size 9 to 14) (size 15 to 20)
#    0.000    2.000    1.250    3.750    0.000    4.000 
#    4.500    2.500    0.000    0.000    0.000    0.000 
#    0.000    0.000    0.000    0.000    0.000    0.000 
#
# Total GULP energy -396707.646734 kJ/mol
# GULP energy per Si atom -12397.113960 kJ/mol
# Density = 1.987720 g / cm^3
# Si number density = 19.922540 Si / 1000 Ang^3
#
#
#
# Elastic Constant Matrix: (Units=GPa)
#
#
# Indices 1 2 3 4 5 6 
#
# 1 51.7714 30.2026 38.7262 0.0000 0.0000 0.0000
# 2 30.2026 110.3696 68.6958 0.0000 0.0000 0.0000
# 3 38.7262 68.6958 135.1455 0.0000 0.0000 0.0000
# 4 0.0000 0.0000 0.0000 43.0515 0.0000 0.0000
# 5 0.0000 0.0000 0.0000 0.0000 12.5443 0.0000
# 6 0.0000 0.0000 0.0000 0.0000 0.0000 32.0280
#
#
#
# Elastic Compliance Matrix: (Units=1/GPa)
#
#
# Indices 1 2 3 4 5 6 
#
# 1 0.025505 -0.003555 -0.005501 0.000000 0.000000 0.000000
# 2 -0.003555 0.013749 -0.005970 0.000000 0.000000 0.000000
# 3 -0.005501 -0.005970 0.012010 0.000000 0.000000 0.000000
# 4 0.000000 0.000000 0.000000 0.023228 0.000000 0.000000
# 5 0.000000 0.000000 0.000000 0.000000 0.079717 0.000000
# 6 0.000000 0.000000 0.000000 0.000000 0.000000 0.031223
#
#
# Mechanical properties :
#
#
# Convention : Reuss Voigt Hill
#
# Bulk Modulus (GPa) = 47.14482 63.61510 55.37996
# Shear Modulus (GPa) = 22.46621 28.16889 25.31755
#
# Velocity S-wave (km/s) = 3.36173 3.76429 3.56869
# Velocity P-wave (km/s) = 6.22766 7.13398 6.69617
#
# Compressibility (1/GPa) = 0.02121124
#
# Stress axis : x y z
#
# Youngs Moduli (GPa) = 39.20824 72.73117 83.26052
#
# Poissons Ratio (x) = 0.25858 0.45804
# Poissons Ratio (y) = 0.13940 0.49707
# Poissons Ratio (z) = 0.21569 0.43421
#
# Static dielectric constant tensor:
#      x y z
#    x 3.443970 0.000000 0.000000 
#    y 0.000000 3.801940 0.000000 
#    z 0.000000 0.000000 3.815370 
# 
# 
# High freq. dielectric constant tensor:
#      x y z
#    x 1.759400 0.000000 0.000000 
#    y 0.000000 1.782570 0.000000 
#    z 0.000000 0.000000 1.789140 
# 
# From -- ./inp_files/23339.got.cif
#   From: 2010.03.12/outbox.cif.g09.slc.cpg/sg40_12_cif.got.tgz:23339.got - 2010.04.14 01:38:03.
