data_PCOD8184130
_publ_section_title
;
Structure prediction by ZEFSAII (Michael W. Deem and Ramdas Pophale) SiO2 
 PCOD8184130
Probable space group: A M A 2
;
_chemical_formula_sum "Si O2"
_cell_formula_units_Z 44
_cell_length_a 15.477611
_cell_length_b 5.186157
_cell_length_c 25.502551
_cell_angle_alpha 90.000000
_cell_angle_beta 90.000000
_cell_angle_gamma 90.000000
_cell_volume 2047.072443
_symmetry_space_group_name_H-M "A M A 2"
_symmetry_group_IT_number 40
_symmetry_cell_setting 'orthorhombic'
loop_
_space_group_symop_operation_xyz
x,y,z
-x,-y,z
1/2-x,y,z
1/2+x,-y,z
x,1/2+y,1/2+z
-x,1/2-y,1/2+z
1/2-x,1/2+y,1/2+z
1/2+x,1/2-y,1/2+z
loop_
_atom_site_type_symbol
_atom_site_label
_atom_site_fract_x
_atom_site_fract_y
_atom_site_fract_z
Si Si1 0.000000 0.000000 0.964140
Si Si2 0.849644 0.149738 0.658151
Si Si3 0.951130 0.255111 0.564487
Si Si4 0.401360 0.940928 0.332552
Si Si5 0.646731 0.147157 0.215616
Si Si6 0.347571 0.926288 0.889698
O O1 0.076249 0.859990 0.931491
O O2 0.947299 0.795091 0.001281
O O3 0.750000 0.132939 0.669305
O O4 0.861705 0.209477 0.595773
O O5 0.890178 0.385450 0.690666
O O6 0.890326 0.884645 0.680750
O O7 0.000000 0.500000 0.589725
O O8 0.000000 0.000000 0.579527
O O9 0.389584 0.839476 0.274059
O O10 0.367046 0.711663 0.369068
O O11 0.500000 0.000000 0.345326
O O12 0.349679 0.205966 0.344651
O O13 0.750000 0.149976 0.217157
O O14 0.250000 0.925110 0.913848
#
# Coordination Sequence:
#
# PCOD8184130 Si02
#       6
#     4   8   8   8   8   8
#     4  10  26  44  68  94 132 166 232 282 334 398
#     4  10  21  39  62  90 128 168 213 264 319 393
#     4  10  23  40  63  89 123 167 205 279 318 382
#     4  12  24  43  66 100 135 174 224 281 329 411
#     4  10  21  37  61  94 131 169 212 261 323 395
#     4  12  25  44  70  96 136 178 222 281 346 402
#
# _framework density 21.494109999999999
#
# number of rings (size 3 to 8) (size 9 to 14) (size 15 to 20)
#    0.545    0.727    1.818    3.818    2.545    4.364 
#    0.000    0.909    0.000    0.000    0.000    0.000 
#    0.000    0.000    0.000    0.000    0.000    0.000 
#
# Total GULP energy -272547.122066 kJ/mol
# GULP energy per Si atom -12388.505548 kJ/mol
# Density = 2.144519 g / cm^3
# Si number density = 21.494110 Si / 1000 Ang^3
#
#
#
# Elastic Constant Matrix: (Units=GPa)
#
#
# Indices 1 2 3 4 5 6 
#
# 1 75.2511 30.9651 40.2167 0.0000 0.0000 0.0000
# 2 30.9651 161.3057 36.1380 0.0000 0.0000 0.0000
# 3 40.2167 36.1380 117.4983 0.0000 0.0000 0.0000
# 4 0.0000 0.0000 0.0000 50.3607 0.0000 0.0000
# 5 0.0000 0.0000 0.0000 0.0000 37.3481 0.0000
# 6 0.0000 0.0000 0.0000 0.0000 0.0000 20.9220
#
#
#
# Elastic Compliance Matrix: (Units=1/GPa)
#
#
# Indices 1 2 3 4 5 6 
#
# 1 0.016897 -0.002092 -0.005140 0.000000 0.000000 0.000000
# 2 -0.002092 0.006917 -0.001411 0.000000 0.000000 0.000000
# 3 -0.005140 -0.001411 0.010704 0.000000 0.000000 0.000000
# 4 0.000000 0.000000 0.000000 0.019857 0.000000 0.000000
# 5 0.000000 0.000000 0.000000 0.000000 0.026775 0.000000
# 6 0.000000 0.000000 0.000000 0.000000 0.000000 0.047797
#
#
# Mechanical properties :
#
#
# Convention : Reuss Voigt Hill
#
# Bulk Modulus (GPa) = 58.03397 63.18830 60.61114
# Shear Modulus (GPa) = 32.89979 38.17519 35.53749
#
# Velocity S-wave (km/s) = 3.91659 4.21892 4.07056
# Velocity P-wave (km/s) = 6.89285 7.29344 7.09597
#
# Compressibility (1/GPa) = 0.01723129
#
# Stress axis : x y z
#
# Youngs Moduli (GPa) = 59.18355 144.56685 93.42221
#
# Poissons Ratio (x) = 0.30244 0.48017
# Poissons Ratio (y) = 0.12382 0.13186
# Poissons Ratio (z) = 0.30419 0.20404
#
# Static dielectric constant tensor:
#      x y z
#    x 3.696640 0.000000 0.000000 
#    y 0.000000 4.272250 0.000000 
#    z 0.000000 0.000000 3.776770 
# 
# 
# High freq. dielectric constant tensor:
#      x y z
#    x 1.829340 0.000000 0.000000 
#    y 0.000000 1.862550 0.000000 
#    z 0.000000 0.000000 1.834810 
# 
# From -- ./inp_files/25680.got.cif
#   From: 2010.03.12/outbox.cif.g09.slc.cpg/sg40_13_cif.got.tgz:25680.got - 2010.04.14 01:38:03.
