data_PCOD8184117
_publ_section_title
;
Structure prediction by ZEFSAII (Michael W. Deem and Ramdas Pophale) SiO2 
 PCOD8184117
Probable space group: A M A 2
;
_chemical_formula_sum "Si O2"
_cell_formula_units_Z 48
_cell_length_a 16.898369
_cell_length_b 4.956549
_cell_length_c 27.052726
_cell_angle_alpha 90.000000
_cell_angle_beta 90.000000
_cell_angle_gamma 90.000000
_cell_volume 2265.871240
_symmetry_space_group_name_H-M "A M A 2"
_symmetry_group_IT_number 40
_symmetry_cell_setting 'orthorhombic'
loop_
_space_group_symop_operation_xyz
x,y,z
-x,-y,z
1/2-x,y,z
1/2+x,-y,z
x,1/2+y,1/2+z
-x,1/2-y,1/2+z
1/2-x,1/2+y,1/2+z
1/2+x,1/2-y,1/2+z
loop_
_atom_site_type_symbol
_atom_site_label
_atom_site_fract_x
_atom_site_fract_y
_atom_site_fract_z
Si Si1 0.945107 0.738444 0.950330
Si Si2 0.662263 0.924589 0.753937
Si Si3 0.159353 0.415939 0.038226
Si Si4 0.909339 0.562060 0.590670
Si Si5 0.051995 0.247748 0.841604
Si Si6 0.661670 0.416587 0.689262
O O1 0.909957 0.678475 0.895003
O O2 0.000000 0.500000 0.967806
O O3 0.870944 0.716238 0.987070
O O4 0.000000 0.000000 0.957543
O O5 0.750000 0.030245 0.768748
O O6 0.611616 0.884180 0.803011
O O7 0.668290 0.629130 0.732629
O O8 0.626194 0.142021 0.714504
O O9 0.250000 0.503307 0.031555
O O10 0.150395 0.176942 0.077056
O O11 0.111898 0.666925 0.061465
O O12 0.896526 0.561174 0.649837
O O13 0.000000 0.500000 0.577406
O O14 0.000000 0.500000 0.820394
O O15 0.000000 0.000000 0.858323
O O16 0.750000 0.358261 0.667532
#
# Coordination Sequence:
#
# PCOD8184117 Si02
#       6
#     8   8   8   8   8   8
#     4  10  21  39  61  86 120 158 198 247 302 357
#     4  10  21  37  59  84 116 154 193 241 296 350
#     4  12  24  40  63  90 120 158 201 250 303 362
#     4  12  25  41  62  89 120 158 201 250 303 362
#     4  10  21  37  59  87 119 156 196 244 297 352
#     4  10  21  38  58  84 117 154 194 242 296 351
#
# _framework density 21.183907000000001
#
# number of rings (size 3 to 8) (size 9 to 14) (size 15 to 20)
#    0.000    1.333    0.000    6.500    0.000    4.000 
#    0.000    0.000    0.000   10.000    0.000    0.000 
#    0.000    0.000    0.000    0.000    0.000    0.000 
#
# Total GULP energy -297327.899493 kJ/mol
# GULP energy per Si atom -12388.662479 kJ/mol
# Density = 2.113569 g / cm^3
# Si number density = 21.183907 Si / 1000 Ang^3
#
#
#
# Elastic Constant Matrix: (Units=GPa)
#
#
# Indices 1 2 3 4 5 6 
#
# 1 54.7370 12.8426 61.7668 0.0000 0.0000 0.0000
# 2 12.8426 123.8148 31.5538 0.0000 0.0000 0.0000
# 3 61.7668 31.5538 112.8775 0.0000 0.0000 0.0000
# 4 0.0000 0.0000 0.0000 40.0020 0.0000 0.0000
# 5 0.0000 0.0000 0.0000 0.0000 52.8009 0.0000
# 6 0.0000 0.0000 0.0000 0.0000 0.0000 47.1546
#
#
#
# Elastic Compliance Matrix: (Units=1/GPa)
#
#
# Indices 1 2 3 4 5 6 
#
# 1 0.048151 0.001852 -0.026866 0.000000 0.000000 0.000000
# 2 0.001852 0.008767 -0.003464 0.000000 0.000000 0.000000
# 3 -0.026866 -0.003464 0.024529 0.000000 0.000000 0.000000
# 4 0.000000 0.000000 0.000000 0.024999 0.000000 0.000000
# 5 0.000000 0.000000 0.000000 0.000000 0.018939 0.000000
# 6 0.000000 0.000000 0.000000 0.000000 0.000000 0.021207
#
#
# Mechanical properties :
#
#
# Convention : Reuss Voigt Hill
#
# Bulk Modulus (GPa) = 40.83172 55.97285 48.40229
# Shear Modulus (GPa) = 23.61694 40.34257 31.97976
#
# Velocity S-wave (km/s) = 3.34256 4.36867 3.88960
# Velocity P-wave (km/s) = 5.84925 7.20602 6.56279
#
# Compressibility (1/GPa) = 0.02449076
#
# Stress axis : x y z
#
# Youngs Moduli (GPa) = 20.76789 114.05964 40.76829
#
# Poissons Ratio (x) = -0.21128 1.09529
# Poissons Ratio (y) = -0.03847 0.14124
# Poissons Ratio (z) = 0.55796 0.39515
#
# Static dielectric constant tensor:
#      x y z
#    x 3.608700 0.000000 0.000000 
#    y 0.000000 3.673750 0.000000 
#    z 0.000000 0.000000 3.815200 
# 
# 
# High freq. dielectric constant tensor:
#      x y z
#    x 1.806140 0.000000 0.000000 
#    y 0.000000 1.849950 0.000000 
#    z 0.000000 0.000000 1.840240 
# 
# From -- ./inp_files/25706.got.cif
#   From: 2010.03.12/outbox.cif.g09.slc.cpg/sg40_13_cif.got.tgz:25706.got - 2010.04.14 01:38:03.
