data_PCOD8184139
_publ_section_title
;
Structure prediction by ZEFSAII (Michael W. Deem and Ramdas Pophale) SiO2 
 PCOD8184139
Probable space group: A M A 2
;
_chemical_formula_sum "Si O2"
_cell_formula_units_Z 56
_cell_length_a 14.160062
_cell_length_b 15.066043
_cell_length_c 12.726771
_cell_angle_alpha 90.000000
_cell_angle_beta 90.000000
_cell_angle_gamma 90.000000
_cell_volume 2715.079729
_symmetry_space_group_name_H-M "A M A 2"
_symmetry_group_IT_number 40
_symmetry_cell_setting 'orthorhombic'
loop_
_space_group_symop_operation_xyz
x,y,z
-x,-y,z
1/2-x,y,z
1/2+x,-y,z
x,1/2+y,1/2+z
-x,1/2-y,1/2+z
1/2-x,1/2+y,1/2+z
1/2+x,1/2-y,1/2+z
loop_
_atom_site_type_symbol
_atom_site_label
_atom_site_fract_x
_atom_site_fract_y
_atom_site_fract_z
Si Si1 0.644173 0.421892 0.343220
Si Si2 0.358317 0.056446 0.212775
Si Si3 0.000000 0.500000 0.879241
Si Si4 0.854338 0.057832 0.020169
Si Si5 0.855523 0.744507 0.197845
Si Si6 0.522337 0.698207 0.400119
Si Si7 0.000000 0.500000 0.194672
Si Si8 0.541646 0.642014 0.033396
O O1 0.750000 0.396801 0.301374
O O2 0.654554 0.468176 0.454665
O O3 0.581066 0.333506 0.360483
O O4 0.593934 0.494865 0.266881
O O5 0.250000 0.043629 0.247675
O O6 0.372850 0.153894 0.163114
O O7 0.424767 0.055053 0.313650
O O8 0.388289 0.976694 0.134502
O O9 0.065647 0.433021 0.947443
O O10 0.750000 0.102948 0.027076
O O11 0.930383 0.123479 0.972162
O O12 0.750000 0.728121 0.237959
O O13 0.921040 0.715581 0.293820
O O14 0.869990 0.688265 0.090586
O O15 0.521094 0.784309 0.474520
O O16 0.011704 0.589773 0.126910
#
# Coordination Sequence:
#
# PCOD8184139 Si02
#       8
#     8   8   4   8   8   8   4   8
#     4  11  22  40  67  98 130 166 216 271 316 379
#     4  10  23  42  65  96 129 169 215 260 321 388
#     4  11  24  43  66  90 134 171 212 261 324 386
#     4  10  21  37  64  97 127 169 216 264 324 381
#     4  11  23  43  69  96 128 169 218 268 323 390
#     4  12  22  40  67  99 132 163 216 274 323 377
#     4  11  22  45  62  92 130 175 218 253 324 390
#     4  11  25  40  65  95 128 169 214 261 323 382
#
# _framework density 20.625544000000001
#
# number of rings (size 3 to 8) (size 9 to 14) (size 15 to 20)
#    0.000    1.143    4.286    1.286    4.000    4.000 
#    0.000    3.571    0.000    0.000    0.000    0.000 
#    0.000    0.000    0.000    0.000    0.000    0.000 
#
# Total GULP energy -346985.573480 kJ/mol
# GULP energy per Si atom -12392.341910 kJ/mol
# Density = 2.057860 g / cm^3
# Si number density = 20.625544 Si / 1000 Ang^3
#
#
#
# Elastic Constant Matrix: (Units=GPa)
#
#
# Indices 1 2 3 4 5 6 
#
# 1 126.0128 53.2354 50.3056 0.0000 0.0000 0.0000
# 2 53.2354 108.6459 47.1985 0.0000 0.0000 0.0000
# 3 50.3056 47.1985 104.6111 0.0000 0.0000 0.0000
# 4 0.0000 0.0000 0.0000 44.7201 0.0000 0.0000
# 5 0.0000 0.0000 0.0000 0.0000 18.9941 0.0000
# 6 0.0000 0.0000 0.0000 0.0000 0.0000 23.5001
#
#
#
# Elastic Compliance Matrix: (Units=1/GPa)
#
#
# Indices 1 2 3 4 5 6 
#
# 1 0.010971 -0.003836 -0.003545 0.000000 0.000000 0.000000
# 2 -0.003836 0.012789 -0.003926 0.000000 0.000000 0.000000
# 3 -0.003545 -0.003926 0.013035 0.000000 0.000000 0.000000
# 4 0.000000 0.000000 0.000000 0.022361 0.000000 0.000000
# 5 0.000000 0.000000 0.000000 0.000000 0.052648 0.000000
# 6 0.000000 0.000000 0.000000 0.000000 0.000000 0.042553
#
#
# Mechanical properties :
#
#
# Convention : Reuss Voigt Hill
#
# Bulk Modulus (GPa) = 70.51017 71.19431 70.85224
# Shear Modulus (GPa) = 27.51804 30.01156 28.76480
#
# Velocity S-wave (km/s) = 3.65660 3.81867 3.73851
# Velocity P-wave (km/s) = 7.21718 7.35088 7.28434
#
# Compressibility (1/GPa) = 0.01418235
#
# Stress axis : x y z
#
# Youngs Moduli (GPa) = 91.14525 78.19169 76.71472
#
# Poissons Ratio (x) = 0.29992 0.27198
# Poissons Ratio (y) = 0.34961 0.30116
# Poissons Ratio (z) = 0.32315 0.30695
#
# Static dielectric constant tensor:
#      x y z
#    x 3.727560 0.000000 0.000000 
#    y 0.000000 3.825200 0.000000 
#    z 0.000000 0.000000 3.868210 
# 
# 
# High freq. dielectric constant tensor:
#      x y z
#    x 1.793250 0.000000 0.000000 
#    y 0.000000 1.808990 0.000000 
#    z 0.000000 0.000000 1.814720 
# 
# From -- ./inp_files/12259.got.cif
#   From: 2010.03.12/outbox.cif.g09.slc.cpg/sg40_7_cif.got.tgz:12259.got - 2010.04.14 01:38:03.
