data_PCOD8184694
_publ_section_title
;
Structure prediction by ZEFSAII (Michael W. Deem and Ramdas Pophale) SiO2 
 PCOD8184694
Probable space group: A M A 2
;
_chemical_formula_sum "Si O2"
_cell_formula_units_Z 40
_cell_length_a 17.302069
_cell_length_b 11.826736
_cell_length_c 8.323080
_cell_angle_alpha 90.000000
_cell_angle_beta 90.000000
_cell_angle_gamma 90.000000
_cell_volume 1703.126910
_symmetry_space_group_name_H-M "A M A 2"
_symmetry_group_IT_number 40
_symmetry_cell_setting 'orthorhombic'
loop_
_space_group_symop_operation_xyz
x,y,z
-x,-y,z
1/2-x,y,z
1/2+x,-y,z
x,1/2+y,1/2+z
-x,1/2-y,1/2+z
1/2-x,1/2+y,1/2+z
1/2+x,1/2-y,1/2+z
loop_
_atom_site_type_symbol
_atom_site_label
_atom_site_fract_x
_atom_site_fract_y
_atom_site_fract_z
Si Si1 0.409966 0.006487 0.677400
Si Si2 0.841750 0.263216 0.189295
Si Si3 0.839962 0.026022 0.332850
Si Si4 0.062139 0.315331 0.409098
Si Si5 0.037790 0.611242 0.697022
O O1 0.359135 0.991505 0.518848
O O2 0.392604 0.909090 0.806193
O O3 0.500000 0.000000 0.632422
O O4 0.385150 0.125782 0.758878
O O5 0.750000 0.280394 0.194172
O O6 0.870159 0.151392 0.283791
O O7 0.871310 0.248915 0.006870
O O8 0.750000 0.020111 0.305399
O O9 0.872491 0.927255 0.212710
O O10 0.019893 0.225516 0.293466
O O11 0.994865 0.373329 0.517028
O O12 0.000000 0.500000 0.782007
#
# Coordination Sequence:
#
# PCOD8184694 Si02
#       5
#     8   8   8   8   8
#     4  12  27  44  76 110 148 198 253 308 372 446
#     4  11  26  49  73 108 154 195 247 312 378 452
#     4  11  26  50  76 105 151 201 247 311 384 449
#     4  12  28  43  78 109 150 198 252 304 375 445
#     4  12  26  47  75 111 153 192 250 311 371 447
#
# _framework density 23.48621
#
# number of rings (size 3 to 8) (size 9 to 14) (size 15 to 20)
#    0.000    0.400    4.000    3.000    2.800    3.200 
#    0.000    0.000    0.000    0.000    0.000    0.000 
#    0.000    0.000    0.000    0.000    0.000    0.000 
#
# Total GULP energy -247956.094559 kJ/mol
# GULP energy per Si atom -12397.804728 kJ/mol
# Density = 2.343275 g / cm^3
# Si number density = 23.486210 Si / 1000 Ang^3
#
#
#
# Elastic Constant Matrix: (Units=GPa)
#
#
# Indices 1 2 3 4 5 6 
#
# 1 68.6162 53.2443 27.0732 0.0000 0.0000 0.0000
# 2 53.2443 193.5247 58.6459 0.0000 0.0000 0.0000
# 3 27.0732 58.6459 78.3631 0.0000 0.0000 0.0000
# 4 0.0000 0.0000 0.0000 40.2921 0.0000 0.0000
# 5 0.0000 0.0000 0.0000 0.0000 23.9005 0.0000
# 6 0.0000 0.0000 0.0000 0.0000 0.0000 41.0099
#
#
#
# Elastic Compliance Matrix: (Units=1/GPa)
#
#
# Indices 1 2 3 4 5 6 
#
# 1 0.019234 -0.004240 -0.003472 0.000000 0.000000 0.000000
# 2 -0.004240 0.007617 -0.004236 0.000000 0.000000 0.000000
# 3 -0.003472 -0.004236 0.017131 0.000000 0.000000 0.000000
# 4 0.000000 0.000000 0.000000 0.024819 0.000000 0.000000
# 5 0.000000 0.000000 0.000000 0.000000 0.041840 0.000000
# 6 0.000000 0.000000 0.000000 0.000000 0.000000 0.024384
#
#
# Mechanical properties :
#
#
# Convention : Reuss Voigt Hill
#
# Bulk Modulus (GPa) = 49.78477 68.71452 59.24964
# Shear Modulus (GPa) = 30.19033 34.47654 32.33343
#
# Velocity S-wave (km/s) = 3.58921 3.83554 3.71441
# Velocity P-wave (km/s) = 6.19839 6.99543 6.60893
#
# Compressibility (1/GPa) = 0.02008647
#
# Stress axis : x y z
#
# Youngs Moduli (GPa) = 51.99255 131.27803 58.37408
#
# Poissons Ratio (x) = 0.55656 0.20268
# Poissons Ratio (y) = 0.22042 0.24728
# Poissons Ratio (z) = 0.18052 0.55611
#
# Static dielectric constant tensor:
#      x y z
#    x 4.247780 0.000000 0.000000 
#    y 0.000000 4.901930 0.000000 
#    z 0.000000 0.000000 4.017830 
# 
# 
# High freq. dielectric constant tensor:
#      x y z
#    x 1.929350 0.000000 0.000000 
#    y 0.000000 1.958810 0.000000 
#    z 0.000000 0.000000 1.916440 
# 
# From -- ./inp_files/7133.got.cif
#   From: 2010.03.12/outbox.cif.g09.slc.cpg/sg40_4_cif.got.tgz:7133.got - 2010.04.14 01:38:03.
