data_PCOD8184607
_publ_section_title
;
Structure prediction by ZEFSAII (Michael W. Deem and Ramdas Pophale) SiO2 
 PCOD8184607
Probable space group: A M A 2
;
_chemical_formula_sum "Si O2"
_cell_formula_units_Z 48
_cell_length_a 13.966543
_cell_length_b 17.094957
_cell_length_c 9.754049
_cell_angle_alpha 90.000000
_cell_angle_beta 90.000000
_cell_angle_gamma 90.000000
_cell_volume 2328.851886
_symmetry_space_group_name_H-M "A M A 2"
_symmetry_group_IT_number 40
_symmetry_cell_setting 'orthorhombic'
loop_
_space_group_symop_operation_xyz
x,y,z
-x,-y,z
1/2-x,y,z
1/2+x,-y,z
x,1/2+y,1/2+z
-x,1/2-y,1/2+z
1/2-x,1/2+y,1/2+z
1/2+x,1/2-y,1/2+z
loop_
_atom_site_type_symbol
_atom_site_label
_atom_site_fract_x
_atom_site_fract_y
_atom_site_fract_z
Si Si1 0.541348 0.416686 0.314340
Si Si2 0.450709 0.867425 0.546014
Si Si3 0.053665 0.424021 0.746418
Si Si4 0.750000 0.697889 0.452499
Si Si5 0.750000 0.458326 0.369970
Si Si6 0.750000 0.046792 0.132761
Si Si7 0.457864 0.795532 0.021481
Si Si8 0.250000 0.886746 0.685002
O O1 0.500000 0.500000 0.366426
O O2 0.523003 0.406872 0.153185
O O3 0.654711 0.408350 0.338883
O O4 0.483114 0.348458 0.390281
O O5 0.474728 0.907151 0.401909
O O6 0.468081 0.774784 0.535135
O O7 0.341732 0.882984 0.587813
O O8 0.163459 0.447823 0.737069
O O9 0.030601 0.347609 0.657149
O O10 0.000000 0.500000 0.688528
O O11 0.750000 0.613556 0.519981
O O12 0.650835 0.739074 0.501767
O O13 0.750000 0.687368 0.288086
O O14 0.750000 0.470933 0.534792
O O15 0.750000 0.534119 0.273236
#
# Coordination Sequence:
#
# PCOD8184607 Si02
#       8
#     8   8   8   4   4   4   8   4
#     4  12  22  42  69  97 125 175 234 274 319 403
#     4  12  25  40  64 101 134 170 214 274 342 399
#     4  11  23  40  62  94 132 167 205 270 333 384
#     4   9  18  39  68  86 120 174 220 252 320 390
#     4  11  22  38  73  99 122 171 245 283 310 395
#     4   9  19  40  62  94 119 171 215 263 318 396
#     4  11  23  42  68  95 131 173 224 269 324 404
#     4  11  21  41  67  91 129 176 210 268 344 401
#
# _framework density 20.611014000000001
#
# number of rings (size 3 to 8) (size 9 to 14) (size 15 to 20)
#    0.000    1.000    3.333    5.500    0.000    1.333 
#    0.000    3.333    0.000    0.000    0.000    0.000 
#    0.000    0.000    0.000    0.000    0.000    0.000 
#
# Total GULP energy -297619.172128 kJ/mol
# GULP energy per Si atom -12400.798839 kJ/mol
# Density = 2.056410 g / cm^3
# Si number density = 20.611014 Si / 1000 Ang^3
#
#
#
# Elastic Constant Matrix: (Units=GPa)
#
#
# Indices 1 2 3 4 5 6 
#
# 1 118.4940 30.7705 26.2258 0.0000 0.0000 0.0000
# 2 30.7705 74.5769 14.1919 0.0000 0.0000 0.0000
# 3 26.2258 14.1919 105.4948 0.0000 0.0000 0.0000
# 4 0.0000 0.0000 0.0000 25.9601 0.0000 0.0000
# 5 0.0000 0.0000 0.0000 0.0000 27.4703 0.0000
# 6 0.0000 0.0000 0.0000 0.0000 0.0000 5.7030
#
#
#
# Elastic Compliance Matrix: (Units=1/GPa)
#
#
# Indices 1 2 3 4 5 6 
#
# 1 0.009827 -0.003684 -0.001947 0.000000 0.000000 0.000000
# 2 -0.003684 0.015142 -0.001121 0.000000 0.000000 0.000000
# 3 -0.001947 -0.001121 0.010114 0.000000 0.000000 0.000000
# 4 0.000000 0.000000 0.000000 0.038521 0.000000 0.000000
# 5 0.000000 0.000000 0.000000 0.000000 0.036403 0.000000
# 6 0.000000 0.000000 0.000000 0.000000 0.000000 0.175347
#
#
# Mechanical properties :
#
#
# Convention : Reuss Voigt Hill
#
# Bulk Modulus (GPa) = 46.34308 48.99357 47.66832
# Shear Modulus (GPa) = 16.33707 26.98516 21.66112
#
# Velocity S-wave (km/s) = 2.81844 3.62229 3.24535
# Velocity P-wave (km/s) = 5.75542 6.42782 6.10089
#
# Compressibility (1/GPa) = 0.02157820
#
# Stress axis : x y z
#
# Youngs Moduli (GPa) = 101.76136 66.03986 98.87205
#
# Poissons Ratio (x) = 0.24329 0.19254
# Poissons Ratio (y) = 0.37489 0.11086
# Poissons Ratio (z) = 0.19817 0.07404
#
# Static dielectric constant tensor:
#      x y z
#    x 4.032570 0.000000 0.000000 
#    y 0.000000 3.516220 0.000000 
#    z 0.000000 0.000000 3.740160 
# 
# 
# High freq. dielectric constant tensor:
#      x y z
#    x 1.816730 0.000000 0.000000 
#    y 0.000000 1.780650 0.000000 
#    z 0.000000 0.000000 1.816750 
# 
# From -- ./inp_files/6531.got.cif
#   From: 2010.03.12/outbox.cif.g09.slc.cpg/sg40_4_cif.got.tgz:6531.got - 2010.04.14 01:38:03.
