data_PCOD8184263
_publ_section_title
;
Structure prediction by ZEFSAII (Michael W. Deem and Ramdas Pophale) SiO2 
 PCOD8184263
Probable space group: A M A 2
;
_chemical_formula_sum "Si O2"
_cell_formula_units_Z 64
_cell_length_a 14.599883
_cell_length_b 16.835502
_cell_length_c 11.696695
_cell_angle_alpha 90.000000
_cell_angle_beta 90.000000
_cell_angle_gamma 90.000000
_cell_volume 2875.005049
_symmetry_space_group_name_H-M "A M A 2"
_symmetry_group_IT_number 40
_symmetry_cell_setting 'orthorhombic'
loop_
_space_group_symop_operation_xyz
x,y,z
-x,-y,z
1/2-x,y,z
1/2+x,-y,z
x,1/2+y,1/2+z
-x,1/2-y,1/2+z
1/2-x,1/2+y,1/2+z
1/2+x,1/2-y,1/2+z
loop_
_atom_site_type_symbol
_atom_site_label
_atom_site_fract_x
_atom_site_fract_y
_atom_site_fract_z
Si Si1 0.644755 0.345848 0.380420
Si Si2 0.859330 0.804413 0.628182
Si Si3 0.147453 0.102033 0.266810
Si Si4 0.899524 0.981894 0.042525
Si Si5 0.023529 0.583494 0.968354
Si Si6 0.646844 0.157791 0.986777
Si Si7 0.144070 0.317516 0.004607
Si Si8 0.141393 0.781320 0.752671
O O1 0.750000 0.370388 0.367109
O O2 0.604583 0.320015 0.256933
O O3 0.594769 0.423498 0.432379
O O4 0.633386 0.273337 0.467215
O O5 0.750000 0.815064 0.622592
O O6 0.906982 0.866685 0.545119
O O7 0.891070 0.715341 0.588048
O O8 0.250000 0.102391 0.319017
O O9 0.076929 0.059703 0.352168
O O10 0.108725 0.190698 0.251592
O O11 0.154895 0.059129 0.144671
O O12 0.852976 0.065375 0.014291
O O13 0.000000 0.000000 0.086808
O O14 0.000000 0.500000 0.029928
O O15 0.927876 0.627816 0.936921
O O16 0.750000 0.186161 0.968410
O O17 0.597227 0.175617 0.864622
O O18 0.250000 0.345537 0.985029
O O19 0.109869 0.324549 0.136317
O O20 0.250000 0.785016 0.750962
#
# Coordination Sequence:
#
# PCOD8184263 Si02
#       8
#     8   8   8   8   8   8   8   8
#     4  10  22  43  68  94 133 184 229 279 349 414
#     4  10  23  43  68  95 132 181 230 282 347 410
#     4  11  22  44  72  95 131 177 228 284 345 414
#     4  12  26  39  64 105 140 176 228 292 347 406
#     4  12  27  42  64  98 133 176 228 283 345 413
#     4  10  21  40  66 100 133 174 230 287 340 402
#     4  10  23  43  68  98 133 179 229 280 343 417
#     4   9  18  38  71  96 123 176 230 273 337 408
#
# _framework density 22.260829999999999
#
# number of rings (size 3 to 8) (size 9 to 14) (size 15 to 20)
#    0.000    1.500    2.500    1.875    1.750    6.500 
#    0.000    3.750    0.000    0.000    0.000    0.000 
#    0.000    0.000    0.000    0.000    0.000    0.000 
#
# Total GULP energy -396705.631116 kJ/mol
# GULP energy per Si atom -12397.050972 kJ/mol
# Density = 2.221016 g / cm^3
# Si number density = 22.260830 Si / 1000 Ang^3
#
#
#
# Elastic Constant Matrix: (Units=GPa)
#
#
# Indices 1 2 3 4 5 6 
#
# 1 70.5194 26.2860 25.1924 0.0000 0.0000 0.0000
# 2 26.2860 142.4371 55.7262 0.0000 0.0000 0.0000
# 3 25.1924 55.7262 142.8880 0.0000 0.0000 0.0000
# 4 0.0000 0.0000 0.0000 31.4592 0.0000 0.0000
# 5 0.0000 0.0000 0.0000 0.0000 29.8079 0.0000
# 6 0.0000 0.0000 0.0000 0.0000 0.0000 30.0425
#
#
#
# Elastic Compliance Matrix: (Units=1/GPa)
#
#
# Indices 1 2 3 4 5 6 
#
# 1 0.015666 -0.002136 -0.001929 0.000000 0.000000 0.000000
# 2 -0.002136 0.008576 -0.002968 0.000000 0.000000 0.000000
# 3 -0.001929 -0.002968 0.008496 0.000000 0.000000 0.000000
# 4 0.000000 0.000000 0.000000 0.031787 0.000000 0.000000
# 5 0.000000 0.000000 0.000000 0.000000 0.033548 0.000000
# 6 0.000000 0.000000 0.000000 0.000000 0.000000 0.033286
#
#
# Mechanical properties :
#
#
# Convention : Reuss Voigt Hill
#
# Bulk Modulus (GPa) = 53.55741 63.36152 58.45946
# Shear Modulus (GPa) = 32.97065 34.83790 33.90427
#
# Velocity S-wave (km/s) = 3.85269 3.96028 3.90686
# Velocity P-wave (km/s) = 6.62587 7.03113 6.83151
#
# Compressibility (1/GPa) = 0.01867155
#
# Stress axis : x y z
#
# Youngs Moduli (GPa) = 63.83286 116.60321 117.70142
#
# Poissons Ratio (x) = 0.24912 0.22703
# Poissons Ratio (y) = 0.13638 0.34934
# Poissons Ratio (z) = 0.12312 0.34608
#
# Static dielectric constant tensor:
#      x y z
#    x 3.769640 0.000000 0.000000 
#    y 0.000000 3.885840 0.000000 
#    z 0.000000 0.000000 4.264610 
# 
# 
# High freq. dielectric constant tensor:
#      x y z
#    x 1.878780 0.000000 0.000000 
#    y 0.000000 1.867690 0.000000 
#    z 0.000000 0.000000 1.877340 
# 
# From -- ./inp_files/12415.got.cif
#   From: 2010.03.12/outbox.cif.g09.slc.cpg/sg40_7_cif.got.tgz:12415.got - 2010.04.14 01:38:03.
