data_PCOD8184164
_publ_section_title
;
Structure prediction by ZEFSAII (Michael W. Deem and Ramdas Pophale) SiO2 
 PCOD8184164
Probable space group: A M A 2
;
_chemical_formula_sum "Si O2"
_cell_formula_units_Z 64
_cell_length_a 17.983983
_cell_length_b 6.465038
_cell_length_c 26.089162
_cell_angle_alpha 90.000000
_cell_angle_beta 90.000000
_cell_angle_gamma 90.000000
_cell_volume 3033.312081
_symmetry_space_group_name_H-M "A M A 2"
_symmetry_group_IT_number 40
_symmetry_cell_setting 'orthorhombic'
loop_
_space_group_symop_operation_xyz
x,y,z
-x,-y,z
1/2-x,y,z
1/2+x,-y,z
x,1/2+y,1/2+z
-x,1/2-y,1/2+z
1/2-x,1/2+y,1/2+z
1/2+x,1/2-y,1/2+z
loop_
_atom_site_type_symbol
_atom_site_label
_atom_site_fract_x
_atom_site_fract_y
_atom_site_fract_z
Si Si1 0.587357 0.001660 0.845760
Si Si2 0.667797 0.794641 0.276533
Si Si3 0.333641 0.239495 0.086798
Si Si4 0.169675 0.392222 0.867337
Si Si5 0.076377 0.419364 0.528618
Si Si6 0.662506 0.752461 0.436132
Si Si7 0.165143 0.437574 0.682392
Si Si8 0.074111 0.620978 0.122202
O O1 0.615010 0.101566 0.791781
O O2 0.623774 0.101556 0.895646
O O3 0.500000 0.000000 0.848430
O O4 0.607853 0.761400 0.847281
O O5 0.750000 0.713910 0.259349
O O6 0.676559 0.923032 0.327690
O O7 0.633343 0.937791 0.231626
O O8 0.250000 0.278912 0.068216
O O9 0.367623 0.461791 0.098669
O O10 0.375938 0.122758 0.041373
O O11 0.336366 0.096695 0.136302
O O12 0.250000 0.278990 0.872134
O O13 0.149265 0.506675 0.920807
O O14 0.123486 0.276208 0.490726
O O15 0.053498 0.287841 0.578808
O O16 0.000000 0.500000 0.502855
O O17 0.750000 0.700632 0.439631
O O18 0.250000 0.360299 0.692631
O O19 0.112419 0.240141 0.670312
O O20 0.000000 0.500000 0.140847
#
# Coordination Sequence:
#
# PCOD8184164 Si02
#       8
#     8   8   8   8   8   8   8   8
#     4  11  22  38  59  87 125 161 199 254 320 378
#     4   9  19  38  62  87 117 160 207 254 304 369
#     4  10  21  38  61  87 119 162 208 261 317 382
#     4   9  19  38  62  85 117 159 200 248 301 363
#     4  11  22  40  61  88 125 163 208 259 321 384
#     4  10  22  39  60  89 119 158 210 257 307 374
#     4   9  20  38  62  89 120 159 211 263 312 376
#     4  11  22  39  60  86 123 165 208 260 328 392
#
# _framework density 21.099048
#
# number of rings (size 3 to 8) (size 9 to 14) (size 15 to 20)
#    0.000    2.000    1.250    3.000    0.000    5.500 
#    2.250    8.750    0.000    0.000    0.000    0.000 
#    0.000    0.000    0.000    0.000    0.000    0.000 
#
# Total GULP energy -396731.035122 kJ/mol
# GULP energy per Si atom -12397.844848 kJ/mol
# Density = 2.105103 g / cm^3
# Si number density = 21.099048 Si / 1000 Ang^3
#
#
#
# Elastic Constant Matrix: (Units=GPa)
#
#
# Indices 1 2 3 4 5 6 
#
# 1 162.6862 65.6569 44.6493 0.0000 0.0000 0.0000
# 2 65.6569 101.0862 27.7642 0.0000 0.0000 0.0000
# 3 44.6493 27.7642 83.1477 0.0000 0.0000 0.0000
# 4 0.0000 0.0000 0.0000 37.9368 0.0000 0.0000
# 5 0.0000 0.0000 0.0000 0.0000 33.0735 0.0000
# 6 0.0000 0.0000 0.0000 0.0000 0.0000 31.6490
#
#
#
# Elastic Compliance Matrix: (Units=1/GPa)
#
#
# Indices 1 2 3 4 5 6 
#
# 1 0.009037 -0.004995 -0.003185 0.000000 0.000000 0.000000
# 2 -0.004995 0.013652 -0.001877 0.000000 0.000000 0.000000
# 3 -0.003185 -0.001877 0.014364 0.000000 0.000000 0.000000
# 4 0.000000 0.000000 0.000000 0.026360 0.000000 0.000000
# 5 0.000000 0.000000 0.000000 0.000000 0.030236 0.000000
# 6 0.000000 0.000000 0.000000 0.000000 0.000000 0.031597
#
#
# Mechanical properties :
#
#
# Convention : Reuss Voigt Hill
#
# Bulk Modulus (GPa) = 59.03085 69.22899 64.12992
# Shear Modulus (GPa) = 33.11195 34.45517 33.78356
#
# Velocity S-wave (km/s) = 3.96581 4.04545 4.00583
# Velocity P-wave (km/s) = 7.00064 7.39618 7.20113
#
# Compressibility (1/GPa) = 0.01694029
#
# Stress axis : x y z
#
# Youngs Moduli (GPa) = 110.66096 73.24896 69.62059
#
# Poissons Ratio (x) = 0.36586 0.22172
# Poissons Ratio (y) = 0.55272 0.13065
# Poissons Ratio (z) = 0.35243 0.13746
#
# Static dielectric constant tensor:
#      x y z
#    x 3.936910 0.000000 0.000000 
#    y 0.000000 3.871550 0.000000 
#    z 0.000000 0.000000 3.734180 
# 
# 
# High freq. dielectric constant tensor:
#      x y z
#    x 1.829640 0.000000 0.000000 
#    y 0.000000 1.827790 0.000000 
#    z 0.000000 0.000000 1.814360 
# 
# From -- ./inp_files/26688.got.cif
#   From: 2010.03.12/outbox.cif.g09.slc.cpg/sg40_14_cif.got.tgz:26688.got - 2010.04.14 01:38:03.
