data_PCOD8184614
_publ_section_title
;
Structure prediction by ZEFSAII (Michael W. Deem and Ramdas Pophale) SiO2 
 PCOD8184614
Probable space group: A M A 2
;
_chemical_formula_sum "Si O2"
_cell_formula_units_Z 40
_cell_length_a 8.905682
_cell_length_b 23.391359
_cell_length_c 10.134537
_cell_angle_alpha 90.000000
_cell_angle_beta 90.000000
_cell_angle_gamma 90.000000
_cell_volume 2111.186258
_symmetry_space_group_name_H-M "A M A 2"
_symmetry_group_IT_number 40
_symmetry_cell_setting 'orthorhombic'
loop_
_space_group_symop_operation_xyz
x,y,z
-x,-y,z
1/2-x,y,z
1/2+x,-y,z
x,1/2+y,1/2+z
-x,1/2-y,1/2+z
1/2-x,1/2+y,1/2+z
1/2+x,1/2-y,1/2+z
loop_
_atom_site_type_symbol
_atom_site_label
_atom_site_fract_x
_atom_site_fract_y
_atom_site_fract_z
Si Si1 0.425889 0.856835 0.748750
Si Si2 0.571668 0.863977 0.197204
Si Si3 0.919135 0.252431 0.156872
Si Si4 0.072218 0.939633 0.985340
Si Si5 0.918713 0.856560 0.494310
O O1 0.250000 0.846376 0.746562
O O2 0.507413 0.795108 0.766353
O O3 0.474741 0.897240 0.868011
O O4 0.478440 0.885481 0.608790
O O5 0.750000 0.866791 0.184451
O O6 0.514717 0.804543 0.136340
O O7 0.517985 0.869182 0.349063
O O8 0.496593 0.916561 0.121410
O O9 0.750000 0.236160 0.200248
O O10 0.918575 0.287479 0.018071
O O11 0.250000 0.945530 0.999548
O O12 0.000000 0.000000 0.951199
O O13 0.750000 0.880898 0.508641
#
# Coordination Sequence:
#
# PCOD8184614 Si02
#       5
#     8   8   8   8   8
#     4   9  19  36  59  84 114 150 195 246 295 353
#     4  11  22  37  59  87 122 160 197 246 301 356
#     4   9  19  34  55  86 122 154 191 240 297 356
#     4  11  25  43  62  87 119 159 207 252 297 357
#     4   8  19  36  55  84 118 149 189 238 292 354
#
# _framework density 18.946694000000001
#
# number of rings (size 3 to 8) (size 9 to 14) (size 15 to 20)
#    1.200    1.200    0.000    1.800    2.800    4.800 
#    0.000    1.000    0.000    2.400    0.000    0.000 
#    0.000    0.000    0.000    0.000    0.000    0.000 
#
# Total GULP energy -247854.746098 kJ/mol
# GULP energy per Si atom -12392.737305 kJ/mol
# Density = 1.890357 g / cm^3
# Si number density = 18.946694 Si / 1000 Ang^3
#
#
#
# Elastic Constant Matrix: (Units=GPa)
#
#
# Indices 1 2 3 4 5 6 
#
# 1 82.8100 29.9973 32.8139 0.0000 0.0000 0.0000
# 2 29.9973 67.3527 12.9613 0.0000 0.0000 0.0000
# 3 32.8139 12.9613 90.5289 0.0000 0.0000 0.0000
# 4 0.0000 0.0000 0.0000 20.8943 0.0000 0.0000
# 5 0.0000 0.0000 0.0000 0.0000 17.1333 0.0000
# 6 0.0000 0.0000 0.0000 0.0000 0.0000 31.8694
#
#
#
# Elastic Compliance Matrix: (Units=1/GPa)
#
#
# Indices 1 2 3 4 5 6 
#
# 1 0.016355 -0.006317 -0.005024 0.000000 0.000000 0.000000
# 2 -0.006317 0.017708 -0.000245 0.000000 0.000000 0.000000
# 3 -0.005024 -0.000245 0.012902 0.000000 0.000000 0.000000
# 4 0.000000 0.000000 0.000000 0.047860 0.000000 0.000000
# 5 0.000000 0.000000 0.000000 0.000000 0.058366 0.000000
# 6 0.000000 0.000000 0.000000 0.000000 0.000000 0.031378
#
#
# Mechanical properties :
#
#
# Convention : Reuss Voigt Hill
#
# Bulk Modulus (GPa) = 42.03048 43.58183 42.80616
# Shear Modulus (GPa) = 23.18328 24.97401 24.07865
#
# Velocity S-wave (km/s) = 3.50180 3.63453 3.56878
# Velocity P-wave (km/s) = 6.21143 6.37694 6.29473
#
# Compressibility (1/GPa) = 0.02379226
#
# Stress axis : x y z
#
# Youngs Moduli (GPa) = 61.14385 56.47156 77.50574
#
# Poissons Ratio (x) = 0.35675 0.38936
# Poissons Ratio (y) = 0.38626 0.01903
# Poissons Ratio (z) = 0.30717 0.01386
#
# Static dielectric constant tensor:
#      x y z
#    x 3.481700 0.000000 0.000000 
#    y 0.000000 3.163260 0.000000 
#    z 0.000000 0.000000 3.444860 
# 
# 
# High freq. dielectric constant tensor:
#      x y z
#    x 1.747110 0.000000 0.000000 
#    y 0.000000 1.705140 0.000000 
#    z 0.000000 0.000000 1.732850 
# 
# From -- ./inp_files/4223.got.cif
#   From: 2010.03.12/outbox.cif.g09.slc.cpg/sg40_3_cif.got.tgz:4223.got - 2010.04.14 01:38:03.
