data_PCOD8184294
_publ_section_title
;
Structure prediction by ZEFSAII (Michael W. Deem and Ramdas Pophale) SiO2 
 PCOD8184294
Probable space group: A M A 2
;
_chemical_formula_sum "Si O2"
_cell_formula_units_Z 48
_cell_length_a 16.732018
_cell_length_b 11.654115
_cell_length_c 10.710108
_cell_angle_alpha 90.000000
_cell_angle_beta 90.000000
_cell_angle_gamma 90.000000
_cell_volume 2088.437451
_symmetry_space_group_name_H-M "A M A 2"
_symmetry_group_IT_number 40
_symmetry_cell_setting 'orthorhombic'
loop_
_space_group_symop_operation_xyz
x,y,z
-x,-y,z
1/2-x,y,z
1/2+x,-y,z
x,1/2+y,1/2+z
-x,1/2-y,1/2+z
1/2-x,1/2+y,1/2+z
1/2+x,1/2-y,1/2+z
loop_
_atom_site_type_symbol
_atom_site_label
_atom_site_fract_x
_atom_site_fract_y
_atom_site_fract_z
Si Si1 0.158560 0.568437 0.904120
Si Si2 0.343467 0.729156 0.562434
Si Si3 0.910889 0.539924 0.137338
Si Si4 0.092393 0.999157 0.159872
Si Si5 0.844250 0.362371 0.297135
Si Si6 0.844129 0.725489 0.556477
O O1 0.250000 0.567716 0.858580
O O2 0.106847 0.489238 0.809092
O O3 0.153039 0.506199 0.037075
O O4 0.128231 0.700782 0.933446
O O5 0.250000 0.763956 0.566982
O O6 0.358370 0.615003 0.639727
O O7 0.373636 0.701333 0.422117
O O8 0.399978 0.822955 0.630087
O O9 0.885877 0.487316 0.273355
O O10 0.000000 0.500000 0.101965
O O11 0.125891 0.904492 0.064023
O O12 0.000000 0.000000 0.128965
O O13 0.750000 0.380832 0.303655
O O14 0.875098 0.283938 0.183708
O O15 0.750000 0.724914 0.556323
#
# Coordination Sequence:
#
# PCOD8184294 Si02
#       6
#     8   8   8   8   8   8
#     4  10  21  41  69  93 122 173 225 266 326 405
#     4  11  24  42  65  93 132 180 226 268 332 415
#     4  11  23  40  66 100 132 165 219 280 337 396
#     4  12  26  40  60  97 138 171 215 277 341 396
#     4   9  20  40  67  91 122 171 221 269 324 394
#     4   9  19  39  65  90 122 166 220 270 322 395
#
# _framework density 22.983688999999998
#
# number of rings (size 3 to 8) (size 9 to 14) (size 15 to 20)
#    0.000    1.667    0.000    5.500    4.667    3.333 
#    0.000    1.667    0.000    0.000    0.000    0.000 
#    0.000    0.000    0.000    0.000    0.000    0.000 
#
# Total GULP energy -297384.289979 kJ/mol
# GULP energy per Si atom -12391.012082 kJ/mol
# Density = 2.293138 g / cm^3
# Si number density = 22.983689 Si / 1000 Ang^3
#
#
#
# Elastic Constant Matrix: (Units=GPa)
#
#
# Indices 1 2 3 4 5 6 
#
# 1 55.3050 27.8046 24.7284 0.0000 0.0000 0.0000
# 2 27.8046 116.1616 6.3841 0.0000 0.0000 0.0000
# 3 24.7284 6.3841 36.9760 0.0000 0.0000 0.0000
# 4 0.0000 0.0000 0.0000 38.4781 0.0000 0.0000
# 5 0.0000 0.0000 0.0000 0.0000 -35.5628 0.0000
# 6 0.0000 0.0000 0.0000 0.0000 0.0000 31.9350
#
#
#
# Elastic Compliance Matrix: (Units=1/GPa)
#
#
# Indices 1 2 3 4 5 6 
#
# 1 0.029452 -0.006024 -0.018657 0.000000 0.000000 0.000000
# 2 -0.006024 0.009923 0.002316 0.000000 0.000000 0.000000
# 3 -0.018657 0.002316 0.039122 0.000000 0.000000 0.000000
# 4 0.000000 0.000000 0.000000 0.025989 0.000000 0.000000
# 5 0.000000 0.000000 0.000000 0.000000 -0.028119 0.000000
# 6 0.000000 0.000000 0.000000 0.000000 0.000000 0.031314
#
#
# Mechanical properties :
#
#
# Convention : Reuss Voigt Hill
#
# Bulk Modulus (GPa) = 29.61507 36.25297 32.93402
# Shear Modulus (GPa) = 30.54988 16.93842 23.74415
#
# Velocity S-wave (km/s) = 3.64977 2.71767 3.21765
# Velocity P-wave (km/s) = 5.53844 5.06510 5.30705
#
# Compressibility (1/GPa) = 0.03376659
#
# Stress axis : x y z
#
# Youngs Moduli (GPa) = 33.95333 100.77158 25.56128
#
# Poissons Ratio (x) = 0.60708 0.47689
# Poissons Ratio (y) = 0.20455 -0.05919
# Poissons Ratio (z) = 0.63345 -0.23334
#
# Static dielectric constant tensor:
#      x y z
#    x 3.729450 0.000000 0.000000 
#    y 0.000000 4.275540 0.000000 
#    z 0.000000 0.000000 4.349690 
# 
# 
# High freq. dielectric constant tensor:
#      x y z
#    x 1.889850 0.000000 0.000000 
#    y 0.000000 1.912470 0.000000 
#    z 0.000000 0.000000 1.903780 
# 
# From -- ./inp_files/12891.got.cif
#   From: 2010.03.12/outbox.cif.g09.slc.cpg/sg40_7_cif.got.tgz:12891.got - 2010.04.14 01:38:03.
