data_PCOD8184260
_publ_section_title
;
Structure prediction by ZEFSAII (Michael W. Deem and Ramdas Pophale) SiO2 
 PCOD8184260
Probable space group: A M A 2
;
_chemical_formula_sum "Si O2"
_cell_formula_units_Z 64
_cell_length_a 16.580452
_cell_length_b 15.131136
_cell_length_c 12.110757
_cell_angle_alpha 90.000000
_cell_angle_beta 90.000000
_cell_angle_gamma 90.000000
_cell_volume 3038.359725
_symmetry_space_group_name_H-M "A M A 2"
_symmetry_group_IT_number 40
_symmetry_cell_setting 'orthorhombic'
loop_
_space_group_symop_operation_xyz
x,y,z
-x,-y,z
1/2-x,y,z
1/2+x,-y,z
x,1/2+y,1/2+z
-x,1/2-y,1/2+z
1/2-x,1/2+y,1/2+z
1/2+x,1/2-y,1/2+z
loop_
_atom_site_type_symbol
_atom_site_label
_atom_site_fract_x
_atom_site_fract_y
_atom_site_fract_z
Si Si1 0.841905 0.683306 0.012490
Si Si2 0.343886 0.907231 0.121518
Si Si3 0.156365 0.555404 0.782847
Si Si4 0.590962 0.230723 0.281632
Si Si5 0.093037 0.242158 0.230087
Si Si6 0.154325 0.404418 0.373346
Si Si7 0.659341 0.981286 0.519130
Si Si8 0.153875 0.080406 0.747620
O O1 0.750000 0.719981 0.002177
O O2 0.892806 0.737796 0.101474
O O3 0.839906 0.583217 0.053447
O O4 0.887326 0.684566 0.896321
O O5 0.250000 0.924199 0.106740
O O6 0.358061 0.814759 0.184050
O O7 0.382546 0.989328 0.191190
O O8 0.380576 0.902752 0.998232
O O9 0.250000 0.529197 0.791306
O O10 0.147737 0.657388 0.754049
O O11 0.114531 0.537312 0.902759
O O12 0.498432 0.215934 0.252226
O O13 0.612485 0.333147 0.296401
O O14 0.116715 0.323104 0.307518
O O15 0.250000 0.393382 0.367887
O O16 0.126432 0.496969 0.320433
O O17 0.750000 0.945264 0.507258
O O18 0.619597 0.930178 0.622516
O O19 0.250000 0.089890 0.750058
#
# Coordination Sequence:
#
# PCOD8184260 Si02
#       8
#     8   8   8   8   8   8   8   8
#     4  11  22  45  71  91 124 179 231 268 309 388
#     4  10  22  42  66  91 124 167 219 273 321 381
#     4  10  21  40  65  93 120 166 221 267 317 384
#     4  12  27  41  62  97 137 170 209 266 331 392
#     4  12  27  41  62  97 137 170 209 266 331 392
#     4  10  22  42  66  91 124 167 219 273 321 381
#     4   9  18  37  67  92 115 154 219 277 312 362
#     4  10  21  40  65  93 120 166 221 267 317 384
#
# _framework density 21.063995999999999
#
# number of rings (size 3 to 8) (size 9 to 14) (size 15 to 20)
#    0.000    1.500    2.500    2.250    5.250    1.000 
#    0.000    2.500    0.000    0.000    0.000    0.000 
#    0.000    0.000    0.000    0.000    0.000    0.000 
#
# Total GULP energy -396804.794335 kJ/mol
# GULP energy per Si atom -12400.149823 kJ/mol
# Density = 2.101605 g / cm^3
# Si number density = 21.063996 Si / 1000 Ang^3
#
#
#
# Elastic Constant Matrix: (Units=GPa)
#
#
# Indices 1 2 3 4 5 6 
#
# 1 42.7098 -2.8865 16.6878 0.0000 0.0000 0.0000
# 2 -2.8865 97.1974 24.9770 0.0000 0.0000 0.0000
# 3 16.6878 24.9770 142.3911 0.0000 0.0000 0.0000
# 4 0.0000 0.0000 0.0000 32.2467 0.0000 0.0000
# 5 0.0000 0.0000 0.0000 0.0000 21.2009 0.0000
# 6 0.0000 0.0000 0.0000 0.0000 0.0000 8.3066
#
#
#
# Elastic Compliance Matrix: (Units=1/GPa)
#
#
# Indices 1 2 3 4 5 6 
#
# 1 0.024759 0.001551 -0.003174 0.000000 0.000000 0.000000
# 2 0.001551 0.010871 -0.002089 0.000000 0.000000 0.000000
# 3 -0.003174 -0.002089 0.007761 0.000000 0.000000 0.000000
# 4 0.000000 0.000000 0.000000 0.031011 0.000000 0.000000
# 5 0.000000 0.000000 0.000000 0.000000 0.047168 0.000000
# 6 0.000000 0.000000 0.000000 0.000000 0.000000 0.120387
#
#
# Mechanical properties :
#
#
# Convention : Reuss Voigt Hill
#
# Bulk Modulus (GPa) = 27.80252 39.98387 33.89320
# Shear Modulus (GPa) = 19.13004 28.58550 23.85777
#
# Velocity S-wave (km/s) = 3.01688 3.68785 3.36911
# Velocity P-wave (km/s) = 5.03619 6.09565 5.59107
#
# Compressibility (1/GPa) = 0.03596796
#
# Stress axis : x y z
#
# Youngs Moduli (GPa) = 40.38991 91.98677 128.84556
#
# Poissons Ratio (x) = -0.14265 0.40891
# Poissons Ratio (y) = -0.06264 0.26912
# Poissons Ratio (z) = 0.12818 0.19213
#
# Static dielectric constant tensor:
#      x y z
#    x 3.505410 0.000000 0.000000 
#    y 0.000000 3.732630 0.000000 
#    z 0.000000 0.000000 4.158850 
# 
# 
# High freq. dielectric constant tensor:
#      x y z
#    x 1.788630 0.000000 0.000000 
#    y 0.000000 1.831040 0.000000 
#    z 0.000000 0.000000 1.846130 
# 
# From -- ./inp_files/13109.got.cif
#   From: 2010.03.12/outbox.cif.g09.slc.cpg/sg40_7_cif.got.tgz:13109.got - 2010.04.14 01:38:03.
