data_PCOD8184336
_publ_section_title
;
Structure prediction by ZEFSAII (Michael W. Deem and Ramdas Pophale) SiO2 
 PCOD8184336
Probable space group: A M A 2
;
_chemical_formula_sum "Si O2"
_cell_formula_units_Z 48
_cell_length_a 20.235798
_cell_length_b 11.540441
_cell_length_c 10.044544
_cell_angle_alpha 90.000000
_cell_angle_beta 90.000000
_cell_angle_gamma 90.000000
_cell_volume 2345.702691
_symmetry_space_group_name_H-M "A M A 2"
_symmetry_group_IT_number 40
_symmetry_cell_setting 'orthorhombic'
loop_
_space_group_symop_operation_xyz
x,y,z
-x,-y,z
1/2-x,y,z
1/2+x,-y,z
x,1/2+y,1/2+z
-x,1/2-y,1/2+z
1/2-x,1/2+y,1/2+z
1/2+x,1/2-y,1/2+z
loop_
_atom_site_type_symbol
_atom_site_label
_atom_site_fract_x
_atom_site_fract_y
_atom_site_fract_z
Si Si1 0.552809 0.280522 0.649300
Si Si2 0.176045 0.107920 0.770696
Si Si3 0.071619 0.005593 0.326040
Si Si4 0.323644 0.154819 0.472078
Si Si5 0.675572 0.663017 0.257059
Si Si6 0.941688 0.250620 0.351749
O O1 0.562565 0.416302 0.691596
O O2 0.623909 0.217895 0.654482
O O3 0.526548 0.259740 0.499647
O O4 0.500680 0.218436 0.749345
O O5 0.250000 0.132041 0.827188
O O6 0.167458 0.169930 0.628555
O O7 0.118754 0.159667 0.861558
O O8 0.162829 0.972185 0.765329
O O9 0.090158 0.871625 0.302629
O O10 0.125628 0.059085 0.422000
O O11 0.000000 0.000000 0.399473
O O12 0.250000 0.108171 0.439754
O O13 0.335731 0.278789 0.402227
O O14 0.750000 0.688165 0.205203
#
# Coordination Sequence:
#
# PCOD8184336 Si02
#       6
#     8   8   8   8   8   8
#     4  10  23  41  60  91 117 163 204 251 305 361
#     4  10  22  37  57  90 123 153 200 253 301 362
#     4   9  20  38  59  81 122 152 199 252 294 355
#     4   9  18  35  61  86 115 159 201 247 304 361
#     4   9  19  38  61  87 120 157 204 250 299 367
#     4  11  24  39  60  88 125 160 199 254 310 360
#
# _framework density 20.462951
#
# number of rings (size 3 to 8) (size 9 to 14) (size 15 to 20)
#    0.000    2.333    0.000    1.000    7.000    3.333 
#    6.000    0.000    0.000    0.000    0.000    0.000 
#    0.000    0.000    0.000    0.000    0.000    0.000 
#
# Total GULP energy -297435.108791 kJ/mol
# GULP energy per Si atom -12393.129533 kJ/mol
# Density = 2.041638 g / cm^3
# Si number density = 20.462951 Si / 1000 Ang^3
#
#
#
# Elastic Constant Matrix: (Units=GPa)
#
#
# Indices 1 2 3 4 5 6 
#
# 1 120.2250 39.5412 47.2497 0.0000 0.0000 0.0000
# 2 39.5412 66.3743 30.1965 0.0000 0.0000 0.0000
# 3 47.2497 30.1965 104.4863 0.0000 0.0000 0.0000
# 4 0.0000 0.0000 0.0000 20.3234 0.0000 0.0000
# 5 0.0000 0.0000 0.0000 0.0000 28.5601 0.0000
# 6 0.0000 0.0000 0.0000 0.0000 0.0000 37.2162
#
#
#
# Elastic Compliance Matrix: (Units=1/GPa)
#
#
# Indices 1 2 3 4 5 6 
#
# 1 0.011463 -0.005148 -0.003696 0.000000 0.000000 0.000000
# 2 -0.005148 0.019658 -0.003353 0.000000 0.000000 0.000000
# 3 -0.003696 -0.003353 0.012211 0.000000 0.000000 0.000000
# 4 0.000000 0.000000 0.000000 0.049204 0.000000 0.000000
# 5 0.000000 0.000000 0.000000 0.000000 0.035014 0.000000
# 6 0.000000 0.000000 0.000000 0.000000 0.000000 0.026870
#
#
# Mechanical properties :
#
#
# Convention : Reuss Voigt Hill
#
# Bulk Modulus (GPa) = 52.80261 58.34003 55.57132
# Shear Modulus (GPa) = 27.00830 28.82649 27.91740
#
# Velocity S-wave (km/s) = 3.63693 3.75736 3.69764
# Velocity P-wave (km/s) = 6.59518 6.88445 6.74137
#
# Compressibility (1/GPa) = 0.01893846
#
# Stress axis : x y z
#
# Youngs Moduli (GPa) = 87.23438 50.86930 81.89170
#
# Poissons Ratio (x) = 0.26185 0.30269
# Poissons Ratio (y) = 0.44904 0.27462
# Poissons Ratio (z) = 0.32244 0.17059
#
# Static dielectric constant tensor:
#      x y z
#    x 3.975020 0.000000 0.000000 
#    y 0.000000 3.779530 0.000000 
#    z 0.000000 0.000000 3.506430 
# 
# 
# High freq. dielectric constant tensor:
#      x y z
#    x 1.817900 0.000000 0.000000 
#    y 0.000000 1.795710 0.000000 
#    z 0.000000 0.000000 1.774920 
# 
# From -- ./inp_files/8759.got.cif
#   From: 2010.03.12/outbox.cif.g09.slc.cpg/sg40_5_cif.got.tgz:8759.got - 2010.04.14 01:38:03.
