data_PCOD8184821
_publ_section_title
;
Structure prediction by ZEFSAII (Michael W. Deem and Ramdas Pophale) SiO2 
 PCOD8184821
Probable space group: A B A 2
;
_chemical_formula_sum "Si O2"
_cell_formula_units_Z 48
_cell_length_a 18.240394
_cell_length_b 16.055280
_cell_length_c 8.894188
_cell_angle_alpha 90.000000
_cell_angle_beta 90.000000
_cell_angle_gamma 90.000000
_cell_volume 2604.704162
_symmetry_space_group_name_H-M "A B A 2"
_symmetry_group_IT_number 41
_symmetry_cell_setting 'orthorhombic'
loop_
_space_group_symop_operation_xyz
x,y,z
-x,-y,z
1/2-x,y,1/2+z
1/2+x,-y,1/2+z
x,1/2+y,1/2+z
-x,1/2-y,1/2+z
1/2-x,1/2+y,z
1/2+x,1/2-y,z
loop_
_atom_site_type_symbol
_atom_site_label
_atom_site_fract_x
_atom_site_fract_y
_atom_site_fract_z
Si Si1 0.327238 0.091428 0.762160
Si Si2 0.081515 0.749427 0.721411
Si Si3 0.428023 0.770519 0.573702
Si Si4 0.793541 0.674371 0.032958
Si Si5 0.705723 0.336421 0.565532
Si Si6 0.165609 0.902116 0.215671
O O1 0.389907 0.154769 0.706713
O O2 0.248459 0.114366 0.693171
O O3 0.352194 0.999596 0.718324
O O4 0.316566 0.096856 0.940279
O O5 0.138953 0.812376 0.646220
O O6 0.006199 0.758472 0.632565
O O7 0.071478 0.775777 0.893686
O O8 0.368204 0.703762 0.633917
O O9 0.406068 0.859918 0.642177
O O10 0.754053 0.761762 0.992625
O O11 0.736993 0.612747 0.114088
O O12 0.822060 0.633213 0.881562
#
# Coordination Sequence:
#
# PCOD8184821 Si02
#       6
#     8   8   8   8   8   8
#     4  10  20  33  54  80 106 133 167 217 264 305
#     4  10  21  37  56  76 103 141 180 213 256 312
#     4  10  20  35  55  78 103 139 180 216 254 310
#     4  10  19  34  55  79 105 139 175 211 254 311
#     4   9  18  34  53  76 103 135 174 207 252 311
#     4  11  20  33  55  81 108 133 168 218 264 305
#
# _framework density 18.428197000000001
#
# number of rings (size 3 to 8) (size 9 to 14) (size 15 to 20)
#    0.000    2.000    0.000    7.000    0.000    2.000 
#    0.000    0.000    0.000    9.000    0.000    0.000 
#    0.000    0.000    0.000    0.000    0.000    0.000 
#
# Total GULP energy -297652.925029 kJ/mol
# GULP energy per Si atom -12402.205210 kJ/mol
# Density = 1.838625 g / cm^3
# Si number density = 18.428197 Si / 1000 Ang^3
#
#
#
# Elastic Constant Matrix: (Units=GPa)
#
#
# Indices 1 2 3 4 5 6 
#
# 1 80.1989 1.3157 16.1610 0.0000 0.0000 0.0000
# 2 1.3157 84.0660 20.3465 0.0000 0.0000 0.0000
# 3 16.1610 20.3465 80.4018 0.0000 0.0000 0.0000
# 4 0.0000 0.0000 0.0000 26.2818 0.0000 0.0000
# 5 0.0000 0.0000 0.0000 0.0000 33.0485 0.0000
# 6 0.0000 0.0000 0.0000 0.0000 0.0000 15.1934
#
#
#
# Elastic Compliance Matrix: (Units=1/GPa)
#
#
# Indices 1 2 3 4 5 6 
#
# 1 0.013012 0.000457 -0.002731 0.000000 0.000000 0.000000
# 2 0.000457 0.012688 -0.003303 0.000000 0.000000 0.000000
# 3 -0.002731 -0.003303 0.013822 0.000000 0.000000 0.000000
# 4 0.000000 0.000000 0.000000 0.038049 0.000000 0.000000
# 5 0.000000 0.000000 0.000000 0.000000 0.030259 0.000000
# 6 0.000000 0.000000 0.000000 0.000000 0.000000 0.065818
#
#
# Mechanical properties :
#
#
# Convention : Reuss Voigt Hill
#
# Bulk Modulus (GPa) = 35.24993 35.59033 35.42013
# Shear Modulus (GPa) = 25.73912 28.69430 27.21671
#
# Velocity S-wave (km/s) = 3.74133 3.95027 3.84722
# Velocity P-wave (km/s) = 6.15087 6.33728 6.24477
#
# Compressibility (1/GPa) = 0.02836885
#
# Stress axis : x y z
#
# Youngs Moduli (GPa) = 76.85296 78.81705 72.34695
#
# Poissons Ratio (x) = -0.03605 0.19759
# Poissons Ratio (y) = -0.03515 0.23894
# Poissons Ratio (z) = 0.20990 0.26031
#
# Static dielectric constant tensor:
#      x y z
#    x 3.425530 0.000000 0.000000 
#    y 0.000000 3.284240 0.000000 
#    z 0.000000 0.000000 3.448870 
# 
# 
# High freq. dielectric constant tensor:
#      x y z
#    x 1.712580 0.000000 0.000000 
#    y 0.000000 1.699530 0.000000 
#    z 0.000000 0.000000 1.724320 
# 
# From -- ./inp_files/3023.got.cif
#   From: 2010.03.12/outbox.cif.g09.slc.cpg/sg41_2_cif.got.tgz:3023.got - 2010.04.14 01:55:53.
