data_PCOD8184433
_publ_section_title
;
Structure prediction by ZEFSAII (Michael W. Deem and Ramdas Pophale) SiO2 
 PCOD8184433
Probable space group: A M A 2
;
_chemical_formula_sum "Si O2"
_cell_formula_units_Z 48
_cell_length_a 18.247334
_cell_length_b 13.725342
_cell_length_c 9.077921
_cell_angle_alpha 90.000000
_cell_angle_beta 90.000000
_cell_angle_gamma 90.000000
_cell_volume 2273.573482
_symmetry_space_group_name_H-M "A M A 2"
_symmetry_group_IT_number 40
_symmetry_cell_setting 'orthorhombic'
loop_
_space_group_symop_operation_xyz
x,y,z
-x,-y,z
1/2-x,y,z
1/2+x,-y,z
x,1/2+y,1/2+z
-x,1/2-y,1/2+z
1/2-x,1/2+y,1/2+z
1/2+x,1/2-y,1/2+z
loop_
_atom_site_type_symbol
_atom_site_label
_atom_site_fract_x
_atom_site_fract_y
_atom_site_fract_z
Si Si1 0.472838 0.399782 0.926100
Si Si2 0.750000 0.590471 0.572732
Si Si3 0.250000 0.999495 0.754538
Si Si4 0.119730 0.681216 0.851897
Si Si5 0.000000 0.500000 0.392850
Si Si6 0.391496 0.380997 0.203670
Si Si7 0.250000 0.678606 0.062423
Si Si8 0.896329 0.000219 0.158699
O O1 0.500000 0.500000 0.003906
O O2 0.537398 0.320129 0.916819
O O3 0.447310 0.431039 0.761671
O O4 0.412101 0.354226 0.034619
O O5 0.750000 0.527075 0.424596
O O6 0.750000 0.706247 0.576035
O O7 0.823376 0.562744 0.654622
O O8 0.325107 0.956663 0.687877
O O9 0.250000 0.115650 0.714861
O O10 0.139443 0.787231 0.789255
O O11 0.124695 0.603343 0.723172
O O12 0.177058 0.648642 0.975164
O O13 0.965264 0.583515 0.288941
O O14 0.932326 0.473491 0.501088
#
# Coordination Sequence:
#
# PCOD8184433 Si02
#       8
#     8   4   4   8   4   8   4   8
#     4  10  22  42  65  98 133 178 228 281 348 413
#     4  12  25  48  68 100 137 183 232 293 344 429
#     4  12  24  45  68  97 140 181 234 294 346 412
#     4  11  23  42  69  97 138 182 227 284 349 415
#     4  12  22  40  66  96 140 178 214 294 338 396
#     4  12  25  42  70 101 140 180 239 284 344 425
#     4  12  25  45  70  97 137 190 228 287 358 415
#     4  11  23  44  68  97 139 177 225 291 351 406
#
# _framework density 21.112138999999999
#
# number of rings (size 3 to 8) (size 9 to 14) (size 15 to 20)
#    0.000    0.667    6.667    2.500    2.333    2.000 
#    3.000    0.000    0.000    0.000    0.000    0.000 
#    0.000    0.000    0.000    0.000    0.000    0.000 
#
# Total GULP energy -297390.629576 kJ/mol
# GULP energy per Si atom -12391.276232 kJ/mol
# Density = 2.106409 g / cm^3
# Si number density = 21.112139 Si / 1000 Ang^3
#
#
#
# Elastic Constant Matrix: (Units=GPa)
#
#
# Indices 1 2 3 4 5 6 
#
# 1 128.8314 30.1462 34.0336 0.0000 0.0000 0.0000
# 2 30.1462 98.6192 31.5812 0.0000 0.0000 0.0000
# 3 34.0336 31.5812 89.1139 0.0000 0.0000 0.0000
# 4 0.0000 0.0000 0.0000 30.4237 0.0000 0.0000
# 5 0.0000 0.0000 0.0000 0.0000 24.4759 0.0000
# 6 0.0000 0.0000 0.0000 0.0000 0.0000 33.8883
#
#
#
# Elastic Compliance Matrix: (Units=1/GPa)
#
#
# Indices 1 2 3 4 5 6 
#
# 1 0.008921 -0.001845 -0.002753 0.000000 0.000000 0.000000
# 2 -0.001845 0.011820 -0.003484 0.000000 0.000000 0.000000
# 3 -0.002753 -0.003484 0.013508 0.000000 0.000000 0.000000
# 4 0.000000 0.000000 0.000000 0.032869 0.000000 0.000000
# 5 0.000000 0.000000 0.000000 0.000000 0.040857 0.000000
# 6 0.000000 0.000000 0.000000 0.000000 0.000000 0.029509
#
#
# Mechanical properties :
#
#
# Convention : Reuss Voigt Hill
#
# Bulk Modulus (GPa) = 55.29866 56.45405 55.87636
# Shear Modulus (GPa) = 31.31337 32.47781 31.89559
#
# Velocity S-wave (km/s) = 3.85540 3.92643 3.89108
# Velocity P-wave (km/s) = 6.78738 6.88142 6.83456
#
# Compressibility (1/GPa) = 0.01808362
#
# Stress axis : x y z
#
# Youngs Moduli (GPa) = 112.09261 84.60357 74.03159
#
# Poissons Ratio (x) = 0.15613 0.20382
# Poissons Ratio (y) = 0.20686 0.25793
# Poissons Ratio (z) = 0.30860 0.29476
#
# Static dielectric constant tensor:
#      x y z
#    x 4.279930 0.000000 0.000000 
#    y 0.000000 3.642800 0.000000 
#    z 0.000000 0.000000 3.802040 
# 
# 
# High freq. dielectric constant tensor:
#      x y z
#    x 1.846940 0.000000 0.000000 
#    y 0.000000 1.811690 0.000000 
#    z 0.000000 0.000000 1.828130 
# 
# From -- ./inp_files/7505.got.cif
#   From: 2010.03.12/outbox.cif.g09.slc.cpg/sg40_4_cif.got.tgz:7505.got - 2010.04.14 01:38:03.
