data_PCOD8184376
_publ_section_title
;
Structure prediction by ZEFSAII (Michael W. Deem and Ramdas Pophale) SiO2 
 PCOD8184376
Probable space group: A M A 2
;
_chemical_formula_sum "Si O2"
_cell_formula_units_Z 64
_cell_length_a 8.286043
_cell_length_b 30.955917
_cell_length_c 12.028911
_cell_angle_alpha 90.000000
_cell_angle_beta 90.000000
_cell_angle_gamma 90.000000
_cell_volume 3085.440443
_symmetry_space_group_name_H-M "A M A 2"
_symmetry_group_IT_number 40
_symmetry_cell_setting 'orthorhombic'
loop_
_space_group_symop_operation_xyz
x,y,z
-x,-y,z
1/2-x,y,z
1/2+x,-y,z
x,1/2+y,1/2+z
-x,1/2-y,1/2+z
1/2-x,1/2+y,1/2+z
1/2+x,1/2-y,1/2+z
loop_
_atom_site_type_symbol
_atom_site_label
_atom_site_fract_x
_atom_site_fract_y
_atom_site_fract_z
Si Si1 0.561691 0.376159 0.172600
Si Si2 0.942270 0.374159 0.420957
Si Si3 0.563918 0.200683 0.530847
Si Si4 0.563719 0.576519 0.795007
Si Si5 0.558207 0.296506 0.570102
Si Si6 0.559018 0.454821 0.567343
Si Si7 0.564254 0.330531 0.805260
Si Si8 0.058239 0.045371 0.523299
O O1 0.750000 0.383755 0.184293
O O2 0.485088 0.375602 0.296188
O O3 0.531566 0.330785 0.112671
O O4 0.490022 0.415814 0.100632
O O5 0.750000 0.372282 0.418196
O O6 0.011573 0.331462 0.482586
O O7 0.000875 0.416525 0.486830
O O8 0.750000 0.199347 0.565704
O O9 0.492058 0.248935 0.541952
O O10 0.546474 0.186313 0.404180
O O11 0.750000 0.590472 0.797458
O O12 0.527021 0.548610 0.686339
O O13 0.449794 0.618251 0.793334
O O14 0.522693 0.548339 0.902659
O O15 0.750000 0.297950 0.564580
O O16 0.499391 0.308333 0.693455
O O17 0.500000 0.500000 0.513806
O O18 0.750000 0.453494 0.582687
O O19 0.750000 0.318912 0.829910
O O20 0.250000 0.047555 0.512689
O O21 0.000000 0.000000 0.576348
#
# Coordination Sequence:
#
# PCOD8184376 Si02
#       8
#     8   8   8   8   8   8   8   8
#     4  10  22  40  63  86 116 160 206 244 296 362
#     4   9  19  39  63  85 114 159 204 246 296 355
#     4  11  23  38  60  92 125 157 198 250 299 350
#     4  12  23  38  61  91 124 155 198 250 303 358
#     4   9  20  38  61  88 120 157 199 244 295 351
#     4  11  22  39  63  89 122 158 199 248 302 361
#     4  11  21  39  64  89 121 162 201 245 302 358
#     4  11  23  39  60  88 120 157 201 247 299 359
#
# _framework density 20.74258
#
# number of rings (size 3 to 8) (size 9 to 14) (size 15 to 20)
#    0.000    1.500    2.500    3.000    1.750    1.000 
#    0.000    3.125    0.000    0.000    0.000    0.000 
#    0.000    0.000    0.000    0.000    0.000    0.000 
#
# Total GULP energy -396918.057629 kJ/mol
# GULP energy per Si atom -12403.689301 kJ/mol
# Density = 2.069537 g / cm^3
# Si number density = 20.742580 Si / 1000 Ang^3
#
#
#
# Elastic Constant Matrix: (Units=GPa)
#
#
# Indices 1 2 3 4 5 6 
#
# 1 39.7106 6.8861 14.6141 0.0000 0.0000 0.0000
# 2 6.8861 175.5432 72.3140 0.0000 0.0000 0.0000
# 3 14.6141 72.3140 157.7751 0.0000 0.0000 0.0000
# 4 0.0000 0.0000 0.0000 -119.6989 0.0000 0.0000
# 5 0.0000 0.0000 0.0000 0.0000 3.6200 0.0000
# 6 0.0000 0.0000 0.0000 0.0000 0.0000 23.7455
#
#
#
# Elastic Compliance Matrix: (Units=1/GPa)
#
#
# Indices 1 2 3 4 5 6 
#
# 1 0.026071 -0.000034 -0.002399 0.000000 0.000000 0.000000
# 2 -0.000034 0.007023 -0.003216 0.000000 0.000000 0.000000
# 3 -0.002399 -0.003216 0.008034 0.000000 0.000000 0.000000
# 4 0.000000 0.000000 0.000000 -0.008354 0.000000 0.000000
# 5 0.000000 0.000000 0.000000 0.000000 0.276241 0.000000
# 6 0.000000 0.000000 0.000000 0.000000 0.000000 0.042113
#
#
# Mechanical properties :
#
#
# Convention : Reuss Voigt Hill
#
# Bulk Modulus (GPa) = 33.52360 62.29524 47.90942
# Shear Modulus (GPa) = 13.42754 0.14764 6.78759
#
# Velocity S-wave (km/s) = 2.54705 0.26708 1.81091
# Velocity P-wave (km/s) = 4.98465 5.49480 5.24593
#
# Compressibility (1/GPa) = 0.02982974
#
# Stress axis : x y z
#
# Youngs Moduli (GPa) = 38.35674 142.39813 124.46887
#
# Poissons Ratio (x) = 0.00490 0.29861
# Poissons Ratio (y) = 0.00132 0.40023
# Poissons Ratio (z) = 0.09202 0.45788
#
# Static dielectric constant tensor:
#      x y z
#    x 3.379420 0.000000 0.000000 
#    y 0.000000 4.257830 0.000000 
#    z 0.000000 0.000000 3.939700 
# 
# 
# High freq. dielectric constant tensor:
#      x y z
#    x 1.786700 0.000000 0.000000 
#    y 0.000000 1.825540 0.000000 
#    z 0.000000 0.000000 1.814600 
# 
# From -- ./inp_files/10625.got.cif
#   From: 2010.03.12/outbox.cif.g09.slc.cpg/sg40_6_cif.got.tgz:10625.got - 2010.04.14 01:38:03.
