data_PCOD8184203
_publ_section_title
;
Structure prediction by ZEFSAII (Michael W. Deem and Ramdas Pophale) SiO2 
 PCOD8184203
Probable space group: A M A 2
;
_chemical_formula_sum "Si O2"
_cell_formula_units_Z 56
_cell_length_a 17.200233
_cell_length_b 4.984927
_cell_length_c 30.839642
_cell_angle_alpha 90.000000
_cell_angle_beta 90.000000
_cell_angle_gamma 90.000000
_cell_volume 2644.249682
_symmetry_space_group_name_H-M "A M A 2"
_symmetry_group_IT_number 40
_symmetry_cell_setting 'orthorhombic'
loop_
_space_group_symop_operation_xyz
x,y,z
-x,-y,z
1/2-x,y,z
1/2+x,-y,z
x,1/2+y,1/2+z
-x,1/2-y,1/2+z
1/2-x,1/2+y,1/2+z
1/2+x,1/2-y,1/2+z
loop_
_atom_site_type_symbol
_atom_site_label
_atom_site_fract_x
_atom_site_fract_y
_atom_site_fract_z
Si Si1 0.661310 0.302436 0.464960
Si Si2 0.161482 0.097682 0.235074
Si Si3 0.447167 0.742323 0.099941
Si Si4 0.413383 0.094884 0.694637
Si Si5 0.162076 0.185346 0.521513
Si Si6 0.088735 0.086388 0.875616
Si Si7 0.660926 0.917488 0.334059
O O1 0.750000 0.226162 0.452166
O O2 0.656444 0.597462 0.483970
O O3 0.607003 0.294787 0.422967
O O4 0.629653 0.090364 0.500629
O O5 0.250000 0.005432 0.227169
O O6 0.145336 0.355369 0.205433
O O7 0.147283 0.178906 0.284904
O O8 0.104903 0.854530 0.223128
O O9 0.500000 0.500000 0.083773
O O10 0.403075 0.666650 0.144163
O O11 0.384889 0.792799 0.062642
O O12 0.500000 0.000000 0.108505
O O13 0.500000 0.000000 0.705747
O O14 0.250000 0.142774 0.537628
O O15 0.106402 0.325358 0.842090
O O16 0.141652 0.828545 0.865816
O O17 0.000000 0.000000 0.871528
O O18 0.750000 0.003168 0.342228
#
# Coordination Sequence:
#
# PCOD8184203 Si02
#       7
#     8   8   8   8   8   8   8
#     4  10  21  39  61  87 122 161 199 244 306 368
#     4  11  24  41  64  93 122 160 211 260 308 369
#     4  11  23  41  62  89 124 161 200 244 304 368
#     4  11  23  41  63  90 126 166 203 250 315 378
#     4  10  22  39  62  90 118 156 204 249 297 358
#     4  12  25  40  63  95 125 159 210 263 310 369
#     4  11  24  43  64  88 124 167 206 252 317 380
#
# _framework density 21.178032000000002
#
# number of rings (size 3 to 8) (size 9 to 14) (size 15 to 20)
#    0.000    1.143    0.000    6.857    0.000    9.714 
#    0.000    1.429    0.000    0.000    0.000    0.000 
#    0.000    0.000    0.000    0.000    0.000    0.000 
#
# Total GULP energy -347381.631899 kJ/mol
# GULP energy per Si atom -12406.486854 kJ/mol
# Density = 2.112983 g / cm^3
# Si number density = 21.178032 Si / 1000 Ang^3
#
#
#
# Elastic Constant Matrix: (Units=GPa)
#
#
# Indices 1 2 3 4 5 6 
#
# 1 84.5495 30.6205 65.6861 0.0000 0.0000 0.0000
# 2 30.6205 125.2315 37.3763 0.0000 0.0000 0.0000
# 3 65.6861 37.3763 114.5680 0.0000 0.0000 0.0000
# 4 0.0000 0.0000 0.0000 39.3929 0.0000 0.0000
# 5 0.0000 0.0000 0.0000 0.0000 45.9581 0.0000
# 6 0.0000 0.0000 0.0000 0.0000 0.0000 40.1627
#
#
#
# Elastic Compliance Matrix: (Units=1/GPa)
#
#
# Indices 1 2 3 4 5 6 
#
# 1 0.021672 -0.001762 -0.011851 0.000000 0.000000 0.000000
# 2 -0.001762 0.008990 -0.001922 0.000000 0.000000 0.000000
# 3 -0.011851 -0.001922 0.016150 0.000000 0.000000 0.000000
# 4 0.000000 0.000000 0.000000 0.025385 0.000000 0.000000
# 5 0.000000 0.000000 0.000000 0.000000 0.021759 0.000000
# 6 0.000000 0.000000 0.000000 0.000000 0.000000 0.024899
#
#
# Mechanical properties :
#
#
# Convention : Reuss Voigt Hill
#
# Bulk Modulus (GPa) = 63.52617 65.74608 64.63613
# Shear Modulus (GPa) = 32.22211 37.81381 35.01796
#
# Velocity S-wave (km/s) = 3.90486 4.23013 4.07074
# Velocity P-wave (km/s) = 7.09873 7.41421 7.25818
#
# Compressibility (1/GPa) = 0.01574154
#
# Stress axis : x y z
#
# Youngs Moduli (GPa) = 46.14193 111.23631 61.91940
#
# Poissons Ratio (x) = 0.19602 0.73378
# Poissons Ratio (y) = 0.08131 0.11904
# Poissons Ratio (z) = 0.54681 0.21385
#
# Static dielectric constant tensor:
#      x y z
#    x 3.603900 0.000000 0.000000 
#    y 0.000000 3.958400 0.000000 
#    z 0.000000 0.000000 3.736240 
# 
# 
# High freq. dielectric constant tensor:
#      x y z
#    x 1.825040 0.000000 0.000000 
#    y 0.000000 1.847220 0.000000 
#    z 0.000000 0.000000 1.834500 
# 
# From -- ./inp_files/26606.got.cif
#   From: 2010.03.12/outbox.cif.g09.slc.cpg/sg40_14_cif.got.tgz:26606.got - 2010.04.14 01:38:03.
