data_PCOD8184651
_publ_section_title
;
Structure prediction by ZEFSAII (Michael W. Deem and Ramdas Pophale) SiO2 
 PCOD8184651
Probable space group: A M A 2
;
_chemical_formula_sum "Si O2"
_cell_formula_units_Z 40
_cell_length_a 16.993967
_cell_length_b 18.637029
_cell_length_c 4.740162
_cell_angle_alpha 90.000000
_cell_angle_beta 90.000000
_cell_angle_gamma 90.000000
_cell_volume 1501.290153
_symmetry_space_group_name_H-M "A M A 2"
_symmetry_group_IT_number 40
_symmetry_cell_setting 'orthorhombic'
loop_
_space_group_symop_operation_xyz
x,y,z
-x,-y,z
1/2-x,y,z
1/2+x,-y,z
x,1/2+y,1/2+z
-x,1/2-y,1/2+z
1/2-x,1/2+y,1/2+z
1/2+x,1/2-y,1/2+z
loop_
_atom_site_type_symbol
_atom_site_label
_atom_site_fract_x
_atom_site_fract_y
_atom_site_fract_z
Si Si1 0.902828 0.041308 0.731880
Si Si2 0.045587 0.635692 0.382526
Si Si3 0.162264 0.314993 0.993715
Si Si4 0.582955 0.244272 0.992101
Si Si5 0.343354 0.041981 0.229563
O O1 0.859958 0.104215 0.565301
O O2 0.890081 0.972035 0.525167
O O3 0.993624 0.064697 0.800074
O O4 0.857659 0.026126 0.024189
O O5 0.074616 0.673623 0.093040
O O6 0.118147 0.611443 0.578311
O O7 0.994727 0.695537 0.553034
O O8 0.250000 0.299992 0.084982
O O9 0.106889 0.259210 0.164595
O O10 0.150872 0.297225 0.665886
O O11 0.250000 0.054252 0.282203
#
# Coordination Sequence:
#
# PCOD8184651 Si02
#       5
#     8   8   8   8   8
#     4  11  25  44  69 101 139 187 239 284 347 426
#     4  11  26  47  72 104 144 189 238 294 349 421
#     4  11  23  42  69 100 140 185 234 295 348 406
#     4  11  25  43  68 102 137 184 241 283 343 422
#     4  12  27  46  71 105 143 181 230 294 359 419
#
# _framework density 26.643749
#
# number of rings (size 3 to 8) (size 9 to 14) (size 15 to 20)
#    0.000    0.800    0.000    7.800    0.000   14.400 
#    0.000    0.000    0.000    0.000    0.000    0.000 
#    0.000    0.000    0.000    0.000    0.000    0.000 
#
# Total GULP energy -248031.820239 kJ/mol
# GULP energy per Si atom -12401.591012 kJ/mol
# Density = 2.658311 g / cm^3
# Si number density = 26.643749 Si / 1000 Ang^3
#
#
#
# Elastic Constant Matrix: (Units=GPa)
#
#
# Indices 1 2 3 4 5 6 
#
# 1 139.3742 3.6469 21.9159 0.0000 0.0000 0.0000
# 2 3.6469 82.8361 -15.6940 0.0000 0.0000 0.0000
# 3 21.9159 -15.6940 78.2173 0.0000 0.0000 0.0000
# 4 0.0000 0.0000 0.0000 52.0478 0.0000 0.0000
# 5 0.0000 0.0000 0.0000 0.0000 30.8910 0.0000
# 6 0.0000 0.0000 0.0000 0.0000 0.0000 31.7645
#
#
#
# Elastic Compliance Matrix: (Units=1/GPa)
#
#
# Indices 1 2 3 4 5 6 
#
# 1 0.007552 -0.000762 -0.002269 0.000000 0.000000 0.000000
# 2 -0.000762 0.012626 0.002747 0.000000 0.000000 0.000000
# 3 -0.002269 0.002747 0.013972 0.000000 0.000000 0.000000
# 4 0.000000 0.000000 0.000000 0.019213 0.000000 0.000000
# 5 0.000000 0.000000 0.000000 0.000000 0.032372 0.000000
# 6 0.000000 0.000000 0.000000 0.000000 0.000000 0.031482
#
#
# Mechanical properties :
#
#
# Convention : Reuss Voigt Hill
#
# Bulk Modulus (GPa) = 29.77876 35.57390 32.67633
# Shear Modulus (GPa) = 38.76624 42.31126 40.53875
#
# Velocity S-wave (km/s) = 3.81856 3.98934 3.90489
# Velocity P-wave (km/s) = 5.53559 5.88222 5.71154
#
# Compressibility (1/GPa) = 0.03358099
#
# Stress axis : x y z
#
# Youngs Moduli (GPa) = 132.42149 79.20149 71.57288
#
# Poissons Ratio (x) = 0.06038 0.16239
# Poissons Ratio (y) = 0.10095 -0.19661
# Poissons Ratio (z) = 0.30045 -0.21756
#
# Static dielectric constant tensor:
#      x y z
#    x 4.618400 0.000000 0.000000 
#    y 0.000000 4.857520 0.000000 
#    z 0.000000 0.000000 4.813720 
# 
# 
# High freq. dielectric constant tensor:
#      x y z
#    x 2.063910 0.000000 0.000000 
#    y 0.000000 2.090500 0.000000 
#    z 0.000000 0.000000 2.085150 
# 
# From -- ./inp_files/1743.got.cif
#   From: 2010.03.12/outbox.cif.g09.slc.cpg/sg40_1_cif.got.tgz:1743.got - 2010.04.14 01:38:03.
