data_PCOD8184505
_publ_section_title
;
Structure prediction by ZEFSAII (Michael W. Deem and Ramdas Pophale) SiO2 
 PCOD8184505
Probable space group: A M A 2
;
_chemical_formula_sum "Si O2"
_cell_formula_units_Z 64
_cell_length_a 8.616214
_cell_length_b 23.628000
_cell_length_c 15.297002
_cell_angle_alpha 90.000000
_cell_angle_beta 90.000000
_cell_angle_gamma 90.000000
_cell_volume 3114.223393
_symmetry_space_group_name_H-M "A M A 2"
_symmetry_group_IT_number 40
_symmetry_cell_setting 'orthorhombic'
loop_
_space_group_symop_operation_xyz
x,y,z
-x,-y,z
1/2-x,y,z
1/2+x,-y,z
x,1/2+y,1/2+z
-x,1/2-y,1/2+z
1/2-x,1/2+y,1/2+z
1/2+x,1/2-y,1/2+z
loop_
_atom_site_type_symbol
_atom_site_label
_atom_site_fract_x
_atom_site_fract_y
_atom_site_fract_z
Si Si1 0.930809 0.251022 0.777120
Si Si2 0.429615 0.638121 0.335735
Si Si3 0.566132 0.560535 0.677744
Si Si4 0.431497 0.438522 0.186648
Si Si5 0.933152 0.875029 0.338363
Si Si6 0.071457 0.243104 0.590812
Si Si7 0.932764 0.631971 0.020707
Si Si8 0.071693 0.863781 0.015179
O O1 0.750000 0.241248 0.795637
O O2 0.986452 0.312332 0.809655
O O3 0.026266 0.204092 0.829796
O O4 0.961085 0.245232 0.674405
O O5 0.250000 0.629048 0.317006
O O6 0.523165 0.602947 0.264590
O O7 0.470606 0.616173 0.432631
O O8 0.500000 0.500000 0.651300
O O9 0.750000 0.559303 0.691190
O O10 0.484725 0.580216 0.766228
O O11 0.516029 0.602649 0.600481
O O12 0.500000 0.500000 0.201661
O O13 0.250000 0.445371 0.186480
O O14 0.488183 0.412159 0.094798
O O15 0.750000 0.878563 0.352216
O O16 0.020261 0.893126 0.426977
O O17 0.250000 0.238879 0.621947
O O18 0.044705 0.297592 0.531130
O O19 0.026601 0.190075 0.531557
O O20 0.750000 0.643615 0.026669
O O21 0.250000 0.877344 0.994048
#
# Coordination Sequence:
#
# PCOD8184505 Si02
#       8
#     8   8   8   8   8   8   8   8
#     4  11  22  38  62  93 130 168 206 256 315 375
#     4  12  25  40  65  96 128 168 210 257 312 379
#     4  11  24  44  67  92 124 166 213 264 316 373
#     4  11  25  45  67  91 123 164 211 265 316 371
#     4  11  24  41  65  95 129 168 210 261 313 373
#     4  11  21  37  64  95 127 166 208 255 314 377
#     4  11  24  41  64  94 129 168 207 257 315 376
#     4  10  23  42  64  92 129 167 207 261 314 371
#
# _framework density 20.550871000000001
#
# number of rings (size 3 to 8) (size 9 to 14) (size 15 to 20)
#    0.000    1.000    2.500    4.125    0.000    9.000 
#    0.000    2.500    0.000    0.000    0.000    0.000 
#    0.000    0.000    0.000    0.000    0.000    0.000 
#
# Total GULP energy -397045.773470 kJ/mol
# GULP energy per Si atom -12407.680421 kJ/mol
# Density = 2.050410 g / cm^3
# Si number density = 20.550871 Si / 1000 Ang^3
#
#
#
# Elastic Constant Matrix: (Units=GPa)
#
#
# Indices 1 2 3 4 5 6 
#
# 1 44.8979 28.0870 21.2916 0.0000 0.0000 0.0000
# 2 28.0870 79.5951 14.7508 0.0000 0.0000 0.0000
# 3 21.2916 14.7508 118.3482 0.0000 0.0000 0.0000
# 4 0.0000 0.0000 0.0000 -17.9328 0.0000 0.0000
# 5 0.0000 0.0000 0.0000 0.0000 36.7280 0.0000
# 6 0.0000 0.0000 0.0000 0.0000 0.0000 33.0064
#
#
#
# Elastic Compliance Matrix: (Units=1/GPa)
#
#
# Indices 1 2 3 4 5 6 
#
# 1 0.030536 -0.009988 -0.004249 0.000000 0.000000 0.000000
# 2 -0.009988 0.016128 -0.000213 0.000000 0.000000 0.000000
# 3 -0.004249 -0.000213 0.009241 0.000000 0.000000 0.000000
# 4 0.000000 0.000000 0.000000 -0.055764 0.000000 0.000000
# 5 0.000000 0.000000 0.000000 0.000000 0.027227 0.000000
# 6 0.000000 0.000000 0.000000 0.000000 0.000000 0.030297
#
#
# Mechanical properties :
#
#
# Convention : Reuss Voigt Hill
#
# Bulk Modulus (GPa) = 37.03119 41.23333 39.13226
# Shear Modulus (GPa) = 52.32020 22.27445 37.29733
#
# Velocity S-wave (km/s) = 5.05115 3.29579 4.26476
# Velocity P-wave (km/s) = 7.21646 5.88137 6.58285
#
# Compressibility (1/GPa) = 0.02700427
#
# Stress axis : x y z
#
# Youngs Moduli (GPa) = 32.74853 62.00567 108.21821
#
# Poissons Ratio (x) = 0.61930 0.45979
# Poissons Ratio (y) = 0.32709 0.02308
# Poissons Ratio (z) = 0.13914 0.01322
#
# Static dielectric constant tensor:
#      x y z
#    x 3.732790 0.000000 0.000000 
#    y 0.000000 3.812400 0.000000 
#    z 0.000000 0.000000 3.798150 
# 
# 
# High freq. dielectric constant tensor:
#      x y z
#    x 1.809490 0.000000 0.000000 
#    y 0.000000 1.800990 0.000000 
#    z 0.000000 0.000000 1.817610 
# 
# From -- ./inp_files/15620.got.cif
#   From: 2010.03.12/outbox.cif.g09.slc.cpg/sg40_8_cif.got.tgz:15620.got - 2010.04.14 01:38:03.
