data_PCOD8184985
_publ_section_title
;
Structure prediction by ZEFSAII (Michael W. Deem and Ramdas Pophale) SiO2 
 PCOD8184985
Probable space group: A B A 2
;
_chemical_formula_sum "Si O2"
_cell_formula_units_Z 48
_cell_length_a 12.884744
_cell_length_b 13.977700
_cell_length_c 12.923952
_cell_angle_alpha 90.000000
_cell_angle_beta 90.000000
_cell_angle_gamma 90.000000
_cell_volume 2327.591945
_symmetry_space_group_name_H-M "A B A 2"
_symmetry_group_IT_number 41
_symmetry_cell_setting 'orthorhombic'
loop_
_space_group_symop_operation_xyz
x,y,z
-x,-y,z
1/2-x,y,1/2+z
1/2+x,-y,1/2+z
x,1/2+y,1/2+z
-x,1/2-y,1/2+z
1/2-x,1/2+y,z
1/2+x,1/2-y,z
loop_
_atom_site_type_symbol
_atom_site_label
_atom_site_fract_x
_atom_site_fract_y
_atom_site_fract_z
Si Si1 0.913955 0.814098 0.653700
Si Si2 0.228499 0.749141 0.971996
Si Si3 0.259022 0.121644 0.788948
Si Si4 0.090772 0.181104 0.111966
Si Si5 0.500000 0.500000 0.017007
Si Si6 0.839905 0.559784 0.359450
Si Si7 0.000000 0.500000 0.199336
O O1 0.854163 0.757457 0.563950
O O2 0.847578 0.820789 0.760095
O O3 0.022535 0.760313 0.670902
O O4 0.935790 0.926727 0.626524
O O5 0.197239 0.665294 0.893913
O O6 0.216024 0.845796 0.904029
O O7 0.344477 0.732818 0.018817
O O8 0.333318 0.131296 0.692017
O O9 0.246531 0.008738 0.809016
O O10 0.010932 0.098503 0.078786
O O11 0.606559 0.504346 0.953534
O O12 0.928429 0.571304 0.270584
#
# Coordination Sequence:
#
# PCOD8184985 Si02
#       7
#     8   8   8   8   4   8   4
#     4  10  22  39  60  93 124 165 210 263 313 383
#     4  11  22  39  64  90 124 164 210 260 321 383
#     4  10  23  40  60  95 126 161 216 259 314 385
#     4  11  23  39  65  94 124 168 213 263 318 384
#     4  11  20  40  65  86 124 170 213 256 327 376
#     4  10  20  39  64  86 123 170 204 263 318 378
#     4   9  20  38  63  88 124 172 205 256 327 374
#
# _framework density 20.622171000000002
#
# number of rings (size 3 to 8) (size 9 to 14) (size 15 to 20)
#    0.000    1.667    3.333    1.000    0.000    4.000 
#    3.000    0.833    0.000    0.000    0.000    0.000 
#    0.000    0.000    0.000    0.000    0.000    0.000 
#
# Total GULP energy -297362.303651 kJ/mol
# GULP energy per Si atom -12390.095985 kJ/mol
# Density = 2.057523 g / cm^3
# Si number density = 20.622171 Si / 1000 Ang^3
#
#
#
# Elastic Constant Matrix: (Units=GPa)
#
#
# Indices 1 2 3 4 5 6 
#
# 1 72.5485 53.1376 23.1669 0.0000 0.0000 0.0000
# 2 53.1376 126.6270 43.7026 0.0000 0.0000 0.0000
# 3 23.1669 43.7026 66.2920 0.0000 0.0000 0.0000
# 4 0.0000 0.0000 0.0000 42.8668 0.0000 0.0000
# 5 0.0000 0.0000 0.0000 0.0000 9.8881 0.0000
# 6 0.0000 0.0000 0.0000 0.0000 0.0000 41.5474
#
#
#
# Elastic Compliance Matrix: (Units=1/GPa)
#
#
# Indices 1 2 3 4 5 6 
#
# 1 0.020082 -0.007774 -0.001893 0.000000 0.000000 0.000000
# 2 -0.007774 0.013233 -0.006007 0.000000 0.000000 0.000000
# 3 -0.001893 -0.006007 0.019706 0.000000 0.000000 0.000000
# 4 0.000000 0.000000 0.000000 0.023328 0.000000 0.000000
# 5 0.000000 0.000000 0.000000 0.000000 0.101132 0.000000
# 6 0.000000 0.000000 0.000000 0.000000 0.000000 0.024069
#
#
# Mechanical properties :
#
#
# Convention : Reuss Voigt Hill
#
# Bulk Modulus (GPa) = 46.13941 56.16464 51.15203
# Shear Modulus (GPa) = 20.82269 28.55780 24.69025
#
# Velocity S-wave (km/s) = 3.18106 3.72534 3.46391
# Velocity P-wave (km/s) = 5.99287 6.76745 6.39191
#
# Compressibility (1/GPa) = 0.02167345
#
# Stress axis : x y z
#
# Youngs Moduli (GPa) = 49.79478 75.57118 50.74514
#
# Poissons Ratio (x) = 0.58749 0.09607
# Poissons Ratio (y) = 0.38710 0.30481
# Poissons Ratio (z) = 0.09427 0.45394
#
# Static dielectric constant tensor:
#      x y z
#    x 3.760850 0.000000 0.000000 
#    y 0.000000 3.727370 0.000000 
#    z 0.000000 0.000000 3.646380 
# 
# 
# High freq. dielectric constant tensor:
#      x y z
#    x 1.801690 0.000000 0.000000 
#    y 0.000000 1.810210 0.000000 
#    z 0.000000 0.000000 1.797320 
# 
# From -- ./inp_files/5557.got.cif
#   From: 2010.03.12/outbox.cif.g09.slc.cpg/sg41_3_cif.got.tgz:5557.got - 2010.04.14 01:55:53.
