data_PCOD8184172
_publ_section_title
;
Structure prediction by ZEFSAII (Michael W. Deem and Ramdas Pophale) SiO2 
 PCOD8184172
Probable space group: A M A 2
;
_chemical_formula_sum "Si O2"
_cell_formula_units_Z 64
_cell_length_a 14.650028
_cell_length_b 28.676106
_cell_length_c 7.605063
_cell_angle_alpha 90.000000
_cell_angle_beta 90.000000
_cell_angle_gamma 90.000000
_cell_volume 3194.930740
_symmetry_space_group_name_H-M "A M A 2"
_symmetry_group_IT_number 40
_symmetry_cell_setting 'orthorhombic'
loop_
_space_group_symop_operation_xyz
x,y,z
-x,-y,z
1/2-x,y,z
1/2+x,-y,z
x,1/2+y,1/2+z
-x,1/2-y,1/2+z
1/2-x,1/2+y,1/2+z
1/2+x,1/2-y,1/2+z
loop_
_atom_site_type_symbol
_atom_site_label
_atom_site_fract_x
_atom_site_fract_y
_atom_site_fract_z
Si Si1 0.466433 0.850546 0.191340
Si Si2 0.856376 0.239620 0.307424
Si Si3 0.145432 0.004159 0.383188
Si Si4 0.353338 0.187840 0.532953
Si Si5 0.145235 0.698571 0.634524
Si Si6 0.043581 0.095744 0.496710
Si Si7 0.853983 0.067010 0.084575
Si Si8 0.072884 0.962079 0.728765
O O1 0.414857 0.805010 0.258926
O O2 0.564870 0.839493 0.098251
O O3 0.473617 0.881135 0.364757
O O4 0.407018 0.883699 0.066668
O O5 0.750000 0.228629 0.271170
O O6 0.899023 0.279554 0.180501
O O7 0.869839 0.256352 0.510265
O O8 0.250000 0.017631 0.347304
O O9 0.087618 0.051515 0.396343
O O10 0.107707 0.970618 0.226909
O O11 0.135851 0.977340 0.566567
O O12 0.250000 0.186770 0.588437
O O13 0.368334 0.211203 0.340629
O O14 0.382644 0.134349 0.548990
O O15 0.250000 0.678972 0.605736
O O16 0.987190 0.082502 0.670643
O O17 0.750000 0.078058 0.134376
O O18 0.859806 0.046046 0.890177
O O19 0.000000 0.000000 0.789679
#
# Coordination Sequence:
#
# PCOD8184172 Si02
#       8
#     8   8   8   8   8   8   8   8
#     4  11  23  38  66  87 125 162 208 251 312 378
#     4  10  22  41  61  87 123 163 205 252 305 367
#     4  10  21  41  64  86 122 162 202 256 315 367
#     4   9  19  38  61  88 120 153 200 252 304 365
#     4   9  21  40  61  87 119 155 203 258 307 363
#     4  10  21  38  61  93 119 156 203 254 311 362
#     4  11  24  41  62  91 126 167 209 257 311 376
#     4  10  22  38  62  87 122 157 205 253 309 372
#
# _framework density 20.031732999999999
#
# number of rings (size 3 to 8) (size 9 to 14) (size 15 to 20)
#    0.000    2.000    1.250    1.125    7.000    0.500 
#    2.250    0.000    0.000    0.000    0.000    0.000 
#    0.000    0.000    0.000    0.000    0.000    0.000 
#
# Total GULP energy -396523.365685 kJ/mol
# GULP energy per Si atom -12391.355178 kJ/mol
# Density = 1.998614 g / cm^3
# Si number density = 20.031733 Si / 1000 Ang^3
#
#
#
# Elastic Constant Matrix: (Units=GPa)
#
#
# Indices 1 2 3 4 5 6 
#
# 1 85.6379 49.5539 26.4723 0.0000 0.0000 0.0000
# 2 49.5539 136.8578 57.1148 0.0000 0.0000 0.0000
# 3 26.4723 57.1148 93.4660 0.0000 0.0000 0.0000
# 4 0.0000 0.0000 0.0000 16.2444 0.0000 0.0000
# 5 0.0000 0.0000 0.0000 0.0000 26.9409 0.0000
# 6 0.0000 0.0000 0.0000 0.0000 0.0000 32.6760
#
#
#
# Elastic Compliance Matrix: (Units=1/GPa)
#
#
# Indices 1 2 3 4 5 6 
#
# 1 0.014878 -0.004871 -0.001238 0.000000 0.000000 0.000000
# 2 -0.004871 0.011403 -0.005588 0.000000 0.000000 0.000000
# 3 -0.001238 -0.005588 0.014465 0.000000 0.000000 0.000000
# 4 0.000000 0.000000 0.000000 0.061560 0.000000 0.000000
# 5 0.000000 0.000000 0.000000 0.000000 0.037118 0.000000
# 6 0.000000 0.000000 0.000000 0.000000 0.000000 0.030604
#
#
# Mechanical properties :
#
#
# Convention : Reuss Voigt Hill
#
# Bulk Modulus (GPa) = 57.63017 64.69377 61.16197
# Shear Modulus (GPa) = 25.09995 27.36030 26.23013
#
# Velocity S-wave (km/s) = 3.54363 3.69975 3.62253
# Velocity P-wave (km/s) = 6.75092 7.11453 6.93511
#
# Compressibility (1/GPa) = 0.01735202
#
# Stress axis : x y z
#
# Youngs Moduli (GPa) = 67.21348 87.69930 69.13468
#
# Poissons Ratio (x) = 0.42715 0.08556
# Poissons Ratio (y) = 0.32737 0.38635
# Poissons Ratio (z) = 0.08318 0.49010
#
# Static dielectric constant tensor:
#      x y z
#    x 3.759070 0.000000 0.000000 
#    y 0.000000 4.091830 0.000000 
#    z 0.000000 0.000000 3.623220 
# 
# 
# High freq. dielectric constant tensor:
#      x y z
#    x 1.789770 0.000000 0.000000 
#    y 0.000000 1.773880 0.000000 
#    z 0.000000 0.000000 1.778490 
# 
# From -- ./inp_files/6863.got.cif
#   From: 2010.03.12/outbox.cif.g09.slc.cpg/sg40_4_cif.got.tgz:6863.got - 2010.04.14 01:38:03.
