data_PCOD8184704
_publ_section_title
;
Structure prediction by ZEFSAII (Michael W. Deem and Ramdas Pophale) SiO2 
 PCOD8184704
Probable space group: A M A 2
;
_chemical_formula_sum "Si O2"
_cell_formula_units_Z 32
_cell_length_a 11.340346
_cell_length_b 25.967141
_cell_length_c 4.919371
_cell_angle_alpha 90.000000
_cell_angle_beta 90.000000
_cell_angle_gamma 90.000000
_cell_volume 1448.638483
_symmetry_space_group_name_H-M "A M A 2"
_symmetry_group_IT_number 40
_symmetry_cell_setting 'orthorhombic'
loop_
_space_group_symop_operation_xyz
x,y,z
-x,-y,z
1/2-x,y,z
1/2+x,-y,z
x,1/2+y,1/2+z
-x,1/2-y,1/2+z
1/2-x,1/2+y,1/2+z
1/2+x,1/2-y,1/2+z
loop_
_atom_site_type_symbol
_atom_site_label
_atom_site_fract_x
_atom_site_fract_y
_atom_site_fract_z
Si Si1 0.498254 0.940850 0.850940
Si Si2 0.750000 0.602705 0.212431
Si Si3 0.611515 0.888712 0.360973
Si Si4 0.750000 0.670053 0.710876
Si Si5 0.514370 0.217376 0.405376
O O1 0.364637 0.930577 0.768224
O O2 0.585221 0.929303 0.600034
O O3 0.500000 0.000000 0.939778
O O4 0.537771 0.904863 0.097739
O O5 0.750000 0.653799 0.396358
O O6 0.750000 0.618976 0.897684
O O7 0.750000 0.888689 0.295214
O O8 0.569701 0.831903 0.449300
O O9 0.636882 0.704078 0.765834
O O10 0.543633 0.241602 0.699141
#
# Coordination Sequence:
#
# PCOD8184704 Si02
#       5
#     8   4   8   4   8
#     4  12  26  47  72 104 136 185 228 280 346 405
#     4  12  22  46  72  97 138 179 232 288 330 400
#     4  12  27  48  68 103 145 178 226 286 342 410
#     4  12  24  46  68  97 138 177 236 288 330 402
#     4  12  26  44  68  99 133 183 227 279 343 399
#
# _framework density 22.089706
#
# number of rings (size 3 to 8) (size 9 to 14) (size 15 to 20)
#    0.000    0.000    5.000    4.500    7.000    0.000 
#    0.000    0.000    0.000    0.000    0.000    0.000 
#    0.000    0.000    0.000    0.000    0.000    0.000 
#
# Total GULP energy -198523.490248 kJ/mol
# GULP energy per Si atom -12407.718140 kJ/mol
# Density = 2.203943 g / cm^3
# Si number density = 22.089706 Si / 1000 Ang^3
#
#
#
# Elastic Constant Matrix: (Units=GPa)
#
#
# Indices 1 2 3 4 5 6 
#
# 1 90.1497 29.2122 -7.4021 0.0000 0.0000 0.0000
# 2 29.2122 98.2584 11.1896 0.0000 0.0000 0.0000
# 3 -7.4021 11.1896 85.6954 0.0000 0.0000 0.0000
# 4 0.0000 0.0000 0.0000 31.6754 0.0000 0.0000
# 5 0.0000 0.0000 0.0000 0.0000 111.4274 0.0000
# 6 0.0000 0.0000 0.0000 0.0000 0.0000 28.3405
#
#
#
# Elastic Compliance Matrix: (Units=1/GPa)
#
#
# Indices 1 2 3 4 5 6 
#
# 1 0.012484 -0.003892 0.001587 0.000000 0.000000 0.000000
# 2 -0.003892 0.011544 -0.001844 0.000000 0.000000 0.000000
# 3 0.001587 -0.001844 0.012047 0.000000 0.000000 0.000000
# 4 0.000000 0.000000 0.000000 0.031570 0.000000 0.000000
# 5 0.000000 0.000000 0.000000 0.000000 0.008974 0.000000
# 6 0.000000 0.000000 0.000000 0.000000 0.000000 0.035285
#
#
# Mechanical properties :
#
#
# Convention : Reuss Voigt Hill
#
# Bulk Modulus (GPa) = 36.00095 37.78921 36.89508
# Shear Modulus (GPa) = 38.62110 50.36225 44.49167
#
# Velocity S-wave (km/s) = 4.18589 4.78001 4.49278
# Velocity P-wave (km/s) = 6.30042 6.89992 6.60697
#
# Compressibility (1/GPa) = 0.02777704
#
# Stress axis : x y z
#
# Youngs Moduli (GPa) = 80.10142 86.62245 83.00816
#
# Poissons Ratio (x) = 0.33715 -0.13170
# Poissons Ratio (y) = 0.31177 0.15303
# Poissons Ratio (z) = -0.12709 0.15970
#
# Static dielectric constant tensor:
#      x y z
#    x 3.777800 0.000000 0.000000 
#    y 0.000000 3.941450 0.000000 
#    z 0.000000 0.000000 4.171540 
# 
# 
# High freq. dielectric constant tensor:
#      x y z
#    x 1.882160 0.000000 0.000000 
#    y 0.000000 1.869970 0.000000 
#    z 0.000000 0.000000 1.885120 
# 
# From -- ./inp_files/644.got.cif
#   From: 2010.03.12/outbox.cif.g09.slc.cpg/sg40_1_cif.got.tgz:644.got - 2010.04.14 01:38:03.
