data_PCOD8184347
_publ_section_title
;
Structure prediction by ZEFSAII (Michael W. Deem and Ramdas Pophale) SiO2 
 PCOD8184347
Probable space group: A M A 2
;
_chemical_formula_sum "Si O2"
_cell_formula_units_Z 40
_cell_length_a 19.317444
_cell_length_b 19.008985
_cell_length_c 4.973279
_cell_angle_alpha 90.000000
_cell_angle_beta 90.000000
_cell_angle_gamma 90.000000
_cell_volume 1826.212931
_symmetry_space_group_name_H-M "A M A 2"
_symmetry_group_IT_number 40
_symmetry_cell_setting 'orthorhombic'
loop_
_space_group_symop_operation_xyz
x,y,z
-x,-y,z
1/2-x,y,z
1/2+x,-y,z
x,1/2+y,1/2+z
-x,1/2-y,1/2+z
1/2-x,1/2+y,1/2+z
1/2+x,1/2-y,1/2+z
loop_
_atom_site_type_symbol
_atom_site_label
_atom_site_fract_x
_atom_site_fract_y
_atom_site_fract_z
Si Si1 0.608271 0.618516 0.941800
Si Si2 0.750000 0.579439 0.717398
Si Si3 0.101366 0.025301 0.742723
Si Si4 0.750000 0.988133 0.716484
Si Si5 0.461718 0.094027 0.232783
Si Si6 0.954844 0.256684 0.577533
O O1 0.679863 0.622445 0.776919
O O2 0.544399 0.606619 0.734394
O O3 0.607971 0.556645 0.164450
O O4 0.601559 0.694142 0.089060
O O5 0.750000 0.557410 0.406474
O O6 0.750000 0.509832 0.903349
O O7 0.179776 0.055981 0.773047
O O8 0.058665 0.069452 0.528218
O O9 0.061106 0.033388 0.024494
O O10 0.423206 0.167590 0.162356
O O11 0.982898 0.265087 0.275102
#
# Coordination Sequence:
#
# PCOD8184347 Si02
#       6
#     8   4   8   4   8   8
#     4  10  23  40  62  89 120 157 205 245 296 356
#     4  10  22  38  60  86 118 160 199 248 291 352
#     4  11  23  39  62  89 118 157 202 251 293 356
#     4  10  22  40  56  86 126 158 193 246 315 348
#     4  11  23  38  61  93 121 153 198 251 303 351
#     4  10  22  39  59  84 121 156 188 244 306 354
#
# _framework density 21.90325
#
# number of rings (size 3 to 8) (size 9 to 14) (size 15 to 20)
#    0.000    1.600    0.000    5.400    0.000   19.200 
#    0.000    2.000    0.000    0.000    0.000    1.400 
#    0.000    0.000    0.000    0.000    0.000    0.000 
#
# Total GULP energy -247933.243366 kJ/mol
# GULP energy per Si atom -12396.662168 kJ/mol
# Density = 2.185340 g / cm^3
# Si number density = 21.903250 Si / 1000 Ang^3
#
#
#
# Elastic Constant Matrix: (Units=GPa)
#
#
# Indices 1 2 3 4 5 6 
#
# 1 159.5094 24.1738 21.9772 0.0000 0.0000 0.0000
# 2 24.1738 100.7388 2.7588 0.0000 0.0000 0.0000
# 3 21.9772 2.7588 68.0432 0.0000 0.0000 0.0000
# 4 0.0000 0.0000 0.0000 20.8597 0.0000 0.0000
# 5 0.0000 0.0000 0.0000 0.0000 23.8675 0.0000
# 6 0.0000 0.0000 0.0000 0.0000 0.0000 20.0473
#
#
#
# Elastic Compliance Matrix: (Units=1/GPa)
#
#
# Indices 1 2 3 4 5 6 
#
# 1 0.006802 -0.001574 -0.002133 0.000000 0.000000 0.000000
# 2 -0.001574 0.010302 0.000091 0.000000 0.000000 0.000000
# 3 -0.002133 0.000091 0.015382 0.000000 0.000000 0.000000
# 4 0.000000 0.000000 0.000000 0.047939 0.000000 0.000000
# 5 0.000000 0.000000 0.000000 0.000000 0.041898 0.000000
# 6 0.000000 0.000000 0.000000 0.000000 0.000000 0.049882
#
#
# Mechanical properties :
#
#
# Convention : Reuss Voigt Hill
#
# Bulk Modulus (GPa) = 39.59937 47.34569 43.47253
# Shear Modulus (GPa) = 26.61633 31.58033 29.09833
#
# Velocity S-wave (km/s) = 3.48972 3.80124 3.64880
# Velocity P-wave (km/s) = 5.86140 6.39755 6.13533
#
# Compressibility (1/GPa) = 0.02525293
#
# Stress axis : x y z
#
# Youngs Moduli (GPa) = 147.02391 97.07023 65.01178
#
# Poissons Ratio (x) = 0.15276 0.13867
# Poissons Ratio (y) = 0.23138 -0.00589
# Poissons Ratio (z) = 0.31361 -0.00880
#
# Static dielectric constant tensor:
#      x y z
#    x 4.273520 0.000000 0.000000 
#    y 0.000000 4.006140 0.000000 
#    z 0.000000 0.000000 3.885490 
# 
# 
# High freq. dielectric constant tensor:
#      x y z
#    x 1.852820 0.000000 0.000000 
#    y 0.000000 1.840180 0.000000 
#    z 0.000000 0.000000 1.871870 
# 
# From -- ./inp_files/1763.got.cif
#   From: 2010.03.12/outbox.cif.g09.slc.cpg/sg40_1_cif.got.tgz:1763.got - 2010.04.14 01:38:03.
