data_PCOD8184027
_publ_section_title
;
Structure prediction by ZEFSAII (Michael W. Deem and Ramdas Pophale) SiO2 
 PCOD8184027
Probable space group: A M A 2
;
_chemical_formula_sum "Si O2"
_cell_formula_units_Z 56
_cell_length_a 19.157865
_cell_length_b 14.969295
_cell_length_c 9.716110
_cell_angle_alpha 90.000000
_cell_angle_beta 90.000000
_cell_angle_gamma 90.000000
_cell_volume 2786.383429
_symmetry_space_group_name_H-M "A M A 2"
_symmetry_group_IT_number 40
_symmetry_cell_setting 'orthorhombic'
loop_
_space_group_symop_operation_xyz
x,y,z
-x,-y,z
1/2-x,y,z
1/2+x,-y,z
x,1/2+y,1/2+z
-x,1/2-y,1/2+z
1/2-x,1/2+y,1/2+z
1/2+x,1/2-y,1/2+z
loop_
_atom_site_type_symbol
_atom_site_label
_atom_site_fract_x
_atom_site_fract_y
_atom_site_fract_z
Si Si1 0.574521 0.474169 0.397290
Si Si2 0.829016 0.139137 0.951308
Si Si3 0.328684 0.183740 0.976647
Si Si4 0.473490 0.633892 0.147085
Si Si5 0.400098 0.251049 0.235326
Si Si6 0.002254 0.100307 0.334811
Si Si7 0.121873 0.789204 0.226027
O O1 0.500000 0.500000 0.469149
O O2 0.625135 0.557485 0.398898
O O3 0.612760 0.393325 0.475069
O O4 0.558526 0.445045 0.240243
O O5 0.750000 0.116287 0.913662
O O6 0.853733 0.226908 0.868886
O O7 0.834053 0.154792 0.115243
O O8 0.250000 0.145759 0.996005
O O9 0.349108 0.246223 0.104338
O O10 0.328535 0.240736 0.836113
O O11 0.545225 0.668470 0.214495
O O12 0.421680 0.717577 0.138716
O O13 0.483560 0.595415 0.996520
O O14 0.437686 0.156018 0.257979
O O15 0.927615 0.144874 0.310839
O O16 0.000000 0.000000 0.274904
#
# Coordination Sequence:
#
# PCOD8184027 Si02
#       7
#     8   8   8   8   8   8   8
#     4  11  24  39  68  97 128 163 215 268 319 379
#     4  12  25  43  66  96 132 171 214 264 325 392
#     4  11  24  43  65  92 132 173 211 261 326 394
#     4  10  20  41  64  96 127 163 217 268 320 377
#     4  11  23  40  63  94 126 171 213 264 322 382
#     4  11  23  37  64  97 128 162 215 273 321 368
#     4  10  23  40  65  93 128 172 211 262 325 385
#
# _framework density 20.097736999999999
#
# number of rings (size 3 to 8) (size 9 to 14) (size 15 to 20)
#    0.000    1.143    4.286    1.714    6.000    0.000 
#    0.000    0.000    0.000    0.000    0.000    0.000 
#    0.000    0.000    0.000    0.000    0.000    0.000 
#
# Total GULP energy -347245.244639 kJ/mol
# GULP energy per Si atom -12401.615880 kJ/mol
# Density = 2.005199 g / cm^3
# Si number density = 20.097737 Si / 1000 Ang^3
#
#
#
# Elastic Constant Matrix: (Units=GPa)
#
#
# Indices 1 2 3 4 5 6 
#
# 1 140.3895 44.8942 39.0659 0.0000 0.0000 0.0000
# 2 44.8942 106.4270 33.1521 0.0000 0.0000 0.0000
# 3 39.0659 33.1521 110.3168 0.0000 0.0000 0.0000
# 4 0.0000 0.0000 0.0000 26.0129 0.0000 0.0000
# 5 0.0000 0.0000 0.0000 0.0000 14.5653 0.0000
# 6 0.0000 0.0000 0.0000 0.0000 0.0000 12.8519
#
#
#
# Elastic Compliance Matrix: (Units=1/GPa)
#
#
# Indices 1 2 3 4 5 6 
#
# 1 0.008684 -0.002984 -0.002178 0.000000 0.000000 0.000000
# 2 -0.002984 0.011392 -0.002367 0.000000 0.000000 0.000000
# 3 -0.002178 -0.002367 0.010547 0.000000 0.000000 0.000000
# 4 0.000000 0.000000 0.000000 0.038442 0.000000 0.000000
# 5 0.000000 0.000000 0.000000 0.000000 0.068656 0.000000
# 6 0.000000 0.000000 0.000000 0.000000 0.000000 0.077809
#
#
# Mechanical properties :
#
#
# Convention : Reuss Voigt Hill
#
# Bulk Modulus (GPa) = 64.24873 65.70640 64.97757
# Shear Modulus (GPa) = 21.20636 26.68743 23.94690
#
# Velocity S-wave (km/s) = 3.25185 3.64797 3.45559
# Velocity P-wave (km/s) = 6.79242 7.10689 6.95143
#
# Compressibility (1/GPa) = 0.01556451
#
# Stress axis : x y z
#
# Youngs Moduli (GPa) = 115.16039 87.77867 94.81028
#
# Poissons Ratio (x) = 0.26197 0.20651
# Poissons Ratio (y) = 0.34369 0.22439
# Poissons Ratio (z) = 0.25084 0.20775
#
# Static dielectric constant tensor:
#      x y z
#    x 3.588640 0.000000 0.000000 
#    y 0.000000 3.644000 0.000000 
#    z 0.000000 0.000000 3.551400 
# 
# 
# High freq. dielectric constant tensor:
#      x y z
#    x 1.776820 0.000000 0.000000 
#    y 0.000000 1.784470 0.000000 
#    z 0.000000 0.000000 1.790830 
# 
# From -- ./inp_files/8304.got.cif
#   From: 2010.03.12/outbox.cif.g09.slc.cpg/sg40_5_cif.got.tgz:8304.got - 2010.04.14 01:38:03.
