data_PCOD8184087
_publ_section_title
;
Structure prediction by ZEFSAII (Michael W. Deem and Ramdas Pophale) SiO2 
 PCOD8184087
Probable space group: A M A 2
;
_chemical_formula_sum "Si O2"
_cell_formula_units_Z 60
_cell_length_a 13.818893
_cell_length_b 8.635846
_cell_length_c 26.107613
_cell_angle_alpha 90.000000
_cell_angle_beta 90.000000
_cell_angle_gamma 90.000000
_cell_volume 3115.625930
_symmetry_space_group_name_H-M "A M A 2"
_symmetry_group_IT_number 40
_symmetry_cell_setting 'orthorhombic'
loop_
_space_group_symop_operation_xyz
x,y,z
-x,-y,z
1/2-x,y,z
1/2+x,-y,z
x,1/2+y,1/2+z
-x,1/2-y,1/2+z
1/2-x,1/2+y,1/2+z
1/2+x,1/2-y,1/2+z
loop_
_atom_site_type_symbol
_atom_site_label
_atom_site_fract_x
_atom_site_fract_y
_atom_site_fract_z
Si Si1 0.527056 0.171103 0.405790
Si Si2 0.637981 0.351794 0.325567
Si Si3 0.360555 0.076675 0.611562
Si Si4 0.861356 0.323966 0.487460
Si Si5 0.500000 0.000000 0.171268
Si Si6 0.359588 0.904124 0.907171
Si Si7 0.545494 0.748592 0.090752
Si Si8 0.639396 0.249464 0.214735
O O1 0.577991 0.221303 0.353897
O O2 0.597996 0.179927 0.454780
O O3 0.429100 0.262858 0.417513
O O4 0.500000 0.000000 0.394697
O O5 0.750000 0.314180 0.334677
O O6 0.615007 0.517959 0.351967
O O7 0.609428 0.343171 0.265940
O O8 0.250000 0.106676 0.592962
O O9 0.435247 0.187949 0.580935
O O10 0.374147 0.122475 0.670792
O O11 0.386097 0.896724 0.604538
O O12 0.750000 0.294764 0.500347
O O13 0.878006 0.474761 0.452830
O O14 0.919388 0.337110 0.540241
O O15 0.554707 0.874006 0.136016
O O16 0.424086 0.905869 0.206510
O O17 0.250000 0.843142 0.907848
O O18 0.750000 0.191724 0.217681
#
# Coordination Sequence:
#
# PCOD8184087 Si02
#       8
#     8   8   8   8   4   8   8   8
#     4  11  23  36  58  90 117 145 183 238 292 347
#     4   9  18  37  61  82 113 154 191 230 281 338
#     4   9  19  38  57  81 117 154 196 238 281 334
#     4  10  21  38  60  82 113 155 196 233 282 340
#     4  10  22  36  56  86 122 148 194 240 284 336
#     4   9  20  40  61  85 112 148 194 234 277 347
#     4  10  21  36  58  85 114 156 190 243 283 340
#     4   9  19  37  60  84 116 155 192 235 285 337
#
# _framework density 19.257767000000001
#
# number of rings (size 3 to 8) (size 9 to 14) (size 15 to 20)
#    0.000    2.400    0.000    3.200    4.667    2.133 
#    9.600    0.667    0.000    0.000    0.000    0.000 
#    0.000    0.000    0.000    0.000    0.000    0.000 
#
# Total GULP energy -371921.616628 kJ/mol
# GULP energy per Si atom -12397.387221 kJ/mol
# Density = 1.921394 g / cm^3
# Si number density = 19.257767 Si / 1000 Ang^3
#
#
#
# Elastic Constant Matrix: (Units=GPa)
#
#
# Indices 1 2 3 4 5 6 
#
# 1 109.0929 37.3705 47.1862 0.0000 0.0000 0.0000
# 2 37.3705 74.3268 21.4047 0.0000 0.0000 0.0000
# 3 47.1862 21.4047 102.6452 0.0000 0.0000 0.0000
# 4 0.0000 0.0000 0.0000 9.1064 0.0000 0.0000
# 5 0.0000 0.0000 0.0000 0.0000 33.1591 0.0000
# 6 0.0000 0.0000 0.0000 0.0000 0.0000 21.2692
#
#
#
# Elastic Compliance Matrix: (Units=1/GPa)
#
#
# Indices 1 2 3 4 5 6 
#
# 1 0.013063 -0.005148 -0.004932 0.000000 0.000000 0.000000
# 2 -0.005148 0.016342 -0.001041 0.000000 0.000000 0.000000
# 3 -0.004932 -0.001041 0.012227 0.000000 0.000000 0.000000
# 4 0.000000 0.000000 0.000000 0.109812 0.000000 0.000000
# 5 0.000000 0.000000 0.000000 0.000000 0.030158 0.000000
# 6 0.000000 0.000000 0.000000 0.000000 0.000000 0.047016
#
#
# Mechanical properties :
#
#
# Convention : Reuss Voigt Hill
#
# Bulk Modulus (GPa) = 51.57244 55.33198 53.45221
# Shear Modulus (GPa) = 19.43084 24.71384 22.07234
#
# Velocity S-wave (km/s) = 3.17990 3.58623 3.38916
# Velocity P-wave (km/s) = 6.34985 6.77811 6.56747
#
# Compressibility (1/GPa) = 0.01939020
#
# Stress axis : x y z
#
# Youngs Moduli (GPa) = 76.55238 61.19134 81.78921
#
# Poissons Ratio (x) = 0.31499 0.40335
# Poissons Ratio (y) = 0.39406 0.08518
# Poissons Ratio (z) = 0.37753 0.06373
#
# Static dielectric constant tensor:
#      x y z
#    x 3.773350 0.000000 0.000000 
#    y 0.000000 3.362250 0.000000 
#    z 0.000000 0.000000 3.612670 
# 
# 
# High freq. dielectric constant tensor:
#      x y z
#    x 1.764040 0.000000 0.000000 
#    y 0.000000 1.732380 0.000000 
#    z 0.000000 0.000000 1.747300 
# 
# From -- ./inp_files/25756.got.cif
#   From: 2010.03.12/outbox.cif.g09.slc.cpg/sg40_13_cif.got.tgz:25756.got - 2010.04.14 01:38:03.
