data_PCOD8184442
_publ_section_title
;
Structure prediction by ZEFSAII (Michael W. Deem and Ramdas Pophale) SiO2 
 PCOD8184442
Probable space group: A M A 2
;
_chemical_formula_sum "Si O2"
_cell_formula_units_Z 56
_cell_length_a 22.064934
_cell_length_b 11.677976
_cell_length_c 10.050959
_cell_angle_alpha 90.000000
_cell_angle_beta 90.000000
_cell_angle_gamma 90.000000
_cell_volume 2589.868495
_symmetry_space_group_name_H-M "A M A 2"
_symmetry_group_IT_number 40
_symmetry_cell_setting 'orthorhombic'
loop_
_space_group_symop_operation_xyz
x,y,z
-x,-y,z
1/2-x,y,z
1/2+x,-y,z
x,1/2+y,1/2+z
-x,1/2-y,1/2+z
1/2-x,1/2+y,1/2+z
1/2+x,1/2-y,1/2+z
loop_
_atom_site_type_symbol
_atom_site_label
_atom_site_fract_x
_atom_site_fract_y
_atom_site_fract_z
Si Si1 0.059877 0.660680 0.656040
Si Si2 0.064098 0.474844 0.424340
Si Si3 0.065708 0.551931 0.927614
Si Si4 0.857031 0.151849 0.525426
Si Si5 0.314966 0.497620 0.256084
Si Si6 0.315396 0.258795 0.755890
Si Si7 0.431594 0.268481 0.596709
O O1 0.063766 0.556062 0.553154
O O2 0.086844 0.619453 0.795916
O O3 0.096330 0.768753 0.603290
O O4 0.991145 0.703339 0.683221
O O5 0.124121 0.491555 0.340536
O O6 0.064623 0.341817 0.462246
O O7 0.000000 0.500000 0.346058
O O8 0.000000 0.500000 0.907434
O O9 0.110474 0.447449 0.944489
O O10 0.069610 0.635034 0.056095
O O11 0.814259 0.090898 0.633273
O O12 0.821548 0.227711 0.416132
O O13 0.250000 0.473009 0.331549
O O14 0.313170 0.627902 0.208543
O O15 0.250000 0.314858 0.715253
O O16 0.372836 0.311677 0.679153
#
# Coordination Sequence:
#
# PCOD8184442 Si02
#       7
#     8   8   8   8   8   8   8
#     4  11  23  40  67  99 136 174 220 279 340 397
#     4  10  22  42  66  99 133 174 225 281 334 403
#     4  12  23  40  64 101 136 172 215 276 338 398
#     4  12  23  43  69  97 134 175 223 274 337 398
#     4  11  24  42  66  96 134 176 224 276 335 407
#     4  11  24  43  66  90 132 181 222 274 337 402
#     4  11  23  41  66  96 133 174 218 280 337 399
#
# _framework density 21.622720000000001
#
# number of rings (size 3 to 8) (size 9 to 14) (size 15 to 20)
#    0.000    0.857    4.286    4.286    0.000    2.286 
#    0.000    0.000    0.000    4.286    0.000    0.000 
#    0.000    0.000    0.000    0.000    0.000    0.000 
#
# Total GULP energy -347010.506340 kJ/mol
# GULP energy per Si atom -12393.232369 kJ/mol
# Density = 2.157351 g / cm^3
# Si number density = 21.622720 Si / 1000 Ang^3
#
#
#
# Elastic Constant Matrix: (Units=GPa)
#
#
# Indices 1 2 3 4 5 6 
#
# 1 174.7467 31.8537 48.1984 0.0000 0.0000 0.0000
# 2 31.8537 94.0368 25.5465 0.0000 0.0000 0.0000
# 3 48.1984 25.5465 78.3572 0.0000 0.0000 0.0000
# 4 0.0000 0.0000 0.0000 42.4804 0.0000 0.0000
# 5 0.0000 0.0000 0.0000 0.0000 17.2135 0.0000
# 6 0.0000 0.0000 0.0000 0.0000 0.0000 16.2483
#
#
#
# Elastic Compliance Matrix: (Units=1/GPa)
#
#
# Indices 1 2 3 4 5 6 
#
# 1 0.007039 -0.001326 -0.003898 0.000000 0.000000 0.000000
# 2 -0.001326 0.011917 -0.003070 0.000000 0.000000 0.000000
# 3 -0.003898 -0.003070 0.016161 0.000000 0.000000 0.000000
# 4 0.000000 0.000000 0.000000 0.023540 0.000000 0.000000
# 5 0.000000 0.000000 0.000000 0.000000 0.058094 0.000000
# 6 0.000000 0.000000 0.000000 0.000000 0.000000 0.061545
#
#
# Mechanical properties :
#
#
# Convention : Reuss Voigt Hill
#
# Bulk Modulus (GPa) = 53.96541 62.03756 58.00148
# Shear Modulus (GPa) = 24.86827 31.29124 28.07976
#
# Velocity S-wave (km/s) = 3.39499 3.80826 3.60755
# Velocity P-wave (km/s) = 6.35451 6.93472 6.65095
#
# Compressibility (1/GPa) = 0.01853039
#
# Stress axis : x y z
#
# Youngs Moduli (GPa) = 142.06005 83.91271 61.87922
#
# Poissons Ratio (x) = 0.11123 0.24119
# Poissons Ratio (y) = 0.18831 0.18997
# Poissons Ratio (z) = 0.55372 0.25761
#
# Static dielectric constant tensor:
#      x y z
#    x 4.308810 0.000000 0.000000 
#    y 0.000000 4.109100 0.000000 
#    z 0.000000 0.000000 3.695690 
# 
# 
# High freq. dielectric constant tensor:
#      x y z
#    x 1.856470 0.000000 0.000000 
#    y 0.000000 1.861110 0.000000 
#    z 0.000000 0.000000 1.830900 
# 
# From -- ./inp_files/13572.got.cif
#   From: 2010.03.12/outbox.cif.g09.slc.cpg/sg40_7_cif.got.tgz:13572.got - 2010.04.14 01:38:03.
