data_PCOD8184579
_publ_section_title
;
Structure prediction by ZEFSAII (Michael W. Deem and Ramdas Pophale) SiO2 
 PCOD8184579
Probable space group: A M A 2
;
_chemical_formula_sum "Si O2"
_cell_formula_units_Z 64
_cell_length_a 8.667982
_cell_length_b 20.654620
_cell_length_c 19.614249
_cell_angle_alpha 90.000000
_cell_angle_beta 90.000000
_cell_angle_gamma 90.000000
_cell_volume 3511.614991
_symmetry_space_group_name_H-M "A M A 2"
_symmetry_group_IT_number 40
_symmetry_cell_setting 'orthorhombic'
loop_
_space_group_symop_operation_xyz
x,y,z
-x,-y,z
1/2-x,y,z
1/2+x,-y,z
x,1/2+y,1/2+z
-x,1/2-y,1/2+z
1/2-x,1/2+y,1/2+z
1/2+x,1/2-y,1/2+z
loop_
_atom_site_type_symbol
_atom_site_label
_atom_site_fract_x
_atom_site_fract_y
_atom_site_fract_z
Si Si1 0.068966 0.619602 0.863420
Si Si2 0.927672 0.744734 0.506896
Si Si3 0.431798 0.568077 0.718136
Si Si4 0.431647 0.315902 0.219682
Si Si5 0.070706 0.807805 0.149987
Si Si6 0.569020 0.433801 0.138161
Si Si7 0.569823 0.116813 0.504079
Si Si8 0.430168 0.264708 0.358277
O O1 0.250000 0.620754 0.878763
O O2 0.027867 0.576666 0.797917
O O3 0.003988 0.691968 0.849882
O O4 0.983974 0.591391 0.929956
O O5 0.750000 0.768484 0.504442
O O6 0.955363 0.694944 0.568231
O O7 0.969771 0.709674 0.434655
O O8 0.030866 0.808074 0.516660
O O9 0.500000 0.500000 0.693489
O O10 0.250000 0.571264 0.705209
O O11 0.513422 0.622649 0.673548
O O12 0.250000 0.328952 0.213607
O O13 0.469773 0.247954 0.184191
O O14 0.520318 0.374047 0.184811
O O15 0.493075 0.311391 0.298371
O O16 0.250000 0.797873 0.168560
O O17 0.500000 0.500000 0.168895
O O18 0.750000 0.438804 0.139046
O O19 0.513044 0.425953 0.060869
O O20 0.750000 0.106290 0.512140
O O21 0.250000 0.260359 0.344953
#
# Coordination Sequence:
#
# PCOD8184579 Si02
#       8
#     8   8   8   8   8   8   8   8
#     4   9  18  35  54  75 109 153 189 227 274 328
#     4   9  18  34  55  81 112 147 185 228 276 327
#     4  11  23  39  57  79 112 151 191 236 284 338
#     4  11  20  35  59  86 113 146 186 231 280 332
#     4  11  21  34  57  85 114 149 188 233 279 330
#     4  12  25  41  57  79 111 150 189 233 281 337
#     4  11  21  33  53  82 113 148 186 228 272 330
#     4   8  15  31  55  81 109 143 181 223 275 327
#
# _framework density 18.225231999999998
#
# number of rings (size 3 to 8) (size 9 to 14) (size 15 to 20)
#    0.000    1.750    2.500    4.125    0.000    2.000 
#    0.000    1.875    0.000    0.750    0.000    0.000 
#    0.000    0.000    0.000    0.000    0.000    0.000 
#
# Total GULP energy -396760.202371 kJ/mol
# GULP energy per Si atom -12398.756324 kJ/mol
# Density = 1.818375 g / cm^3
# Si number density = 18.225232 Si / 1000 Ang^3
#
#
#
# Elastic Constant Matrix: (Units=GPa)
#
#
# Indices 1 2 3 4 5 6 
#
# 1 93.4331 28.7026 34.5417 0.0000 0.0000 0.0000
# 2 28.7026 92.0907 43.2196 0.0000 0.0000 0.0000
# 3 34.5417 43.2196 107.2558 0.0000 0.0000 0.0000
# 4 0.0000 0.0000 0.0000 18.3731 0.0000 0.0000
# 5 0.0000 0.0000 0.0000 0.0000 24.0397 0.0000
# 6 0.0000 0.0000 0.0000 0.0000 0.0000 27.8034
#
#
#
# Elastic Compliance Matrix: (Units=1/GPa)
#
#
# Indices 1 2 3 4 5 6 
#
# 1 0.012597 -0.002494 -0.003052 0.000000 0.000000 0.000000
# 2 -0.002494 0.013885 -0.004792 0.000000 0.000000 0.000000
# 3 -0.003052 -0.004792 0.012237 0.000000 0.000000 0.000000
# 4 0.000000 0.000000 0.000000 0.054427 0.000000 0.000000
# 5 0.000000 0.000000 0.000000 0.000000 0.041598 0.000000
# 6 0.000000 0.000000 0.000000 0.000000 0.000000 0.035967
#
#
# Mechanical properties :
#
#
# Convention : Reuss Voigt Hill
#
# Bulk Modulus (GPa) = 55.42016 56.18971 55.80493
# Shear Modulus (GPa) = 25.32899 26.46428 25.89663
#
# Velocity S-wave (km/s) = 3.73201 3.81474 3.77360
# Velocity P-wave (km/s) = 7.00322 7.09229 7.04790
#
# Compressibility (1/GPa) = 0.01804398
#
# Stress axis : x y z
#
# Youngs Moduli (GPa) = 79.38213 72.01965 81.71700
#
# Poissons Ratio (x) = 0.17961 0.24940
# Poissons Ratio (y) = 0.19797 0.39158
# Poissons Ratio (z) = 0.24227 0.34511
#
# Static dielectric constant tensor:
#      x y z
#    x 3.317910 0.000000 0.000000 
#    y 0.000000 3.215060 0.000000 
#    z 0.000000 0.000000 3.726880 
# 
# 
# High freq. dielectric constant tensor:
#      x y z
#    x 1.705070 0.000000 0.000000 
#    y 0.000000 1.679050 0.000000 
#    z 0.000000 0.000000 1.714680 
# 
# From -- ./inp_files/22380.got.cif
#   From: 2010.03.12/outbox.cif.g09.slc.cpg/sg40_12_cif.got.tgz:22380.got - 2010.04.14 01:38:03.
