data_PCOD8184126
_publ_section_title
;
Structure prediction by ZEFSAII (Michael W. Deem and Ramdas Pophale) SiO2 
 PCOD8184126
Probable space group: A M A 2
;
_chemical_formula_sum "Si O2"
_cell_formula_units_Z 60
_cell_length_a 24.195764
_cell_length_b 7.014992
_cell_length_c 17.113691
_cell_angle_alpha 90.000000
_cell_angle_beta 90.000000
_cell_angle_gamma 90.000000
_cell_volume 2904.759670
_symmetry_space_group_name_H-M "A M A 2"
_symmetry_group_IT_number 40
_symmetry_cell_setting 'orthorhombic'
loop_
_space_group_symop_operation_xyz
x,y,z
-x,-y,z
1/2-x,y,z
1/2+x,-y,z
x,1/2+y,1/2+z
-x,1/2-y,1/2+z
1/2-x,1/2+y,1/2+z
1/2+x,1/2-y,1/2+z
loop_
_atom_site_type_symbol
_atom_site_label
_atom_site_fract_x
_atom_site_fract_y
_atom_site_fract_z
Si Si1 0.101309 0.408978 0.932360
Si Si2 0.187606 0.300536 0.277910
Si Si3 0.310992 0.645163 0.180393
Si Si4 0.547651 0.632621 0.604068
Si Si5 0.389523 0.937773 0.258121
Si Si6 0.688093 0.926779 0.918203
Si Si7 0.851201 0.740093 0.516425
Si Si8 0.500000 0.000000 0.540980
O O1 0.081546 0.407359 0.842020
O O2 0.144628 0.235907 0.942752
O O3 0.133901 0.605336 0.950023
O O4 0.046909 0.397377 0.987211
O O5 0.250000 0.225271 0.296620
O O6 0.187238 0.420745 0.198032
O O7 0.167868 0.453842 0.342846
O O8 0.145177 0.131391 0.263716
O O9 0.250000 0.730440 0.191614
O O10 0.348863 0.764119 0.239332
O O11 0.328515 0.651014 0.091031
O O12 0.500000 0.500000 0.571185
O O13 0.564002 0.560612 0.690878
O O14 0.596472 0.612632 0.541872
O O15 0.527606 0.851708 0.600924
O O16 0.750000 0.840390 0.905902
O O17 0.692448 0.086158 0.985954
#
# Coordination Sequence:
#
# PCOD8184126 Si02
#       8
#     8   8   8   8   8   8   8   4
#     4  11  23  41  66  93 129 167 216 269 327 383
#     4  10  21  37  60  92 132 170 206 252 310 376
#     4  10  21  38  58  89 128 169 209 252 307 374
#     4  10  23  42  66  89 120 157 205 263 324 379
#     4  11  22  38  64  93 124 161 212 260 312 380
#     4  11  22  37  62  96 130 169 214 259 317 388
#     4  10  22  40  62  90 126 162 205 262 315 381
#     4  10  24  46  68  90 126 164 212 272 336 382
#
# _framework density 20.655753000000001
#
# number of rings (size 3 to 8) (size 9 to 14) (size 15 to 20)
#    0.000    1.600    2.667    1.600    0.933    6.933 
#    0.000    2.667    1.467    0.000    0.000    0.000 
#    0.000    0.000    0.000    0.000    0.000    0.000 
#
# Total GULP energy -371815.947006 kJ/mol
# GULP energy per Si atom -12393.864900 kJ/mol
# Density = 2.060874 g / cm^3
# Si number density = 20.655753 Si / 1000 Ang^3
#
#
#
# Elastic Constant Matrix: (Units=GPa)
#
#
# Indices 1 2 3 4 5 6 
#
# 1 85.0630 36.7585 26.3172 0.0000 0.0000 0.0000
# 2 36.7585 73.8454 42.2433 0.0000 0.0000 0.0000
# 3 26.3172 42.2433 111.6196 0.0000 0.0000 0.0000
# 4 0.0000 0.0000 0.0000 7.6102 0.0000 0.0000
# 5 0.0000 0.0000 0.0000 0.0000 11.2383 0.0000
# 6 0.0000 0.0000 0.0000 0.0000 0.0000 41.0699
#
#
#
# Elastic Compliance Matrix: (Units=1/GPa)
#
#
# Indices 1 2 3 4 5 6 
#
# 1 0.015050 -0.006971 -0.000910 0.000000 0.000000 0.000000
# 2 -0.006971 0.020512 -0.006120 0.000000 0.000000 0.000000
# 3 -0.000910 -0.006120 0.011490 0.000000 0.000000 0.000000
# 4 0.000000 0.000000 0.000000 0.131402 0.000000 0.000000
# 5 0.000000 0.000000 0.000000 0.000000 0.088981 0.000000
# 6 0.000000 0.000000 0.000000 0.000000 0.000000 0.024349
#
#
# Mechanical properties :
#
#
# Convention : Reuss Voigt Hill
#
# Bulk Modulus (GPa) = 52.49134 53.46287 52.97710
# Shear Modulus (GPa) = 15.33104 22.99761 19.16433
#
# Velocity S-wave (km/s) = 2.72732 3.34035 3.04928
# Velocity P-wave (km/s) = 5.94856 6.38876 6.17258
#
# Compressibility (1/GPa) = 0.01905076
#
# Stress axis : x y z
#
# Youngs Moduli (GPa) = 66.44555 48.75111 87.03526
#
# Poissons Ratio (x) = 0.33983 0.07922
# Poissons Ratio (y) = 0.46318 0.53261
# Poissons Ratio (z) = 0.06048 0.29833
#
# Static dielectric constant tensor:
#      x y z
#    x 3.794220 0.000000 0.000000 
#    y 0.000000 3.653050 0.000000 
#    z 0.000000 0.000000 3.785890 
# 
# 
# High freq. dielectric constant tensor:
#      x y z
#    x 1.805330 0.000000 0.000000 
#    y 0.000000 1.807700 0.000000 
#    z 0.000000 0.000000 1.812710 
# 
# From -- ./inp_files/21616.got.cif
#   From: 2010.03.12/outbox.cif.g09.slc.cpg/sg40_11_cif.got.tgz:21616.got - 2010.04.14 01:38:03.
