data_PCOD8184019
_publ_section_title
;
Structure prediction by ZEFSAII (Michael W. Deem and Ramdas Pophale) SiO2 
 PCOD8184019
Probable space group: A M A 2
;
_chemical_formula_sum "Si O2"
_cell_formula_units_Z 64
_cell_length_a 25.951748
_cell_length_b 11.879820
_cell_length_c 9.295776
_cell_angle_alpha 90.000000
_cell_angle_beta 90.000000
_cell_angle_gamma 90.000000
_cell_volume 2865.907215
_symmetry_space_group_name_H-M "A M A 2"
_symmetry_group_IT_number 40
_symmetry_cell_setting 'orthorhombic'
loop_
_space_group_symop_operation_xyz
x,y,z
-x,-y,z
1/2-x,y,z
1/2+x,-y,z
x,1/2+y,1/2+z
-x,1/2-y,1/2+z
1/2-x,1/2+y,1/2+z
1/2+x,1/2-y,1/2+z
loop_
_atom_site_type_symbol
_atom_site_label
_atom_site_fract_x
_atom_site_fract_y
_atom_site_fract_z
Si Si1 0.413408 0.570849 0.478890
Si Si2 0.031181 0.160231 0.712759
Si Si3 0.193028 0.840320 0.317692
Si Si4 0.158149 0.430686 0.110367
Si Si5 0.076159 0.065088 0.445596
Si Si6 0.806002 0.916188 0.848673
Si Si7 0.914728 0.103066 0.211573
Si Si8 0.580056 0.248557 0.716132
O O1 0.444355 0.574869 0.329300
O O2 0.352101 0.558710 0.458196
O O3 0.431128 0.459742 0.565181
O O4 0.426112 0.684114 0.566690
O O5 0.031145 0.101476 0.555966
O O6 0.066389 0.270583 0.707165
O O7 0.973263 0.187854 0.754796
O O8 0.250000 0.881359 0.266185
O O9 0.189017 0.862200 0.489150
O O10 0.186357 0.708626 0.285387
O O11 0.147343 0.904375 0.233172
O O12 0.195933 0.493534 0.219539
O O13 0.123706 0.344777 0.203171
O O14 0.124696 0.529441 0.039895
O O15 0.094611 0.167847 0.345096
O O16 0.057633 0.960762 0.345639
O O17 0.750000 0.924002 0.926861
#
# Coordination Sequence:
#
# PCOD8184019 Si02
#       8
#     8   8   8   8   8   8   8   8
#     4  11  22  44  63  96 130 166 222 269 318 386
#     4  12  23  43  61  91 131 175 217 264 318 381
#     4  10  20  40  69  93 123 168 209 266 337 390
#     4  11  21  42  63  89 128 163 207 268 323 385
#     4  10  23  39  61  89 121 168 210 264 317 376
#     4  11  22  40  67  92 123 164 210 262 325 388
#     4  10  23  40  64  89 130 163 209 273 320 381
#     4  11  25  40  64  93 130 172 219 266 320 380
#
# _framework density 22.331499000000001
#
# number of rings (size 3 to 8) (size 9 to 14) (size 15 to 20)
#    0.000    1.250    3.750    1.875    1.750    4.000 
#    2.250    0.000    0.000    1.500    0.000    0.000 
#    0.000    0.000    0.000    0.000    0.000    0.000 
#
# Total GULP energy -396847.265826 kJ/mol
# GULP energy per Si atom -12401.477057 kJ/mol
# Density = 2.228067 g / cm^3
# Si number density = 22.331499 Si / 1000 Ang^3
#
#
#
# Elastic Constant Matrix: (Units=GPa)
#
#
# Indices 1 2 3 4 5 6 
#
# 1 28.6569 15.2514 -1.1658 0.0000 0.0000 0.0000
# 2 15.2514 93.4823 38.6130 0.0000 0.0000 0.0000
# 3 -1.1658 38.6130 94.4988 0.0000 0.0000 0.0000
# 4 0.0000 0.0000 0.0000 27.0443 0.0000 0.0000
# 5 0.0000 0.0000 0.0000 0.0000 22.2319 0.0000
# 6 0.0000 0.0000 0.0000 0.0000 0.0000 19.2936
#
#
#
# Elastic Compliance Matrix: (Units=1/GPa)
#
#
# Indices 1 2 3 4 5 6 
#
# 1 0.039279 -0.007950 0.003733 0.000000 0.000000 0.000000
# 2 -0.007950 0.014478 -0.006014 0.000000 0.000000 0.000000
# 3 0.003733 -0.006014 0.013086 0.000000 0.000000 0.000000
# 4 0.000000 0.000000 0.000000 0.036976 0.000000 0.000000
# 5 0.000000 0.000000 0.000000 0.000000 0.044980 0.000000
# 6 0.000000 0.000000 0.000000 0.000000 0.000000 0.051831
#
#
# Mechanical properties :
#
#
# Convention : Reuss Voigt Hill
#
# Bulk Modulus (GPa) = 21.56091 35.78171 28.67131
# Shear Modulus (GPa) = 21.13697 24.64326 22.89011
#
# Velocity S-wave (km/s) = 3.07988 3.32553 3.20506
# Velocity P-wave (km/s) = 4.72477 5.55007 5.15397
#
# Compressibility (1/GPa) = 0.04638023
#
# Stress axis : x y z
#
# Youngs Moduli (GPa) = 25.45917 69.06847 76.41993
#
# Poissons Ratio (x) = 0.54910 -0.28528
# Poissons Ratio (y) = 0.20240 0.45959
# Poissons Ratio (z) = -0.09504 0.41538
#
# Static dielectric constant tensor:
#      x y z
#    x 3.970780 0.000000 0.000000 
#    y 0.000000 4.087480 0.000000 
#    z 0.000000 0.000000 4.078630 
# 
# 
# High freq. dielectric constant tensor:
#      x y z
#    x 1.872730 0.000000 0.000000 
#    y 0.000000 1.889540 0.000000 
#    z 0.000000 0.000000 1.874520 
# 
# From -- ./inp_files/9426.got.cif
#   From: 2010.03.12/outbox.cif.g09.slc.cpg/sg40_5_cif.got.tgz:9426.got - 2010.04.14 01:38:03.
