data_PCOD8184234
_publ_section_title
;
Structure prediction by ZEFSAII (Michael W. Deem and Ramdas Pophale) SiO2 
 PCOD8184234
Probable space group: A M A 2
;
_chemical_formula_sum "Si O2"
_cell_formula_units_Z 56
_cell_length_a 19.275710
_cell_length_b 14.637013
_cell_length_c 9.749465
_cell_angle_alpha 90.000000
_cell_angle_beta 90.000000
_cell_angle_gamma 90.000000
_cell_volume 2750.702530
_symmetry_space_group_name_H-M "A M A 2"
_symmetry_group_IT_number 40
_symmetry_cell_setting 'orthorhombic'
loop_
_space_group_symop_operation_xyz
x,y,z
-x,-y,z
1/2-x,y,z
1/2+x,-y,z
x,1/2+y,1/2+z
-x,1/2-y,1/2+z
1/2-x,1/2+y,1/2+z
1/2+x,1/2-y,1/2+z
loop_
_atom_site_type_symbol
_atom_site_label
_atom_site_fract_x
_atom_site_fract_y
_atom_site_fract_z
Si Si1 0.830988 0.830355 0.699470
Si Si2 0.172270 0.320870 0.928000
Si Si3 0.170818 0.485617 0.351175
Si Si4 0.039675 0.412737 0.864796
Si Si5 0.427340 0.728925 0.949957
Si Si6 0.056132 0.429685 0.542200
Si Si7 0.672807 0.708564 0.231291
O O1 0.750000 0.833111 0.653436
O O2 0.843641 0.748735 0.805868
O O3 0.881647 0.813402 0.571943
O O4 0.854097 0.924958 0.769384
O O5 0.250000 0.362166 0.915381
O O6 0.117231 0.403748 0.925310
O O7 0.164703 0.267123 0.071401
O O8 0.250000 0.497425 0.396533
O O9 0.130239 0.469497 0.493837
O O10 0.158612 0.399373 0.251675
O O11 0.049395 0.423639 0.703830
O O12 0.000000 0.500000 0.926729
O O13 0.995994 0.325940 0.912819
O O14 0.379921 0.728663 0.814630
O O15 0.455382 0.829352 0.982107
O O16 0.000000 0.500000 0.480840
O O17 0.750000 0.732070 0.283838
#
# Coordination Sequence:
#
# PCOD8184234 Si02
#       7
#     8   8   8   8   8   8   8
#     4  10  21  39  66  97 123 163 216 263 318 384
#     4  10  22  40  63  88 124 164 207 258 315 380
#     4   9  20  39  66  94 122 156 209 264 316 379
#     4  11  26  42  60  92 129 168 217 261 320 384
#     4  11  23  40  65  91 126 170 205 273 317 380
#     4  10  23  41  60  89 126 167 210 262 314 385
#     4   9  20  39  63  92 124 161 202 256 320 380
#
# _framework density 20.358435
#
# number of rings (size 3 to 8) (size 9 to 14) (size 15 to 20)
#    0.000    2.000    1.429    0.429    6.000    2.286 
#    2.571    0.714    0.000    0.857    0.000    0.000 
#    0.000    0.000    0.000    0.000    0.000    0.000 
#
# Total GULP energy -347159.746730 kJ/mol
# GULP energy per Si atom -12398.562383 kJ/mol
# Density = 2.031210 g / cm^3
# Si number density = 20.358435 Si / 1000 Ang^3
#
#
#
# Elastic Constant Matrix: (Units=GPa)
#
#
# Indices 1 2 3 4 5 6 
#
# 1 133.6131 62.9867 60.3747 0.0000 0.0000 0.0000
# 2 62.9867 96.5780 30.6211 0.0000 0.0000 0.0000
# 3 60.3747 30.6211 98.3696 0.0000 0.0000 0.0000
# 4 0.0000 0.0000 0.0000 20.9043 0.0000 0.0000
# 5 0.0000 0.0000 0.0000 0.0000 34.3508 0.0000
# 6 0.0000 0.0000 0.0000 0.0000 0.0000 29.3653
#
#
#
# Elastic Compliance Matrix: (Units=1/GPa)
#
#
# Indices 1 2 3 4 5 6 
#
# 1 0.013491 -0.006849 -0.006148 0.000000 0.000000 0.000000
# 2 -0.006849 0.014966 -0.000455 0.000000 0.000000 0.000000
# 3 -0.006148 -0.000455 0.014081 0.000000 0.000000 0.000000
# 4 0.000000 0.000000 0.000000 0.047837 0.000000 0.000000
# 5 0.000000 0.000000 0.000000 0.000000 0.029111 0.000000
# 6 0.000000 0.000000 0.000000 0.000000 0.000000 0.034054
#
#
# Mechanical properties :
#
#
# Convention : Reuss Voigt Hill
#
# Bulk Modulus (GPa) = 63.96749 70.72510 67.34629
# Shear Modulus (GPa) = 26.93155 28.56263 27.74709
#
# Velocity S-wave (km/s) = 3.64107 3.74971 3.69579
# Velocity P-wave (km/s) = 7.01180 7.31864 7.16686
#
# Compressibility (1/GPa) = 0.01563294
#
# Stress axis : x y z
#
# Youngs Moduli (GPa) = 74.12147 66.81982 71.01883
#
# Poissons Ratio (x) = 0.45768 0.43664
# Poissons Ratio (y) = 0.50769 0.03229
# Poissons Ratio (z) = 0.45572 0.03038
#
# Static dielectric constant tensor:
#      x y z
#    x 3.925460 0.000000 0.000000 
#    y 0.000000 3.718800 0.000000 
#    z 0.000000 0.000000 3.627560 
# 
# 
# High freq. dielectric constant tensor:
#      x y z
#    x 1.806300 0.000000 0.000000 
#    y 0.000000 1.788110 0.000000 
#    z 0.000000 0.000000 1.794910 
# 
# From -- ./inp_files/8290.got.cif
#   From: 2010.03.12/outbox.cif.g09.slc.cpg/sg40_5_cif.got.tgz:8290.got - 2010.04.14 01:38:03.
