data_PCOD8184612
_publ_section_title
;
Structure prediction by ZEFSAII (Michael W. Deem and Ramdas Pophale) SiO2 
 PCOD8184612
Probable space group: A M A 2
;
_chemical_formula_sum "Si O2"
_cell_formula_units_Z 44
_cell_length_a 13.406355
_cell_length_b 20.258763
_cell_length_c 8.210524
_cell_angle_alpha 90.000000
_cell_angle_beta 90.000000
_cell_angle_gamma 90.000000
_cell_volume 2229.946861
_symmetry_space_group_name_H-M "A M A 2"
_symmetry_group_IT_number 40
_symmetry_cell_setting 'orthorhombic'
loop_
_space_group_symop_operation_xyz
x,y,z
-x,-y,z
1/2-x,y,z
1/2+x,-y,z
x,1/2+y,1/2+z
-x,1/2-y,1/2+z
1/2-x,1/2+y,1/2+z
1/2+x,1/2-y,1/2+z
loop_
_atom_site_type_symbol
_atom_site_label
_atom_site_fract_x
_atom_site_fract_y
_atom_site_fract_z
Si Si1 0.750000 0.877640 0.709530
Si Si2 0.250000 0.515084 0.782227
Si Si3 0.250000 0.145119 0.084356
Si Si4 0.944993 0.168056 0.439346
Si Si5 0.916745 0.448104 0.032095
Si Si6 0.591938 0.260122 0.736376
Si Si7 0.750000 0.129943 0.265893
Si Si8 0.750000 0.743926 0.502802
O O1 0.847935 0.922919 0.681227
O O2 0.750000 0.816093 0.584993
O O3 0.750000 0.849911 0.890520
O O4 0.250000 0.569739 0.641761
O O5 0.250000 0.444078 0.691877
O O6 0.151692 0.519946 0.893046
O O7 0.349044 0.180706 0.148934
O O8 0.925648 0.200831 0.613266
O O9 0.843332 0.135916 0.383866
O O10 0.030617 0.114296 0.452976
O O11 0.982964 0.218575 0.300464
O O12 0.000000 0.500000 0.096130
O O13 0.652351 0.234807 0.892958
O O14 0.750000 0.184689 0.128804
#
# Coordination Sequence:
#
# PCOD8184612 Si02
#       8
#     4   4   4   8   8   8   4   4
#     4  11  23  43  69  96 131 170 222 271 325 389
#     4  11  22  45  66  89 127 176 218 259 314 399
#     4  11  23  44  68  95 130 173 213 270 323 393
#     4  12  23  40  66  98 126 169 218 270 322 387
#     4  11  22  44  67  89 128 176 219 259 322 389
#     4  11  23  40  68  95 131 166 215 270 332 383
#     4  12  25  39  66  96 134 170 216 273 321 382
#     4  11  21  45  61  96 134 167 211 277 331 381
#
# _framework density 19.731414000000001
#
# number of rings (size 3 to 8) (size 9 to 14) (size 15 to 20)
#    0.000    0.727    5.455    4.364    2.545    0.000 
#    3.273    0.909    0.000    0.000    0.000    0.000 
#    0.000    0.000    0.000    0.000    0.000    0.000 
#
# Total GULP energy -272867.793646 kJ/mol
# GULP energy per Si atom -12403.081529 kJ/mol
# Density = 1.968650 g / cm^3
# Si number density = 19.731414 Si / 1000 Ang^3
#
#
#
# Elastic Constant Matrix: (Units=GPa)
#
#
# Indices 1 2 3 4 5 6 
#
# 1 119.9951 41.1557 35.1682 0.0000 0.0000 0.0000
# 2 41.1557 118.1185 38.0948 0.0000 0.0000 0.0000
# 3 35.1682 38.0948 99.1375 0.0000 0.0000 0.0000
# 4 0.0000 0.0000 0.0000 32.4179 0.0000 0.0000
# 5 0.0000 0.0000 0.0000 0.0000 -21.7039 0.0000
# 6 0.0000 0.0000 0.0000 0.0000 0.0000 20.5323
#
#
#
# Elastic Compliance Matrix: (Units=1/GPa)
#
#
# Indices 1 2 3 4 5 6 
#
# 1 0.009986 -0.002668 -0.002518 0.000000 0.000000 0.000000
# 2 -0.002668 0.010376 -0.003041 0.000000 0.000000 0.000000
# 3 -0.002518 -0.003041 0.012149 0.000000 0.000000 0.000000
# 4 0.000000 0.000000 0.000000 0.030847 0.000000 0.000000
# 5 0.000000 0.000000 0.000000 0.000000 -0.046075 0.000000
# 6 0.000000 0.000000 0.000000 0.000000 0.000000 0.048704
#
#
# Mechanical properties :
#
#
# Convention : Reuss Voigt Hill
#
# Bulk Modulus (GPa) = 62.26963 62.89873 62.58418
# Shear Modulus (GPa) = 56.95223 21.10473 39.02848
#
# Velocity S-wave (km/s) = 5.37833 3.27402 4.45228
# Velocity P-wave (km/s) = 8.37829 6.79992 7.63003
#
# Compressibility (1/GPa) = 0.01605919
#
# Stress axis : x y z
#
# Youngs Moduli (GPa) = 100.13567 96.37365 82.31414
#
# Poissons Ratio (x) = 0.25709 0.20723
# Poissons Ratio (y) = 0.26712 0.25031
# Poissons Ratio (z) = 0.25210 0.29306
#
# Static dielectric constant tensor:
#      x y z
#    x 3.900970 0.000000 0.000000 
#    y 0.000000 3.647950 0.000000 
#    z 0.000000 0.000000 3.408270 
# 
# 
# High freq. dielectric constant tensor:
#      x y z
#    x 1.790210 0.000000 0.000000 
#    y 0.000000 1.773330 0.000000 
#    z 0.000000 0.000000 1.756410 
# 
# From -- ./inp_files/6413.got.cif
#   From: 2010.03.12/outbox.cif.g09.slc.cpg/sg40_4_cif.got.tgz:6413.got - 2010.04.14 01:38:03.
