data_PCOD8184837
_publ_section_title
;
Structure prediction by ZEFSAII (Michael W. Deem and Ramdas Pophale) SiO2 
 PCOD8184837
Probable space group: A B A 2
;
_chemical_formula_sum "Si O2"
_cell_formula_units_Z 48
_cell_length_a 5.225020
_cell_length_b 13.139972
_cell_length_c 27.350118
_cell_angle_alpha 90.000000
_cell_angle_beta 90.000000
_cell_angle_gamma 90.000000
_cell_volume 1877.766563
_symmetry_space_group_name_H-M "A B A 2"
_symmetry_group_IT_number 41
_symmetry_cell_setting 'orthorhombic'
loop_
_space_group_symop_operation_xyz
x,y,z
-x,-y,z
1/2-x,y,1/2+z
1/2+x,-y,1/2+z
x,1/2+y,1/2+z
-x,1/2-y,1/2+z
1/2-x,1/2+y,z
1/2+x,1/2-y,z
loop_
_atom_site_type_symbol
_atom_site_label
_atom_site_fract_x
_atom_site_fract_y
_atom_site_fract_z
Si Si1 0.438379 0.617022 0.750000
Si Si2 0.940248 0.613140 0.705244
Si Si3 0.139339 0.640451 0.954296
Si Si4 0.638215 0.631336 0.995582
Si Si5 0.754199 0.434120 0.352579
Si Si6 0.803078 0.185367 0.103371
O O1 0.500000 0.500000 0.736869
O O2 0.717576 0.667456 0.738540
O O3 0.339806 0.631101 0.805400
O O4 0.219078 0.666218 0.714276
O O5 0.853769 0.611148 0.648898
O O6 0.000000 0.500000 0.724425
O O7 0.367814 0.578833 0.981844
O O8 0.094959 0.752211 0.976938
O O9 0.188268 0.644085 0.896202
O O10 0.874115 0.580847 0.965901
O O11 0.674384 0.622189 0.053497
O O12 0.500000 0.500000 0.340309
O O13 0.000000 0.500000 0.368760
O O14 0.513762 0.225847 0.105453
#
# Coordination Sequence:
#
# PCOD8184837 Si02
#       6
#     8   8   8   8   8   8
#     4   9  18  36  58  83 115 155 189 230 299 352
#     4  10  21  37  61  88 117 153 199 246 290 352
#     4  10  19  35  58  81 109 148 204 229 281 351
#     4  10  19  37  59  78 105 162 196 230 289 352
#     4  11  21  35  59  91 117 152 193 240 292 356
#     4  12  21  38  64  87 114 162 205 239 297 365
#
# _framework density 25.562280999999999
#
# number of rings (size 3 to 8) (size 9 to 14) (size 15 to 20)
#    0.000    1.667    3.333    4.500    0.000    0.000 
#    0.000    2.500   22.000    0.000    0.000    0.000 
#    0.000    0.000    0.000    0.000    0.000    0.000 
#
# Total GULP energy -297403.221963 kJ/mol
# GULP energy per Si atom -12391.800915 kJ/mol
# Density = 2.550410 g / cm^3
# Si number density = 25.562281 Si / 1000 Ang^3
#
#
#
# Elastic Constant Matrix: (Units=GPa)
#
#
# Indices 1 2 3 4 5 6 
#
# 1 240.7503 1.5534 64.9749 0.0000 0.0000 0.0000
# 2 1.5534 25.1275 2.5603 0.0000 0.0000 0.0000
# 3 64.9749 2.5603 195.8474 0.0000 0.0000 0.0000
# 4 0.0000 0.0000 0.0000 33.5702 0.0000 0.0000
# 5 0.0000 0.0000 0.0000 0.0000 50.2351 0.0000
# 6 0.0000 0.0000 0.0000 0.0000 0.0000 0.6750
#
#
#
# Elastic Compliance Matrix: (Units=1/GPa)
#
#
# Indices 1 2 3 4 5 6 
#
# 1 0.004563 -0.000128 -0.001512 0.000000 0.000000 0.000000
# 2 -0.000128 0.039854 -0.000479 0.000000 0.000000 0.000000
# 3 -0.001512 -0.000479 0.005614 0.000000 0.000000 0.000000
# 4 0.000000 0.000000 0.000000 0.029788 0.000000 0.000000
# 5 0.000000 0.000000 0.000000 0.000000 0.019906 0.000000
# 6 0.000000 0.000000 0.000000 0.000000 0.000000 1.481577
#
#
# Mechanical properties :
#
#
# Convention : Reuss Voigt Hill
#
# Bulk Modulus (GPa) = 21.83738 66.65583 44.24660
# Shear Modulus (GPa) = 3.12343 43.07183 23.09763
#
# Velocity S-wave (km/s) = 1.10659 4.10930 3.00923
# Velocity P-wave (km/s) = 3.19282 6.97478 5.42410
#
# Compressibility (1/GPa) = 0.04579304
#
# Stress axis : x y z
#
# Youngs Moduli (GPa) = 219.17431 25.09179 178.12913
#
# Poissons Ratio (x) = 0.00321 0.26934
# Poissons Ratio (y) = 0.02805 0.08524
# Poissons Ratio (z) = 0.33140 0.01201
#
# Static dielectric constant tensor:
#      x y z
#    x 6.120540 0.000000 0.000000 
#    y 0.000000 4.090680 0.000000 
#    z 0.000000 0.000000 4.487700 
# 
# 
# High freq. dielectric constant tensor:
#      x y z
#    x 2.070140 0.000000 0.000000 
#    y 0.000000 1.992760 0.000000 
#    z 0.000000 0.000000 2.016140 
# 
# From -- ./inp_files/10950.got.cif
#   From: 2010.03.12/outbox.cif.g09.slc.cpg/sg41_6_cif.got.tgz:10950.got - 2010.04.14 01:55:53.
