data_PCOD8184804
_publ_section_title
;
Structure prediction by ZEFSAII (Michael W. Deem and Ramdas Pophale) SiO2 
 PCOD8184804
Probable space group: A B A 2
;
_chemical_formula_sum "Si O2"
_cell_formula_units_Z 48
_cell_length_a 18.437258
_cell_length_b 16.034303
_cell_length_c 9.136400
_cell_angle_alpha 90.000000
_cell_angle_beta 90.000000
_cell_angle_gamma 90.000000
_cell_volume 2700.980970
_symmetry_space_group_name_H-M "A B A 2"
_symmetry_group_IT_number 41
_symmetry_cell_setting 'orthorhombic'
loop_
_space_group_symop_operation_xyz
x,y,z
-x,-y,z
1/2-x,y,1/2+z
1/2+x,-y,1/2+z
x,1/2+y,1/2+z
-x,1/2-y,1/2+z
1/2-x,1/2+y,z
1/2+x,1/2-y,z
loop_
_atom_site_type_symbol
_atom_site_label
_atom_site_fract_x
_atom_site_fract_y
_atom_site_fract_z
Si Si1 0.327570 0.651758 0.807930
Si Si2 0.708731 0.587165 0.966373
Si Si3 0.080380 0.023530 0.961418
Si Si4 0.417592 0.498840 0.300954
Si Si5 0.824275 0.658651 0.762593
Si Si6 0.297139 0.075023 0.994690
O O1 0.397034 0.609597 0.884555
O O2 0.346654 0.749100 0.808376
O O3 0.317888 0.619722 0.643839
O O4 0.254625 0.634368 0.899042
O O5 0.633937 0.549093 0.903658
O O6 0.748682 0.633756 0.836653
O O7 0.756395 0.511308 0.033126
O O8 0.690647 0.654643 0.090098
O O9 0.087108 0.033918 0.136208
O O10 0.000000 0.000000 0.911478
O O11 0.500000 0.500000 0.358220
O O12 0.388527 0.404011 0.308507
O O13 0.370247 0.558689 0.403403
#
# Coordination Sequence:
#
# PCOD8184804 Si02
#       6
#     8   8   8   8   8   8
#     4  11  20  32  51  79 102 126 166 217 252 286
#     4   9  17  32  52  72  96 133 166 197 247 305
#     4   9  18  34  55  73 100 139 172 199 246 309
#     4   9  19  37  55  71 100 141 171 198 249 311
#     4  10  19  32  51  76 101 126 166 214 251 289
#     4  10  19  33  54  75 101 133 169 203 249 306
#
# _framework density 17.771321
#
# number of rings (size 3 to 8) (size 9 to 14) (size 15 to 20)
#    0.000    2.333    0.000    6.000    0.000    0.667 
#    0.000    6.667    0.000    0.000    0.000    0.000 
#    0.000    0.000    0.000    0.000    0.000    0.000 
#
# Total GULP energy -297627.919252 kJ/mol
# GULP energy per Si atom -12401.163302 kJ/mol
# Density = 1.773087 g / cm^3
# Si number density = 17.771321 Si / 1000 Ang^3
#
#
#
# Elastic Constant Matrix: (Units=GPa)
#
#
# Indices 1 2 3 4 5 6 
#
# 1 145.5522 50.5029 43.6918 0.0000 0.0000 0.0000
# 2 50.5029 121.1334 50.5111 0.0000 0.0000 0.0000
# 3 43.6918 50.5111 72.8430 0.0000 0.0000 0.0000
# 4 0.0000 0.0000 0.0000 24.1119 0.0000 0.0000
# 5 0.0000 0.0000 0.0000 0.0000 27.9941 0.0000
# 6 0.0000 0.0000 0.0000 0.0000 0.0000 14.5286
#
#
#
# Elastic Compliance Matrix: (Units=1/GPa)
#
#
# Indices 1 2 3 4 5 6 
#
# 1 0.008726 -0.002048 -0.003814 0.000000 0.000000 0.000000
# 2 -0.002048 0.012094 -0.007158 0.000000 0.000000 0.000000
# 3 -0.003814 -0.007158 0.020979 0.000000 0.000000 0.000000
# 4 0.000000 0.000000 0.000000 0.041473 0.000000 0.000000
# 5 0.000000 0.000000 0.000000 0.000000 0.035722 0.000000
# 6 0.000000 0.000000 0.000000 0.000000 0.000000 0.068830
#
#
# Mechanical properties :
#
#
# Convention : Reuss Voigt Hill
#
# Bulk Modulus (GPa) = 63.45231 69.88226 66.66728
# Shear Modulus (GPa) = 22.81899 26.31512 24.56705
#
# Velocity S-wave (km/s) = 3.58723 3.85224 3.72210
# Velocity P-wave (km/s) = 7.27599 7.69381 7.48782
#
# Compressibility (1/GPa) = 0.01575987
#
# Stress axis : x y z
#
# Youngs Moduli (GPa) = 114.60399 82.68679 47.66599
#
# Poissons Ratio (x) = 0.16931 0.18179
# Poissons Ratio (y) = 0.23466 0.34119
# Poissons Ratio (z) = 0.43709 0.59187
#
# Static dielectric constant tensor:
#      x y z
#    x 3.403830 0.000000 0.000000 
#    y 0.000000 3.206640 0.000000 
#    z 0.000000 0.000000 3.254000 
# 
# 
# High freq. dielectric constant tensor:
#      x y z
#    x 1.684640 0.000000 0.000000 
#    y 0.000000 1.674610 0.000000 
#    z 0.000000 0.000000 1.689490 
# 
# From -- ./inp_files/3022.got.cif
#   From: 2010.03.12/outbox.cif.g09.slc.cpg/sg41_2_cif.got.tgz:3022.got - 2010.04.14 01:55:53.
