data_PCOD8184156
_publ_section_title
;
Structure prediction by ZEFSAII (Michael W. Deem and Ramdas Pophale) SiO2 
 PCOD8184156
Probable space group: A M A 2
;
_chemical_formula_sum "Si O2"
_cell_formula_units_Z 64
_cell_length_a 14.814611
_cell_length_b 16.562996
_cell_length_c 12.095485
_cell_angle_alpha 90.000000
_cell_angle_beta 90.000000
_cell_angle_gamma 90.000000
_cell_volume 2967.921682
_symmetry_space_group_name_H-M "A M A 2"
_symmetry_group_IT_number 40
_symmetry_cell_setting 'orthorhombic'
loop_
_space_group_symop_operation_xyz
x,y,z
-x,-y,z
1/2-x,y,z
1/2+x,-y,z
x,1/2+y,1/2+z
-x,1/2-y,1/2+z
1/2-x,1/2+y,1/2+z
1/2+x,1/2-y,1/2+z
loop_
_atom_site_type_symbol
_atom_site_label
_atom_site_fract_x
_atom_site_fract_y
_atom_site_fract_z
Si Si1 0.849888 0.376076 0.395690
Si Si2 0.851070 0.016674 0.504191
Si Si3 0.851435 0.594461 0.780823
Si Si4 0.645041 0.309026 0.730724
Si Si5 0.024446 0.274160 0.863939
Si Si6 0.399827 0.030241 0.110754
Si Si7 0.923046 0.672726 0.092775
Si Si8 0.439097 0.071257 0.692575
O O1 0.750000 0.337017 0.406597
O O2 0.930701 0.312025 0.392493
O O3 0.859669 0.441811 0.493654
O O4 0.855483 0.420030 0.276306
O O5 0.750000 0.983632 0.499738
O O6 0.885278 0.034135 0.379090
O O7 0.855024 0.097763 0.578799
O O8 0.910064 0.948851 0.566113
O O9 0.750000 0.624198 0.808370
O O10 0.914913 0.674000 0.776618
O O11 0.849540 0.547033 0.664171
O O12 0.750000 0.311606 0.769202
O O13 0.580015 0.270907 0.824554
O O14 0.609546 0.397304 0.698709
O O15 0.635302 0.251554 0.623312
O O16 0.021983 0.318521 0.980256
O O17 0.500000 0.000000 0.092341
O O18 0.999657 0.653035 0.185792
O O19 0.500000 0.000000 0.742082
#
# Coordination Sequence:
#
# PCOD8184156 Si02
#       8
#     8   8   8   8   8   8   8   8
#     4  12  24  41  66  94 129 176 220 265 329 411
#     4   9  19  35  61  93 123 159 211 270 325 390
#     4  10  21  39  63  95 130 167 213 270 333 398
#     4  12  24  42  68  95 128 178 233 282 342 417
#     4  11  23  41  66  96 131 169 221 278 338 394
#     4  12  25  42  66  95 136 177 226 281 343 411
#     4  10  21  39  65  89 125 167 220 273 336 393
#     4  10  21  38  60  87 125 166 209 264 325 390
#
# _framework density 21.563911000000001
#
# number of rings (size 3 to 8) (size 9 to 14) (size 15 to 20)
#    0.000    1.250    3.750    2.625    1.750    1.500 
#    0.000    0.625    0.000    1.500    0.000    0.000 
#    0.000    0.000    0.000    0.000    0.000    0.000 
#
# Total GULP energy -396579.650558 kJ/mol
# GULP energy per Si atom -12393.114080 kJ/mol
# Density = 2.151483 g / cm^3
# Si number density = 21.563911 Si / 1000 Ang^3
#
#
#
# Elastic Constant Matrix: (Units=GPa)
#
#
# Indices 1 2 3 4 5 6 
#
# 1 127.5989 26.8107 36.1499 0.0000 0.0000 0.0000
# 2 26.8107 77.1557 19.9071 0.0000 0.0000 0.0000
# 3 36.1499 19.9071 84.0686 0.0000 0.0000 0.0000
# 4 0.0000 0.0000 0.0000 28.4063 0.0000 0.0000
# 5 0.0000 0.0000 0.0000 0.0000 29.6301 0.0000
# 6 0.0000 0.0000 0.0000 0.0000 0.0000 26.8153
#
#
#
# Elastic Compliance Matrix: (Units=1/GPa)
#
#
# Indices 1 2 3 4 5 6 
#
# 1 0.009306 -0.002345 -0.003446 0.000000 0.000000 0.000000
# 2 -0.002345 0.014395 -0.002400 0.000000 0.000000 0.000000
# 3 -0.003446 -0.002400 0.013945 0.000000 0.000000 0.000000
# 4 0.000000 0.000000 0.000000 0.035203 0.000000 0.000000
# 5 0.000000 0.000000 0.000000 0.000000 0.033749 0.000000
# 6 0.000000 0.000000 0.000000 0.000000 0.000000 0.037292
#
#
# Mechanical properties :
#
#
# Convention : Reuss Voigt Hill
#
# Bulk Modulus (GPa) = 47.02911 50.50651 48.76781
# Shear Modulus (GPa) = 29.87530 30.70070 30.28800
#
# Velocity S-wave (km/s) = 3.72618 3.77730 3.75182
# Velocity P-wave (km/s) = 6.35366 6.51894 6.43683
#
# Compressibility (1/GPa) = 0.02126343
#
# Stress axis : x y z
#
# Youngs Moduli (GPa) = 107.45635 69.46927 71.70777
#
# Poissons Ratio (x) = 0.16287 0.24714
# Poissons Ratio (y) = 0.25193 0.17213
# Poissons Ratio (z) = 0.37035 0.16676
#
# Static dielectric constant tensor:
#      x y z
#    x 3.830900 0.000000 0.000000 
#    y 0.000000 3.843770 0.000000 
#    z 0.000000 0.000000 3.868990 
# 
# 
# High freq. dielectric constant tensor:
#      x y z
#    x 1.844500 0.000000 0.000000 
#    y 0.000000 1.839590 0.000000 
#    z 0.000000 0.000000 1.839800 
# 
# From -- ./inp_files/12422.got.cif
#   From: 2010.03.12/outbox.cif.g09.slc.cpg/sg40_7_cif.got.tgz:12422.got - 2010.04.14 01:38:03.
