data_PCOD8184479
_publ_section_title
;
Structure prediction by ZEFSAII (Michael W. Deem and Ramdas Pophale) SiO2 
 PCOD8184479
Probable space group: A M A 2
;
_chemical_formula_sum "Si O2"
_cell_formula_units_Z 24
_cell_length_a 17.786823
_cell_length_b 7.695029
_cell_length_c 7.078688
_cell_angle_alpha 90.000000
_cell_angle_beta 90.000000
_cell_angle_gamma 90.000000
_cell_volume 968.860868
_symmetry_space_group_name_H-M "A M A 2"
_symmetry_group_IT_number 40
_symmetry_cell_setting 'orthorhombic'
loop_
_space_group_symop_operation_xyz
x,y,z
-x,-y,z
1/2-x,y,z
1/2+x,-y,z
x,1/2+y,1/2+z
-x,1/2-y,1/2+z
1/2-x,1/2+y,1/2+z
1/2+x,1/2-y,1/2+z
loop_
_atom_site_type_symbol
_atom_site_label
_atom_site_fract_x
_atom_site_fract_y
_atom_site_fract_z
Si Si1 0.049446 0.648867 0.196600
Si Si2 0.161628 0.503584 0.956008
Si Si3 0.411707 0.153493 0.106165
O O1 0.073700 0.573891 0.400560
O O2 0.000000 0.500000 0.094926
O O3 0.994566 0.816219 0.202729
O O4 0.124146 0.668495 0.066636
O O5 0.250000 0.524274 0.963494
O O6 0.133529 0.516127 0.737374
O O7 0.137169 0.327740 0.063744
#
# Coordination Sequence:
#
# PCOD8184479 Si02
#       3
#     8   8   8
#     4  10  23  39  67  96 129 178 235 289 349 427
#     4  11  25  42  63 100 142 179 233 299 363 423
#     4  11  23  42  69  97 131 184 236 290 354 428
#
# _framework density 24.771357999999999
#
# number of rings (size 3 to 8) (size 9 to 14) (size 15 to 20)
#    0.000    1.333    3.333    1.000    4.667    2.667 
#    0.000    0.000    0.000    0.000    0.000    0.000 
#    0.000    0.000    0.000    0.000    0.000    0.000 
#
# Total GULP energy -148661.001075 kJ/mol
# GULP energy per Si atom -12388.416756 kJ/mol
# Density = 2.471498 g / cm^3
# Si number density = 24.771358 Si / 1000 Ang^3
#
#
#
# Elastic Constant Matrix: (Units=GPa)
#
#
# Indices 1 2 3 4 5 6 
#
# 1 196.2319 9.1497 53.3054 0.0000 0.0000 0.0000
# 2 9.1497 23.2590 -1.9618 0.0000 0.0000 0.0000
# 3 53.3054 -1.9618 139.6497 0.0000 0.0000 0.0000
# 4 0.0000 0.0000 0.0000 33.1812 0.0000 0.0000
# 5 0.0000 0.0000 0.0000 0.0000 42.1177 0.0000
# 6 0.0000 0.0000 0.0000 0.0000 0.0000 21.1168
#
#
#
# Elastic Compliance Matrix: (Units=1/GPa)
#
#
# Indices 1 2 3 4 5 6 
#
# 1 0.005825 -0.002482 -0.002258 0.000000 0.000000 0.000000
# 2 -0.002482 0.044103 0.001567 0.000000 0.000000 0.000000
# 3 -0.002258 0.001567 0.008045 0.000000 0.000000 0.000000
# 4 0.000000 0.000000 0.000000 0.030138 0.000000 0.000000
# 5 0.000000 0.000000 0.000000 0.000000 0.023743 0.000000
# 6 0.000000 0.000000 0.000000 0.000000 0.000000 0.047356
#
#
# Mechanical properties :
#
#
# Convention : Reuss Voigt Hill
#
# Bulk Modulus (GPa) = 19.37020 53.34747 36.35883
# Shear Modulus (GPa) = 27.35763 39.19296 33.27530
#
# Velocity S-wave (km/s) = 3.32687 3.98199 3.66908
# Velocity P-wave (km/s) = 4.75331 6.53639 5.71482
#
# Compressibility (1/GPa) = 0.05162569
#
# Stress axis : x y z
#
# Youngs Moduli (GPa) = 171.66723 22.67442 124.30337
#
# Poissons Ratio (x) = 0.05628 0.28073
# Poissons Ratio (y) = 0.42608 -0.19478
# Poissons Ratio (z) = 0.38769 -0.03553
#
# Static dielectric constant tensor:
#      x y z
#    x 4.445920 0.000000 0.000000 
#    y 0.000000 4.223000 0.000000 
#    z 0.000000 0.000000 4.504940 
# 
# 
# High freq. dielectric constant tensor:
#      x y z
#    x 1.980820 0.000000 0.000000 
#    y 0.000000 1.968660 0.000000 
#    z 0.000000 0.000000 1.998460 
# 
# From -- ./inp_files/946.got.cif
#   From: 2010.03.12/outbox.cif.g09.slc.cpg/sg40_1_cif.got.tgz:946.got - 2010.04.14 01:38:03.
