data_PCOD8184924
_publ_section_title
;
Structure prediction by ZEFSAII (Michael W. Deem and Ramdas Pophale) SiO2 
 PCOD8184924
Probable space group: A B A 2
;
_chemical_formula_sum "Si O2"
_cell_formula_units_Z 56
_cell_length_a 7.730966
_cell_length_b 21.601747
_cell_length_c 17.197683
_cell_angle_alpha 90.000000
_cell_angle_beta 90.000000
_cell_angle_gamma 90.000000
_cell_volume 2872.053847
_symmetry_space_group_name_H-M "A B A 2"
_symmetry_group_IT_number 41
_symmetry_cell_setting 'orthorhombic'
loop_
_space_group_symop_operation_xyz
x,y,z
-x,-y,z
1/2-x,y,1/2+z
1/2+x,-y,1/2+z
x,1/2+y,1/2+z
-x,1/2-y,1/2+z
1/2-x,1/2+y,z
1/2+x,1/2-y,z
loop_
_atom_site_type_symbol
_atom_site_label
_atom_site_fract_x
_atom_site_fract_y
_atom_site_fract_z
Si Si1 0.750000 0.855244 0.974460
Si Si2 0.178681 0.834877 0.313546
Si Si3 0.178681 0.834877 0.135374
Si Si4 0.085676 0.744290 0.889301
Si Si5 0.430286 0.432825 0.018665
Si Si6 0.069714 0.932825 0.430254
Si Si7 0.414324 0.244290 0.559619
O O1 0.734981 0.809223 0.899227
O O2 0.576378 0.897035 0.980998
O O3 0.923622 0.897035 0.967922
O O4 0.765019 0.809223 0.049693
O O5 0.227949 0.846282 0.224460
O O6 0.343419 0.811023 0.363207
O O7 0.105167 0.898015 0.349279
O O8 0.039612 0.779856 0.321561
O O9 0.343419 0.811023 0.085713
O O10 0.039612 0.779856 0.127359
O O11 0.105167 0.898015 0.099641
O O12 1.000000 0.750000 0.974460
O O13 0.500000 0.500000 0.040671
O O14 0.250000 0.437943 0.974460
O O15 0.000000 0.000000 0.408249
#
# Coordination Sequence:
#
# PCOD8184924 Si02
#       7
#     8   8   8   8   8   8   8
#     4  10  20  36  60  90 118 148 206 266 288 350
#     4  11  23  36  58  93 128 158 190 251 324 372
#     4  11  23  36  58  93 128 158 190 251 324 372
#     4  11  19  37  62  89 122 160 203 245 302 371
#     4  11  23  40  64  88 112 162 219 261 297 358
#     4  11  23  40  64  88 112 162 219 261 297 358
#     4  11  19  37  62  89 122 160 203 245 302 371
#
# _framework density 19.498242000000001
#
# number of rings (size 3 to 8) (size 9 to 14) (size 15 to 20)
#    0.000    1.143    4.286    4.286    0.000    0.571 
#    0.000    0.000    0.000    0.857    0.000    0.000 
#    0.000    0.000    0.000    0.000    0.000    0.000 
#
# Total GULP energy -346939.575307 kJ/mol
# GULP energy per Si atom -12390.699118 kJ/mol
# Density = 1.945386 g / cm^3
# Si number density = 19.498242 Si / 1000 Ang^3
#
#
#
# Elastic Constant Matrix: (Units=GPa)
#
#
# Indices 1 2 3 4 5 6 
#
# 1 105.7338 52.3968 53.4229 0.0000 0.0000 0.0000
# 2 52.3968 135.2244 51.4822 0.0000 0.0000 0.0000
# 3 53.4229 51.4822 118.1284 0.0000 0.0000 0.0000
# 4 0.0000 0.0000 0.0000 17.8209 0.0000 0.0000
# 5 0.0000 0.0000 0.0000 0.0000 26.2105 0.0000
# 6 0.0000 0.0000 0.0000 0.0000 0.0000 44.8151
#
#
#
# Elastic Compliance Matrix: (Units=1/GPa)
#
#
# Indices 1 2 3 4 5 6 
#
# 1 0.013503 -0.003486 -0.004588 0.000000 0.000000 0.000000
# 2 -0.003486 0.009766 -0.002680 0.000000 0.000000 0.000000
# 3 -0.004588 -0.002680 0.011708 0.000000 0.000000 0.000000
# 4 0.000000 0.000000 0.000000 0.056114 0.000000 0.000000
# 5 0.000000 0.000000 0.000000 0.000000 0.038153 0.000000
# 6 0.000000 0.000000 0.000000 0.000000 0.000000 0.022314
#
#
# Mechanical properties :
#
#
# Convention : Reuss Voigt Hill
#
# Bulk Modulus (GPa) = 74.23382 74.85449 74.54415
# Shear Modulus (GPa) = 28.16052 31.22160 29.69106
#
# Velocity S-wave (km/s) = 3.80446 4.00591 3.90648
# Velocity P-wave (km/s) = 7.57980 7.73758 7.65909
#
# Compressibility (1/GPa) = 0.01347095
#
# Stress axis : x y z
#
# Youngs Moduli (GPa) = 74.05824 102.39654 85.41187
#
# Poissons Ratio (x) = 0.35691 0.39183
# Poissons Ratio (y) = 0.25813 0.22889
# Poissons Ratio (z) = 0.33975 0.27441
#
# Static dielectric constant tensor:
#      x y z
#    x 4.034710 0.000000 0.000000 
#    y 0.000000 3.849340 0.000000 
#    z 0.000000 0.000000 3.086080 
# 
# 
# High freq. dielectric constant tensor:
#      x y z
#    x 1.781650 0.000000 0.000000 
#    y 0.000000 1.762910 0.000000 
#    z 0.000000 0.000000 1.715600 
# 
# From -- ./inp_files/9790.got.cif
#   From: 2010.03.12/outbox.cif.g09.slc.cpg/sg41_5_cif.got.tgz:9790.got - 2010.04.14 01:55:53.
