data_PCOD8184443
_publ_section_title
;
Structure prediction by ZEFSAII (Michael W. Deem and Ramdas Pophale) SiO2 
 PCOD8184443
Probable space group: A M A 2
;
_chemical_formula_sum "Si O2"
_cell_formula_units_Z 32
_cell_length_a 17.477005
_cell_length_b 13.158102
_cell_length_c 4.955637
_cell_angle_alpha 90.000000
_cell_angle_beta 90.000000
_cell_angle_gamma 90.000000
_cell_volume 1139.619170
_symmetry_space_group_name_H-M "A M A 2"
_symmetry_group_IT_number 40
_symmetry_cell_setting 'orthorhombic'
loop_
_space_group_symop_operation_xyz
x,y,z
-x,-y,z
1/2-x,y,z
1/2+x,-y,z
x,1/2+y,1/2+z
-x,1/2-y,1/2+z
1/2-x,1/2+y,1/2+z
1/2+x,1/2-y,1/2+z
loop_
_atom_site_type_symbol
_atom_site_label
_atom_site_fract_x
_atom_site_fract_y
_atom_site_fract_z
Si Si1 0.586248 0.456788 0.588290
Si Si2 0.334998 0.741105 0.835090
Si Si3 0.336508 0.452628 0.073703
Si Si4 0.033415 0.801511 0.173028
O O1 0.624244 0.353638 0.698425
O O2 0.619624 0.479138 0.294348
O O3 0.494496 0.418877 0.586110
O O4 0.613018 0.543355 0.801008
O O5 0.250000 0.710353 0.926558
O O6 0.333527 0.834280 0.629973
O O7 0.378707 0.779873 0.102788
O O8 0.250000 0.495331 0.036667
O O9 0.016979 0.775606 0.483818
#
# Coordination Sequence:
#
# PCOD8184443 Si02
#       4
#     8   8   8   8
#     4  11  23  43  67  95 137 175 212 271 328 382
#     4  10  23  44  69  97 133 172 215 274 329 379
#     4  11  24  41  67 101 129 169 225 264 320 399
#     4  10  22  42  67  96 129 172 222 264 321 397
#
# _framework density 28.079559
#
# number of rings (size 3 to 8) (size 9 to 14) (size 15 to 20)
#    0.000    1.500    0.000    5.250    0.000    7.000 
#    0.000   21.250    0.000    0.000    0.000    0.000 
#    0.000    0.000    0.000    0.000    0.000    0.000 
#
# Total GULP energy -198479.003401 kJ/mol
# GULP energy per Si atom -12404.937713 kJ/mol
# Density = 2.801565 g / cm^3
# Si number density = 28.079559 Si / 1000 Ang^3
#
#
#
# Elastic Constant Matrix: (Units=GPa)
#
#
# Indices 1 2 3 4 5 6 
#
# 1 215.8672 -8.8295 62.8149 0.0000 0.0000 0.0000
# 2 -8.8295 89.1735 -11.7993 0.0000 0.0000 0.0000
# 3 62.8149 -11.7993 101.4023 0.0000 0.0000 0.0000
# 4 0.0000 0.0000 0.0000 50.8199 0.0000 0.0000
# 5 0.0000 0.0000 0.0000 0.0000 47.2014 0.0000
# 6 0.0000 0.0000 0.0000 0.0000 0.0000 26.2593
#
#
#
# Elastic Compliance Matrix: (Units=1/GPa)
#
#
# Indices 1 2 3 4 5 6 
#
# 1 0.005652 0.000098 -0.003490 0.000000 0.000000 0.000000
# 2 0.000098 0.011391 0.001265 0.000000 0.000000 0.000000
# 3 -0.003490 0.001265 0.012171 0.000000 0.000000 0.000000
# 4 0.000000 0.000000 0.000000 0.019677 0.000000 0.000000
# 5 0.000000 0.000000 0.000000 0.000000 0.021186 0.000000
# 6 0.000000 0.000000 0.000000 0.000000 0.000000 0.038082
#
#
# Mechanical properties :
#
#
# Convention : Reuss Voigt Hill
#
# Bulk Modulus (GPa) = 40.06464 54.53503 47.29983
# Shear Modulus (GPa) = 41.41381 49.13992 45.27687
#
# Velocity S-wave (km/s) = 3.84458 4.18787 4.01989
# Velocity P-wave (km/s) = 5.83154 6.54585 6.19899
#
# Compressibility (1/GPa) = 0.02495967
#
# Stress axis : x y z
#
# Youngs Moduli (GPa) = 176.92947 87.78747 82.16465
#
# Poissons Ratio (x) = -0.00859 0.28674
# Poissons Ratio (y) = -0.01732 -0.10393
# Poissons Ratio (z) = 0.61745 -0.11104
#
# Static dielectric constant tensor:
#      x y z
#    x 6.440600 0.000000 0.000000 
#    y 0.000000 5.911820 0.000000 
#    z 0.000000 0.000000 4.751340 
# 
# 
# High freq. dielectric constant tensor:
#      x y z
#    x 2.176940 0.000000 0.000000 
#    y 0.000000 2.195830 0.000000 
#    z 0.000000 0.000000 2.119450 
# 
# From -- ./inp_files/1628.got.cif
#   From: 2010.03.12/outbox.cif.g09.slc.cpg/sg40_1_cif.got.tgz:1628.got - 2010.04.14 01:38:03.
