data_PCOD8184338
_publ_section_title
;
Structure prediction by ZEFSAII (Michael W. Deem and Ramdas Pophale) SiO2 
 PCOD8184338
Probable space group: A M A 2
;
_chemical_formula_sum "Si O2"
_cell_formula_units_Z 40
_cell_length_a 10.027215
_cell_length_b 9.309554
_cell_length_c 21.749930
_cell_angle_alpha 90.000000
_cell_angle_beta 90.000000
_cell_angle_gamma 90.000000
_cell_volume 2030.332030
_symmetry_space_group_name_H-M "A M A 2"
_symmetry_group_IT_number 40
_symmetry_cell_setting 'orthorhombic'
loop_
_space_group_symop_operation_xyz
x,y,z
-x,-y,z
1/2-x,y,z
1/2+x,-y,z
x,1/2+y,1/2+z
-x,1/2-y,1/2+z
1/2-x,1/2+y,1/2+z
1/2+x,1/2-y,1/2+z
loop_
_atom_site_type_symbol
_atom_site_label
_atom_site_fract_x
_atom_site_fract_y
_atom_site_fract_z
Si Si1 0.250000 0.333275 0.553700
Si Si2 0.250000 0.865010 0.195333
Si Si3 0.250000 0.135402 0.992738
Si Si4 0.750000 0.566652 0.373421
Si Si5 0.750000 0.807700 0.810090
Si Si6 0.000000 0.500000 0.756070
Si Si7 0.475190 0.707702 0.860612
Si Si8 0.493627 0.660703 0.995870
O O1 0.250000 0.310184 0.626375
O O2 0.250000 0.505420 0.542325
O O3 0.377667 0.255723 0.525344
O O4 0.250000 0.726191 0.238502
O O5 0.384233 0.951082 0.210458
O O6 0.375240 0.240859 0.002596
O O7 0.250000 0.051926 0.927776
O O8 0.750000 0.479339 0.309874
O O9 0.615229 0.654608 0.372311
O O10 0.626464 0.746953 0.847854
O O11 0.071715 0.614706 0.801833
O O12 0.464190 0.623768 0.924651
O O13 0.500000 0.500000 0.027079
#
# Coordination Sequence:
#
# PCOD8184338 Si02
#       8
#     4   4   4   4   4   4   8   8
#     4  12  27  44  68  96 135 180 233 270 322 403
#     4  10  25  44  64  90 128 180 226 265 312 395
#     4  12  25  39  67  99 138 173 217 277 332 399
#     4  12  21  34  62 101 132 157 208 264 342 386
#     4  10  22  37  59  86 131 160 206 266 322 379
#     4  10  22  42  66  94 126 172 222 270 332 388
#     4  11  20  36  62  96 127 162 207 272 332 394
#     4  12  24  42  66 101 136 175 214 277 346 399
#
# _framework density 19.70121
#
# number of rings (size 3 to 8) (size 9 to 14) (size 15 to 20)
#    0.000    0.800    5.000    2.400    2.800    0.000 
#    0.000    4.000    4.400    0.000    0.000    0.000 
#    0.000    0.000    0.000    0.000    0.000    0.000 
#
# Total GULP energy -247784.816915 kJ/mol
# GULP energy per Si atom -12389.240846 kJ/mol
# Density = 1.965637 g / cm^3
# Si number density = 19.701210 Si / 1000 Ang^3
#
#
#
# Elastic Constant Matrix: (Units=GPa)
#
#
# Indices 1 2 3 4 5 6 
#
# 1 148.3578 65.4791 58.0735 0.0000 0.0000 0.0000
# 2 65.4791 147.2749 38.3337 0.0000 0.0000 0.0000
# 3 58.0735 38.3337 122.2045 0.0000 0.0000 0.0000
# 4 0.0000 0.0000 0.0000 20.2116 0.0000 0.0000
# 5 0.0000 0.0000 0.0000 0.0000 14.0563 0.0000
# 6 0.0000 0.0000 0.0000 0.0000 0.0000 43.0235
#
#
#
# Elastic Compliance Matrix: (Units=1/GPa)
#
#
# Indices 1 2 3 4 5 6 
#
# 1 0.009593 -0.003352 -0.003507 0.000000 0.000000 0.000000
# 2 -0.003352 0.008565 -0.001094 0.000000 0.000000 0.000000
# 3 -0.003507 -0.001094 0.010193 0.000000 0.000000 0.000000
# 4 0.000000 0.000000 0.000000 0.049476 0.000000 0.000000
# 5 0.000000 0.000000 0.000000 0.000000 0.071143 0.000000
# 6 0.000000 0.000000 0.000000 0.000000 0.000000 0.023243
#
#
# Mechanical properties :
#
#
# Convention : Reuss Voigt Hill
#
# Bulk Modulus (GPa) = 80.35624 82.40109 81.37867
# Shear Modulus (GPa) = 26.00548 32.52166 29.26357
#
# Velocity S-wave (km/s) = 3.63711 4.06734 3.85823
# Velocity P-wave (km/s) = 7.64945 7.99837 7.82586
#
# Compressibility (1/GPa) = 0.01244458
#
# Stress axis : x y z
#
# Youngs Moduli (GPa) = 104.24476 116.75296 98.10904
#
# Poissons Ratio (x) = 0.39137 0.34408
# Poissons Ratio (y) = 0.34944 0.10731
# Poissons Ratio (z) = 0.36560 0.12770
#
# Static dielectric constant tensor:
#      x y z
#    x 3.709080 0.000000 0.000000 
#    y 0.000000 4.069290 0.000000 
#    z 0.000000 0.000000 3.527850 
# 
# 
# High freq. dielectric constant tensor:
#      x y z
#    x 1.785350 0.000000 0.000000 
#    y 0.000000 1.781780 0.000000 
#    z 0.000000 0.000000 1.746990 
# 
# From -- ./inp_files/23896.got.cif
#   From: 2010.03.12/outbox.cif.g09.slc.cpg/sg40_12_cif.got.tgz:23896.got - 2010.04.14 01:38:03.
