data_PCOD8184512
_publ_section_title
;
Structure prediction by ZEFSAII (Michael W. Deem and Ramdas Pophale) SiO2 
 PCOD8184512
Probable space group: A M A 2
;
_chemical_formula_sum "Si O2"
_cell_formula_units_Z 64
_cell_length_a 17.505672
_cell_length_b 16.241193
_cell_length_c 11.317642
_cell_angle_alpha 90.000000
_cell_angle_beta 90.000000
_cell_angle_gamma 90.000000
_cell_volume 3217.752722
_symmetry_space_group_name_H-M "A M A 2"
_symmetry_group_IT_number 40
_symmetry_cell_setting 'orthorhombic'
loop_
_space_group_symop_operation_xyz
x,y,z
-x,-y,z
1/2-x,y,z
1/2+x,-y,z
x,1/2+y,1/2+z
-x,1/2-y,1/2+z
1/2-x,1/2+y,1/2+z
1/2+x,1/2-y,1/2+z
loop_
_atom_site_type_symbol
_atom_site_label
_atom_site_fract_x
_atom_site_fract_y
_atom_site_fract_z
Si Si1 0.066074 0.173695 0.530590
Si Si2 0.925800 0.461993 0.841924
Si Si3 0.661863 0.904036 0.122423
Si Si4 0.837660 0.577225 0.010595
Si Si5 0.905104 0.235371 0.606998
Si Si6 0.662864 0.020988 0.915104
Si Si7 0.914443 0.468291 0.193619
Si Si8 0.659905 0.709054 0.367395
O O1 0.042292 0.103546 0.436882
O O2 0.099231 0.123786 0.643561
O O3 0.129758 0.232124 0.472249
O O4 0.994530 0.225522 0.578464
O O5 0.869424 0.417497 0.753202
O O6 0.000000 0.500000 0.776520
O O7 0.882555 0.537066 0.903148
O O8 0.750000 0.880596 0.133866
O O9 0.618323 0.826465 0.065524
O O10 0.648308 0.986149 0.046230
O O11 0.750000 0.567582 0.979893
O O12 0.857744 0.672809 0.025875
O O13 0.856570 0.532377 0.133447
O O14 0.886737 0.223345 0.746374
O O15 0.750000 0.004689 0.876251
O O16 0.643822 0.117257 0.913316
O O17 0.606362 0.969327 0.831227
O O18 0.000000 0.500000 0.170266
O O19 0.750000 0.725488 0.346397
#
# Coordination Sequence:
#
# PCOD8184512 Si02
#       8
#     8   8   8   8   8   8   8   8
#     4  11  23  39  63  97 131 161 215 278 320 380
#     4  11  22  41  61  92 130 165 209 264 324 380
#     4  11  25  43  65  93 130 172 215 262 319 394
#     4  11  20  35  64  92 119 160 209 260 315 372
#     4  12  22  40  63  96 126 166 216 269 319 382
#     4  10  23  43  63  91 126 166 214 259 316 393
#     4  11  20  38  64  93 127 160 211 265 320 374
#     4  11  23  42  68  95 131 173 220 266 324 394
#
# _framework density 19.889658000000001
#
# number of rings (size 3 to 8) (size 9 to 14) (size 15 to 20)
#    0.000    1.000    5.000    2.625    0.000    6.000 
#    0.000    1.250    0.000    3.000    0.000    0.000 
#    0.000    0.000    0.000    0.000    0.000    0.000 
#
# Total GULP energy -396839.080544 kJ/mol
# GULP energy per Si atom -12401.221267 kJ/mol
# Density = 1.984439 g / cm^3
# Si number density = 19.889658 Si / 1000 Ang^3
#
#
#
# Elastic Constant Matrix: (Units=GPa)
#
#
# Indices 1 2 3 4 5 6 
#
# 1 79.0073 41.4782 45.1073 0.0000 0.0000 0.0000
# 2 41.4782 115.0822 39.4449 0.0000 0.0000 0.0000
# 3 45.1073 39.4449 70.2744 0.0000 0.0000 0.0000
# 4 0.0000 0.0000 0.0000 33.1611 0.0000 0.0000
# 5 0.0000 0.0000 0.0000 0.0000 33.5814 0.0000
# 6 0.0000 0.0000 0.0000 0.0000 0.0000 31.3073
#
#
#
# Elastic Compliance Matrix: (Units=1/GPa)
#
#
# Indices 1 2 3 4 5 6 
#
# 1 0.021166 -0.003680 -0.011521 0.000000 0.000000 0.000000
# 2 -0.003680 0.011399 -0.004036 0.000000 0.000000 0.000000
# 3 -0.011521 -0.004036 0.023890 0.000000 0.000000 0.000000
# 4 0.000000 0.000000 0.000000 0.030156 0.000000 0.000000
# 5 0.000000 0.000000 0.000000 0.000000 0.029778 0.000000
# 6 0.000000 0.000000 0.000000 0.000000 0.000000 0.031941
#
#
# Mechanical properties :
#
#
# Convention : Reuss Voigt Hill
#
# Bulk Modulus (GPa) = 55.61073 57.38052 56.49562
# Shear Modulus (GPa) = 25.93369 28.83220 27.38295
#
# Velocity S-wave (km/s) = 3.61484 3.81150 3.71447
# Velocity P-wave (km/s) = 6.74115 6.94853 6.84563
#
# Compressibility (1/GPa) = 0.01798214
#
# Stress axis : x y z
#
# Youngs Moduli (GPa) = 47.24452 87.72486 41.85821
#
# Poissons Ratio (x) = 0.32284 0.48223
# Poissons Ratio (y) = 0.17387 0.16895
# Poissons Ratio (z) = 0.54428 0.35407
#
# Static dielectric constant tensor:
#      x y z
#    x 3.594060 0.000000 0.000000 
#    y 0.000000 3.778190 0.000000 
#    z 0.000000 0.000000 3.470760 
# 
# 
# High freq. dielectric constant tensor:
#      x y z
#    x 1.780440 0.000000 0.000000 
#    y 0.000000 1.784030 0.000000 
#    z 0.000000 0.000000 1.761920 
# 
# From -- ./inp_files/13147.got.cif
#   From: 2010.03.12/outbox.cif.g09.slc.cpg/sg40_7_cif.got.tgz:13147.got - 2010.04.14 01:38:03.
