data_PCOD8184977
_publ_section_title
;
Structure prediction by ZEFSAII (Michael W. Deem and Ramdas Pophale) SiO2 
 PCOD8184977
Probable space group: A B A 2
;
_chemical_formula_sum "Si O2"
_cell_formula_units_Z 64
_cell_length_a 18.930389
_cell_length_b 9.210798
_cell_length_c 18.268329
_cell_angle_alpha 90.000000
_cell_angle_beta 90.000000
_cell_angle_gamma 90.000000
_cell_volume 3185.338719
_symmetry_space_group_name_H-M "A B A 2"
_symmetry_group_IT_number 41
_symmetry_cell_setting 'orthorhombic'
loop_
_space_group_symop_operation_xyz
x,y,z
-x,-y,z
1/2-x,y,1/2+z
1/2+x,-y,1/2+z
x,1/2+y,1/2+z
-x,1/2-y,1/2+z
1/2-x,1/2+y,z
1/2+x,1/2-y,z
loop_
_atom_site_type_symbol
_atom_site_label
_atom_site_fract_x
_atom_site_fract_y
_atom_site_fract_z
Si Si1 0.666005 0.089806 0.345970
Si Si2 0.189326 0.972231 0.008364
Si Si3 0.330745 0.301852 0.498695
Si Si4 0.055895 0.387021 0.586212
Si Si5 0.415402 0.402328 0.253475
Si Si6 0.194678 0.238085 0.834248
Si Si7 0.558321 0.775915 0.762104
Si Si8 0.039822 0.354020 0.103555
O O1 0.653963 0.065357 0.431242
O O2 0.724209 0.213968 0.332775
O O3 0.593807 0.147843 0.309971
O O4 0.690350 0.932804 0.315588
O O5 0.268105 0.913312 0.016368
O O6 0.191259 0.142869 0.026622
O O7 0.136879 0.895337 0.063703
O O8 0.342511 0.288761 0.410764
O O9 0.397759 0.364895 0.543184
O O10 0.058064 0.411898 0.671742
O O11 0.000000 0.500000 0.550552
O O12 0.023903 0.232337 0.564953
O O13 0.342741 0.319994 0.267375
O O14 0.477832 0.303509 0.290086
O O15 0.404687 0.568809 0.278864
O O16 0.566947 0.726967 0.676919
O O17 0.000000 0.500000 0.126275
#
# Coordination Sequence:
#
# PCOD8184977 Si02
#       8
#     8   8   8   8   8   8   8   8
#     4  10  22  39  60  88 118 158 196 247 291 350
#     4  10  22  40  64  86 121 158 200 244 298 352
#     4  10  22  42  60  90 120 157 200 246 294 355
#     4  11  20  42  63  85 122 160 192 243 302 352
#     4  10  20  39  61  85 118 157 189 242 294 350
#     4  10  22  39  62  85 121 155 199 243 294 350
#     4  10  21  39  60  85 121 152 193 241 296 348
#     4  11  24  40  61  91 123 154 199 249 294 356
#
# _framework density 20.092054999999998
#
# number of rings (size 3 to 8) (size 9 to 14) (size 15 to 20)
#    0.000    1.750    3.750    0.750    5.250    3.000 
#    2.250    2.500    0.000    0.000    0.000    0.000 
#    0.000    0.000    0.000    0.000    0.000    0.000 
#
# Total GULP energy -396491.857069 kJ/mol
# GULP energy per Si atom -12390.370533 kJ/mol
# Density = 2.004632 g / cm^3
# Si number density = 20.092055 Si / 1000 Ang^3
#
#
#
# Elastic Constant Matrix: (Units=GPa)
#
#
# Indices 1 2 3 4 5 6 
#
# 1 69.9141 39.4684 29.8077 0.0000 0.0000 0.0000
# 2 39.4684 120.3145 21.6574 0.0000 0.0000 0.0000
# 3 29.8077 21.6574 40.5415 0.0000 0.0000 0.0000
# 4 0.0000 0.0000 0.0000 -20.4943 0.0000 0.0000
# 5 0.0000 0.0000 0.0000 0.0000 35.1278 0.0000
# 6 0.0000 0.0000 0.0000 0.0000 0.0000 42.2771
#
#
#
# Elastic Compliance Matrix: (Units=1/GPa)
#
#
# Indices 1 2 3 4 5 6 
#
# 1 0.023310 -0.005047 -0.014442 0.000000 0.000000 0.000000
# 2 -0.005047 0.010289 -0.001785 0.000000 0.000000 0.000000
# 3 -0.014442 -0.001785 0.036238 0.000000 0.000000 0.000000
# 4 0.000000 0.000000 0.000000 -0.048794 0.000000 0.000000
# 5 0.000000 0.000000 0.000000 0.000000 0.028467 0.000000
# 6 0.000000 0.000000 0.000000 0.000000 0.000000 0.023653
#
#
# Mechanical properties :
#
#
# Convention : Reuss Voigt Hill
#
# Bulk Modulus (GPa) = 36.64682 45.84857 41.24770
# Shear Modulus (GPa) = 40.06143 20.70457 30.38300
#
# Velocity S-wave (km/s) = 4.47015 3.21360 3.89291
# Velocity P-wave (km/s) = 6.70239 6.05297 6.38594
#
# Compressibility (1/GPa) = 0.02728749
#
# Stress axis : x y z
#
# Youngs Moduli (GPa) = 42.90052 97.19533 27.59515
#
# Poissons Ratio (x) = 0.49054 0.39853
# Poissons Ratio (y) = 0.21652 0.04927
# Poissons Ratio (z) = 0.61957 0.17354
#
# Static dielectric constant tensor:
#      x y z
#    x 3.479370 0.000000 0.000000 
#    y 0.000000 3.854330 0.000000 
#    z 0.000000 0.000000 3.463170 
# 
# 
# High freq. dielectric constant tensor:
#      x y z
#    x 1.782930 0.000000 0.000000 
#    y 0.000000 1.799940 0.000000 
#    z 0.000000 0.000000 1.762230 
# 
# From -- ./inp_files/11663.got.cif
#   From: 2010.03.12/outbox.cif.g09.slc.cpg/sg41_6_cif.got.tgz:11663.got - 2010.04.14 01:55:53.
