data_PCOD8184394
_publ_section_title
;
Structure prediction by ZEFSAII (Michael W. Deem and Ramdas Pophale) SiO2 
 PCOD8184394
Probable space group: A M A 2
;
_chemical_formula_sum "Si O2"
_cell_formula_units_Z 40
_cell_length_a 23.602732
_cell_length_b 13.857488
_cell_length_c 5.129481
_cell_angle_alpha 90.000000
_cell_angle_beta 90.000000
_cell_angle_gamma 90.000000
_cell_volume 1677.722820
_symmetry_space_group_name_H-M "A M A 2"
_symmetry_group_IT_number 40
_symmetry_cell_setting 'orthorhombic'
loop_
_space_group_symop_operation_xyz
x,y,z
-x,-y,z
1/2-x,y,z
1/2+x,-y,z
x,1/2+y,1/2+z
-x,1/2-y,1/2+z
1/2-x,1/2+y,1/2+z
1/2+x,1/2-y,1/2+z
loop_
_atom_site_type_symbol
_atom_site_label
_atom_site_fract_x
_atom_site_fract_y
_atom_site_fract_z
Si Si1 0.369053 0.016497 0.794900
Si Si2 0.632249 0.779313 0.574884
Si Si3 0.750000 0.324245 0.910823
Si Si4 0.482991 0.196023 0.372648
Si Si5 0.750000 0.456719 0.407896
Si Si6 0.084265 0.420465 0.774948
O O1 0.386278 0.970236 0.520601
O O2 0.365135 0.132575 0.780590
O O3 0.306812 0.977895 0.886838
O O4 0.412910 0.987174 0.019489
O O5 0.691827 0.761718 0.422010
O O6 0.585092 0.812432 0.360224
O O7 0.615011 0.682131 0.724940
O O8 0.750000 0.395312 0.669567
O O9 0.750000 0.386675 0.166355
O O10 0.498213 0.223592 0.668791
O O11 0.516887 0.096502 0.321546
#
# Coordination Sequence:
#
# PCOD8184394 Si02
#       6
#     8   8   4   8   4   8
#     4  11  24  42  67  95 129 170 217 265 321 385
#     4  10  24  45  67  94 134 168 211 275 317 377
#     4  10  22  40  68  94 121 174 217 250 330 388
#     4  10  22  42  67  95 133 170 210 271 324 374
#     4  10  22  42  62  94 135 164 211 278 318 368
#     4  11  24  42  66  99 127 170 221 258 324 392
#
# _framework density 23.841842
#
# number of rings (size 3 to 8) (size 9 to 14) (size 15 to 20)
#    0.000    1.600    0.000    4.800    0.000   16.800 
#    0.000    8.000    0.000    1.200    0.000    0.000 
#    0.000    0.000    0.000    0.000    0.000    0.000 
#
# Total GULP energy -247870.523628 kJ/mol
# GULP energy per Si atom -12393.526181 kJ/mol
# Density = 2.378758 g / cm^3
# Si number density = 23.841842 Si / 1000 Ang^3
#
#
#
# Elastic Constant Matrix: (Units=GPa)
#
#
# Indices 1 2 3 4 5 6 
#
# 1 130.9000 -10.8452 15.2382 0.0000 0.0000 0.0000
# 2 -10.8452 63.5755 22.1273 0.0000 0.0000 0.0000
# 3 15.2382 22.1273 137.5578 0.0000 0.0000 0.0000
# 4 0.0000 0.0000 0.0000 34.5677 0.0000 0.0000
# 5 0.0000 0.0000 0.0000 0.0000 37.2288 0.0000
# 6 0.0000 0.0000 0.0000 0.0000 0.0000 32.8033
#
#
#
# Elastic Compliance Matrix: (Units=1/GPa)
#
#
# Indices 1 2 3 4 5 6 
#
# 1 0.007920 0.001755 -0.001160 0.000000 0.000000 0.000000
# 2 0.001755 0.017051 -0.002937 0.000000 0.000000 0.000000
# 3 -0.001160 -0.002937 0.007871 0.000000 0.000000 0.000000
# 4 0.000000 0.000000 0.000000 0.028929 0.000000 0.000000
# 5 0.000000 0.000000 0.000000 0.000000 0.026861 0.000000
# 6 0.000000 0.000000 0.000000 0.000000 0.000000 0.030485
#
#
# Mechanical properties :
#
#
# Convention : Reuss Voigt Hill
#
# Bulk Modulus (GPa) = 35.51508 42.78597 39.15052
# Shear Modulus (GPa) = 37.54159 41.28748 39.41453
#
# Velocity S-wave (km/s) = 3.97244 4.16591 4.07033
# Velocity P-wave (km/s) = 5.99740 6.41284 6.20859
#
# Compressibility (1/GPa) = 0.02815705
#
# Stress axis : x y z
#
# Youngs Moduli (GPa) = 126.26616 58.64794 127.05528
#
# Poissons Ratio (x) = -0.10290 0.14733
# Poissons Ratio (y) = -0.22155 0.37318
# Poissons Ratio (z) = 0.14641 0.17226
#
# Static dielectric constant tensor:
#      x y z
#    x 5.901670 0.000000 0.000000 
#    y 0.000000 4.088650 0.000000 
#    z 0.000000 0.000000 4.155120 
# 
# 
# High freq. dielectric constant tensor:
#      x y z
#    x 1.970930 0.000000 0.000000 
#    y 0.000000 1.924300 0.000000 
#    z 0.000000 0.000000 1.947980 
# 
# From -- ./inp_files/2672.got.cif
#   From: 2010.03.12/outbox.cif.g09.slc.cpg/sg40_2_cif.got.tgz:2672.got - 2010.04.14 01:38:03.
