data_PCOD8184857
_publ_section_title
;
Structure prediction by ZEFSAII (Michael W. Deem and Ramdas Pophale) SiO2 
 PCOD8184857
Probable space group: A B A 2
;
_chemical_formula_sum "Si O2"
_cell_formula_units_Z 56
_cell_length_a 9.021956
_cell_length_b 16.076725
_cell_length_c 18.553410
_cell_angle_alpha 90.000000
_cell_angle_beta 90.000000
_cell_angle_gamma 90.000000
_cell_volume 2691.051627
_symmetry_space_group_name_H-M "A B A 2"
_symmetry_group_IT_number 41
_symmetry_cell_setting 'orthorhombic'
loop_
_space_group_symop_operation_xyz
x,y,z
-x,-y,z
1/2-x,y,1/2+z
1/2+x,-y,1/2+z
x,1/2+y,1/2+z
-x,1/2-y,1/2+z
1/2-x,1/2+y,z
1/2+x,1/2-y,z
loop_
_atom_site_type_symbol
_atom_site_label
_atom_site_fract_x
_atom_site_fract_y
_atom_site_fract_z
Si Si1 0.500000 0.000000 0.990060
Si Si2 0.256520 0.690450 0.195331
Si Si3 0.800452 0.090202 0.379695
Si Si4 0.359172 0.051919 0.294935
Si Si5 0.000000 0.000000 0.155330
Si Si6 0.433234 0.837651 0.744168
Si Si7 0.778575 0.406869 0.559549
Si Si8 0.987826 0.901144 0.930539
O O1 0.415701 0.933465 0.941214
O O2 0.621637 0.946916 0.035227
O O3 0.193812 0.604044 0.227130
O O4 0.173516 0.776438 0.201841
O O5 0.408536 0.706251 0.237826
O O6 0.260067 0.674113 0.109684
O O7 0.880677 0.156064 0.327147
O O8 0.657724 0.131231 0.421310
O O9 0.761684 0.010641 0.329305
O O10 0.402922 0.119643 0.356166
O O11 0.500000 0.000000 0.267532
O O12 0.863397 0.977323 0.104282
O O13 0.060648 0.926347 0.205090
O O14 0.886727 0.370511 0.496484
O O15 0.000000 0.000000 0.936375
#
# Coordination Sequence:
#
# PCOD8184857 Si02
#       8
#     4   8   8   8   4   8   8   8
#     4  12  19  32  66 101 130 162 232 274 328 401
#     4  11  26  41  63  95 137 170 215 278 337 397
#     4  10  19  36  67  95 125 168 226 276 316 400
#     4   9  19  37  67  96 122 167 216 275 323 388
#     4  10  21  44  68  87 124 180 224 262 334 407
#     4  11  25  42  67  95 129 175 222 280 330 386
#     4  11  21  37  64  95 131 172 212 278 332 406
#     4   9  17  36  64  89 126 165 214 267 326 388
#
# _framework density 20.809708000000001
#
# number of rings (size 3 to 8) (size 9 to 14) (size 15 to 20)
#    0.000    2.000    3.571    3.000    5.000    1.143 
#    0.000    0.000   15.714    0.000    0.000    0.000 
#    0.000    0.000    0.000    0.000    0.000    0.000 
#
# Total GULP energy -346912.377947 kJ/mol
# GULP energy per Si atom -12389.727784 kJ/mol
# Density = 2.076234 g / cm^3
# Si number density = 20.809708 Si / 1000 Ang^3
#
#
#
# Elastic Constant Matrix: (Units=GPa)
#
#
# Indices 1 2 3 4 5 6 
#
# 1 161.8667 45.2912 72.7064 0.0000 0.0000 0.0000
# 2 45.2912 73.6760 27.8132 0.0000 0.0000 0.0000
# 3 72.7064 27.8132 112.8894 0.0000 0.0000 0.0000
# 4 0.0000 0.0000 0.0000 21.0680 0.0000 0.0000
# 5 0.0000 0.0000 0.0000 0.0000 34.6348 0.0000
# 6 0.0000 0.0000 0.0000 0.0000 0.0000 29.7071
#
#
#
# Elastic Compliance Matrix: (Units=1/GPa)
#
#
# Indices 1 2 3 4 5 6 
#
# 1 0.009632 -0.003946 -0.005231 0.000000 0.000000 0.000000
# 2 -0.003946 0.016582 -0.001544 0.000000 0.000000 0.000000
# 3 -0.005231 -0.001544 0.012608 0.000000 0.000000 0.000000
# 4 0.000000 0.000000 0.000000 0.047465 0.000000 0.000000
# 5 0.000000 0.000000 0.000000 0.000000 0.028873 0.000000
# 6 0.000000 0.000000 0.000000 0.000000 0.000000 0.033662
#
#
# Mechanical properties :
#
#
# Convention : Reuss Voigt Hill
#
# Bulk Modulus (GPa) = 57.54099 71.11707 64.32903
# Shear Modulus (GPa) = 28.40005 30.59007 29.49506
#
# Velocity S-wave (km/s) = 3.69826 3.83820 3.76888
# Velocity P-wave (km/s) = 6.77844 7.34109 7.06537
#
# Compressibility (1/GPa) = 0.01737892
#
# Stress axis : x y z
#
# Youngs Moduli (GPa) = 103.82326 60.30786 79.31697
#
# Poissons Ratio (x) = 0.23799 0.41491
# Poissons Ratio (y) = 0.40971 0.12245
# Poissons Ratio (z) = 0.54311 0.09310
#
# Static dielectric constant tensor:
#      x y z
#    x 4.103640 0.000000 0.000000 
#    y 0.000000 3.245960 0.000000 
#    z 0.000000 0.000000 4.198430 
# 
# 
# High freq. dielectric constant tensor:
#      x y z
#    x 1.833700 0.000000 0.000000 
#    y 0.000000 1.771520 0.000000 
#    z 0.000000 0.000000 1.823190 
# 
# From -- ./inp_files/11258.got.cif
#   From: 2010.03.12/outbox.cif.g09.slc.cpg/sg41_6_cif.got.tgz:11258.got - 2010.04.14 01:55:53.
