data_PCOD8184480
_publ_section_title
;
Structure prediction by ZEFSAII (Michael W. Deem and Ramdas Pophale) SiO2 
 PCOD8184480
Probable space group: A M A 2
;
_chemical_formula_sum "Si O2"
_cell_formula_units_Z 32
_cell_length_a 14.839528
_cell_length_b 8.955418
_cell_length_c 11.336137
_cell_angle_alpha 90.000000
_cell_angle_beta 90.000000
_cell_angle_gamma 90.000000
_cell_volume 1506.506587
_symmetry_space_group_name_H-M "A M A 2"
_symmetry_group_IT_number 40
_symmetry_cell_setting 'orthorhombic'
loop_
_space_group_symop_operation_xyz
x,y,z
-x,-y,z
1/2-x,y,z
1/2+x,-y,z
x,1/2+y,1/2+z
-x,1/2-y,1/2+z
1/2-x,1/2+y,1/2+z
1/2+x,1/2-y,1/2+z
loop_
_atom_site_type_symbol
_atom_site_label
_atom_site_fract_x
_atom_site_fract_y
_atom_site_fract_z
Si Si1 0.750000 0.030620 0.381891
Si Si2 0.148680 0.945576 0.986084
Si Si3 0.000000 0.000000 0.174478
Si Si4 0.250000 0.145207 0.829968
Si Si5 0.750000 0.610648 0.153796
Si Si6 0.111581 0.710230 0.802817
O O1 0.750000 0.179821 0.301299
O O2 0.750000 0.094310 0.514478
O O3 0.837459 0.935107 0.352466
O O4 0.250000 0.885162 0.018337
O O5 0.161401 0.094858 0.906410
O O6 0.094802 0.821262 0.911477
O O7 0.091367 0.978658 0.101245
O O8 0.016544 0.148454 0.253150
O O9 0.250000 0.055600 0.707129
O O10 0.836043 0.704706 0.198200
#
# Coordination Sequence:
#
# PCOD8184480 Si02
#       6
#     4   8   4   4   4   8
#     4  11  19  35  66  92 120 161 213 253 314 376
#     4   9  21  44  65  90 132 168 210 266 319 379
#     4  12  24  36  72  92 126 178 210 262 332 372
#     4   8  18  36  66  92 116 166 216 248 310 390
#     4   9  19  39  60  82 128 169 197 265 316 360
#     4  10  23  40  59  98 129 156 217 270 303 388
#
# _framework density 21.241195000000001
#
# number of rings (size 3 to 8) (size 9 to 14) (size 15 to 20)
#    0.750    1.500    2.500    1.500    3.500    6.000 
#    0.000    2.500    0.000    6.000    0.000    0.000 
#    0.000    0.000    0.000    0.000    0.000    0.000 
#
# Total GULP energy -198281.624448 kJ/mol
# GULP energy per Si atom -12392.601528 kJ/mol
# Density = 2.119285 g / cm^3
# Si number density = 21.241195 Si / 1000 Ang^3
#
#
#
# Elastic Constant Matrix: (Units=GPa)
#
#
# Indices 1 2 3 4 5 6 
#
# 1 37.3835 -8.3004 21.4278 0.0000 0.0000 0.0000
# 2 -8.3004 117.8184 30.4326 0.0000 0.0000 0.0000
# 3 21.4278 30.4326 75.2049 0.0000 0.0000 0.0000
# 4 0.0000 0.0000 0.0000 28.6400 0.0000 0.0000
# 5 0.0000 0.0000 0.0000 0.0000 26.6086 0.0000
# 6 0.0000 0.0000 0.0000 0.0000 0.0000 16.1925
#
#
#
# Elastic Compliance Matrix: (Units=1/GPa)
#
#
# Indices 1 2 3 4 5 6 
#
# 1 0.035029 0.005635 -0.012261 0.000000 0.000000 0.000000
# 2 0.005635 0.010385 -0.005808 0.000000 0.000000 0.000000
# 3 -0.012261 -0.005808 0.019141 0.000000 0.000000 0.000000
# 4 0.000000 0.000000 0.000000 0.034916 0.000000 0.000000
# 5 0.000000 0.000000 0.000000 0.000000 0.037582 0.000000
# 6 0.000000 0.000000 0.000000 0.000000 0.000000 0.061757
#
#
# Mechanical properties :
#
#
# Convention : Reuss Voigt Hill
#
# Bulk Modulus (GPa) = 25.19753 35.28076 30.23914
# Shear Modulus (GPa) = 21.10544 26.74465 23.92505
#
# Velocity S-wave (km/s) = 3.15558 3.55222 3.35976
# Velocity P-wave (km/s) = 5.01649 5.78533 5.41457
#
# Compressibility (1/GPa) = 0.03968643
#
# Stress axis : x y z
#
# Youngs Moduli (GPa) = 28.54807 96.29474 52.24490
#
# Poissons Ratio (x) = -0.54260 0.64056
# Poissons Ratio (y) = -0.16086 0.30343
# Poissons Ratio (z) = 0.35002 0.55926
#
# Static dielectric constant tensor:
#      x y z
#    x 3.478390 0.000000 0.000000 
#    y 0.000000 3.863330 0.000000 
#    z 0.000000 0.000000 3.714460 
# 
# 
# High freq. dielectric constant tensor:
#      x y z
#    x 1.800620 0.000000 0.000000 
#    y 0.000000 1.839220 0.000000 
#    z 0.000000 0.000000 1.834200 
# 
# From -- ./inp_files/12693.got.cif
#   From: 2010.03.12/outbox.cif.g09.slc.cpg/sg40_7_cif.got.tgz:12693.got - 2010.04.14 01:38:03.
