data_PCOD8184056
_publ_section_title
;
Structure prediction by ZEFSAII (Michael W. Deem and Ramdas Pophale) SiO2 
 PCOD8184056
Probable space group: A M A 2
;
_chemical_formula_sum "Si O2"
_cell_formula_units_Z 64
_cell_length_a 25.716594
_cell_length_b 5.182924
_cell_length_c 25.998778
_cell_angle_alpha 90.000000
_cell_angle_beta 90.000000
_cell_angle_gamma 90.000000
_cell_volume 3465.303081
_symmetry_space_group_name_H-M "A M A 2"
_symmetry_group_IT_number 40
_symmetry_cell_setting 'orthorhombic'
loop_
_space_group_symop_operation_xyz
x,y,z
-x,-y,z
1/2-x,y,z
1/2+x,-y,z
x,1/2+y,1/2+z
-x,1/2-y,1/2+z
1/2-x,1/2+y,1/2+z
1/2+x,1/2-y,1/2+z
loop_
_atom_site_type_symbol
_atom_site_label
_atom_site_fract_x
_atom_site_fract_y
_atom_site_fract_z
Si Si1 0.466651 0.252526 0.942110
Si Si2 0.656110 0.672418 0.329251
Si Si3 0.555524 0.896053 0.830219
Si Si4 0.308615 0.281446 0.441790
Si Si5 0.357613 0.785567 0.488753
Si Si6 0.809822 0.647695 0.097064
Si Si7 0.855798 0.684544 0.771748
Si Si8 0.809855 0.146329 0.162949
O O1 0.500000 0.500000 0.956958
O O2 0.449429 0.268856 0.882453
O O3 0.418185 0.235053 0.980328
O O4 0.500000 0.000000 0.951974
O O5 0.594305 0.637741 0.341903
O O6 0.688939 0.675239 0.381039
O O7 0.675569 0.428855 0.295167
O O8 0.667296 0.928548 0.297164
O O9 0.582517 0.717578 0.786117
O O10 0.500000 0.000000 0.810497
O O11 0.250000 0.220019 0.458647
O O12 0.325538 0.538195 0.470957
O O13 0.343424 0.037411 0.456021
O O14 0.347446 0.834235 0.548524
O O15 0.750000 0.664645 0.078742
O O16 0.821538 0.376011 0.123702
O O17 0.823037 0.876632 0.136164
O O18 0.848551 0.674350 0.710873
O O19 0.750000 0.154592 0.181732
#
# Coordination Sequence:
#
# PCOD8184056 Si02
#       8
#     8   8   8   8   8   8   8   8
#     4  11  23  37  61  88 118 159 200 242 291 350
#     4  10  21  35  52  84 116 151 190 225 286 352
#     4   9  21  34  57  81 115 146 195 233 282 344
#     4  12  23  36  55  86 127 162 191 234 291 365
#     4  12  23  40  60  87 120 157 201 244 300 349
#     4  10  21  38  61  86 109 149 196 244 292 347
#     4  10  21  35  55  81 112 147 188 238 295 337
#     4  10  21  38  59  83 111 145 196 244 291 346
#
# _framework density 18.468803999999999
#
# number of rings (size 3 to 8) (size 9 to 14) (size 15 to 20)
#    0.750    0.750    1.250    4.875    5.250    2.000 
#    0.000    0.000    0.000    2.250    0.000    0.000 
#    0.000    0.000    0.000    0.000    0.000    0.000 
#
# Total GULP energy -396810.075478 kJ/mol
# GULP energy per Si atom -12400.314859 kJ/mol
# Density = 1.842677 g / cm^3
# Si number density = 18.468804 Si / 1000 Ang^3
#
#
#
# Elastic Constant Matrix: (Units=GPa)
#
#
# Indices 1 2 3 4 5 6 
#
# 1 94.6908 12.2616 24.3440 0.0000 0.0000 0.0000
# 2 12.2616 98.1671 4.0941 0.0000 0.0000 0.0000
# 3 24.3440 4.0941 93.1929 0.0000 0.0000 0.0000
# 4 0.0000 0.0000 0.0000 27.5791 0.0000 0.0000
# 5 0.0000 0.0000 0.0000 0.0000 34.0755 0.0000
# 6 0.0000 0.0000 0.0000 0.0000 0.0000 17.6061
#
#
#
# Elastic Compliance Matrix: (Units=1/GPa)
#
#
# Indices 1 2 3 4 5 6 
#
# 1 0.011487 -0.001312 -0.002943 0.000000 0.000000 0.000000
# 2 -0.001312 0.010355 -0.000112 0.000000 0.000000 0.000000
# 3 -0.002943 -0.000112 0.011504 0.000000 0.000000 0.000000
# 4 0.000000 0.000000 0.000000 0.036259 0.000000 0.000000
# 5 0.000000 0.000000 0.000000 0.000000 0.029347 0.000000
# 6 0.000000 0.000000 0.000000 0.000000 0.000000 0.056798
#
#
# Mechanical properties :
#
#
# Convention : Reuss Voigt Hill
#
# Bulk Modulus (GPa) = 40.63056 40.82778 40.72917
# Shear Modulus (GPa) = 28.95368 32.20890 30.58129
#
# Velocity S-wave (km/s) = 3.96372 4.18061 4.07361
# Velocity P-wave (km/s) = 6.55709 6.74223 6.65030
#
# Compressibility (1/GPa) = 0.02461202
#
# Stress axis : x y z
#
# Youngs Moduli (GPa) = 87.05330 96.56912 86.92516
#
# Poissons Ratio (x) = 0.12671 0.25583
# Poissons Ratio (y) = 0.11422 0.00975
# Poissons Ratio (z) = 0.25620 0.01083
#
# Static dielectric constant tensor:
#      x y z
#    x 3.298910 0.000000 0.000000 
#    y 0.000000 3.549090 0.000000 
#    z 0.000000 0.000000 3.214420 
# 
# 
# High freq. dielectric constant tensor:
#      x y z
#    x 1.700750 0.000000 0.000000 
#    y 0.000000 1.737400 0.000000 
#    z 0.000000 0.000000 1.701640 
# 
# From -- ./inp_files/25069.got.cif
#   From: 2010.03.12/outbox.cif.g09.slc.cpg/sg40_13_cif.got.tgz:25069.got - 2010.04.14 01:38:03.
