data_PCOD8184213
_publ_section_title
;
Structure prediction by ZEFSAII (Michael W. Deem and Ramdas Pophale) SiO2 
 PCOD8184213
Probable space group: A M A 2
;
_chemical_formula_sum "Si O2"
_cell_formula_units_Z 56
_cell_length_a 18.923830
_cell_length_b 15.638673
_cell_length_c 9.378939
_cell_angle_alpha 90.000000
_cell_angle_beta 90.000000
_cell_angle_gamma 90.000000
_cell_volume 2775.636871
_symmetry_space_group_name_H-M "A M A 2"
_symmetry_group_IT_number 40
_symmetry_cell_setting 'orthorhombic'
loop_
_space_group_symop_operation_xyz
x,y,z
-x,-y,z
1/2-x,y,z
1/2+x,-y,z
x,1/2+y,1/2+z
-x,1/2-y,1/2+z
1/2-x,1/2+y,1/2+z
1/2+x,1/2-y,1/2+z
loop_
_atom_site_type_symbol
_atom_site_label
_atom_site_fract_x
_atom_site_fract_y
_atom_site_fract_z
Si Si1 0.889340 0.521232 0.875000
Si Si2 0.173620 0.210701 0.031431
Si Si3 0.019304 0.643103 0.846744
Si Si4 0.020329 0.204486 0.028284
Si Si5 0.171473 0.396367 0.151531
Si Si6 0.174197 0.024896 0.098906
Si Si7 0.435823 0.446116 0.391348
O O1 0.919622 0.425019 0.881505
O O2 0.833418 0.524979 0.746915
O O3 0.946834 0.591794 0.836690
O O4 0.848610 0.545169 0.017893
O O5 0.250000 0.212534 0.943709
O O6 0.098167 0.204623 0.947754
O O7 0.170128 0.295791 0.124181
O O8 0.174905 0.126533 0.130531
O O9 0.031440 0.696512 0.699663
O O10 0.017198 0.707351 0.981808
O O11 0.969652 0.128768 0.982598
O O12 0.250000 0.423935 0.201554
O O13 0.113857 0.410243 0.270995
O O14 0.250000 0.996547 0.032198
O O15 0.109214 0.006501 0.994788
O O16 0.500000 0.500000 0.321927
#
# Coordination Sequence:
#
# PCOD8184213 Si02
#       7
#     8   8   8   8   8   8   8
#     4  11  22  41  63  95 124 164 214 266 307 382
#     4  10  21  39  62  89 122 166 209 251 310 379
#     4  11  24  38  65  96 129 161 214 265 322 373
#     4  12  22  42  65  97 128 169 211 268 321 380
#     4  11  25  43  63  93 130 170 212 261 321 379
#     4  11  22  42  67  90 124 169 214 261 316 381
#     4  12  24  39  65  97 129 163 213 264 322 374
#
# _framework density 20.175549
#
# number of rings (size 3 to 8) (size 9 to 14) (size 15 to 20)
#    0.000    0.857    5.714    1.714    2.000    0.000 
#    0.000    0.000    0.000    0.000    0.000    0.000 
#    0.000    0.000    0.000    0.000    0.000    0.000 
#
# Total GULP energy -346873.009077 kJ/mol
# GULP energy per Si atom -12388.321753 kJ/mol
# Density = 2.012963 g / cm^3
# Si number density = 20.175549 Si / 1000 Ang^3
#
#
#
# Elastic Constant Matrix: (Units=GPa)
#
#
# Indices 1 2 3 4 5 6 
#
# 1 156.9099 44.8978 33.3867 0.0000 0.0000 0.0000
# 2 44.8978 116.1127 32.0413 0.0000 0.0000 0.0000
# 3 33.3867 32.0413 65.8722 0.0000 0.0000 0.0000
# 4 0.0000 0.0000 0.0000 25.2530 0.0000 0.0000
# 5 0.0000 0.0000 0.0000 0.0000 14.8530 0.0000
# 6 0.0000 0.0000 0.0000 0.0000 0.0000 24.8049
#
#
#
# Elastic Compliance Matrix: (Units=1/GPa)
#
#
# Indices 1 2 3 4 5 6 
#
# 1 0.007586 -0.002163 -0.002793 0.000000 0.000000 0.000000
# 2 -0.002163 0.010564 -0.004042 0.000000 0.000000 0.000000
# 3 -0.002793 -0.004042 0.018563 0.000000 0.000000 0.000000
# 4 0.000000 0.000000 0.000000 0.039599 0.000000 0.000000
# 5 0.000000 0.000000 0.000000 0.000000 0.067326 0.000000
# 6 0.000000 0.000000 0.000000 0.000000 0.000000 0.040315
#
#
# Mechanical properties :
#
#
# Convention : Reuss Voigt Hill
#
# Bulk Modulus (GPa) = 53.42771 62.17183 57.79977
# Shear Modulus (GPa) = 24.01669 28.22011 26.11840
#
# Velocity S-wave (km/s) = 3.45394 3.74402 3.60190
# Velocity P-wave (km/s) = 6.51500 7.04078 6.78298
#
# Compressibility (1/GPa) = 0.01871688
#
# Stress axis : x y z
#
# Youngs Moduli (GPa) = 131.81840 94.66056 53.87107
#
# Poissons Ratio (x) = 0.20472 0.15046
# Poissons Ratio (y) = 0.28508 0.21777
# Poissons Ratio (z) = 0.36818 0.38266
#
# Static dielectric constant tensor:
#      x y z
#    x 4.337600 0.000000 0.000000 
#    y 0.000000 4.002860 0.000000 
#    z 0.000000 0.000000 3.424110 
# 
# 
# High freq. dielectric constant tensor:
#      x y z
#    x 1.816140 0.000000 0.000000 
#    y 0.000000 1.802870 0.000000 
#    z 0.000000 0.000000 1.744290 
# 
# From -- ./inp_files/8295.got.cif
#   From: 2010.03.12/outbox.cif.g09.slc.cpg/sg40_5_cif.got.tgz:8295.got - 2010.04.14 01:38:03.
