data_PCOD8184457
_publ_section_title
;
Structure prediction by ZEFSAII (Michael W. Deem and Ramdas Pophale) SiO2 
 PCOD8184457
Probable space group: A M A 2
;
_chemical_formula_sum "Si O2"
_cell_formula_units_Z 32
_cell_length_a 17.691639
_cell_length_b 12.077444
_cell_length_c 5.423453
_cell_angle_alpha 90.000000
_cell_angle_beta 90.000000
_cell_angle_gamma 90.000000
_cell_volume 1158.828006
_symmetry_space_group_name_H-M "A M A 2"
_symmetry_group_IT_number 40
_symmetry_cell_setting 'orthorhombic'
loop_
_space_group_symop_operation_xyz
x,y,z
-x,-y,z
1/2-x,y,z
1/2+x,-y,z
x,1/2+y,1/2+z
-x,1/2-y,1/2+z
1/2-x,1/2+y,1/2+z
1/2+x,1/2-y,1/2+z
loop_
_atom_site_type_symbol
_atom_site_label
_atom_site_fract_x
_atom_site_fract_y
_atom_site_fract_z
Si Si1 0.084699 0.339908 0.882550
Si Si2 0.163601 0.981685 0.951230
Si Si3 0.331083 0.705535 0.737317
Si Si4 0.061404 0.120325 0.635879
O O1 0.123118 0.399366 0.646398
O O2 0.048529 0.215541 0.843278
O O3 0.148077 0.320657 0.095894
O O4 0.015794 0.412848 0.992420
O O5 0.250000 0.942599 0.882009
O O6 0.171397 0.103422 0.056548
O O7 0.104193 0.006588 0.725098
O O8 0.250000 0.725267 0.859766
O O9 0.386294 0.688970 0.957733
#
# Coordination Sequence:
#
# PCOD8184457 Si02
#       4
#     8   8   8   8
#     4  11  23  45  72 106 149 199 254 322 396 454
#     4  10  24  45  72 107 150 201 258 319 392 468
#     4  10  22  43  69 103 150 196 251 314 384 469
#     4  11  23  45  71 107 149 195 260 323 385 461
#
# _framework density 27.614104999999999
#
# number of rings (size 3 to 8) (size 9 to 14) (size 15 to 20)
#    0.000    1.500    2.500    1.500    0.000    6.000 
#    4.500    0.000    0.000    0.000    0.000    3.500 
#    0.000    0.000    0.000    0.000    0.000    0.000 
#
# Total GULP energy -198211.412620 kJ/mol
# GULP energy per Si atom -12388.213289 kJ/mol
# Density = 2.755125 g / cm^3
# Si number density = 27.614105 Si / 1000 Ang^3
#
#
#
# Elastic Constant Matrix: (Units=GPa)
#
#
# Indices 1 2 3 4 5 6 
#
# 1 226.1503 70.9408 80.0313 0.0000 0.0000 0.0000
# 2 70.9408 112.1347 13.2300 0.0000 0.0000 0.0000
# 3 80.0313 13.2300 91.3814 0.0000 0.0000 0.0000
# 4 0.0000 0.0000 0.0000 47.5854 0.0000 0.0000
# 5 0.0000 0.0000 0.0000 0.0000 39.8534 0.0000
# 6 0.0000 0.0000 0.0000 0.0000 0.0000 18.7398
#
#
#
# Elastic Compliance Matrix: (Units=1/GPa)
#
#
# Indices 1 2 3 4 5 6 
#
# 1 0.008058 -0.004339 -0.006429 0.000000 0.000000 0.000000
# 2 -0.004339 0.011410 0.002149 0.000000 0.000000 0.000000
# 3 -0.006429 0.002149 0.016263 0.000000 0.000000 0.000000
# 4 0.000000 0.000000 0.000000 0.021015 0.000000 0.000000
# 5 0.000000 0.000000 0.000000 0.000000 0.025092 0.000000
# 6 0.000000 0.000000 0.000000 0.000000 0.000000 0.053362
#
#
# Mechanical properties :
#
#
# Convention : Reuss Voigt Hill
#
# Bulk Modulus (GPa) = 54.08144 84.23007 69.15575
# Shear Modulus (GPa) = 31.52525 38.93336 35.22931
#
# Velocity S-wave (km/s) = 3.38248 3.75895 3.57567
# Velocity P-wave (km/s) = 5.90611 7.02911 6.49194
#
# Compressibility (1/GPa) = 0.01849063
#
# Stress axis : x y z
#
# Youngs Moduli (GPa) = 124.09663 87.64516 61.49059
#
# Poissons Ratio (x) = 0.38033 0.39533
# Poissons Ratio (y) = 0.53851 -0.13212
# Poissons Ratio (z) = 0.79783 -0.18831
#
# Static dielectric constant tensor:
#      x y z
#    x 5.229390 0.000000 0.000000 
#    y 0.000000 5.364390 0.000000 
#    z 0.000000 0.000000 5.257150 
# 
# 
# High freq. dielectric constant tensor:
#      x y z
#    x 2.130170 0.000000 0.000000 
#    y 0.000000 2.163900 0.000000 
#    z 0.000000 0.000000 2.102700 
# 
# From -- ./inp_files/1630.got.cif
#   From: 2010.03.12/outbox.cif.g09.slc.cpg/sg40_1_cif.got.tgz:1630.got - 2010.04.14 01:38:03.
