data_PCOD8184153
_publ_section_title
;
Structure prediction by ZEFSAII (Michael W. Deem and Ramdas Pophale) SiO2 
 PCOD8184153
Probable space group: A M A 2
;
_chemical_formula_sum "Si O2"
_cell_formula_units_Z 48
_cell_length_a 8.664514
_cell_length_b 9.154953
_cell_length_c 30.364464
_cell_angle_alpha 90.000000
_cell_angle_beta 90.000000
_cell_angle_gamma 90.000000
_cell_volume 2408.607011
_symmetry_space_group_name_H-M "A M A 2"
_symmetry_group_IT_number 40
_symmetry_cell_setting 'orthorhombic'
loop_
_space_group_symop_operation_xyz
x,y,z
-x,-y,z
1/2-x,y,z
1/2+x,-y,z
x,1/2+y,1/2+z
-x,1/2-y,1/2+z
1/2-x,1/2+y,1/2+z
1/2+x,1/2-y,1/2+z
loop_
_atom_site_type_symbol
_atom_site_label
_atom_site_fract_x
_atom_site_fract_y
_atom_site_fract_z
Si Si1 0.929160 0.659272 0.329710
Si Si2 0.567031 0.158149 0.083574
Si Si3 0.070376 0.651076 0.913587
Si Si4 0.067888 0.659691 0.167760
Si Si5 0.067303 0.843489 0.507177
Si Si6 0.932508 0.659902 0.751524
O O1 0.750000 0.651814 0.317447
O O2 0.955757 0.721201 0.378543
O O3 0.000000 0.500000 0.326692
O O4 0.013121 0.765665 0.296179
O O5 0.750000 0.150075 0.079729
O O6 0.512036 0.260669 0.123524
O O7 0.497619 0.218398 0.038465
O O8 0.500000 0.000000 0.093262
O O9 0.250000 0.626008 0.924131
O O10 0.000000 0.500000 0.894999
O O11 0.983210 0.697918 0.957901
O O12 0.250000 0.648142 0.169221
O O13 0.005901 0.747924 0.209972
O O14 0.000000 0.500000 0.169003
O O15 0.250000 0.849300 0.510628
O O16 0.000000 0.000000 0.521587
O O17 0.750000 0.649070 0.751702
O O18 0.000000 0.500000 0.747863
#
# Coordination Sequence:
#
# PCOD8184153 Si02
#       6
#     8   8   8   8   8   8
#     4  11  24  40  60  87 119 156 197 242 292 347
#     4  11  23  40  60  86 119 155 197 242 292 347
#     4  10  21  38  60  86 116 152 196 243 293 349
#     4  10  23  40  61  88 118 154 195 240 289 345
#     4  11  22  38  61  88 118 154 196 242 293 348
#     4  11  23  40  62  89 120 155 196 241 291 346
#
# _framework density 19.928531
#
# number of rings (size 3 to 8) (size 9 to 14) (size 15 to 20)
#    0.000    1.333    0.000    6.500    0.000   10.000 
#    0.000    1.667    0.000    0.000    0.000    0.000 
#    0.000    0.000    0.000    0.000    0.000    0.000 
#
# Total GULP energy -297745.907046 kJ/mol
# GULP energy per Si atom -12406.079460 kJ/mol
# Density = 1.988317 g / cm^3
# Si number density = 19.928531 Si / 1000 Ang^3
#
#
#
# Elastic Constant Matrix: (Units=GPa)
#
#
# Indices 1 2 3 4 5 6 
#
# 1 110.2468 57.4496 47.8764 0.0000 0.0000 0.0000
# 2 57.4496 170.2291 72.8906 0.0000 0.0000 0.0000
# 3 47.8764 72.8906 106.2978 0.0000 0.0000 0.0000
# 4 0.0000 0.0000 0.0000 40.1719 0.0000 0.0000
# 5 0.0000 0.0000 0.0000 0.0000 29.3734 0.0000
# 6 0.0000 0.0000 0.0000 0.0000 0.0000 41.0032
#
#
#
# Elastic Compliance Matrix: (Units=1/GPa)
#
#
# Indices 1 2 3 4 5 6 
#
# 1 0.011956 -0.002448 -0.003706 0.000000 0.000000 0.000000
# 2 -0.002448 0.008817 -0.004944 0.000000 0.000000 0.000000
# 3 -0.003706 -0.004944 0.014467 0.000000 0.000000 0.000000
# 4 0.000000 0.000000 0.000000 0.024893 0.000000 0.000000
# 5 0.000000 0.000000 0.000000 0.000000 0.034044 0.000000
# 6 0.000000 0.000000 0.000000 0.000000 0.000000 0.024388
#
#
# Mechanical properties :
#
#
# Convention : Reuss Voigt Hill
#
# Bulk Modulus (GPa) = 76.66269 82.57854 79.62062
# Shear Modulus (GPa) = 34.45673 36.01352 35.23512
#
# Velocity S-wave (km/s) = 4.16265 4.25565 4.20941
# Velocity P-wave (km/s) = 7.85213 8.10399 7.97905
#
# Compressibility (1/GPa) = 0.01304415
#
# Stress axis : x y z
#
# Youngs Moduli (GPa) = 83.64256 113.41170 69.12337
#
# Poissons Ratio (x) = 0.27761 0.25619
# Poissons Ratio (y) = 0.20474 0.34173
# Poissons Ratio (z) = 0.31000 0.56068
#
# Static dielectric constant tensor:
#      x y z
#    x 3.753110 0.000000 0.000000 
#    y 0.000000 3.658380 0.000000 
#    z 0.000000 0.000000 3.848330 
# 
# 
# High freq. dielectric constant tensor:
#      x y z
#    x 1.790480 0.000000 0.000000 
#    y 0.000000 1.786590 0.000000 
#    z 0.000000 0.000000 1.792570 
# 
# From -- ./inp_files/26134.got.cif
#   From: 2010.03.12/outbox.cif.g09.slc.cpg/sg40_14_cif.got.tgz:26134.got - 2010.04.14 01:38:03.
