data_PCOD8184593
_publ_section_title
;
Structure prediction by ZEFSAII (Michael W. Deem and Ramdas Pophale) SiO2 
 PCOD8184593
Probable space group: A M A 2
;
_chemical_formula_sum "Si O2"
_cell_formula_units_Z 64
_cell_length_a 8.756818
_cell_length_b 30.495272
_cell_length_c 14.660680
_cell_angle_alpha 90.000000
_cell_angle_beta 90.000000
_cell_angle_gamma 90.000000
_cell_volume 3915.010664
_symmetry_space_group_name_H-M "A M A 2"
_symmetry_group_IT_number 40
_symmetry_cell_setting 'orthorhombic'
loop_
_space_group_symop_operation_xyz
x,y,z
-x,-y,z
1/2-x,y,z
1/2+x,-y,z
x,1/2+y,1/2+z
-x,1/2-y,1/2+z
1/2-x,1/2+y,1/2+z
1/2+x,1/2-y,1/2+z
loop_
_atom_site_type_symbol
_atom_site_label
_atom_site_fract_x
_atom_site_fract_y
_atom_site_fract_z
Si Si1 0.070459 0.044929 0.010270
Si Si2 0.569931 0.454768 0.301410
Si Si3 0.431391 0.635476 0.577461
Si Si4 0.568726 0.786045 0.198280
Si Si5 0.422019 0.677037 0.399536
Si Si6 0.931314 0.865183 0.721671
Si Si7 0.922963 0.721122 0.894043
Si Si8 0.431703 0.705476 0.082508
O O1 0.250000 0.039544 0.012476
O O2 0.017429 0.084305 0.078728
O O3 0.016845 0.054530 0.905913
O O4 0.000000 0.000000 0.048049
O O5 0.500000 0.500000 0.264395
O O6 0.750000 0.459051 0.296954
O O7 0.512049 0.415450 0.234591
O O8 0.250000 0.638518 0.572106
O O9 0.485800 0.666065 0.660860
O O10 0.505930 0.655340 0.485479
O O11 0.750000 0.780103 0.192862
O O12 0.515893 0.787063 0.302238
O O13 0.495475 0.747110 0.138616
O O14 0.250000 0.658379 0.395356
O O15 0.502047 0.663201 0.305303
O O16 0.422448 0.728103 0.415403
O O17 0.750000 0.863941 0.723810
O O18 0.985254 0.840205 0.630465
O O19 0.750000 0.703278 0.883813
O O20 0.004843 0.699375 0.980666
O O21 0.250000 0.710675 0.080254
#
# Coordination Sequence:
#
# PCOD8184593 Si02
#       8
#     8   8   8   8   8   8   8   8
#     4   9  16  27  45  67  93 124 158 192 232 282
#     4   9  16  27  45  67  93 124 158 192 232 282
#     4   9  16  28  47  68  93 130 167 192 228 290
#     4  11  21  33  50  73  98 128 168 206 242 287
#     4   9  14  25  46  68  90 125 164 191 221 279
#     4   9  16  28  47  68  93 130 167 192 228 290
#     4  11  21  35  51  68  97 133 167 204 247 286
#     4  11  21  33  50  73  98 128 168 206 242 287
#
# _framework density 16.347338000000001
#
# number of rings (size 3 to 8) (size 9 to 14) (size 15 to 20)
#    0.000    2.250    3.750    1.125    0.000    0.000 
#    0.000    2.500    0.000    0.000    0.000    0.875 
#    0.000    0.000    0.000    0.000    0.000    0.000 
#
# Total GULP energy -396443.438694 kJ/mol
# GULP energy per Si atom -12388.857459 kJ/mol
# Density = 1.631013 g / cm^3
# Si number density = 16.347338 Si / 1000 Ang^3
#
#
#
# Elastic Constant Matrix: (Units=GPa)
#
#
# Indices 1 2 3 4 5 6 
#
# 1 38.7100 22.2003 15.6702 0.0000 0.0000 0.0000
# 2 22.2003 105.5944 34.5548 0.0000 0.0000 0.0000
# 3 15.6702 34.5548 80.9930 0.0000 0.0000 0.0000
# 4 0.0000 0.0000 0.0000 26.6876 0.0000 0.0000
# 5 0.0000 0.0000 0.0000 0.0000 15.7454 0.0000
# 6 0.0000 0.0000 0.0000 0.0000 0.0000 21.4331
#
#
#
# Elastic Compliance Matrix: (Units=1/GPa)
#
#
# Indices 1 2 3 4 5 6 
#
# 1 0.030277 -0.005170 -0.003652 0.000000 0.000000 0.000000
# 2 -0.005170 0.011890 -0.004072 0.000000 0.000000 0.000000
# 3 -0.003652 -0.004072 0.014791 0.000000 0.000000 0.000000
# 4 0.000000 0.000000 0.000000 0.037471 0.000000 0.000000
# 5 0.000000 0.000000 0.000000 0.000000 0.063511 0.000000
# 6 0.000000 0.000000 0.000000 0.000000 0.000000 0.046657
#
#
# Mechanical properties :
#
#
# Convention : Reuss Voigt Hill
#
# Bulk Modulus (GPa) = 32.08420 41.12755 36.60588
# Shear Modulus (GPa) = 20.76637 22.96468 21.86553
#
# Velocity S-wave (km/s) = 3.56802 3.75213 3.66123
# Velocity P-wave (km/s) = 6.05339 6.63208 6.34933
#
# Compressibility (1/GPa) = 0.03116799
#
# Stress axis : x y z
#
# Youngs Moduli (GPa) = 33.02876 84.10533 67.60996
#
# Poissons Ratio (x) = 0.43485 0.24691
# Poissons Ratio (y) = 0.17077 0.27533
# Poissons Ratio (z) = 0.12062 0.34251
#
# Static dielectric constant tensor:
#      x y z
#    x 2.881530 0.000000 0.000000 
#    y 0.000000 3.297870 0.000000 
#    z 0.000000 0.000000 3.114180 
# 
# 
# High freq. dielectric constant tensor:
#      x y z
#    x 1.603980 0.000000 0.000000 
#    y 0.000000 1.626190 0.000000 
#    z 0.000000 0.000000 1.608360 
# 
# From -- ./inp_files/15869.got.cif
#   From: 2010.03.12/outbox.cif.g09.slc.cpg/sg40_8_cif.got.tgz:15869.got - 2010.04.14 01:38:03.
