data_PCOD8184965
_publ_section_title
;
Structure prediction by ZEFSAII (Michael W. Deem and Ramdas Pophale) SiO2 
 PCOD8184965
Probable space group: A B A 2
;
_chemical_formula_sum "Si O2"
_cell_formula_units_Z 48
_cell_length_a 9.482776
_cell_length_b 15.894662
_cell_length_c 15.110511
_cell_angle_alpha 90.000000
_cell_angle_beta 90.000000
_cell_angle_gamma 90.000000
_cell_volume 2277.539618
_symmetry_space_group_name_H-M "A B A 2"
_symmetry_group_IT_number 41
_symmetry_cell_setting 'orthorhombic'
loop_
_space_group_symop_operation_xyz
x,y,z
-x,-y,z
1/2-x,y,1/2+z
1/2+x,-y,1/2+z
x,1/2+y,1/2+z
-x,1/2-y,1/2+z
1/2-x,1/2+y,z
1/2+x,1/2-y,z
loop_
_atom_site_type_symbol
_atom_site_label
_atom_site_fract_x
_atom_site_fract_y
_atom_site_fract_z
Si Si1 0.428134 0.784228 0.299830
Si Si2 0.347708 0.349859 0.245870
Si Si3 0.941308 0.405843 0.427043
Si Si4 0.589937 0.582647 0.433911
Si Si5 0.829276 0.310673 0.961762
Si Si6 0.831562 0.647251 0.551129
O O1 0.530206 0.719012 0.252654
O O2 0.311625 0.816515 0.231650
O O3 0.524065 0.861156 0.334072
O O4 0.322079 0.747637 0.374806
O O5 0.361047 0.412308 0.330338
O O6 0.361347 0.390994 0.148685
O O7 0.774950 0.391562 0.449572
O O8 0.000000 0.500000 0.422137
O O9 0.017549 0.356352 0.504797
O O10 0.500000 0.500000 0.448989
O O11 0.491229 0.659466 0.464562
O O12 0.724319 0.585790 0.498411
O O13 0.790138 0.247777 0.044021
#
# Coordination Sequence:
#
# PCOD8184965 Si02
#       6
#     8   8   8   8   8   8
#     4  10  20  40  61  92 119 162 210 268 316 379
#     4  11  23  39  68  94 125 165 225 264 320 387
#     4  11  21  38  63  91 124 165 207 266 326 386
#     4  11  23  43  66  94 135 173 204 270 339 386
#     4  10  20  38  63  90 123 165 214 255 321 386
#     4  11  23  40  66  93 127 168 220 265 314 392
#
# _framework density 21.075375000000001
#
# number of rings (size 3 to 8) (size 9 to 14) (size 15 to 20)
#    0.000    1.333    5.000    3.000    4.667    0.667 
#    0.000    0.833    3.667    0.000    0.000    0.000 
#    0.000    0.000    0.000    0.000    0.000    0.000 
#
# Total GULP energy -297314.593548 kJ/mol
# GULP energy per Si atom -12388.108064 kJ/mol
# Density = 2.102741 g / cm^3
# Si number density = 21.075375 Si / 1000 Ang^3
#
#
#
# Elastic Constant Matrix: (Units=GPa)
#
#
# Indices 1 2 3 4 5 6 
#
# 1 94.1301 -1.6268 29.0066 0.0000 0.0000 0.0000
# 2 -1.6268 69.3028 24.4933 0.0000 0.0000 0.0000
# 3 29.0066 24.4933 116.1695 0.0000 0.0000 0.0000
# 4 0.0000 0.0000 0.0000 13.3083 0.0000 0.0000
# 5 0.0000 0.0000 0.0000 0.0000 16.3980 0.0000
# 6 0.0000 0.0000 0.0000 0.0000 0.0000 30.4512
#
#
#
# Elastic Compliance Matrix: (Units=1/GPa)
#
#
# Indices 1 2 3 4 5 6 
#
# 1 0.011634 0.001404 -0.003201 0.000000 0.000000 0.000000
# 2 0.001404 0.015761 -0.003674 0.000000 0.000000 0.000000
# 3 -0.003201 -0.003674 0.010182 0.000000 0.000000 0.000000
# 4 0.000000 0.000000 0.000000 0.075141 0.000000 0.000000
# 5 0.000000 0.000000 0.000000 0.000000 0.060983 0.000000
# 6 0.000000 0.000000 0.000000 0.000000 0.000000 0.032839
#
#
# Mechanical properties :
#
#
# Convention : Reuss Voigt Hill
#
# Bulk Modulus (GPa) = 37.54270 42.59428 40.06849
# Shear Modulus (GPa) = 22.08869 27.21345 24.65107
#
# Velocity S-wave (km/s) = 3.24092 3.59729 3.42374
# Velocity P-wave (km/s) = 5.64420 6.12440 5.88919
#
# Compressibility (1/GPa) = 0.02663634
#
# Stress axis : x y z
#
# Youngs Moduli (GPa) = 85.95268 63.44869 98.21279
#
# Poissons Ratio (x) = -0.08911 0.31439
# Poissons Ratio (y) = -0.12072 0.36080
# Poissons Ratio (z) = 0.27514 0.23309
#
# Static dielectric constant tensor:
#      x y z
#    x 3.971930 0.000000 0.000000 
#    y 0.000000 3.716010 0.000000 
#    z 0.000000 0.000000 3.606990 
# 
# 
# High freq. dielectric constant tensor:
#      x y z
#    x 1.848490 0.000000 0.000000 
#    y 0.000000 1.806770 0.000000 
#    z 0.000000 0.000000 1.799830 
# 
# From -- ./inp_files/7317.got.cif
#   From: 2010.03.12/outbox.cif.g09.slc.cpg/sg41_4_cif.got.tgz:7317.got - 2010.04.14 01:55:53.
