data_PCOD8184599
_publ_section_title
;
Structure prediction by ZEFSAII (Michael W. Deem and Ramdas Pophale) SiO2 
 PCOD8184599
Probable space group: A M A 2
;
_chemical_formula_sum "Si O2"
_cell_formula_units_Z 40
_cell_length_a 8.488315
_cell_length_b 9.177155
_cell_length_c 26.036691
_cell_angle_alpha 90.000000
_cell_angle_beta 90.000000
_cell_angle_gamma 90.000000
_cell_volume 2028.221320
_symmetry_space_group_name_H-M "A M A 2"
_symmetry_group_IT_number 40
_symmetry_cell_setting 'orthorhombic'
loop_
_space_group_symop_operation_xyz
x,y,z
-x,-y,z
1/2-x,y,z
1/2+x,-y,z
x,1/2+y,1/2+z
-x,1/2-y,1/2+z
1/2-x,1/2+y,1/2+z
1/2+x,1/2-y,1/2+z
loop_
_atom_site_type_symbol
_atom_site_label
_atom_site_fract_x
_atom_site_fract_y
_atom_site_fract_z
Si Si1 0.934840 0.660598 0.086890
Si Si2 0.064628 0.160130 0.294629
Si Si3 0.934566 0.161132 0.699209
Si Si4 0.935262 0.836130 0.482999
Si Si5 0.935053 0.838747 0.888921
O O1 0.750000 0.659058 0.074332
O O2 0.971523 0.731656 0.142780
O O3 0.000000 0.500000 0.092377
O O4 0.025924 0.735500 0.039055
O O5 0.250000 0.149280 0.291311
O O6 0.994492 0.231116 0.242363
O O7 0.018485 0.259165 0.342200
O O8 0.000000 0.000000 0.302974
O O9 0.750000 0.145443 0.706743
O O10 0.000000 0.000000 0.706944
O O11 0.750000 0.832874 0.471987
O O12 0.026950 0.743454 0.441325
O O13 0.000000 0.000000 0.481485
O O14 0.750000 0.840742 0.879288
O O15 0.000000 0.000000 0.893274
#
# Coordination Sequence:
#
# PCOD8184599 Si02
#       5
#     8   8   8   8   8
#     4   9  16  30  52  81 113 148 187 231 276 328
#     4  11  23  40  59  84 114 149 189 233 281 334
#     4   9  19  34  56  83 114 148 187 231 279 330
#     4  11  21  36  58  86 116 151 190 233 279 330
#     4  12  25  42  61  84 112 146 185 232 283 338
#
# _framework density 19.721713000000001
#
# number of rings (size 3 to 8) (size 9 to 14) (size 15 to 20)
#    0.000    1.600    0.000    7.200    0.000    4.000 
#    0.000    1.000    0.000    2.400    0.000    0.000 
#    0.000    0.000    0.000    0.000    0.000    0.000 
#
# Total GULP energy -247925.809162 kJ/mol
# GULP energy per Si atom -12396.290458 kJ/mol
# Density = 1.967683 g / cm^3
# Si number density = 19.721713 Si / 1000 Ang^3
#
#
#
# Elastic Constant Matrix: (Units=GPa)
#
#
# Indices 1 2 3 4 5 6 
#
# 1 46.9642 4.9939 -0.4618 0.0000 0.0000 0.0000
# 2 4.9939 71.2078 41.2541 0.0000 0.0000 0.0000
# 3 -0.4618 41.2541 145.5774 0.0000 0.0000 0.0000
# 4 0.0000 0.0000 0.0000 3.9497 0.0000 0.0000
# 5 0.0000 0.0000 0.0000 0.0000 33.7268 0.0000
# 6 0.0000 0.0000 0.0000 0.0000 0.0000 26.3231
#
#
#
# Elastic Compliance Matrix: (Units=1/GPa)
#
#
# Indices 1 2 3 4 5 6 
#
# 1 0.021495 -0.001851 0.000593 0.000000 0.000000 0.000000
# 2 -0.001851 0.016961 -0.004812 0.000000 0.000000 0.000000
# 3 0.000593 -0.004812 0.008235 0.000000 0.000000 0.000000
# 4 0.000000 0.000000 0.000000 0.253183 0.000000 0.000000
# 5 0.000000 0.000000 0.000000 0.000000 0.029650 0.000000
# 6 0.000000 0.000000 0.000000 0.000000 0.000000 0.037989
#
#
# Mechanical properties :
#
#
# Convention : Reuss Voigt Hill
#
# Bulk Modulus (GPa) = 28.94326 39.48021 34.21173
# Shear Modulus (GPa) = 12.78210 27.33080 20.05645
#
# Velocity S-wave (km/s) = 2.54859 3.72670 3.19246
# Velocity P-wave (km/s) = 4.83406 6.21127 5.56543
#
# Compressibility (1/GPa) = 0.03455036
#
# Stress axis : x y z
#
# Youngs Moduli (GPa) = 46.52151 58.95789 121.43542
#
# Poissons Ratio (x) = 0.10912 -0.07197
# Poissons Ratio (y) = 0.08611 0.58440
# Poissons Ratio (z) = -0.02757 0.28373
#
# Static dielectric constant tensor:
#      x y z
#    x 3.706400 0.000000 0.000000 
#    y 0.000000 3.479570 0.000000 
#    z 0.000000 0.000000 4.530920 
# 
# 
# High freq. dielectric constant tensor:
#      x y z
#    x 1.779840 0.000000 0.000000 
#    y 0.000000 1.737910 0.000000 
#    z 0.000000 0.000000 1.800020 
# 
# From -- ./inp_files/23807.got.cif
#   From: 2010.03.12/outbox.cif.g09.slc.cpg/sg40_12_cif.got.tgz:23807.got - 2010.04.14 01:38:03.
