data_PCOD8184647
_publ_section_title
;
Structure prediction by ZEFSAII (Michael W. Deem and Ramdas Pophale) SiO2 
 PCOD8184647
Probable space group: A M A 2
;
_chemical_formula_sum "Si O2"
_cell_formula_units_Z 24
_cell_length_a 8.466998
_cell_length_b 18.542462
_cell_length_c 7.434864
_cell_angle_alpha 90.000000
_cell_angle_beta 90.000000
_cell_angle_gamma 90.000000
_cell_volume 1167.266129
_symmetry_space_group_name_H-M "A M A 2"
_symmetry_group_IT_number 40
_symmetry_cell_setting 'orthorhombic'
loop_
_space_group_symop_operation_xyz
x,y,z
-x,-y,z
1/2-x,y,z
1/2+x,-y,z
x,1/2+y,1/2+z
-x,1/2-y,1/2+z
1/2-x,1/2+y,1/2+z
1/2+x,1/2-y,1/2+z
loop_
_atom_site_type_symbol
_atom_site_label
_atom_site_fract_x
_atom_site_fract_y
_atom_site_fract_z
Si Si1 0.566767 0.923018 0.965420
Si Si2 0.931234 0.176753 0.260406
Si Si3 0.932542 0.672635 0.170090
O O1 0.750000 0.928499 0.919660
O O2 0.474983 0.897068 0.787630
O O3 0.500000 0.000000 0.024899
O O4 0.543313 0.867954 0.129406
O O5 0.750000 0.160448 0.210525
O O6 0.969983 0.153674 0.463840
O O7 0.961392 0.261596 0.239289
O O8 0.750000 0.693717 0.195003
#
# Coordination Sequence:
#
# PCOD8184647 Si02
#       3
#     8   8   8
#     4  12  26  44  66  94 131 172 213 268 326 382
#     4  11  23  40  66  97 129 168 215 264 318 381
#     4  11  23  40  66  97 129 168 215 264 318 381
#
# _framework density 20.560866000000001
#
# number of rings (size 3 to 8) (size 9 to 14) (size 15 to 20)
#    0.000    0.667    3.333    5.000    0.000    5.333 
#    0.000    0.000    0.000    0.000    0.000    0.000 
#    0.000    0.000    0.000    0.000    0.000    0.000 
#
# Total GULP energy -148914.260667 kJ/mol
# GULP energy per Si atom -12409.521722 kJ/mol
# Density = 2.051407 g / cm^3
# Si number density = 20.560866 Si / 1000 Ang^3
#
#
#
# Elastic Constant Matrix: (Units=GPa)
#
#
# Indices 1 2 3 4 5 6 
#
# 1 75.7189 15.0067 50.0082 0.0000 0.0000 0.0000
# 2 15.0067 78.8884 19.5340 0.0000 0.0000 0.0000
# 3 50.0082 19.5340 122.7301 0.0000 0.0000 0.0000
# 4 0.0000 0.0000 0.0000 19.4433 0.0000 0.0000
# 5 0.0000 0.0000 0.0000 0.0000 26.2530 0.0000
# 6 0.0000 0.0000 0.0000 0.0000 0.0000 36.8914
#
#
#
# Elastic Compliance Matrix: (Units=1/GPa)
#
#
# Indices 1 2 3 4 5 6 
#
# 1 0.018286 -0.001701 -0.007180 0.000000 0.000000 0.000000
# 2 -0.001701 0.013354 -0.001433 0.000000 0.000000 0.000000
# 3 -0.007180 -0.001433 0.011302 0.000000 0.000000 0.000000
# 4 0.000000 0.000000 0.000000 0.051432 0.000000 0.000000
# 5 0.000000 0.000000 0.000000 0.000000 0.038091 0.000000
# 6 0.000000 0.000000 0.000000 0.000000 0.000000 0.027107
#
#
# Mechanical properties :
#
#
# Convention : Reuss Voigt Hill
#
# Bulk Modulus (GPa) = 44.81243 49.60391 47.20817
# Shear Modulus (GPa) = 26.64732 29.37010 28.00871
#
# Velocity S-wave (km/s) = 3.60393 3.78358 3.69485
# Velocity P-wave (km/s) = 6.25780 6.57762 6.41970
#
# Compressibility (1/GPa) = 0.02231524
#
# Stress axis : x y z
#
# Youngs Moduli (GPa) = 54.68691 74.88197 88.48253
#
# Poissons Ratio (x) = 0.12734 0.63532
# Poissons Ratio (y) = 0.09300 0.12676
# Poissons Ratio (z) = 0.39266 0.10728
#
# Static dielectric constant tensor:
#      x y z
#    x 3.738680 0.000000 0.000000 
#    y 0.000000 3.599390 0.000000 
#    z 0.000000 0.000000 3.832660 
# 
# 
# High freq. dielectric constant tensor:
#      x y z
#    x 1.816930 0.000000 0.000000 
#    y 0.000000 1.794550 0.000000 
#    z 0.000000 0.000000 1.817980 
# 
# From -- ./inp_files/3873.got.cif
#   From: 2010.03.12/outbox.cif.g09.slc.cpg/sg40_2_cif.got.tgz:3873.got - 2010.04.14 01:38:03.
