data_PCOD8184079
_publ_section_title
;
Structure prediction by ZEFSAII (Michael W. Deem and Ramdas Pophale) SiO2 
 PCOD8184079
Probable space group: A M A 2
;
_chemical_formula_sum "Si O2"
_cell_formula_units_Z 56
_cell_length_a 17.267916
_cell_length_b 4.908665
_cell_length_c 31.266933
_cell_angle_alpha 90.000000
_cell_angle_beta 90.000000
_cell_angle_gamma 90.000000
_cell_volume 2650.260747
_symmetry_space_group_name_H-M "A M A 2"
_symmetry_group_IT_number 40
_symmetry_cell_setting 'orthorhombic'
loop_
_space_group_symop_operation_xyz
x,y,z
-x,-y,z
1/2-x,y,z
1/2+x,-y,z
x,1/2+y,1/2+z
-x,1/2-y,1/2+z
1/2-x,1/2+y,1/2+z
1/2+x,1/2-y,1/2+z
loop_
_atom_site_type_symbol
_atom_site_label
_atom_site_fract_x
_atom_site_fract_y
_atom_site_fract_z
Si Si1 0.661105 0.259464 0.838570
Si Si2 0.551103 0.250352 0.111705
Si Si3 0.164087 0.053019 0.982529
Si Si4 0.838128 0.772869 0.782632
Si Si5 0.834761 0.448358 0.039662
Si Si6 0.552016 0.739672 0.415064
Si Si7 0.052828 0.759319 0.205138
O O1 0.750000 0.239375 0.854371
O O2 0.651455 0.472413 0.800558
O O3 0.610429 0.350330 0.879221
O O4 0.629177 0.977846 0.818851
O O5 0.500000 0.500000 0.125725
O O6 0.610980 0.392074 0.079741
O O7 0.586722 0.156667 0.157707
O O8 0.500000 0.000000 0.091482
O O9 0.250000 0.104980 0.960840
O O10 0.132290 0.335279 0.004186
O O11 0.176581 0.846235 0.020427
O O12 0.100736 0.917379 0.951699
O O13 0.750000 0.855578 0.774504
O O14 0.877102 0.798207 0.736837
O O15 0.750000 0.557464 0.054814
O O16 0.500000 0.500000 0.395065
O O17 0.500000 0.000000 0.431065
O O18 0.000000 0.500000 0.203396
O O19 0.000000 0.000000 0.223704
#
# Coordination Sequence:
#
# PCOD8184079 Si02
#       7
#     8   8   8   8   8   8   8
#     4  10  22  40  59  82 116 156 194 238 297 353
#     4  10  21  37  57  85 120 156 192 237 298 357
#     4  10  22  41  61  83 116 153 189 238 300 355
#     4  10  21  37  59  85 113 152 200 243 288 345
#     4  10  21  38  62  87 111 149 198 241 288 352
#     4  12  25  39  59  89 118 149 196 245 292 352
#     4  10  21  36  56  83 118 157 193 236 294 352
#
# _framework density 21.129994
#
# number of rings (size 3 to 8) (size 9 to 14) (size 15 to 20)
#    0.000    1.714    0.000    3.857    0.000    6.286 
#    0.000    5.714    0.000   10.286    0.000    0.000 
#    0.000    0.000    0.000    0.000    0.000    0.000 
#
# Total GULP energy -346900.591646 kJ/mol
# GULP energy per Si atom -12389.306845 kJ/mol
# Density = 2.108190 g / cm^3
# Si number density = 21.129994 Si / 1000 Ang^3
#
#
#
# Elastic Constant Matrix: (Units=GPa)
#
#
# Indices 1 2 3 4 5 6 
#
# 1 94.1460 31.6734 66.2378 0.0000 0.0000 0.0000
# 2 31.6734 107.6331 15.7196 0.0000 0.0000 0.0000
# 3 66.2378 15.7196 103.5441 0.0000 0.0000 0.0000
# 4 0.0000 0.0000 0.0000 31.5310 0.0000 0.0000
# 5 0.0000 0.0000 0.0000 0.0000 45.8507 0.0000
# 6 0.0000 0.0000 0.0000 0.0000 0.0000 31.6576
#
#
#
# Elastic Compliance Matrix: (Units=1/GPa)
#
#
# Indices 1 2 3 4 5 6 
#
# 1 0.021127 -0.004339 -0.012856 0.000000 0.000000 0.000000
# 2 -0.004339 0.010393 0.001198 0.000000 0.000000 0.000000
# 3 -0.012856 0.001198 0.017700 0.000000 0.000000 0.000000
# 4 0.000000 0.000000 0.000000 0.031715 0.000000 0.000000
# 5 0.000000 0.000000 0.000000 0.000000 0.021810 0.000000
# 6 0.000000 0.000000 0.000000 0.000000 0.000000 0.031588
#
#
# Mechanical properties :
#
#
# Convention : Reuss Voigt Hill
#
# Bulk Modulus (GPa) = 58.05589 59.17607 58.61598
# Shear Modulus (GPa) = 29.05810 34.58735 31.82272
#
# Velocity S-wave (km/s) = 3.71240 4.05023 3.88499
# Velocity P-wave (km/s) = 6.77577 7.06675 6.92279
#
# Compressibility (1/GPa) = 0.01722478
#
# Stress axis : x y z
#
# Youngs Moduli (GPa) = 47.33299 96.22044 56.49702
#
# Poissons Ratio (x) = 0.41754 0.72634
# Poissons Ratio (y) = 0.20540 -0.06769
# Poissons Ratio (z) = 0.60852 -0.11529
#
# Static dielectric constant tensor:
#      x y z
#    x 3.893950 0.000000 0.000000 
#    y 0.000000 4.045660 0.000000 
#    z 0.000000 0.000000 3.655060 
# 
# 
# High freq. dielectric constant tensor:
#      x y z
#    x 1.818660 0.000000 0.000000 
#    y 0.000000 1.850120 0.000000 
#    z 0.000000 0.000000 1.817340 
# 
# From -- ./inp_files/26605.got.cif
#   From: 2010.03.12/outbox.cif.g09.slc.cpg/sg40_14_cif.got.tgz:26605.got - 2010.04.14 01:38:03.
