data_PCOD8184350
_publ_section_title
;
Structure prediction by ZEFSAII (Michael W. Deem and Ramdas Pophale) SiO2 
 PCOD8184350
Probable space group: A M A 2
;
_chemical_formula_sum "Si O2"
_cell_formula_units_Z 28
_cell_length_a 10.237929
_cell_length_b 16.752643
_cell_length_c 7.952467
_cell_angle_alpha 90.000000
_cell_angle_beta 90.000000
_cell_angle_gamma 90.000000
_cell_volume 1363.946459
_symmetry_space_group_name_H-M "A M A 2"
_symmetry_group_IT_number 40
_symmetry_cell_setting 'orthorhombic'
loop_
_space_group_symop_operation_xyz
x,y,z
-x,-y,z
1/2-x,y,z
1/2+x,-y,z
x,1/2+y,1/2+z
-x,1/2-y,1/2+z
1/2-x,1/2+y,1/2+z
1/2+x,1/2-y,1/2+z
loop_
_atom_site_type_symbol
_atom_site_label
_atom_site_fract_x
_atom_site_fract_y
_atom_site_fract_z
Si Si1 0.500000 0.500000 0.037760
Si Si2 0.894103 0.441146 0.362079
Si Si3 0.897972 0.651250 0.869722
Si Si4 0.897257 0.297158 0.590981
O O1 0.593284 0.446265 0.158696
O O2 0.582246 0.559181 0.920188
O O3 0.750000 0.470723 0.415037
O O4 0.918041 0.351326 0.424582
O O5 0.000000 0.500000 0.449642
O O6 0.750000 0.661782 0.801464
O O7 0.999774 0.677411 0.729479
O O8 0.919214 0.706065 0.034606
O O9 0.750000 0.308465 0.662945
#
# Coordination Sequence:
#
# PCOD8184350 Si02
#       4
#     4   8   8   8
#     4  10  22  38  62  90 124 160 202 254 298 368
#     4   9  20  38  61  87 119 158 201 250 303 360
#     4  11  24  42  64  92 125 166 209 254 310 369
#     4  10  23  42  63  90 125 163 208 258 310 366
#
# _framework density 20.528663999999999
#
# number of rings (size 3 to 8) (size 9 to 14) (size 15 to 20)
#    0.857    1.143    0.000    2.571    2.000    4.571 
#    0.000    0.000    0.000    0.000    0.000    0.000 
#    0.000    0.000    0.000    0.000    0.000    0.000 
#
# Total GULP energy -173522.787165 kJ/mol
# GULP energy per Si atom -12394.484798 kJ/mol
# Density = 2.048194 g / cm^3
# Si number density = 20.528664 Si / 1000 Ang^3
#
#
#
# Elastic Constant Matrix: (Units=GPa)
#
#
# Indices 1 2 3 4 5 6 
#
# 1 153.9941 57.2636 67.6126 0.0000 0.0000 0.0000
# 2 57.2636 104.7378 36.4692 0.0000 0.0000 0.0000
# 3 67.6126 36.4692 91.1493 0.0000 0.0000 0.0000
# 4 0.0000 0.0000 0.0000 34.4851 0.0000 0.0000
# 5 0.0000 0.0000 0.0000 0.0000 29.3021 0.0000
# 6 0.0000 0.0000 0.0000 0.0000 0.0000 31.5074
#
#
#
# Elastic Compliance Matrix: (Units=1/GPa)
#
#
# Indices 1 2 3 4 5 6 
#
# 1 0.010671 -0.003576 -0.006484 0.000000 0.000000 0.000000
# 2 -0.003576 0.012292 -0.002265 0.000000 0.000000 0.000000
# 3 -0.006484 -0.002265 0.016687 0.000000 0.000000 0.000000
# 4 0.000000 0.000000 0.000000 0.028998 0.000000 0.000000
# 5 0.000000 0.000000 0.000000 0.000000 0.034127 0.000000
# 6 0.000000 0.000000 0.000000 0.000000 0.000000 0.031739
#
#
# Mechanical properties :
#
#
# Convention : Reuss Voigt Hill
#
# Bulk Modulus (GPa) = 66.67551 74.73021 70.70286
# Shear Modulus (GPa) = 30.45731 31.62796 31.04263
#
# Velocity S-wave (km/s) = 3.85599 3.92940 3.89287
# Velocity P-wave (km/s) = 7.23703 7.55439 7.39741
#
# Compressibility (1/GPa) = 0.01499801
#
# Stress axis : x y z
#
# Youngs Moduli (GPa) = 93.71547 81.35650 59.92574
#
# Poissons Ratio (x) = 0.29094 0.38858
# Poissons Ratio (y) = 0.33514 0.13575
# Poissons Ratio (z) = 0.60769 0.18429
#
# Static dielectric constant tensor:
#      x y z
#    x 3.779350 0.000000 0.000000 
#    y 0.000000 3.760930 0.000000 
#    z 0.000000 0.000000 3.314570 
# 
# 
# High freq. dielectric constant tensor:
#      x y z
#    x 1.811500 0.000000 0.000000 
#    y 0.000000 1.808290 0.000000 
#    z 0.000000 0.000000 1.774580 
# 
# From -- ./inp_files/3940.got.cif
#   From: 2010.03.12/outbox.cif.g09.slc.cpg/sg40_2_cif.got.tgz:3940.got - 2010.04.14 01:38:03.
