data_PCOD8184999
_publ_section_title
;
Structure prediction by ZEFSAII (Michael W. Deem and Ramdas Pophale) SiO2 
 PCOD8184999
Probable space group: A B A 2
;
_chemical_formula_sum "Si O2"
_cell_formula_units_Z 52
_cell_length_a 13.778330
_cell_length_b 21.216915
_cell_length_c 9.596937
_cell_angle_alpha 90.000000
_cell_angle_beta 90.000000
_cell_angle_gamma 90.000000
_cell_volume 2805.507684
_symmetry_space_group_name_H-M "A B A 2"
_symmetry_group_IT_number 41
_symmetry_cell_setting 'orthorhombic'
loop_
_space_group_symop_operation_xyz
x,y,z
-x,-y,z
1/2-x,y,1/2+z
1/2+x,-y,1/2+z
x,1/2+y,1/2+z
-x,1/2-y,1/2+z
1/2-x,1/2+y,z
1/2+x,1/2-y,z
loop_
_atom_site_type_symbol
_atom_site_label
_atom_site_fract_x
_atom_site_fract_y
_atom_site_fract_z
Si Si1 0.568692 0.619978 0.223230
Si Si2 0.244352 0.705821 0.446117
Si Si3 0.964507 0.310309 0.944374
Si Si4 0.752353 0.707116 0.702937
Si Si5 0.034129 0.808667 0.756842
Si Si6 0.000000 0.500000 0.602123
Si Si7 0.434448 0.120590 0.481271
O O1 0.523889 0.631705 0.376855
O O2 0.675902 0.647897 0.207516
O O3 0.569923 0.544245 0.197463
O O4 0.499522 0.652226 0.104825
O O5 0.350432 0.675162 0.434702
O O6 0.210532 0.734857 0.298525
O O7 0.243429 0.765640 0.548448
O O8 0.172478 0.650204 0.491605
O O9 0.995658 0.250253 0.852885
O O10 0.993903 0.299036 0.102761
O O11 0.649400 0.681479 0.756461
O O12 0.983938 0.868619 0.830536
O O13 0.069012 0.544878 0.506703
#
# Coordination Sequence:
#
# PCOD8184999 Si02
#       7
#     8   8   8   8   8   4   8
#     4  10  20  40  59  79 114 158 205 232 283 354
#     4  11  21  32  57  93 118 145 188 245 306 348
#     4  11  21  34  58  91 121 153 185 247 306 348
#     4  11  21  32  57  93 118 145 188 245 306 348
#     4  11  21  34  58  91 121 153 185 247 306 348
#     4   8  24  40  66  72 114 176 202 226 292 340
#     4  10  20  40  59  79 114 158 205 232 283 354
#
# _framework density 18.534970000000001
#
# number of rings (size 3 to 8) (size 9 to 14) (size 15 to 20)
#    0.923    0.615    0.000    9.231    0.000    0.000 
#    0.000    2.308    0.000    0.000    0.000    0.000 
#    0.000    0.000    0.000    0.000    0.000    0.000 
#
# Total GULP energy -322345.780269 kJ/mol
# GULP energy per Si atom -12397.914626 kJ/mol
# Density = 1.849278 g / cm^3
# Si number density = 18.534970 Si / 1000 Ang^3
#
#
#
# Elastic Constant Matrix: (Units=GPa)
#
#
# Indices 1 2 3 4 5 6 
#
# 1 100.3202 57.2001 30.9383 0.0000 0.0000 0.0000
# 2 57.2001 117.4190 40.1669 0.0000 0.0000 0.0000
# 3 30.9383 40.1669 123.0216 0.0000 0.0000 0.0000
# 4 0.0000 0.0000 0.0000 22.2134 0.0000 0.0000
# 5 0.0000 0.0000 0.0000 0.0000 30.4287 0.0000
# 6 0.0000 0.0000 0.0000 0.0000 0.0000 25.3509
#
#
#
# Elastic Compliance Matrix: (Units=1/GPa)
#
#
# Indices 1 2 3 4 5 6 
#
# 1 0.014031 -0.006336 -0.001460 0.000000 0.000000 0.000000
# 2 -0.006336 0.012448 -0.002471 0.000000 0.000000 0.000000
# 3 -0.001460 -0.002471 0.009303 0.000000 0.000000 0.000000
# 4 0.000000 0.000000 0.000000 0.045018 0.000000 0.000000
# 5 0.000000 0.000000 0.000000 0.000000 0.032864 0.000000
# 6 0.000000 0.000000 0.000000 0.000000 0.000000 0.039446
#
#
# Mechanical properties :
#
#
# Convention : Reuss Voigt Hill
#
# Bulk Modulus (GPa) = 65.58092 66.37460 65.97776
# Shear Modulus (GPa) = 27.97589 29.76230 28.86910
#
# Velocity S-wave (km/s) = 3.88926 4.01151 3.95086
# Velocity P-wave (km/s) = 7.45839 7.57262 7.51572
#
# Compressibility (1/GPa) = 0.01524834
#
# Stress axis : x y z
#
# Youngs Moduli (GPa) = 71.27224 80.33319 107.49666
#
# Poissons Ratio (x) = 0.50896 0.15694
# Poissons Ratio (y) = 0.45155 0.26563
# Poissons Ratio (z) = 0.10405 0.19851
#
# Static dielectric constant tensor:
#      x y z
#    x 3.444740 0.000000 0.000000 
#    y 0.000000 3.080180 0.000000 
#    z 0.000000 0.000000 3.558500 
# 
# 
# High freq. dielectric constant tensor:
#      x y z
#    x 1.726240 0.000000 0.000000 
#    y 0.000000 1.676900 0.000000 
#    z 0.000000 0.000000 1.731240 
# 
# From -- ./inp_files/2645.got.cif
#   From: 2010.03.12/outbox.cif.g09.slc.cpg/sg41_2_cif.got.tgz:2645.got - 2010.04.14 01:55:53.
