data_PCOD8184721
_publ_section_title
;
Structure prediction by ZEFSAII (Michael W. Deem and Ramdas Pophale) SiO2 
 PCOD8184721
Probable space group: A M A 2
;
_chemical_formula_sum "Si O2"
_cell_formula_units_Z 24
_cell_length_a 15.000000
_cell_length_b 18.000000
_cell_length_c 9.000000
_cell_angle_alpha 90.000000
_cell_angle_beta 90.000000
_cell_angle_gamma 90.000000
_cell_volume 2430.000000
_symmetry_space_group_name_H-M "A M A 2"
_symmetry_group_IT_number 40
_symmetry_cell_setting 'orthorhombic'
loop_
_space_group_symop_operation_xyz
x,y,z
-x,-y,z
1/2-x,y,z
1/2+x,-y,z
x,1/2+y,1/2+z
-x,1/2-y,1/2+z
1/2-x,1/2+y,1/2+z
1/2+x,1/2-y,1/2+z
loop_
_atom_site_type_symbol
_atom_site_label
_atom_site_fract_x
_atom_site_fract_y
_atom_site_fract_z
Si Si1 0.750000 0.450716 0.116720
Si Si2 0.412267 0.801665 0.848194
Si Si3 0.750000 0.033600 0.316826
Si Si4 0.347582 0.052391 0.082634
Si Si5 0.589188 0.283777 0.544376
Si Si6 0.250000 0.724637 0.026492
Si Si7 0.594401 0.022932 0.803690
Si Si8 0.750000 0.212250 0.356156
O O1 0.750000 0.365665 0.050786
O O2 0.664018 0.472804 0.212725
O O3 0.750000 0.507258 0.982833
O O4 0.431201 0.766080 0.687755
O O5 0.386195 0.888233 0.813960
O O6 0.501436 0.795603 0.945364
O O7 0.335023 0.755906 0.934585
O O8 0.662594 0.998270 0.232950
O O9 0.750000 0.123204 0.329076
O O10 0.250000 0.060394 0.007330
O O11 0.382138 0.135970 0.109391
O O12 0.410096 0.007127 0.972001
O O13 0.663577 0.241797 0.445140
O O14 0.250000 0.755582 0.191650
O O15 0.500000 0.000000 0.730434
#
# Coordination Sequence:
#
# PCOD8184721 Si02
#       8
#     4   8   4   8   8   4   8   4
#     4  12  24  44  68 100 136 174 216 284 340 390
#     4  12  27  43  66 103 134 179 229 283 330 403
#     4  10  22  40  68  98 130 174 220 274 338 382
#     4  10  21  45  68  92 125 180 223 259 326 410
#     4  12  24  44  67  98 140 177 225 275 338 394
#     4  12  26  44  72  98 136 176 226 280 344 400
#     4  12  24  43  70  97 134 180 229 270 327 405
#     4  12  22  42  70  98 136 180 214 282 334 406
#
# _framework density 9.8765429999999999
#
# number of rings (size 3 to 8) (size 9 to 14) (size 15 to 20)
#    0.500    0.000    3.333    6.000    2.333    0.000 
#    0.000    0.833    0.000    0.000    0.000    0.000 
#    0.000    0.000    0.000    0.000    0.000    0.000 
#
# Total GULP energy -297362.921899 kJ/mol
# GULP energy per Si atom -12390.121746 kJ/mol
# Density = 0.985406 g / cm^3
# Si number density = 9.876543 Si / 1000 Ang^3
#
#
#
# Elastic Constant Matrix: (Units=GPa)
#
#
# Indices 1 2 3 4 5 6 
#
# 1 128.7801 34.4197 26.7986 0.0000 0.0000 0.0000
# 2 34.4197 193.4175 32.8866 0.0000 0.0000 0.0000
# 3 26.7986 32.8866 105.7081 0.0000 0.0000 0.0000
# 4 0.0000 0.0000 0.0000 46.0748 0.0000 0.0000
# 5 0.0000 0.0000 0.0000 0.0000 26.4429 0.0000
# 6 0.0000 0.0000 0.0000 0.0000 0.0000 35.2413
#
#
#
# Elastic Compliance Matrix: (Units=1/GPa)
#
#
# Indices 1 2 3 4 5 6 
#
# 1 0.008455 -0.001204 -0.001769 0.000000 0.000000 0.000000
# 2 -0.001204 0.005630 -0.001446 0.000000 0.000000 0.000000
# 3 -0.001769 -0.001446 0.010358 0.000000 0.000000 0.000000
# 4 0.000000 0.000000 0.000000 0.021704 0.000000 0.000000
# 5 0.000000 0.000000 0.000000 0.000000 0.037817 0.000000
# 6 0.000000 0.000000 0.000000 0.000000 0.000000 0.028376
#
#
# Mechanical properties :
#
#
# Convention : Reuss Voigt Hill
#
# Bulk Modulus (GPa) = 64.08059 68.45728 66.26893
# Shear Modulus (GPa) = 39.56287 43.80518 41.68403
#
# Velocity S-wave (km/s) = 4.48020 4.71429 4.59873
# Velocity P-wave (km/s) = 7.69897 8.02274 7.86252
#
# Compressibility (1/GPa) = 0.01560535
#
# Stress axis : x y z
#
# Youngs Moduli (GPa) = 118.27254 177.60947 96.53939
#
# Poissons Ratio (x) = 0.21381 0.17077
# Poissons Ratio (y) = 0.14238 0.13964
# Poissons Ratio (z) = 0.20922 0.25690
#
# Static dielectric constant tensor:
#      x y z
#    x 3.802870 0.000000 0.000000 
#    y 0.000000 4.158000 0.000000 
#    z 0.000000 0.000000 3.789510 
# 
# 
# High freq. dielectric constant tensor:
#      x y z
#    x 1.783310 0.000000 0.000000 
#    y 0.000000 1.814190 0.000000 
#    z 0.000000 0.000000 1.789820 
# 
# From -- ./inp_files/6552.got.cif
#   From: 2010.03.12/outbox.ucp.g09.slc.cvg/sg40_4_cif.got.tgz:6552.got - 2010.05.04 21:16:09.
