data_PCOD8184778
_publ_section_title
;
Structure prediction by ZEFSAII (Michael W. Deem and Ramdas Pophale) SiO2 
 PCOD8184778
Probable space group: A B A 2
;
_chemical_formula_sum "Si O2"
_cell_formula_units_Z 60
_cell_length_a 14.971913
_cell_length_b 10.851753
_cell_length_c 17.502347
_cell_angle_alpha 90.000000
_cell_angle_beta 90.000000
_cell_angle_gamma 90.000000
_cell_volume 2843.632602
_symmetry_space_group_name_H-M "A B A 2"
_symmetry_group_IT_number 41
_symmetry_cell_setting 'orthorhombic'
loop_
_space_group_symop_operation_xyz
x,y,z
-x,-y,z
1/2-x,y,1/2+z
1/2+x,-y,1/2+z
x,1/2+y,1/2+z
-x,1/2-y,1/2+z
1/2-x,1/2+y,z
1/2+x,1/2-y,z
loop_
_atom_site_type_symbol
_atom_site_label
_atom_site_fract_x
_atom_site_fract_y
_atom_site_fract_z
Si Si1 0.000000 0.500000 0.592270
Si Si2 0.611794 0.254409 0.267794
Si Si3 0.086455 0.420657 0.120171
Si Si4 0.870878 0.011540 0.216252
Si Si5 0.458723 0.633875 0.856157
Si Si6 0.231143 0.115265 0.616909
Si Si7 0.186836 0.241084 0.758697
Si Si8 0.608258 0.797753 0.515045
O O1 0.075683 0.436827 0.643818
O O2 0.034916 0.605749 0.539086
O O3 0.610266 0.165076 0.193198
O O4 0.575836 0.393097 0.250357
O O5 0.546969 0.210543 0.334751
O O6 0.714551 0.264012 0.297283
O O7 0.158745 0.518247 0.088587
O O8 0.076336 0.333606 0.046576
O O9 0.000000 0.500000 0.141146
O O10 0.853223 0.122301 0.275636
O O11 0.778732 0.955927 0.186286
O O12 0.500000 0.500000 0.873266
O O13 0.383441 0.637230 0.789091
O O14 0.400675 0.697557 0.923734
O O15 0.190458 0.229718 0.665388
O O16 0.293437 0.163657 0.547452
#
# Coordination Sequence:
#
# PCOD8184778 Si02
#       8
#     4   8   8   8   8   8   8   8
#     4  10  18  36  64  86 126 178 214 276 328 412
#     4  11  22  42  68 103 137 175 237 283 340 403
#     4  12  23  43  71 106 135 175 238 293 336 410
#     4  10  19  35  66  97 130 168 228 282 331 389
#     4  12  27  46  68  99 144 186 226 281 353 419
#     4  10  20  41  71  97 133 172 229 287 334 408
#     4  11  22  41  71 102 135 178 229 288 340 405
#     4  11  24  47  63 100 139 178 229 275 356 415
#
# _framework density 21.099772999999999
#
# number of rings (size 3 to 8) (size 9 to 14) (size 15 to 20)
#    0.000    1.067    6.000    2.800    3.733    0.000 
#    7.200    0.000    0.000    0.000    0.000    0.000 
#    0.000    0.000    0.000    0.000    0.000    0.000 
#
# Total GULP energy -371646.305179 kJ/mol
# GULP energy per Si atom -12388.210173 kJ/mol
# Density = 2.105175 g / cm^3
# Si number density = 21.099773 Si / 1000 Ang^3
#
#
#
# Elastic Constant Matrix: (Units=GPa)
#
#
# Indices 1 2 3 4 5 6 
#
# 1 93.6773 42.5785 37.6120 0.0000 0.0000 0.0000
# 2 42.5785 92.8103 33.2656 0.0000 0.0000 0.0000
# 3 37.6120 33.2656 78.4521 0.0000 0.0000 0.0000
# 4 0.0000 0.0000 0.0000 24.5521 0.0000 0.0000
# 5 0.0000 0.0000 0.0000 0.0000 113.2949 0.0000
# 6 0.0000 0.0000 0.0000 0.0000 0.0000 36.4124
#
#
#
# Elastic Compliance Matrix: (Units=1/GPa)
#
#
# Indices 1 2 3 4 5 6 
#
# 1 0.015007 -0.005078 -0.005042 0.000000 0.000000 0.000000
# 2 -0.005078 0.014424 -0.003682 0.000000 0.000000 0.000000
# 3 -0.005042 -0.003682 0.016725 0.000000 0.000000 0.000000
# 4 0.000000 0.000000 0.000000 0.040730 0.000000 0.000000
# 5 0.000000 0.000000 0.000000 0.000000 0.008827 0.000000
# 6 0.000000 0.000000 0.000000 0.000000 0.000000 0.027463
#
#
# Mechanical properties :
#
#
# Convention : Reuss Voigt Hill
#
# Bulk Modulus (GPa) = 53.89792 54.65022 54.27407
# Shear Modulus (GPa) = 31.85482 44.95077 38.40280
#
# Velocity S-wave (km/s) = 3.88973 4.62062 4.27084
# Velocity P-wave (km/s) = 6.76558 7.37726 7.07803
#
# Compressibility (1/GPa) = 0.01855359
#
# Stress axis : x y z
#
# Youngs Moduli (GPa) = 66.63476 69.33008 59.79107
#
# Poissons Ratio (x) = 0.35204 0.30145
# Poissons Ratio (y) = 0.33835 0.22013
# Poissons Ratio (z) = 0.33596 0.25525
#
# Static dielectric constant tensor:
#      x y z
#    x 3.414910 0.000000 0.000000 
#    y 0.000000 4.206820 0.000000 
#    z 0.000000 0.000000 3.458260 
# 
# 
# High freq. dielectric constant tensor:
#      x y z
#    x 1.840900 0.000000 0.000000 
#    y 0.000000 1.841060 0.000000 
#    z 0.000000 0.000000 1.780800 
# 
# From -- ./inp_files/10384.got.cif
#   From: 2010.03.12/outbox.cif.g09.slc.cpg/sg41_6_cif.got.tgz:10384.got - 2010.04.14 01:55:53.
