data_PCOD8184362
_publ_section_title
;
Structure prediction by ZEFSAII (Michael W. Deem and Ramdas Pophale) SiO2 
 PCOD8184362
Probable space group: A M A 2
;
_chemical_formula_sum "Si O2"
_cell_formula_units_Z 60
_cell_length_a 8.964077
_cell_length_b 26.016716
_cell_length_c 12.152484
_cell_angle_alpha 90.000000
_cell_angle_beta 90.000000
_cell_angle_gamma 90.000000
_cell_volume 2834.151831
_symmetry_space_group_name_H-M "A M A 2"
_symmetry_group_IT_number 40
_symmetry_cell_setting 'orthorhombic'
loop_
_space_group_symop_operation_xyz
x,y,z
-x,-y,z
1/2-x,y,z
1/2+x,-y,z
x,1/2+y,1/2+z
-x,1/2-y,1/2+z
1/2-x,1/2+y,1/2+z
1/2+x,1/2-y,1/2+z
loop_
_atom_site_type_symbol
_atom_site_label
_atom_site_fract_x
_atom_site_fract_y
_atom_site_fract_z
Si Si1 0.921087 0.385340 0.239390
Si Si2 0.000000 0.000000 0.342661
Si Si3 0.578878 0.777747 0.639518
Si Si4 0.075845 0.184763 0.226087
Si Si5 0.085674 0.583938 0.998777
Si Si6 0.423747 0.948160 0.920110
Si Si7 0.422069 0.822686 0.439933
Si Si8 0.082473 0.917204 0.166127
O O1 0.750000 0.394737 0.270973
O O2 0.952859 0.324268 0.224794
O O3 0.020328 0.402029 0.342727
O O4 0.961172 0.418427 0.128418
O O5 0.916823 0.039322 0.260806
O O6 0.102641 0.030878 0.430502
O O7 0.750000 0.759075 0.645619
O O8 0.463510 0.730130 0.642229
O O9 0.543726 0.800601 0.521500
O O10 0.250000 0.185496 0.257093
O O11 0.963766 0.201507 0.323585
O O12 0.036471 0.127886 0.185064
O O13 0.250000 0.610369 0.995949
O O14 0.959055 0.616372 0.934066
O O15 0.250000 0.954033 0.902337
O O16 0.500000 0.000000 0.878027
O O17 0.463815 0.939861 0.047939
O O18 0.250000 0.812503 0.470818
O O19 0.250000 0.894142 0.161804
#
# Coordination Sequence:
#
# PCOD8184362 Si02
#       8
#     8   4   8   8   8   8   8   8
#     4   9  21  42  65  94 128 165 210 263 322 381
#     4  12  22  38  68  94 132 166 218 258 332 384
#     4  10  22  43  68  93 127 165 211 271 326 382
#     4  12  25  41  65  95 129 169 214 263 322 389
#     4  10  22  39  62  94 128 164 212 266 321 379
#     4  11  24  42  64  92 128 171 217 265 315 377
#     4  11  22  39  63  92 127 165 209 259 319 384
#     4  11  25  43  63  93 130 170 218 270 322 383
#
# _framework density 21.170355000000001
#
# number of rings (size 3 to 8) (size 9 to 14) (size 15 to 20)
#    0.000    1.333    2.000    4.400    0.933    5.867 
#    0.000    2.667    0.000    0.000    0.000    0.000 
#    0.000    0.000    0.000    0.000    0.000    0.000 
#
# Total GULP energy -371754.436728 kJ/mol
# GULP energy per Si atom -12391.814558 kJ/mol
# Density = 2.112217 g / cm^3
# Si number density = 21.170355 Si / 1000 Ang^3
#
#
#
# Elastic Constant Matrix: (Units=GPa)
#
#
# Indices 1 2 3 4 5 6 
#
# 1 112.4385 38.0719 36.8306 0.0000 0.0000 0.0000
# 2 38.0719 100.2493 32.4043 0.0000 0.0000 0.0000
# 3 36.8306 32.4043 78.1291 0.0000 0.0000 0.0000
# 4 0.0000 0.0000 0.0000 15.3206 0.0000 0.0000
# 5 0.0000 0.0000 0.0000 0.0000 27.8650 0.0000
# 6 0.0000 0.0000 0.0000 0.0000 0.0000 34.6223
#
#
#
# Elastic Compliance Matrix: (Units=1/GPa)
#
#
# Indices 1 2 3 4 5 6 
#
# 1 0.011225 -0.002948 -0.004069 0.000000 0.000000 0.000000
# 2 -0.002948 0.012294 -0.003709 0.000000 0.000000 0.000000
# 3 -0.004069 -0.003709 0.016256 0.000000 0.000000 0.000000
# 4 0.000000 0.000000 0.000000 0.065271 0.000000 0.000000
# 5 0.000000 0.000000 0.000000 0.000000 0.035887 0.000000
# 6 0.000000 0.000000 0.000000 0.000000 0.000000 0.028883
#
#
# Mechanical properties :
#
#
# Convention : Reuss Voigt Hill
#
# Bulk Modulus (GPa) = 54.57747 56.15895 55.36821
# Shear Modulus (GPa) = 25.33252 27.79559 26.56405
#
# Velocity S-wave (km/s) = 3.46295 3.62739 3.54612
# Velocity P-wave (km/s) = 6.46726 6.64295 6.55569
#
# Compressibility (1/GPa) = 0.01832258
#
# Stress axis : x y z
#
# Youngs Moduli (GPa) = 89.08992 81.34367 61.51644
#
# Poissons Ratio (x) = 0.23977 0.25030
# Poissons Ratio (y) = 0.26260 0.22818
# Poissons Ratio (z) = 0.36249 0.30172
#
# Static dielectric constant tensor:
#      x y z
#    x 3.651740 0.000000 0.000000 
#    y 0.000000 3.899970 0.000000 
#    z 0.000000 0.000000 3.862420 
# 
# 
# High freq. dielectric constant tensor:
#      x y z
#    x 1.829340 0.000000 0.000000 
#    y 0.000000 1.825290 0.000000 
#    z 0.000000 0.000000 1.834760 
# 
# From -- ./inp_files/10445.got.cif
#   From: 2010.03.12/outbox.cif.g09.slc.cpg/sg40_6_cif.got.tgz:10445.got - 2010.04.14 01:38:03.
