data_PCOD8184167
_publ_section_title
;
Structure prediction by ZEFSAII (Michael W. Deem and Ramdas Pophale) SiO2 
 PCOD8184167
Probable space group: A M A 2
;
_chemical_formula_sum "Si O2"
_cell_formula_units_Z 64
_cell_length_a 8.755895
_cell_length_b 23.934476
_cell_length_c 15.356690
_cell_angle_alpha 90.000000
_cell_angle_beta 90.000000
_cell_angle_gamma 90.000000
_cell_volume 3218.267105
_symmetry_space_group_name_H-M "A M A 2"
_symmetry_group_IT_number 40
_symmetry_cell_setting 'orthorhombic'
loop_
_space_group_symop_operation_xyz
x,y,z
-x,-y,z
1/2-x,y,z
1/2+x,-y,z
x,1/2+y,1/2+z
-x,1/2-y,1/2+z
1/2-x,1/2+y,1/2+z
1/2+x,1/2-y,1/2+z
loop_
_atom_site_type_symbol
_atom_site_label
_atom_site_fract_x
_atom_site_fract_y
_atom_site_fract_z
Si Si1 0.070016 0.060619 0.118220
Si Si2 0.574015 0.632137 0.767236
Si Si3 0.929553 0.747446 0.021228
Si Si4 0.070004 0.559983 0.115987
Si Si5 0.071873 0.635107 0.462448
Si Si6 0.572123 0.358528 0.269254
Si Si7 0.072551 0.871776 0.465008
Si Si8 0.071652 0.745465 0.721947
O O1 0.250000 0.054283 0.112764
O O2 0.029716 0.095927 0.203520
O O3 0.002089 0.091504 0.032198
O O4 0.000000 0.000000 0.125399
O O5 0.750000 0.626570 0.739326
O O6 0.549239 0.610005 0.865281
O O7 0.525486 0.696582 0.765656
O O8 0.750000 0.745989 0.006416
O O9 0.975028 0.750094 0.121671
O O10 0.999743 0.802691 0.975185
O O11 0.997528 0.690378 0.980507
O O12 0.250000 0.554278 0.115260
O O13 0.014276 0.599575 0.194851
O O14 0.000000 0.500000 0.133485
O O15 0.015909 0.583894 0.023880
O O16 0.250000 0.639958 0.484162
O O17 0.043086 0.613619 0.364197
O O18 0.750000 0.343306 0.256853
O O19 0.472480 0.302833 0.268143
O O20 0.250000 0.873023 0.491963
O O21 0.250000 0.732961 0.733960
#
# Coordination Sequence:
#
# PCOD8184167 Si02
#       8
#     8   8   8   8   8   8   8   8
#     4  11  23  41  63  86 116 156 199 246 294 347
#     4  11  23  39  62  90 119 154 196 243 292 347
#     4   9  16  31  58  87 114 150 187 226 282 346
#     4  11  24  40  60  86 116 153 197 248 295 344
#     4   9  18  36  61  86 116 155 193 231 286 350
#     4  10  21  38  61  89 118 153 197 242 290 346
#     4  10  21  39  63  87 116 155 194 237 293 352
#     4  11  20  34  60  91 122 157 192 235 293 351
#
# _framework density 19.886478
#
# number of rings (size 3 to 8) (size 9 to 14) (size 15 to 20)
#    0.000    1.750    2.500    2.250    0.000    4.500 
#    0.000    1.250    0.000    0.000    0.000    0.000 
#    0.000    0.000    0.000    0.000    0.000    0.000 
#
# Total GULP energy -396852.697017 kJ/mol
# GULP energy per Si atom -12401.646782 kJ/mol
# Density = 1.984122 g / cm^3
# Si number density = 19.886478 Si / 1000 Ang^3
#
#
#
# Elastic Constant Matrix: (Units=GPa)
#
#
# Indices 1 2 3 4 5 6 
#
# 1 45.3265 25.5235 30.6196 0.0000 0.0000 0.0000
# 2 25.5235 126.5130 45.8910 0.0000 0.0000 0.0000
# 3 30.6196 45.8910 114.8875 0.0000 0.0000 0.0000
# 4 0.0000 0.0000 0.0000 12.7140 0.0000 0.0000
# 5 0.0000 0.0000 0.0000 0.0000 24.3739 0.0000
# 6 0.0000 0.0000 0.0000 0.0000 0.0000 21.2709
#
#
#
# Elastic Compliance Matrix: (Units=1/GPa)
#
#
# Indices 1 2 3 4 5 6 
#
# 1 0.028143 -0.003458 -0.006119 0.000000 0.000000 0.000000
# 2 -0.003458 0.009669 -0.002940 0.000000 0.000000 0.000000
# 3 -0.006119 -0.002940 0.011510 0.000000 0.000000 0.000000
# 4 0.000000 0.000000 0.000000 0.078653 0.000000 0.000000
# 5 0.000000 0.000000 0.000000 0.000000 0.041028 0.000000
# 6 0.000000 0.000000 0.000000 0.000000 0.000000 0.047013
#
#
# Mechanical properties :
#
#
# Convention : Reuss Voigt Hill
#
# Bulk Modulus (GPa) = 41.17647 54.53279 47.85463
# Shear Modulus (GPa) = 20.06857 23.98462 22.02659
#
# Velocity S-wave (km/s) = 3.18017 3.47663 3.33170
# Velocity P-wave (km/s) = 5.85110 6.60284 6.23830
#
# Compressibility (1/GPa) = 0.02428572
#
# Stress axis : x y z
#
# Youngs Moduli (GPa) = 35.53255 103.42796 86.88386
#
# Poissons Ratio (x) = 0.35766 0.53168
# Poissons Ratio (y) = 0.12287 0.25547
# Poissons Ratio (z) = 0.21744 0.30412
#
# Static dielectric constant tensor:
#      x y z
#    x 3.364960 0.000000 0.000000 
#    y 0.000000 3.680480 0.000000 
#    z 0.000000 0.000000 3.726360 
# 
# 
# High freq. dielectric constant tensor:
#      x y z
#    x 1.751170 0.000000 0.000000 
#    y 0.000000 1.775300 0.000000 
#    z 0.000000 0.000000 1.789280 
# 
# From -- ./inp_files/15583.got.cif
#   From: 2010.03.12/outbox.cif.g09.slc.cpg/sg40_8_cif.got.tgz:15583.got - 2010.04.14 01:38:03.
