data_PCOD8184460
_publ_section_title
;
Structure prediction by ZEFSAII (Michael W. Deem and Ramdas Pophale) SiO2 
 PCOD8184460
Probable space group: A M A 2
;
_chemical_formula_sum "Si O2"
_cell_formula_units_Z 48
_cell_length_a 22.912116
_cell_length_b 12.366905
_cell_length_c 7.530415
_cell_angle_alpha 90.000000
_cell_angle_beta 90.000000
_cell_angle_gamma 90.000000
_cell_volume 2133.757864
_symmetry_space_group_name_H-M "A M A 2"
_symmetry_group_IT_number 40
_symmetry_cell_setting 'orthorhombic'
loop_
_space_group_symop_operation_xyz
x,y,z
-x,-y,z
1/2-x,y,z
1/2+x,-y,z
x,1/2+y,1/2+z
-x,1/2-y,1/2+z
1/2-x,1/2+y,1/2+z
1/2+x,1/2-y,1/2+z
loop_
_atom_site_type_symbol
_atom_site_label
_atom_site_fract_x
_atom_site_fract_y
_atom_site_fract_z
Si Si1 0.069606 0.186079 0.031070
Si Si2 0.313785 0.720100 0.732562
Si Si3 0.547490 0.770661 0.629766
Si Si4 0.815665 0.536920 0.331003
Si Si5 0.629251 0.940037 0.478191
Si Si6 0.904050 0.036878 0.132250
O O1 0.134999 0.215540 0.088529
O O2 0.052401 0.064097 0.093342
O O3 0.022813 0.269522 0.116157
O O4 0.068156 0.194247 0.821389
O O5 0.250000 0.704160 0.641211
O O6 0.315499 0.834903 0.826851
O O7 0.320108 0.630406 0.886667
O O8 0.573334 0.859934 0.496295
O O9 0.570156 0.651579 0.574824
O O10 0.750000 0.489987 0.332868
O O11 0.850193 0.488517 0.163234
O O12 0.847163 0.505298 0.514384
O O13 0.611830 0.036993 0.342536
#
# Coordination Sequence:
#
# PCOD8184460 Si02
#       6
#     8   8   8   8   8   8
#     4  11  24  43  69 100 136 182 224 280 338 403
#     4  10  22  43  69  99 137 177 225 280 333 402
#     4  12  24  45  67 101 139 174 231 278 338 404
#     4  11  23  42  68  99 136 182 227 273 336 401
#     4  11  23  44  69  98 135 177 225 275 339 397
#     4  11  24  43  67  99 135 176 225 278 336 399
#
# _framework density 22.495525000000001
#
# number of rings (size 3 to 8) (size 9 to 14) (size 15 to 20)
#    0.000    1.000    3.333    4.000    0.000    3.333 
#    0.000    3.333    0.000    0.000    0.000    0.000 
#    0.000    0.000    0.000    0.000    0.000    0.000 
#
# Total GULP energy -297577.833890 kJ/mol
# GULP energy per Si atom -12399.076412 kJ/mol
# Density = 2.244432 g / cm^3
# Si number density = 22.495525 Si / 1000 Ang^3
#
#
#
# Elastic Constant Matrix: (Units=GPa)
#
#
# Indices 1 2 3 4 5 6 
#
# 1 126.7677 10.8502 39.1105 0.0000 0.0000 0.0000
# 2 10.8502 52.4909 9.1670 0.0000 0.0000 0.0000
# 3 39.1105 9.1670 115.2360 0.0000 0.0000 0.0000
# 4 0.0000 0.0000 0.0000 28.0303 0.0000 0.0000
# 5 0.0000 0.0000 0.0000 0.0000 34.0637 0.0000
# 6 0.0000 0.0000 0.0000 0.0000 0.0000 27.1147
#
#
#
# Elastic Compliance Matrix: (Units=1/GPa)
#
#
# Indices 1 2 3 4 5 6 
#
# 1 0.008902 -0.001331 -0.002915 0.000000 0.000000 0.000000
# 2 -0.001331 0.019518 -0.001101 0.000000 0.000000 0.000000
# 3 -0.002915 -0.001101 0.009755 0.000000 0.000000 0.000000
# 4 0.000000 0.000000 0.000000 0.035676 0.000000 0.000000
# 5 0.000000 0.000000 0.000000 0.000000 0.029357 0.000000
# 6 0.000000 0.000000 0.000000 0.000000 0.000000 0.036880
#
#
# Mechanical properties :
#
#
# Convention : Reuss Voigt Hill
#
# Bulk Modulus (GPa) = 36.38942 45.86110 41.12526
# Shear Modulus (GPa) = 31.26124 33.53287 32.39706
#
# Velocity S-wave (km/s) = 3.73187 3.86508 3.79906
# Velocity P-wave (km/s) = 5.89750 6.35212 6.12903
#
# Compressibility (1/GPa) = 0.02748051
#
# Stress axis : x y z
#
# Youngs Moduli (GPa) = 112.33670 51.23395 102.51277
#
# Poissons Ratio (x) = 0.06819 0.29886
# Poissons Ratio (y) = 0.14951 0.11286
# Poissons Ratio (z) = 0.32750 0.05641
#
# Static dielectric constant tensor:
#      x y z
#    x 4.208770 0.000000 0.000000 
#    y 0.000000 4.190150 0.000000 
#    z 0.000000 0.000000 3.917340 
# 
# 
# High freq. dielectric constant tensor:
#      x y z
#    x 1.886630 0.000000 0.000000 
#    y 0.000000 1.895210 0.000000 
#    z 0.000000 0.000000 1.886810 
# 
# From -- ./inp_files/8178.got.cif
#   From: 2010.03.12/outbox.cif.g09.slc.cpg/sg40_5_cif.got.tgz:8178.got - 2010.04.14 01:38:03.
