data_PCOD8184490
_publ_section_title
;
Structure prediction by ZEFSAII (Michael W. Deem and Ramdas Pophale) SiO2 
 PCOD8184490
Probable space group: A M A 2
;
_chemical_formula_sum "Si O2"
_cell_formula_units_Z 64
_cell_length_a 17.485941
_cell_length_b 13.958828
_cell_length_c 12.156978
_cell_angle_alpha 90.000000
_cell_angle_beta 90.000000
_cell_angle_gamma 90.000000
_cell_volume 2967.314613
_symmetry_space_group_name_H-M "A M A 2"
_symmetry_group_IT_number 40
_symmetry_cell_setting 'orthorhombic'
loop_
_space_group_symop_operation_xyz
x,y,z
-x,-y,z
1/2-x,y,z
1/2+x,-y,z
x,1/2+y,1/2+z
-x,1/2-y,1/2+z
1/2-x,1/2+y,1/2+z
1/2+x,1/2-y,1/2+z
loop_
_atom_site_type_symbol
_atom_site_label
_atom_site_fract_x
_atom_site_fract_y
_atom_site_fract_z
Si Si1 0.950919 0.269982 0.649040
Si Si2 0.834753 0.308283 0.001258
Si Si3 0.492827 0.103253 0.489068
Si Si4 0.912342 0.473944 0.599100
Si Si5 0.163763 0.328327 0.309303
Si Si6 0.334632 0.697515 0.259480
Si Si7 0.083876 0.875715 0.270894
Si Si8 0.090168 0.516105 0.355343
O O1 0.902154 0.359460 0.603197
O O2 0.896945 0.232366 0.743466
O O3 0.968634 0.189520 0.557150
O O4 0.030807 0.307310 0.695649
O O5 0.750000 0.353218 0.975720
O O6 0.903098 0.378596 0.963968
O O7 0.842416 0.207556 0.935797
O O8 0.843055 0.288856 0.129459
O O9 0.536833 0.086062 0.374453
O O10 0.500000 0.000000 0.551980
O O11 0.877262 0.536611 0.700442
O O12 0.879864 0.500006 0.479832
O O13 0.000000 0.500000 0.609174
O O14 0.250000 0.315771 0.263810
O O15 0.139295 0.438064 0.290345
O O16 0.250000 0.663985 0.293549
O O17 0.350389 0.802400 0.311913
O O18 0.394500 0.620362 0.305467
O O19 0.000000 0.500000 0.346085
#
# Coordination Sequence:
#
# PCOD8184490 Si02
#       8
#     8   8   8   8   8   8   8   8
#     4  11  22  39  64  93 129 164 219 273 323 392
#     4  10  23  41  64  93 132 173 217 267 336 408
#     4  12  25  40  66 101 129 174 224 277 340 402
#     4   9  21  39  64  95 123 163 213 276 322 375
#     4  11  24  42  62  91 128 171 212 265 329 398
#     4  11  23  40  63  98 136 173 214 281 348 403
#     4  11  21  41  67  92 129 170 224 276 329 405
#     4  11  23  38  66  99 126 166 222 269 328 392
#
# _framework density 21.568322999999999
#
# number of rings (size 3 to 8) (size 9 to 14) (size 15 to 20)
#    0.000    1.250    2.500    3.750    5.250    0.000 
#    0.000    5.000    0.000    0.000    0.000    0.000 
#    0.000    0.000    0.000    0.000    0.000    0.000 
#
# Total GULP energy -396565.237728 kJ/mol
# GULP energy per Si atom -12392.663679 kJ/mol
# Density = 2.151923 g / cm^3
# Si number density = 21.568323 Si / 1000 Ang^3
#
#
#
# Elastic Constant Matrix: (Units=GPa)
#
#
# Indices 1 2 3 4 5 6 
#
# 1 94.1242 44.9902 35.3012 0.0000 0.0000 0.0000
# 2 44.9902 163.7013 37.0968 0.0000 0.0000 0.0000
# 3 35.3012 37.0968 79.0417 0.0000 0.0000 0.0000
# 4 0.0000 0.0000 0.0000 27.8297 0.0000 0.0000
# 5 0.0000 0.0000 0.0000 0.0000 20.2261 0.0000
# 6 0.0000 0.0000 0.0000 0.0000 0.0000 14.6278
#
#
#
# Elastic Compliance Matrix: (Units=1/GPa)
#
#
# Indices 1 2 3 4 5 6 
#
# 1 0.013729 -0.002667 -0.004880 0.000000 0.000000 0.000000
# 2 -0.002667 0.007354 -0.002260 0.000000 0.000000 0.000000
# 3 -0.004880 -0.002260 0.015892 0.000000 0.000000 0.000000
# 4 0.000000 0.000000 0.000000 0.035933 0.000000 0.000000
# 5 0.000000 0.000000 0.000000 0.000000 0.049441 0.000000
# 6 0.000000 0.000000 0.000000 0.000000 0.000000 0.068363
#
#
# Mechanical properties :
#
#
# Convention : Reuss Voigt Hill
#
# Bulk Modulus (GPa) = 57.60282 63.51596 60.55939
# Shear Modulus (GPa) = 23.13597 27.16864 25.15231
#
# Velocity S-wave (km/s) = 3.27874 3.55301 3.41863
# Velocity P-wave (km/s) = 6.41082 6.80768 6.61223
#
# Compressibility (1/GPa) = 0.01736026
#
# Stress axis : x y z
#
# Youngs Moduli (GPa) = 72.83614 135.98119 62.92586
#
# Poissons Ratio (x) = 0.36272 0.30707
# Poissons Ratio (y) = 0.19429 0.14222
# Poissons Ratio (z) = 0.35543 0.30733
#
# Static dielectric constant tensor:
#      x y z
#    x 3.993150 0.000000 0.000000 
#    y 0.000000 4.392140 0.000000 
#    z 0.000000 0.000000 3.926720 
# 
# 
# High freq. dielectric constant tensor:
#      x y z
#    x 1.831080 0.000000 0.000000 
#    y 0.000000 1.856460 0.000000 
#    z 0.000000 0.000000 1.839280 
# 
# From -- ./inp_files/13128.got.cif
#   From: 2010.03.12/outbox.cif.g09.slc.cpg/sg40_7_cif.got.tgz:13128.got - 2010.04.14 01:38:03.
