data_PCOD8184341
_publ_section_title
;
Structure prediction by ZEFSAII (Michael W. Deem and Ramdas Pophale) SiO2 
 PCOD8184341
Probable space group: A M A 2
;
_chemical_formula_sum "Si O2"
_cell_formula_units_Z 64
_cell_length_a 8.969969
_cell_length_b 24.197715
_cell_length_c 14.399090
_cell_angle_alpha 90.000000
_cell_angle_beta 90.000000
_cell_angle_gamma 90.000000
_cell_volume 3125.362131
_symmetry_space_group_name_H-M "A M A 2"
_symmetry_group_IT_number 40
_symmetry_cell_setting 'orthorhombic'
loop_
_space_group_symop_operation_xyz
x,y,z
-x,-y,z
1/2-x,y,z
1/2+x,-y,z
x,1/2+y,1/2+z
-x,1/2-y,1/2+z
1/2-x,1/2+y,1/2+z
1/2+x,1/2-y,1/2+z
loop_
_atom_site_type_symbol
_atom_site_label
_atom_site_fract_x
_atom_site_fract_y
_atom_site_fract_z
Si Si1 0.071723 0.057014 0.301440
Si Si2 0.422956 0.056482 0.838163
Si Si3 0.418267 0.731824 0.954939
Si Si4 0.914441 0.262616 0.175855
Si Si5 0.924382 0.844349 0.170639
Si Si6 0.426674 0.658471 0.458343
Si Si7 0.927302 0.619199 0.961860
Si Si8 0.923743 0.882540 0.655853
O O1 0.250000 0.052333 0.307676
O O2 0.016998 0.103625 0.228857
O O3 0.002417 0.070958 0.401595
O O4 0.000000 0.000000 0.266171
O O5 0.250000 0.049462 0.858405
O O6 0.486215 0.105820 0.901654
O O7 0.453603 0.069261 0.729898
O O8 0.500000 0.000000 0.867562
O O9 0.250000 0.727126 0.915808
O O10 0.497943 0.786608 0.914853
O O11 0.510199 0.677703 0.924781
O O12 0.418825 0.735779 0.065067
O O13 0.750000 0.249287 0.213161
O O14 0.964396 0.324195 0.207071
O O15 0.018334 0.213639 0.214472
O O16 0.750000 0.841483 0.176836
O O17 0.978013 0.850826 0.064590
O O18 0.250000 0.665977 0.449401
O O19 0.750000 0.617928 0.952239
O O20 0.971729 0.606882 0.068009
O O21 0.750000 0.880353 0.624167
#
# Coordination Sequence:
#
# PCOD8184341 Si02
#       8
#     8   8   8   8   8   8   8   8
#     4  11  24  41  57  78 108 145 189 235 277 325
#     4  10  22  38  56  79 111 148 189 232 273 321
#     4   9  17  32  55  85 116 145 178 222 273 329
#     4   8  15  29  52  80 110 141 176 217 269 327
#     4   9  19  35  56  81 112 144 176 220 273 323
#     4   9  18  35  57  84 115 147 183 226 273 324
#     4  11  22  37  59  85 111 144 181 225 278 332
#     4   9  19  37  57  80 112 148 182 225 275 325
#
# _framework density 20.477626999999998
#
# number of rings (size 3 to 8) (size 9 to 14) (size 15 to 20)
#    0.000    2.500    0.000    2.625    0.000    7.000 
#    0.000    2.500    0.000    0.000    0.000    0.000 
#    0.000    0.000    0.000    0.000    0.000    0.000 
#
# Total GULP energy -396789.989235 kJ/mol
# GULP energy per Si atom -12399.687164 kJ/mol
# Density = 2.043102 g / cm^3
# Si number density = 20.477627 Si / 1000 Ang^3
#
#
#
# Elastic Constant Matrix: (Units=GPa)
#
#
# Indices 1 2 3 4 5 6 
#
# 1 69.8811 27.0290 17.4473 0.0000 0.0000 0.0000
# 2 27.0290 99.7162 11.8752 0.0000 0.0000 0.0000
# 3 17.4473 11.8752 27.6955 0.0000 0.0000 0.0000
# 4 0.0000 0.0000 0.0000 33.9581 0.0000 0.0000
# 5 0.0000 0.0000 0.0000 0.0000 19.5722 0.0000
# 6 0.0000 0.0000 0.0000 0.0000 0.0000 39.3387
#
#
#
# Elastic Compliance Matrix: (Units=1/GPa)
#
#
# Indices 1 2 3 4 5 6 
#
# 1 0.018231 -0.003766 -0.009870 0.000000 0.000000 0.000000
# 2 -0.003766 0.011346 -0.002492 0.000000 0.000000 0.000000
# 3 -0.009870 -0.002492 0.043393 0.000000 0.000000 0.000000
# 4 0.000000 0.000000 0.000000 0.029448 0.000000 0.000000
# 5 0.000000 0.000000 0.000000 0.000000 0.051093 0.000000
# 6 0.000000 0.000000 0.000000 0.000000 0.000000 0.025420
#
#
# Mechanical properties :
#
#
# Convention : Reuss Voigt Hill
#
# Bulk Modulus (GPa) = 24.56204 34.44399 29.50301
# Shear Modulus (GPa) = 22.24591 27.96989 25.10790
#
# Velocity S-wave (km/s) = 3.29956 3.69978 3.50539
# Velocity P-wave (km/s) = 5.15138 5.92520 5.55179
#
# Compressibility (1/GPa) = 0.04071324
#
# Stress axis : x y z
#
# Youngs Moduli (GPa) = 54.85152 88.13562 23.04494
#
# Poissons Ratio (x) = 0.33194 0.22746
# Poissons Ratio (y) = 0.20658 0.05744
# Poissons Ratio (z) = 0.54139 0.21967
#
# Static dielectric constant tensor:
#      x y z
#    x 3.625740 0.000000 0.000000 
#    y 0.000000 3.907370 0.000000 
#    z 0.000000 0.000000 3.638760 
# 
# 
# High freq. dielectric constant tensor:
#      x y z
#    x 1.789350 0.000000 0.000000 
#    y 0.000000 1.805270 0.000000 
#    z 0.000000 0.000000 1.792100 
# 
# From -- ./inp_files/15634.got.cif
#   From: 2010.03.12/outbox.cif.g09.slc.cpg/sg40_8_cif.got.tgz:15634.got - 2010.04.14 01:38:03.
