data_PCOD8184344
_publ_section_title
;
Structure prediction by ZEFSAII (Michael W. Deem and Ramdas Pophale) SiO2 
 PCOD8184344
Probable space group: A M A 2
;
_chemical_formula_sum "Si O2"
_cell_formula_units_Z 48
_cell_length_a 9.237927
_cell_length_b 23.014235
_cell_length_c 11.774129
_cell_angle_alpha 90.000000
_cell_angle_beta 90.000000
_cell_angle_gamma 90.000000
_cell_volume 2503.224837
_symmetry_space_group_name_H-M "A M A 2"
_symmetry_group_IT_number 40
_symmetry_cell_setting 'orthorhombic'
loop_
_space_group_symop_operation_xyz
x,y,z
-x,-y,z
1/2-x,y,z
1/2+x,-y,z
x,1/2+y,1/2+z
-x,1/2-y,1/2+z
1/2-x,1/2+y,1/2+z
1/2+x,1/2-y,1/2+z
loop_
_atom_site_type_symbol
_atom_site_label
_atom_site_fract_x
_atom_site_fract_y
_atom_site_fract_z
Si Si1 0.582175 0.939033 0.285210
Si Si2 0.079283 0.440698 0.200903
Si Si3 0.580230 0.344891 0.610601
Si Si4 0.912487 0.267314 0.158501
Si Si5 0.915253 0.874129 0.516181
Si Si6 0.082343 0.640771 0.353000
O O1 0.750000 0.955579 0.276917
O O2 0.527889 0.904209 0.173312
O O3 0.554421 0.893394 0.387617
O O4 0.500000 0.000000 0.300848
O O5 0.250000 0.448766 0.209571
O O6 0.000000 0.500000 0.180332
O O7 0.037961 0.403321 0.091764
O O8 0.018364 0.412517 0.315891
O O9 0.750000 0.339719 0.626871
O O10 0.515724 0.287604 0.666947
O O11 0.532733 0.344834 0.479956
O O12 0.750000 0.243382 0.163351
O O13 0.934041 0.305100 0.042097
O O14 0.946461 0.305337 0.270107
O O15 0.750000 0.891803 0.552484
O O16 0.250000 0.621508 0.348657
#
# Coordination Sequence:
#
# PCOD8184344 Si02
#       6
#     8   8   8   8   8   8
#     4  10  22  39  58  83 116 156 196 238 286 341
#     4  11  21  34  56  84 111 145 187 233 283 337
#     4  10  22  38  58  83 114 152 190 234 287 343
#     4   9  19  35  57  83 113 148 186 236 291 340
#     4   9  19  37  58  83 117 151 186 236 290 336
#     4   9  20  39  56  78 113 148 186 235 284 335
#
# _framework density 19.175266000000001
#
# number of rings (size 3 to 8) (size 9 to 14) (size 15 to 20)
#    0.000    2.333    0.000    3.000    2.333    6.667 
#    0.000    1.667    0.000    0.000    0.000    0.000 
#    0.000    0.000    0.000    0.000    0.000    0.000 
#
# Total GULP energy -297493.938671 kJ/mol
# GULP energy per Si atom -12395.580778 kJ/mol
# Density = 1.913162 g / cm^3
# Si number density = 19.175266 Si / 1000 Ang^3
#
#
#
# Elastic Constant Matrix: (Units=GPa)
#
#
# Indices 1 2 3 4 5 6 
#
# 1 56.9486 15.7658 16.1209 0.0000 0.0000 0.0000
# 2 15.7658 65.9549 22.6914 0.0000 0.0000 0.0000
# 3 16.1209 22.6914 100.1175 0.0000 0.0000 0.0000
# 4 0.0000 0.0000 0.0000 22.2034 0.0000 0.0000
# 5 0.0000 0.0000 0.0000 0.0000 23.8001 0.0000
# 6 0.0000 0.0000 0.0000 0.0000 0.0000 37.9013
#
#
#
# Elastic Compliance Matrix: (Units=1/GPa)
#
#
# Indices 1 2 3 4 5 6 
#
# 1 0.019253 -0.003835 -0.002231 0.000000 0.000000 0.000000
# 2 -0.003835 0.017208 -0.003283 0.000000 0.000000 0.000000
# 3 -0.002231 -0.003283 0.011092 0.000000 0.000000 0.000000
# 4 0.000000 0.000000 0.000000 0.045038 0.000000 0.000000
# 5 0.000000 0.000000 0.000000 0.000000 0.042017 0.000000
# 6 0.000000 0.000000 0.000000 0.000000 0.000000 0.026384
#
#
# Mechanical properties :
#
#
# Convention : Reuss Voigt Hill
#
# Bulk Modulus (GPa) = 34.65523 36.90857 35.78190
# Shear Modulus (GPa) = 26.41219 28.01048 27.21133
#
# Velocity S-wave (km/s) = 3.71537 3.82614 3.77116
# Velocity P-wave (km/s) = 6.04297 6.22968 6.13703
#
# Compressibility (1/GPa) = 0.02885567
#
# Stress axis : x y z
#
# Youngs Moduli (GPa) = 51.94046 58.11287 90.15912
#
# Poissons Ratio (x) = 0.22284 0.20114
# Poissons Ratio (y) = 0.19917 0.29596
# Poissons Ratio (z) = 0.11588 0.19077
#
# Static dielectric constant tensor:
#      x y z
#    x 3.214390 0.000000 0.000000 
#    y 0.000000 3.558240 0.000000 
#    z 0.000000 0.000000 3.662270 
# 
# 
# High freq. dielectric constant tensor:
#      x y z
#    x 1.738830 0.000000 0.000000 
#    y 0.000000 1.743200 0.000000 
#    z 0.000000 0.000000 1.747060 
# 
# From -- ./inp_files/10231.got.cif
#   From: 2010.03.12/outbox.cif.g09.slc.cpg/sg40_6_cif.got.tgz:10231.got - 2010.04.14 01:38:03.
