data_PCOD8184209
_publ_section_title
;
Structure prediction by ZEFSAII (Michael W. Deem and Ramdas Pophale) SiO2 
 PCOD8184209
Probable space group: A M A 2
;
_chemical_formula_sum "Si O2"
_cell_formula_units_Z 64
_cell_length_a 17.946010
_cell_length_b 6.569743
_cell_length_c 26.522119
_cell_angle_alpha 90.000000
_cell_angle_beta 90.000000
_cell_angle_gamma 90.000000
_cell_volume 3126.975695
_symmetry_space_group_name_H-M "A M A 2"
_symmetry_group_IT_number 40
_symmetry_cell_setting 'orthorhombic'
loop_
_space_group_symop_operation_xyz
x,y,z
-x,-y,z
1/2-x,y,z
1/2+x,-y,z
x,1/2+y,1/2+z
-x,1/2-y,1/2+z
1/2-x,1/2+y,1/2+z
1/2+x,1/2-y,1/2+z
loop_
_atom_site_type_symbol
_atom_site_label
_atom_site_fract_x
_atom_site_fract_y
_atom_site_fract_z
Si Si1 0.665163 0.624928 0.491110
Si Si2 0.423328 0.609745 0.416346
Si Si3 0.418963 0.970397 0.484490
Si Si4 0.414570 0.481490 0.302378
Si Si5 0.337058 0.211914 0.065844
Si Si6 0.074934 0.612306 0.744377
Si Si7 0.662300 0.775052 0.717789
Si Si8 0.076333 0.911856 0.654361
O O1 0.750000 0.695393 0.488410
O O2 0.648032 0.461434 0.448006
O O3 0.648375 0.519756 0.545870
O O4 0.612760 0.807969 0.475584
O O5 0.500000 0.500000 0.433043
O O6 0.429192 0.849429 0.431068
O O7 0.405245 0.563210 0.358637
O O8 0.363140 0.865120 0.522949
O O9 0.500000 0.000000 0.509644
O O10 0.500000 0.500000 0.284456
O O11 0.393511 0.241664 0.292743
O O12 0.359607 0.620096 0.270069
O O13 0.250000 0.246811 0.076314
O O14 0.382429 0.259408 0.116253
O O15 0.135008 0.458274 0.720998
O O16 0.053837 0.779514 0.702640
O O17 0.000000 0.500000 0.761912
O O18 0.750000 0.773093 0.710311
O O19 0.628274 0.897384 0.670251
O O20 0.000000 0.000000 0.630382
#
# Coordination Sequence:
#
# PCOD8184209 Si02
#       8
#     8   8   8   8   8   8   8   8
#     4  10  22  41  62  88 126 166 203 257 320 380
#     4  10  21  39  61  93 120 160 212 263 318 381
#     4  11  21  39  63  88 123 162 213 266 316 381
#     4  10  21  39  63  86 124 165 209 262 322 388
#     4  10  23  40  60  90 128 166 208 259 321 382
#     4  11  20  40  62  87 122 169 212 259 320 382
#     4  11  23  39  62  93 127 164 212 267 318 377
#     4  11  22  41  66  94 126 168 215 262 316 385
#
# _framework density 20.467058999999999
#
# number of rings (size 3 to 8) (size 9 to 14) (size 15 to 20)
#    0.000    1.500    3.750    1.875    0.000    5.500 
#    2.250    2.500    0.000    0.000    0.000    0.000 
#    0.000    0.000    0.000    0.000    0.000    0.000 
#
# Total GULP energy -396626.211625 kJ/mol
# GULP energy per Si atom -12394.569113 kJ/mol
# Density = 2.042048 g / cm^3
# Si number density = 20.467059 Si / 1000 Ang^3
#
#
#
# Elastic Constant Matrix: (Units=GPa)
#
#
# Indices 1 2 3 4 5 6 
#
# 1 126.4241 48.2293 36.1620 0.0000 0.0000 0.0000
# 2 48.2293 121.9505 40.7943 0.0000 0.0000 0.0000
# 3 36.1620 40.7943 99.2441 0.0000 0.0000 0.0000
# 4 0.0000 0.0000 0.0000 7.3384 0.0000 0.0000
# 5 0.0000 0.0000 0.0000 0.0000 23.9628 0.0000
# 6 0.0000 0.0000 0.0000 0.0000 0.0000 34.9222
#
#
#
# Elastic Compliance Matrix: (Units=1/GPa)
#
#
# Indices 1 2 3 4 5 6 
#
# 1 0.009741 -0.003090 -0.002279 0.000000 0.000000 0.000000
# 2 -0.003090 0.010487 -0.003185 0.000000 0.000000 0.000000
# 3 -0.002279 -0.003185 0.012216 0.000000 0.000000 0.000000
# 4 0.000000 0.000000 0.000000 0.136269 0.000000 0.000000
# 5 0.000000 0.000000 0.000000 0.000000 0.041731 0.000000
# 6 0.000000 0.000000 0.000000 0.000000 0.000000 0.028635
#
#
# Mechanical properties :
#
#
# Convention : Reuss Voigt Hill
#
# Bulk Modulus (GPa) = 65.20654 66.44332 65.82493
# Shear Modulus (GPa) = 19.13518 28.07357 23.60437
#
# Velocity S-wave (km/s) = 3.06097 3.70759 3.39969
# Velocity P-wave (km/s) = 6.66492 7.13178 6.90230
#
# Compressibility (1/GPa) = 0.01533589
#
# Stress axis : x y z
#
# Youngs Moduli (GPa) = 102.66391 95.35207 81.86099
#
# Poissons Ratio (x) = 0.29462 0.18657
# Poissons Ratio (y) = 0.31721 0.26073
# Poissons Ratio (z) = 0.23399 0.30370
#
# Static dielectric constant tensor:
#      x y z
#    x 3.685270 0.000000 0.000000 
#    y 0.000000 4.065620 0.000000 
#    z 0.000000 0.000000 3.544690 
# 
# 
# High freq. dielectric constant tensor:
#      x y z
#    x 1.798920 0.000000 0.000000 
#    y 0.000000 1.813130 0.000000 
#    z 0.000000 0.000000 1.784440 
# 
# From -- ./inp_files/26709.got.cif
#   From: 2010.03.12/outbox.cif.g09.slc.cpg/sg40_14_cif.got.tgz:26709.got - 2010.04.14 01:38:03.
