data_PCOD8184221
_publ_section_title
;
Structure prediction by ZEFSAII (Michael W. Deem and Ramdas Pophale) SiO2 
 PCOD8184221
Probable space group: A M A 2
;
_chemical_formula_sum "Si O2"
_cell_formula_units_Z 60
_cell_length_a 28.348780
_cell_length_b 8.292106
_cell_length_c 12.054610
_cell_angle_alpha 90.000000
_cell_angle_beta 90.000000
_cell_angle_gamma 90.000000
_cell_volume 2833.690297
_symmetry_space_group_name_H-M "A M A 2"
_symmetry_group_IT_number 40
_symmetry_cell_setting 'orthorhombic'
loop_
_space_group_symop_operation_xyz
x,y,z
-x,-y,z
1/2-x,y,z
1/2+x,-y,z
x,1/2+y,1/2+z
-x,1/2-y,1/2+z
1/2-x,1/2+y,1/2+z
1/2+x,1/2-y,1/2+z
loop_
_atom_site_type_symbol
_atom_site_label
_atom_site_fract_x
_atom_site_fract_y
_atom_site_fract_z
Si Si1 0.985976 0.184003 0.800230
Si Si2 0.695481 0.428376 0.674897
Si Si3 0.942995 0.340591 0.482882
Si Si4 0.698352 0.503033 0.923512
Si Si5 0.802022 0.140884 0.966290
Si Si6 0.000000 0.500000 0.653480
Si Si7 0.868953 0.645513 0.095536
Si Si8 0.611701 0.048481 0.819370
O O1 0.003480 0.332048 0.722402
O O2 0.929232 0.187565 0.818083
O O3 0.000000 0.000000 0.758333
O O4 0.009616 0.216259 0.920328
O O5 0.750000 0.367800 0.670315
O O6 0.684372 0.501896 0.794858
O O7 0.684493 0.563617 0.583652
O O8 0.658897 0.285546 0.658766
O O9 0.954733 0.482939 0.571429
O O10 0.920709 0.195338 0.552807
O O11 0.906221 0.395599 0.388135
O O12 0.750000 0.584307 0.936685
O O13 0.699477 0.330899 0.982573
O O14 0.659874 0.604946 0.986737
O O15 0.750000 0.079573 0.927204
O O16 0.839676 0.104891 0.872242
O O17 0.877033 0.507335 0.189396
#
# Coordination Sequence:
#
# PCOD8184221 Si02
#       8
#     8   8   8   8   8   4   8   8
#     4  10  24  45  65 100 136 170 227 280 335 409
#     4  10  21  40  63  90 130 172 219 270 320 394
#     4  11  24  44  64  99 136 165 225 288 327 408
#     4  10  23  41  61  94 135 170 220 275 320 395
#     4  10  21  39  63  92 128 174 216 268 332 384
#     4  12  22  48  76  90 134 184 214 286 354 388
#     4  12  23  38  67  96 126 172 220 262 342 392
#     4  11  21  41  65  93 130 169 214 271 328 400
#
# _framework density 21.173804000000001
#
# number of rings (size 3 to 8) (size 9 to 14) (size 15 to 20)
#    0.000    1.333    6.000    0.400    0.000    3.733 
#    6.000    0.000    0.000    0.000    0.000    0.000 
#    0.000    0.000    0.000    0.000    0.000    0.000 
#
# Total GULP energy -371688.726138 kJ/mol
# GULP energy per Si atom -12389.624205 kJ/mol
# Density = 2.112561 g / cm^3
# Si number density = 21.173804 Si / 1000 Ang^3
#
#
#
# Elastic Constant Matrix: (Units=GPa)
#
#
# Indices 1 2 3 4 5 6 
#
# 1 100.9985 17.1037 49.2083 0.0000 0.0000 0.0000
# 2 17.1037 62.8396 45.0657 0.0000 0.0000 0.0000
# 3 49.2083 45.0657 143.9526 0.0000 0.0000 0.0000
# 4 0.0000 0.0000 0.0000 36.6889 0.0000 0.0000
# 5 0.0000 0.0000 0.0000 0.0000 46.0728 0.0000
# 6 0.0000 0.0000 0.0000 0.0000 0.0000 30.8669
#
#
#
# Elastic Compliance Matrix: (Units=1/GPa)
#
#
# Indices 1 2 3 4 5 6 
#
# 1 0.011888 -0.000414 -0.003934 0.000000 0.000000 0.000000
# 2 -0.000414 0.020535 -0.006287 0.000000 0.000000 0.000000
# 3 -0.003934 -0.006287 0.010260 0.000000 0.000000 0.000000
# 4 0.000000 0.000000 0.000000 0.027256 0.000000 0.000000
# 5 0.000000 0.000000 0.000000 0.000000 0.021705 0.000000
# 6 0.000000 0.000000 0.000000 0.000000 0.000000 0.032397
#
#
# Mechanical properties :
#
#
# Convention : Reuss Voigt Hill
#
# Bulk Modulus (GPa) = 46.70289 58.94956 52.82623
# Shear Modulus (GPa) = 32.79780 35.81993 34.30887
#
# Velocity S-wave (km/s) = 3.93998 4.11750 4.02972
# Velocity P-wave (km/s) = 6.54238 7.10678 6.83041
#
# Compressibility (1/GPa) = 0.02141195
#
# Stress axis : x y z
#
# Youngs Moduli (GPa) = 84.11803 48.69713 97.46823
#
# Poissons Ratio (x) = 0.02018 0.38345
# Poissons Ratio (y) = 0.03486 0.61279
# Poissons Ratio (z) = 0.33092 0.30616
#
# Static dielectric constant tensor:
#      x y z
#    x 4.124300 0.000000 0.000000 
#    y 0.000000 3.550820 0.000000 
#    z 0.000000 0.000000 4.054840 
# 
# 
# High freq. dielectric constant tensor:
#      x y z
#    x 1.845200 0.000000 0.000000 
#    y 0.000000 1.789880 0.000000 
#    z 0.000000 0.000000 1.848190 
# 
# From -- ./inp_files/14244.got.cif
#   From: 2010.03.12/outbox.cif.g09.slc.cpg/sg40_8_cif.got.tgz:14244.got - 2010.04.14 01:38:03.
