data_PCOD8184333
_publ_section_title
;
Structure prediction by ZEFSAII (Michael W. Deem and Ramdas Pophale) SiO2 
 PCOD8184333
Probable space group: A M A 2
;
_chemical_formula_sum "Si O2"
_cell_formula_units_Z 64
_cell_length_a 14.313121
_cell_length_b 22.163038
_cell_length_c 9.633151
_cell_angle_alpha 90.000000
_cell_angle_beta 90.000000
_cell_angle_gamma 90.000000
_cell_volume 3055.849783
_symmetry_space_group_name_H-M "A M A 2"
_symmetry_group_IT_number 40
_symmetry_cell_setting 'orthorhombic'
loop_
_space_group_symop_operation_xyz
x,y,z
-x,-y,z
1/2-x,y,z
1/2+x,-y,z
x,1/2+y,1/2+z
-x,1/2-y,1/2+z
1/2-x,1/2+y,1/2+z
1/2+x,1/2-y,1/2+z
loop_
_atom_site_type_symbol
_atom_site_label
_atom_site_fract_x
_atom_site_fract_y
_atom_site_fract_z
Si Si1 0.858423 0.898557 0.872300
Si Si2 0.458651 0.599082 0.810767
Si Si3 0.354555 0.683342 0.613153
Si Si4 0.959723 0.358372 0.106732
Si Si5 0.854600 0.617409 0.687029
Si Si6 0.358108 0.262848 0.515804
Si Si7 0.144741 0.809737 0.711412
Si Si8 0.143772 0.513254 0.607821
O O1 0.750000 0.897864 0.837000
O O2 0.910139 0.895059 0.727717
O O3 0.889794 0.841097 0.964959
O O4 0.886963 0.957946 0.960854
O O5 0.415436 0.658233 0.739637
O O6 0.570943 0.606865 0.807883
O O7 0.420808 0.538829 0.733899
O O8 0.437923 0.599638 0.974111
O O9 0.250000 0.658979 0.640275
O O10 0.356663 0.755057 0.601961
O O11 0.921115 0.290755 0.078606
O O12 0.068790 0.356607 0.153182
O O13 0.750000 0.620802 0.750477
O O14 0.879080 0.677165 0.602860
O O15 0.864967 0.558579 0.587791
O O16 0.250000 0.242933 0.526508
O O17 0.383897 0.280354 0.358716
O O18 0.250000 0.838397 0.719103
O O19 0.250000 0.532114 0.643565
#
# Coordination Sequence:
#
# PCOD8184333 Si02
#       8
#     8   8   8   8   8   8   8   8
#     4   9  20  36  60  92 120 150 198 256 306 349
#     4  11  21  35  60  89 118 157 197 250 299 351
#     4   9  18  35  57  82 116 159 203 242 289 350
#     4  12  24  34  60  95 128 157 195 247 311 361
#     4  10  22  40  65  89 116 157 209 251 289 353
#     4  10  22  38  59  91 127 161 197 245 302 360
#     4  10  22  37  53  80 125 172 202 233 294 368
#     4   9  20  41  68  91 114 155 206 253 300 352
#
# _framework density 20.943436999999999
#
# number of rings (size 3 to 8) (size 9 to 14) (size 15 to 20)
#    0.000    2.000    1.250    2.625    5.250    2.000 
#    0.000    2.500    5.500    0.000    0.000    0.000 
#    0.000    0.000    0.000    0.000    0.000    0.000 
#
# Total GULP energy -396598.587559 kJ/mol
# GULP energy per Si atom -12393.705861 kJ/mol
# Density = 2.089577 g / cm^3
# Si number density = 20.943437 Si / 1000 Ang^3
#
#
#
# Elastic Constant Matrix: (Units=GPa)
#
#
# Indices 1 2 3 4 5 6 
#
# 1 100.6500 12.4578 48.7009 0.0000 0.0000 0.0000
# 2 12.4578 63.4695 28.8761 0.0000 0.0000 0.0000
# 3 48.7009 28.8761 132.4621 0.0000 0.0000 0.0000
# 4 0.0000 0.0000 0.0000 8.0507 0.0000 0.0000
# 5 0.0000 0.0000 0.0000 0.0000 31.0554 0.0000
# 6 0.0000 0.0000 0.0000 0.0000 0.0000 13.3435
#
#
#
# Elastic Compliance Matrix: (Units=1/GPa)
#
#
# Indices 1 2 3 4 5 6 
#
# 1 0.012094 -0.000389 -0.004362 0.000000 0.000000 0.000000
# 2 -0.000389 0.017503 -0.003672 0.000000 0.000000 0.000000
# 3 -0.004362 -0.003672 0.009953 0.000000 0.000000 0.000000
# 4 0.000000 0.000000 0.000000 0.124213 0.000000 0.000000
# 5 0.000000 0.000000 0.000000 0.000000 0.032200 0.000000
# 6 0.000000 0.000000 0.000000 0.000000 0.000000 0.074943
#
#
# Mechanical properties :
#
#
# Convention : Reuss Voigt Hill
#
# Bulk Modulus (GPa) = 44.04603 52.96125 48.50364
# Shear Modulus (GPa) = 16.93073 24.25972 20.59523
#
# Velocity S-wave (km/s) = 2.84633 3.40714 3.13928
# Velocity P-wave (km/s) = 5.64612 6.38911 6.02907
#
# Compressibility (1/GPa) = 0.02270352
#
# Stress axis : x y z
#
# Youngs Moduli (GPa) = 82.68543 57.13369 100.46760
#
# Poissons Ratio (x) = 0.02225 0.43820
# Poissons Ratio (y) = 0.03220 0.36895
# Poissons Ratio (z) = 0.36064 0.20981
#
# Static dielectric constant tensor:
#      x y z
#    x 4.046120 0.000000 0.000000 
#    y 0.000000 3.623490 0.000000 
#    z 0.000000 0.000000 3.586900 
# 
# 
# High freq. dielectric constant tensor:
#      x y z
#    x 1.836030 0.000000 0.000000 
#    y 0.000000 1.802290 0.000000 
#    z 0.000000 0.000000 1.798590 
# 
# From -- ./inp_files/6908.got.cif
#   From: 2010.03.12/outbox.cif.g09.slc.cpg/sg40_4_cif.got.tgz:6908.got - 2010.04.14 01:38:03.
