data_PCOD8184110
_publ_section_title
;
Structure prediction by ZEFSAII (Michael W. Deem and Ramdas Pophale) SiO2 
 PCOD8184110
Probable space group: A M A 2
;
_chemical_formula_sum "Si O2"
_cell_formula_units_Z 40
_cell_length_a 8.558561
_cell_length_b 13.480384
_cell_length_c 18.440740
_cell_angle_alpha 90.000000
_cell_angle_beta 90.000000
_cell_angle_gamma 90.000000
_cell_volume 2127.557757
_symmetry_space_group_name_H-M "A M A 2"
_symmetry_group_IT_number 40
_symmetry_cell_setting 'orthorhombic'
loop_
_space_group_symop_operation_xyz
x,y,z
-x,-y,z
1/2-x,y,z
1/2+x,-y,z
x,1/2+y,1/2+z
-x,1/2-y,1/2+z
1/2-x,1/2+y,1/2+z
1/2+x,1/2-y,1/2+z
loop_
_atom_site_type_symbol
_atom_site_label
_atom_site_fract_x
_atom_site_fract_y
_atom_site_fract_z
Si Si1 0.432376 0.108896 0.668530
Si Si2 0.567825 0.795017 0.822207
Si Si3 0.065183 0.604826 0.888427
Si Si4 0.434766 0.394916 0.459193
Si Si5 0.065939 0.296143 0.027184
O O1 0.250000 0.103026 0.649799
O O2 0.465410 0.168414 0.741748
O O3 0.522508 0.167261 0.606468
O O4 0.500000 0.000000 0.677273
O O5 0.750000 0.786877 0.839935
O O6 0.490268 0.687414 0.831331
O O7 0.493235 0.872851 0.878017
O O8 0.250000 0.602654 0.891462
O O9 0.000000 0.500000 0.861072
O O10 0.001045 0.627011 0.968598
O O11 0.500000 0.500000 0.485762
O O12 0.250000 0.396363 0.459478
O O13 0.494108 0.312468 0.515360
O O14 0.250000 0.290503 0.017780
#
# Coordination Sequence:
#
# PCOD8184110 Si02
#       5
#     8   8   8   8   8
#     4  11  23  38  57  82 113 146 181 224 274 326
#     4  10  21  37  57  83 113 144 183 227 272 324
#     4  11  21  36  58  82 111 145 184 227 273 324
#     4  11  21  36  58  83 112 145 184 226 272 323
#     4  11  22  37  57  82 112 144 184 228 273 325
#
# _framework density 18.800898
#
# number of rings (size 3 to 8) (size 9 to 14) (size 15 to 20)
#    0.000    1.200    0.000   10.200    0.000    4.800 
#    0.000    1.000    0.000    4.800    0.000    0.000 
#    0.000    0.000    0.000    0.000    0.000    0.000 
#
# Total GULP energy -248117.434969 kJ/mol
# GULP energy per Si atom -12405.871748 kJ/mol
# Density = 1.875811 g / cm^3
# Si number density = 18.800898 Si / 1000 Ang^3
#
#
#
# Elastic Constant Matrix: (Units=GPa)
#
#
# Indices 1 2 3 4 5 6 
#
# 1 185.6289 73.7110 57.1040 0.0000 0.0000 0.0000
# 2 73.7110 156.9535 52.3179 0.0000 0.0000 0.0000
# 3 57.1040 52.3179 94.0081 0.0000 0.0000 0.0000
# 4 0.0000 0.0000 0.0000 21.3302 0.0000 0.0000
# 5 0.0000 0.0000 0.0000 0.0000 40.5448 0.0000
# 6 0.0000 0.0000 0.0000 0.0000 0.0000 30.9144
#
#
#
# Elastic Compliance Matrix: (Units=1/GPa)
#
#
# Indices 1 2 3 4 5 6 
#
# 1 0.007289 -0.002391 -0.003097 0.000000 0.000000 0.000000
# 2 -0.002391 0.008607 -0.003338 0.000000 0.000000 0.000000
# 3 -0.003097 -0.003338 0.014376 0.000000 0.000000 0.000000
# 4 0.000000 0.000000 0.000000 0.046882 0.000000 0.000000
# 5 0.000000 0.000000 0.000000 0.000000 0.024664 0.000000
# 6 0.000000 0.000000 0.000000 0.000000 0.000000 0.032347
#
#
# Mechanical properties :
#
#
# Convention : Reuss Voigt Hill
#
# Bulk Modulus (GPa) = 79.23369 89.20625 84.21997
# Shear Modulus (GPa) = 32.04643 35.45505 33.75074
#
# Velocity S-wave (km/s) = 4.13306 4.34731 4.24154
# Velocity P-wave (km/s) = 8.06296 8.52934 8.29943
#
# Compressibility (1/GPa) = 0.01262089
#
# Stress axis : x y z
#
# Youngs Moduli (GPa) = 137.18819 116.18893 69.55978
#
# Poissons Ratio (x) = 0.27780 0.21544
# Poissons Ratio (y) = 0.32800 0.23216
# Poissons Ratio (z) = 0.42489 0.38778
#
# Static dielectric constant tensor:
#      x y z
#    x 3.682580 0.000000 0.000000 
#    y 0.000000 3.544440 0.000000 
#    z 0.000000 0.000000 3.345200 
# 
# 
# High freq. dielectric constant tensor:
#      x y z
#    x 1.757040 0.000000 0.000000 
#    y 0.000000 1.742780 0.000000 
#    z 0.000000 0.000000 1.717120 
# 
# From -- ./inp_files/19091.got.cif
#   From: 2010.03.12/outbox.cif.g09.slc.cpg/sg40_10_cif.got.tgz:19091.got - 2010.04.14 01:38:03.
