data_PCOD8184438
_publ_section_title
;
Structure prediction by ZEFSAII (Michael W. Deem and Ramdas Pophale) SiO2 
 PCOD8184438
Probable space group: A M A 2
;
_chemical_formula_sum "Si O2"
_cell_formula_units_Z 48
_cell_length_a 17.781529
_cell_length_b 10.746702
_cell_length_c 11.551666
_cell_angle_alpha 90.000000
_cell_angle_beta 90.000000
_cell_angle_gamma 90.000000
_cell_volume 2207.440123
_symmetry_space_group_name_H-M "A M A 2"
_symmetry_group_IT_number 40
_symmetry_cell_setting 'orthorhombic'
loop_
_space_group_symop_operation_xyz
x,y,z
-x,-y,z
1/2-x,y,z
1/2+x,-y,z
x,1/2+y,1/2+z
-x,1/2-y,1/2+z
1/2-x,1/2+y,1/2+z
1/2+x,1/2-y,1/2+z
loop_
_atom_site_type_symbol
_atom_site_label
_atom_site_fract_x
_atom_site_fract_y
_atom_site_fract_z
Si Si1 0.837864 0.030612 0.737570
Si Si2 0.836220 0.150626 0.256932
Si Si3 0.164811 0.134429 0.943168
Si Si4 0.084145 0.177656 0.590483
Si Si5 0.072391 0.571535 0.854354
Si Si6 0.424848 0.741238 0.649272
O O1 0.750000 0.011656 0.709571
O O2 0.853679 0.992975 0.872119
O O3 0.885988 0.941127 0.657614
O O4 0.861626 0.170391 0.706619
O O5 0.750000 0.135993 0.220896
O O6 0.847645 0.250556 0.357530
O O7 0.879882 0.195273 0.141017
O O8 0.863892 0.019153 0.304943
O O9 0.250000 0.131360 0.989484
O O10 0.110361 0.151102 0.051974
O O11 0.106616 0.157606 0.456209
O O12 0.993672 0.180998 0.597744
O O13 0.041955 0.656448 0.750691
O O14 0.000000 0.500000 0.904348
#
# Coordination Sequence:
#
# PCOD8184438 Si02
#       6
#     8   8   8   8   8   8
#     4  10  22  42  66  96 127 168 227 273 330 401
#     4  10  22  43  68  97 130 170 225 275 331 402
#     4   9  20  40  65  92 129 172 216 275 333 392
#     4  11  23  42  68  94 129 176 222 275 334 398
#     4  12  25  43  62  96 137 175 220 278 333 395
#     4  12  24  39  65  95 132 173 223 275 330 395
#
# _framework density 21.744644999999998
#
# number of rings (size 3 to 8) (size 9 to 14) (size 15 to 20)
#    0.000    1.333    1.667    5.500    2.333    5.333 
#    0.000    1.667    0.000    0.000    0.000    0.000 
#    0.000    0.000    0.000    0.000    0.000    0.000 
#
# Total GULP energy -297641.435521 kJ/mol
# GULP energy per Si atom -12401.726480 kJ/mol
# Density = 2.169515 g / cm^3
# Si number density = 21.744645 Si / 1000 Ang^3
#
#
#
# Elastic Constant Matrix: (Units=GPa)
#
#
# Indices 1 2 3 4 5 6 
#
# 1 104.0922 21.0533 55.6261 0.0000 0.0000 0.0000
# 2 21.0533 54.9075 49.0880 0.0000 0.0000 0.0000
# 3 55.6261 49.0880 149.7549 0.0000 0.0000 0.0000
# 4 0.0000 0.0000 0.0000 39.1788 0.0000 0.0000
# 5 0.0000 0.0000 0.0000 0.0000 28.0127 0.0000
# 6 0.0000 0.0000 0.0000 0.0000 0.0000 19.5819
#
#
#
# Elastic Compliance Matrix: (Units=1/GPa)
#
#
# Indices 1 2 3 4 5 6 
#
# 1 0.012016 -0.000873 -0.004177 0.000000 0.000000 0.000000
# 2 -0.000873 0.025825 -0.008141 0.000000 0.000000 0.000000
# 3 -0.004177 -0.008141 0.010898 0.000000 0.000000 0.000000
# 4 0.000000 0.000000 0.000000 0.025524 0.000000 0.000000
# 5 0.000000 0.000000 0.000000 0.000000 0.035698 0.000000
# 6 0.000000 0.000000 0.000000 0.000000 0.000000 0.051067
#
#
# Mechanical properties :
#
#
# Convention : Reuss Voigt Hill
#
# Bulk Modulus (GPa) = 44.72928 62.25439 53.49183
# Shear Modulus (GPa) = 25.65915 29.55383 27.60649
#
# Velocity S-wave (km/s) = 3.43887 3.69064 3.56698
# Velocity P-wave (km/s) = 6.03181 6.84493 6.45119
#
# Compressibility (1/GPa) = 0.02235672
#
# Stress axis : x y z
#
# Youngs Moduli (GPa) = 83.22520 38.72171 91.76270
#
# Poissons Ratio (x) = 0.03380 0.38330
# Poissons Ratio (y) = 0.07264 0.74704
# Poissons Ratio (z) = 0.34764 0.31523
#
# Static dielectric constant tensor:
#      x y z
#    x 3.846440 0.000000 0.000000 
#    y 0.000000 3.911780 0.000000 
#    z 0.000000 0.000000 3.991580 
# 
# 
# High freq. dielectric constant tensor:
#      x y z
#    x 1.856170 0.000000 0.000000 
#    y 0.000000 1.849570 0.000000 
#    z 0.000000 0.000000 1.857040 
# 
# From -- ./inp_files/12925.got.cif
#   From: 2010.03.12/outbox.cif.g09.slc.cpg/sg40_7_cif.got.tgz:12925.got - 2010.04.14 01:38:03.
