data_PCOD8184115
_publ_section_title
;
Structure prediction by ZEFSAII (Michael W. Deem and Ramdas Pophale) SiO2 
 PCOD8184115
Probable space group: A M A 2
;
_chemical_formula_sum "Si O2"
_cell_formula_units_Z 40
_cell_length_a 8.838259
_cell_length_b 28.408691
_cell_length_c 7.728039
_cell_angle_alpha 90.000000
_cell_angle_beta 90.000000
_cell_angle_gamma 90.000000
_cell_volume 1940.382067
_symmetry_space_group_name_H-M "A M A 2"
_symmetry_group_IT_number 40
_symmetry_cell_setting 'orthorhombic'
loop_
_space_group_symop_operation_xyz
x,y,z
-x,-y,z
1/2-x,y,z
1/2+x,-y,z
x,1/2+y,1/2+z
-x,1/2-y,1/2+z
1/2-x,1/2+y,1/2+z
1/2+x,1/2-y,1/2+z
loop_
_atom_site_type_symbol
_atom_site_label
_atom_site_fract_x
_atom_site_fract_y
_atom_site_fract_z
Si Si1 0.073631 0.610797 0.552740
Si Si2 0.926264 0.700681 0.663863
Si Si3 0.923317 0.300870 0.021111
Si Si4 0.072146 0.449665 0.852718
Si Si5 0.921968 0.900773 0.666864
O O1 0.250000 0.609328 0.599262
O O2 0.041775 0.586658 0.366669
O O3 0.019145 0.664889 0.542998
O O4 0.982634 0.584888 0.702681
O O5 0.750000 0.691763 0.634199
O O6 0.974377 0.753898 0.620326
O O7 0.966762 0.690366 0.861444
O O8 0.750000 0.296792 0.956396
O O9 0.944771 0.344787 0.148648
O O10 0.250000 0.454703 0.841030
O O11 0.000000 0.500000 0.820271
O O12 0.030320 0.430167 0.042073
O O13 0.750000 0.914742 0.620132
#
# Coordination Sequence:
#
# PCOD8184115 Si02
#       5
#     8   8   8   8   8
#     4  11  23  42  67  95 132 173 214 267 325 385
#     4  11  22  36  58  92 128 171 221 266 318 381
#     4  10  21  37  58  87 128 172 215 264 320 383
#     4  12  26  45  70  98 129 169 216 272 329 390
#     4  10  22  42  67  94 129 173 215 264 325 385
#
# _framework density 20.614497
#
# number of rings (size 3 to 8) (size 9 to 14) (size 15 to 20)
#    0.000    1.200    2.000    4.200    0.000    5.600 
#    0.000    0.000    0.000    0.000    0.000    0.000 
#    0.000    0.000    0.000    0.000    0.000    0.000 
#
# Total GULP energy -248093.985038 kJ/mol
# GULP energy per Si atom -12404.699252 kJ/mol
# Density = 2.056758 g / cm^3
# Si number density = 20.614497 Si / 1000 Ang^3
#
#
#
# Elastic Constant Matrix: (Units=GPa)
#
#
# Indices 1 2 3 4 5 6 
#
# 1 116.9374 32.7010 40.4564 0.0000 0.0000 0.0000
# 2 32.7010 78.9441 10.2762 0.0000 0.0000 0.0000
# 3 40.4564 10.2762 96.0954 0.0000 0.0000 0.0000
# 4 0.0000 0.0000 0.0000 24.2374 0.0000 0.0000
# 5 0.0000 0.0000 0.0000 0.0000 20.1091 0.0000
# 6 0.0000 0.0000 0.0000 0.0000 0.0000 35.9466
#
#
#
# Elastic Compliance Matrix: (Units=1/GPa)
#
#
# Indices 1 2 3 4 5 6 
#
# 1 0.011165 -0.004070 -0.004265 0.000000 0.000000 0.000000
# 2 -0.004070 0.014329 0.000181 0.000000 0.000000 0.000000
# 3 -0.004265 0.000181 0.012183 0.000000 0.000000 0.000000
# 4 0.000000 0.000000 0.000000 0.041259 0.000000 0.000000
# 5 0.000000 0.000000 0.000000 0.000000 0.049729 0.000000
# 6 0.000000 0.000000 0.000000 0.000000 0.000000 0.027819
#
#
# Mechanical properties :
#
#
# Convention : Reuss Voigt Hill
#
# Bulk Modulus (GPa) = 46.79640 50.98267 48.88954
# Shear Modulus (GPa) = 27.79084 29.96151 28.87617
#
# Velocity S-wave (km/s) = 3.67566 3.81651 3.74675
# Velocity P-wave (km/s) = 6.38467 6.64877 6.51806
#
# Compressibility (1/GPa) = 0.02136917
#
# Stress axis : x y z
#
# Youngs Moduli (GPa) = 89.56261 69.78636 82.08343
#
# Poissons Ratio (x) = 0.28402 0.35012
# Poissons Ratio (y) = 0.36450 -0.01486
# Poissons Ratio (z) = 0.38202 -0.01263
#
# Static dielectric constant tensor:
#      x y z
#    x 3.726180 0.000000 0.000000 
#    y 0.000000 3.875600 0.000000 
#    z 0.000000 0.000000 3.708290 
# 
# 
# High freq. dielectric constant tensor:
#      x y z
#    x 1.807540 0.000000 0.000000 
#    y 0.000000 1.809800 0.000000 
#    z 0.000000 0.000000 1.811470 
# 
# From -- ./inp_files/4371.got.cif
#   From: 2010.03.12/outbox.cif.g09.slc.cpg/sg40_3_cif.got.tgz:4371.got - 2010.04.14 01:38:03.
