data_PCOD8184237
_publ_section_title
;
Structure prediction by ZEFSAII (Michael W. Deem and Ramdas Pophale) SiO2 
 PCOD8184237
Probable space group: A M A 2
;
_chemical_formula_sum "Si O2"
_cell_formula_units_Z 48
_cell_length_a 8.442888
_cell_length_b 23.428896
_cell_length_c 11.797492
_cell_angle_alpha 90.000000
_cell_angle_beta 90.000000
_cell_angle_gamma 90.000000
_cell_volume 2333.632928
_symmetry_space_group_name_H-M "A M A 2"
_symmetry_group_IT_number 40
_symmetry_cell_setting 'orthorhombic'
loop_
_space_group_symop_operation_xyz
x,y,z
-x,-y,z
1/2-x,y,z
1/2+x,-y,z
x,1/2+y,1/2+z
-x,1/2-y,1/2+z
1/2-x,1/2+y,1/2+z
1/2+x,1/2-y,1/2+z
loop_
_atom_site_type_symbol
_atom_site_label
_atom_site_fract_x
_atom_site_fract_y
_atom_site_fract_z
Si Si1 0.065000 0.935763 0.190260
Si Si2 0.568560 0.155136 0.775866
Si Si3 0.433026 0.150158 0.015670
Si Si4 0.437901 0.881059 0.423753
Si Si5 0.563147 0.726158 0.067533
Si Si6 0.435020 0.060150 0.627106
O O1 0.250000 0.943239 0.190300
O O2 0.011675 0.894354 0.294232
O O3 0.015096 0.903728 0.075233
O O4 0.000000 0.000000 0.197625
O O5 0.750000 0.160823 0.816763
O O6 0.516617 0.208176 0.695707
O O7 0.549170 0.101167 0.696419
O O8 0.452665 0.147077 0.881014
O O9 0.250000 0.147374 0.048140
O O10 0.511188 0.210980 0.051166
O O11 0.250000 0.887862 0.441055
O O12 0.496493 0.818629 0.470015
O O13 0.530829 0.929173 0.494660
O O14 0.750000 0.729714 0.053904
O O15 0.250000 0.067824 0.655544
O O16 0.500000 0.000000 0.665114
#
# Coordination Sequence:
#
# PCOD8184237 Si02
#       6
#     8   8   8   8   8   8
#     4  11  24  41  62  88 123 166 210 253 303 362
#     4  10  21  40  60  84 118 155 197 244 297 355
#     4  11  23  39  61  89 122 159 201 248 301 362
#     4   9  19  38  62  89 122 158 197 247 301 355
#     4   8  18  37  61  88 121 155 191 243 303 361
#     4  11  21  35  58  88 118 153 195 243 297 353
#
# _framework density 20.568787
#
# number of rings (size 3 to 8) (size 9 to 14) (size 15 to 20)
#    0.000    2.000    0.000    4.500    2.333    3.333 
#    0.000   10.833    0.000    0.000    0.000    0.000 
#    0.000    0.000    0.000    0.000    0.000    0.000 
#
# Total GULP energy -297483.018426 kJ/mol
# GULP energy per Si atom -12395.125768 kJ/mol
# Density = 2.052197 g / cm^3
# Si number density = 20.568787 Si / 1000 Ang^3
#
#
#
# Elastic Constant Matrix: (Units=GPa)
#
#
# Indices 1 2 3 4 5 6 
#
# 1 43.9660 25.7180 21.9788 0.0000 0.0000 0.0000
# 2 25.7180 110.0111 40.9925 0.0000 0.0000 0.0000
# 3 21.9788 40.9925 112.9157 0.0000 0.0000 0.0000
# 4 0.0000 0.0000 0.0000 13.2413 0.0000 0.0000
# 5 0.0000 0.0000 0.0000 0.0000 28.5696 0.0000
# 6 0.0000 0.0000 0.0000 0.0000 0.0000 20.9270
#
#
#
# Elastic Compliance Matrix: (Units=1/GPa)
#
#
# Indices 1 2 3 4 5 6 
#
# 1 0.027488 -0.005126 -0.003490 0.000000 0.000000 0.000000
# 2 -0.005126 0.011468 -0.003166 0.000000 0.000000 0.000000
# 3 -0.003490 -0.003166 0.010685 0.000000 0.000000 0.000000
# 4 0.000000 0.000000 0.000000 0.075521 0.000000 0.000000
# 5 0.000000 0.000000 0.000000 0.000000 0.035002 0.000000
# 6 0.000000 0.000000 0.000000 0.000000 0.000000 0.047785
#
#
# Mechanical properties :
#
#
# Convention : Reuss Voigt Hill
#
# Bulk Modulus (GPa) = 38.34591 49.36352 43.85472
# Shear Modulus (GPa) = 20.81570 24.42780 22.62175
#
# Velocity S-wave (km/s) = 3.18465 3.44992 3.31994
# Velocity P-wave (km/s) = 5.67503 6.31827 6.00527
#
# Compressibility (1/GPa) = 0.02607840
#
# Stress axis : x y z
#
# Youngs Moduli (GPa) = 36.38011 87.20075 93.59256
#
# Poissons Ratio (x) = 0.44696 0.32660
# Poissons Ratio (y) = 0.18647 0.29627
# Poissons Ratio (z) = 0.12695 0.27604
#
# Static dielectric constant tensor:
#      x y z
#    x 3.488060 0.000000 0.000000 
#    y 0.000000 4.050090 0.000000 
#    z 0.000000 0.000000 3.778880 
# 
# 
# High freq. dielectric constant tensor:
#      x y z
#    x 1.789960 0.000000 0.000000 
#    y 0.000000 1.811030 0.000000 
#    z 0.000000 0.000000 1.803310 
# 
# From -- ./inp_files/10264.got.cif
#   From: 2010.03.12/outbox.cif.g09.slc.cpg/sg40_6_cif.got.tgz:10264.got - 2010.04.14 01:38:03.
