data_PCOD8184310
_publ_section_title
;
Structure prediction by ZEFSAII (Michael W. Deem and Ramdas Pophale) SiO2 
 PCOD8184310
Probable space group: A M A 2
;
_chemical_formula_sum "Si O2"
_cell_formula_units_Z 48
_cell_length_a 9.999465
_cell_length_b 7.887253
_cell_length_c 30.408175
_cell_angle_alpha 90.000000
_cell_angle_beta 90.000000
_cell_angle_gamma 90.000000
_cell_volume 2398.241382
_symmetry_space_group_name_H-M "A M A 2"
_symmetry_group_IT_number 40
_symmetry_cell_setting 'orthorhombic'
loop_
_space_group_symop_operation_xyz
x,y,z
-x,-y,z
1/2-x,y,z
1/2+x,-y,z
x,1/2+y,1/2+z
-x,1/2-y,1/2+z
1/2-x,1/2+y,1/2+z
1/2+x,1/2-y,1/2+z
loop_
_atom_site_type_symbol
_atom_site_label
_atom_site_fract_x
_atom_site_fract_y
_atom_site_fract_z
Si Si1 0.595803 0.145693 0.915760
Si Si2 0.907024 0.162147 0.084146
Si Si3 0.898613 0.354627 0.999607
Si Si4 0.750000 0.022052 0.695728
Si Si5 0.250000 0.655964 0.283638
Si Si6 0.500000 0.000000 0.634028
Si Si7 0.750000 0.718380 0.277017
Si Si8 0.506804 0.312665 0.827715
O O1 0.750000 0.084965 0.913819
O O2 0.579479 0.301445 0.949185
O O3 0.543623 0.191131 0.867583
O O4 0.500000 0.000000 0.934267
O O5 0.750000 0.133354 0.098251
O O6 0.967910 0.332635 0.105682
O O7 0.915517 0.192380 0.031665
O O8 0.000000 0.000000 0.096670
O O9 0.750000 0.430799 0.005664
O O10 0.000000 0.500000 0.013399
O O11 0.622993 0.031877 0.665449
O O12 0.750000 0.194210 0.724596
O O13 0.750000 0.859091 0.729703
O O14 0.250000 0.464271 0.302157
O O15 0.376409 0.753672 0.302257
O O16 0.620206 0.821363 0.290748
O O17 0.500000 0.500000 0.847828
#
# Coordination Sequence:
#
# PCOD8184310 Si02
#       8
#     8   8   8   4   4   4   4   8
#     4  11  24  40  61  92 130 174 221 270 320 394
#     4  11  25  43  71 105 140 184 229 281 341 413
#     4  10  22  42  65  98 137 178 224 272 337 393
#     4  10  24  42  72  94 126 174 220 286 338 416
#     4  10  23  41  68  87 120 174 211 265 334 402
#     4  12  22  46  72 100 136 178 232 278 358 408
#     4  10  21  43  64  87 118 168 215 261 328 404
#     4  12  23  39  62  95 130 166 220 272 329 391
#
# _framework density 20.014665999999998
#
# number of rings (size 3 to 8) (size 9 to 14) (size 15 to 20)
#    0.500    0.667    2.500    4.000    2.333    1.333 
#    0.000    5.000    0.000    0.000    0.000    0.000 
#    0.000    0.000    0.000    0.000    0.000    0.000 
#
# Total GULP energy -297466.008498 kJ/mol
# GULP energy per Si atom -12394.417021 kJ/mol
# Density = 1.996911 g / cm^3
# Si number density = 20.014666 Si / 1000 Ang^3
#
#
#
# Elastic Constant Matrix: (Units=GPa)
#
#
# Indices 1 2 3 4 5 6 
#
# 1 178.1365 59.8195 51.6906 0.0000 0.0000 0.0000
# 2 59.8195 100.2777 20.4974 0.0000 0.0000 0.0000
# 3 51.6906 20.4974 98.7657 0.0000 0.0000 0.0000
# 4 0.0000 0.0000 0.0000 24.7708 0.0000 0.0000
# 5 0.0000 0.0000 0.0000 0.0000 28.7125 0.0000
# 6 0.0000 0.0000 0.0000 0.0000 0.0000 36.9064
#
#
#
# Elastic Compliance Matrix: (Units=1/GPa)
#
#
# Indices 1 2 3 4 5 6 
#
# 1 0.007937 -0.004058 -0.003312 0.000000 0.000000 0.000000
# 2 -0.004058 0.012489 -0.000468 0.000000 0.000000 0.000000
# 3 -0.003312 -0.000468 0.011955 0.000000 0.000000 0.000000
# 4 0.000000 0.000000 0.000000 0.040370 0.000000 0.000000
# 5 0.000000 0.000000 0.000000 0.000000 0.034828 0.000000
# 6 0.000000 0.000000 0.000000 0.000000 0.000000 0.027096
#
#
# Mechanical properties :
#
#
# Convention : Reuss Voigt Hill
#
# Bulk Modulus (GPa) = 59.86022 71.24388 65.55205
# Shear Modulus (GPa) = 32.06774 34.42277 33.24525
#
# Velocity S-wave (km/s) = 4.00711 4.15164 4.08001
# Velocity P-wave (km/s) = 7.16815 7.65863 7.41744
#
# Compressibility (1/GPa) = 0.01670559
#
# Stress axis : x y z
#
# Youngs Moduli (GPa) = 125.98530 80.07220 83.64352
#
# Poissons Ratio (x) = 0.32493 0.27703
# Poissons Ratio (y) = 0.51125 0.03915
# Poissons Ratio (z) = 0.41726 0.03748
#
# Static dielectric constant tensor:
#      x y z
#    x 3.735700 0.000000 0.000000 
#    y 0.000000 3.420210 0.000000 
#    z 0.000000 0.000000 3.627610 
# 
# 
# High freq. dielectric constant tensor:
#      x y z
#    x 1.799840 0.000000 0.000000 
#    y 0.000000 1.765270 0.000000 
#    z 0.000000 0.000000 1.786040 
# 
# From -- ./inp_files/26229.got.cif
#   From: 2010.03.12/outbox.cif.g09.slc.cpg/sg40_14_cif.got.tgz:26229.got - 2010.04.14 01:38:03.
