data_PCOD8184672
_publ_section_title
;
Structure prediction by ZEFSAII (Michael W. Deem and Ramdas Pophale) SiO2 
 PCOD8184672
Probable space group: A M A 2
;
_chemical_formula_sum "Si O2"
_cell_formula_units_Z 64
_cell_length_a 17.640897
_cell_length_b 14.766091
_cell_length_c 11.854749
_cell_angle_alpha 90.000000
_cell_angle_beta 90.000000
_cell_angle_gamma 90.000000
_cell_volume 3088.009075
_symmetry_space_group_name_H-M "A M A 2"
_symmetry_group_IT_number 40
_symmetry_cell_setting 'orthorhombic'
loop_
_space_group_symop_operation_xyz
x,y,z
-x,-y,z
1/2-x,y,z
1/2+x,-y,z
x,1/2+y,1/2+z
-x,1/2-y,1/2+z
1/2-x,1/2+y,1/2+z
1/2+x,1/2-y,1/2+z
loop_
_atom_site_type_symbol
_atom_site_label
_atom_site_fract_x
_atom_site_fract_y
_atom_site_fract_z
Si Si1 0.589401 0.217888 0.122970
Si Si2 0.665241 0.483647 0.387483
Si Si3 0.917502 0.222336 0.651963
Si Si4 0.838964 0.399543 0.610294
Si Si5 0.584217 0.534855 0.761360
Si Si6 0.416336 0.464002 0.021864
Si Si7 0.662339 0.693228 0.383330
Si Si8 0.337532 0.102448 0.669928
O O1 0.506674 0.258564 0.145930
O O2 0.601612 0.123551 0.186974
O O3 0.648787 0.290755 0.169155
O O4 0.609719 0.210762 0.991339
O O5 0.750000 0.443790 0.395736
O O6 0.627861 0.460907 0.507748
O O7 0.667133 0.588136 0.362006
O O8 0.621637 0.436388 0.283088
O O9 0.875679 0.302189 0.585738
O O10 0.899371 0.125620 0.595590
O O11 0.883703 0.233463 0.777920
O O12 0.750000 0.387213 0.614655
O O13 0.862771 0.451259 0.724544
O O14 0.500000 0.500000 0.741270
O O15 0.600401 0.558630 0.891473
O O16 0.500000 0.500000 0.040602
O O17 0.365279 0.548488 0.059852
O O18 0.750000 0.731418 0.393657
O O19 0.250000 0.081151 0.677923
#
# Coordination Sequence:
#
# PCOD8184672 Si02
#       8
#     8   8   8   8   8   8   8   8
#     4  12  26  42  69 103 137 182 233 291 348 419
#     4   9  20  41  65  92 128 166 219 283 339 406
#     4  12  26  42  69 103 137 182 233 291 348 419
#     4  11  24  43  67  98 134 178 227 281 348 417
#     4  11  25  46  66  96 140 181 227 285 349 420
#     4  11  25  46  66  96 140 181 227 285 349 420
#     4  11  24  45  71  99 138 186 237 288 348 422
#     4  11  24  43  67  98 134 178 227 281 348 417
#
# _framework density 20.725328000000001
#
# number of rings (size 3 to 8) (size 9 to 14) (size 15 to 20)
#    0.000    1.000    5.000    0.750    5.250    1.500 
#    0.000    2.500    0.000    0.000    0.000    0.000 
#    0.000    0.000    0.000    0.000    0.000    0.000 
#
# Total GULP energy -396675.351416 kJ/mol
# GULP energy per Si atom -12396.104732 kJ/mol
# Density = 2.067816 g / cm^3
# Si number density = 20.725328 Si / 1000 Ang^3
#
#
#
# Elastic Constant Matrix: (Units=GPa)
#
#
# Indices 1 2 3 4 5 6 
#
# 1 71.9483 23.2296 43.5364 0.0000 0.0000 0.0000
# 2 23.2296 102.0966 27.1192 0.0000 0.0000 0.0000
# 3 43.5364 27.1192 111.8693 0.0000 0.0000 0.0000
# 4 0.0000 0.0000 0.0000 34.5350 0.0000 0.0000
# 5 0.0000 0.0000 0.0000 0.0000 14.5055 0.0000
# 6 0.0000 0.0000 0.0000 0.0000 0.0000 33.1173
#
#
#
# Elastic Compliance Matrix: (Units=1/GPa)
#
#
# Indices 1 2 3 4 5 6 
#
# 1 0.018754 -0.002489 -0.006695 0.000000 0.000000 0.000000
# 2 -0.002489 0.010799 -0.001649 0.000000 0.000000 0.000000
# 3 -0.006695 -0.001649 0.011944 0.000000 0.000000 0.000000
# 4 0.000000 0.000000 0.000000 0.028956 0.000000 0.000000
# 5 0.000000 0.000000 0.000000 0.000000 0.068939 0.000000
# 6 0.000000 0.000000 0.000000 0.000000 0.000000 0.030196
#
#
# Mechanical properties :
#
#
# Convention : Reuss Voigt Hill
#
# Bulk Modulus (GPa) = 50.42648 52.63163 51.52905
# Shear Modulus (GPa) = 25.26983 29.23349 27.25166
#
# Velocity S-wave (km/s) = 3.49560 3.75976 3.63008
# Velocity P-wave (km/s) = 6.37777 6.65565 6.51819
#
# Compressibility (1/GPa) = 0.01983085
#
# Stress axis : x y z
#
# Youngs Moduli (GPa) = 53.32313 92.60138 83.72134
#
# Poissons Ratio (x) = 0.23044 0.56052
# Poissons Ratio (y) = 0.13270 0.13809
# Poissons Ratio (z) = 0.35700 0.15274
#
# Static dielectric constant tensor:
#      x y z
#    x 3.989020 0.000000 0.000000 
#    y 0.000000 3.943500 0.000000 
#    z 0.000000 0.000000 4.006590 
# 
# 
# High freq. dielectric constant tensor:
#      x y z
#    x 1.803220 0.000000 0.000000 
#    y 0.000000 1.823990 0.000000 
#    z 0.000000 0.000000 1.822560 
# 
# From -- ./inp_files/13141.got.cif
#   From: 2010.03.12/outbox.cif.g09.slc.cpg/sg40_7_cif.got.tgz:13141.got - 2010.04.14 01:38:03.
