data_PCOD8184158
_publ_section_title
;
Structure prediction by ZEFSAII (Michael W. Deem and Ramdas Pophale) SiO2 
 PCOD8184158
Probable space group: A M A 2
;
_chemical_formula_sum "Si O2"
_cell_formula_units_Z 64
_cell_length_a 8.555255
_cell_length_b 15.459062
_cell_length_c 23.877503
_cell_angle_alpha 90.000000
_cell_angle_beta 90.000000
_cell_angle_gamma 90.000000
_cell_volume 3157.948229
_symmetry_space_group_name_H-M "A M A 2"
_symmetry_group_IT_number 40
_symmetry_cell_setting 'orthorhombic'
loop_
_space_group_symop_operation_xyz
x,y,z
-x,-y,z
1/2-x,y,z
1/2+x,-y,z
x,1/2+y,1/2+z
-x,1/2-y,1/2+z
1/2-x,1/2+y,1/2+z
1/2+x,1/2-y,1/2+z
loop_
_atom_site_type_symbol
_atom_site_label
_atom_site_fract_x
_atom_site_fract_y
_atom_site_fract_z
Si Si1 0.934131 0.591795 0.541730
Si Si2 0.566548 0.661893 0.422362
Si Si3 0.067722 0.349471 0.924474
Si Si4 0.435791 0.749031 0.113464
Si Si5 0.066524 0.255655 0.740885
Si Si6 0.433682 0.591458 0.040199
Si Si7 0.066260 0.088576 0.812775
Si Si8 0.933923 0.411215 0.810143
O O1 0.750000 0.587892 0.545820
O O2 0.987492 0.614200 0.478824
O O3 0.001293 0.664712 0.583577
O O4 0.000000 0.500000 0.560898
O O5 0.750000 0.684146 0.423463
O O6 0.469836 0.749310 0.415394
O O7 0.524352 0.600101 0.371128
O O8 0.250000 0.362170 0.935387
O O9 0.018929 0.400719 0.869376
O O10 0.975179 0.388855 0.976319
O O11 0.250000 0.747610 0.109834
O O12 0.492517 0.747220 0.177308
O O13 0.503697 0.665776 0.080655
O O14 0.250000 0.276522 0.744938
O O15 0.024855 0.166004 0.770921
O O16 0.971697 0.332711 0.768969
O O17 0.500000 0.500000 0.060282
O O18 0.250000 0.588183 0.045987
O O19 0.250000 0.082407 0.823893
O O20 0.000000 0.000000 0.785791
O O21 0.750000 0.416322 0.819395
O O22 0.000000 0.500000 0.783180
#
# Coordination Sequence:
#
# PCOD8184158 Si02
#       8
#     8   8   8   8   8   8   8   8
#     4  10  21  38  60  88 119 158 198 241 297 356
#     4  11  21  37  62  90 123 159 198 246 308 369
#     4  12  23  38  62  93 126 160 200 249 308 372
#     4   9  20  41  64  85 120 164 204 250 304 359
#     4  10  22  42  65  89 120 162 210 256 306 359
#     4  11  22  40  63  91 125 163 205 251 306 364
#     4  11  23  38  60  90 124 162 204 251 305 363
#     4  12  25  42  65  92 125 162 203 253 307 369
#
# _framework density 20.266321999999999
#
# number of rings (size 3 to 8) (size 9 to 14) (size 15 to 20)
#    0.000    1.250    2.500    4.125    0.000    3.500 
#    0.000    3.125    0.000    0.000    0.000    0.000 
#    0.000    0.000    0.000    0.000    0.000    0.000 
#
# Total GULP energy -396971.961670 kJ/mol
# GULP energy per Si atom -12405.373802 kJ/mol
# Density = 2.022019 g / cm^3
# Si number density = 20.266322 Si / 1000 Ang^3
#
#
#
# Elastic Constant Matrix: (Units=GPa)
#
#
# Indices 1 2 3 4 5 6 
#
# 1 55.0349 31.9516 18.5170 0.0000 0.0000 0.0000
# 2 31.9516 172.0552 63.5237 0.0000 0.0000 0.0000
# 3 18.5170 63.5237 139.8885 0.0000 0.0000 0.0000
# 4 0.0000 0.0000 0.0000 6.4173 0.0000 0.0000
# 5 0.0000 0.0000 0.0000 0.0000 22.5362 0.0000
# 6 0.0000 0.0000 0.0000 0.0000 0.0000 37.5535
#
#
#
# Elastic Compliance Matrix: (Units=1/GPa)
#
#
# Indices 1 2 3 4 5 6 
#
# 1 0.020528 -0.003375 -0.001185 0.000000 0.000000 0.000000
# 2 -0.003375 0.007538 -0.002976 0.000000 0.000000 0.000000
# 3 -0.001185 -0.002976 0.008657 0.000000 0.000000 0.000000
# 4 0.000000 0.000000 0.000000 0.155828 0.000000 0.000000
# 5 0.000000 0.000000 0.000000 0.000000 0.044373 0.000000
# 6 0.000000 0.000000 0.000000 0.000000 0.000000 0.026629
#
#
# Mechanical properties :
#
#
# Convention : Reuss Voigt Hill
#
# Bulk Modulus (GPa) = 46.18670 66.10702 56.14686
# Shear Modulus (GPa) = 17.49225 30.16716 23.82970
#
# Velocity S-wave (km/s) = 2.94108 3.86234 3.43275
# Velocity P-wave (km/s) = 5.86281 7.25122 6.59366
#
# Compressibility (1/GPa) = 0.02165125
#
# Stress axis : x y z
#
# Youngs Moduli (GPa) = 48.71341 132.66816 115.51540
#
# Poissons Ratio (x) = 0.44772 0.13687
# Poissons Ratio (y) = 0.16440 0.34379
# Poissons Ratio (z) = 0.05772 0.39484
#
# Static dielectric constant tensor:
#      x y z
#    x 3.519540 0.000000 0.000000 
#    y 0.000000 4.053530 0.000000 
#    z 0.000000 0.000000 3.758740 
# 
# 
# High freq. dielectric constant tensor:
#      x y z
#    x 1.782290 0.000000 0.000000 
#    y 0.000000 1.810970 0.000000 
#    z 0.000000 0.000000 1.787700 
# 
# From -- ./inp_files/24242.got.cif
#   From: 2010.03.12/outbox.cif.g09.slc.cpg/sg40_13_cif.got.tgz:24242.got - 2010.04.14 01:38:03.
