data_PCOD8184451
_publ_section_title
;
Structure prediction by ZEFSAII (Michael W. Deem and Ramdas Pophale) SiO2 
 PCOD8184451
Probable space group: A M A 2
;
_chemical_formula_sum "Si O2"
_cell_formula_units_Z 48
_cell_length_a 22.043790
_cell_length_b 11.951078
_cell_length_c 8.519022
_cell_angle_alpha 90.000000
_cell_angle_beta 90.000000
_cell_angle_gamma 90.000000
_cell_volume 2244.311246
_symmetry_space_group_name_H-M "A M A 2"
_symmetry_group_IT_number 40
_symmetry_cell_setting 'orthorhombic'
loop_
_space_group_symop_operation_xyz
x,y,z
-x,-y,z
1/2-x,y,z
1/2+x,-y,z
x,1/2+y,1/2+z
-x,1/2-y,1/2+z
1/2-x,1/2+y,1/2+z
1/2+x,1/2-y,1/2+z
loop_
_atom_site_type_symbol
_atom_site_label
_atom_site_fract_x
_atom_site_fract_y
_atom_site_fract_z
Si Si1 0.820001 0.510655 0.395760
Si Si2 0.925707 0.156247 0.451428
Si Si3 0.875494 0.235830 0.904682
Si Si4 0.002621 0.284168 0.239171
Si Si5 0.179838 0.213217 0.072458
Si Si6 0.095750 0.564165 0.123105
O O1 0.750000 0.516782 0.349932
O O2 0.841461 0.627060 0.473794
O O3 0.833277 0.413288 0.519190
O O4 0.855299 0.495809 0.232063
O O5 0.964712 0.233584 0.572315
O O6 0.856983 0.202601 0.457837
O O7 0.958294 0.179094 0.283599
O O8 0.927955 0.025500 0.494660
O O9 0.944827 0.201341 0.868593
O O10 0.840286 0.278689 0.751729
O O11 0.873390 0.331858 0.035146
O O12 0.961008 0.395509 0.228549
O O13 0.250000 0.245660 0.054490
#
# Coordination Sequence:
#
# PCOD8184451 Si02
#       6
#     8   8   8   8   8   8
#     4  11  24  43  67  91 126 174 222 272 321 382
#     4  11  23  40  68  96 132 168 212 266 324 389
#     4  11  25  40  65  95 132 172 211 272 327 390
#     4  11  22  39  63  99 129 165 209 263 325 392
#     4  10  22  43  64  90 128 171 217 264 323 380
#     4  12  24  41  68  96 130 168 218 264 329 392
#
# _framework density 21.387408000000001
#
# number of rings (size 3 to 8) (size 9 to 14) (size 15 to 20)
#    0.000    1.000    6.667    1.000    0.000    2.667 
#    0.000    1.667    0.000    0.000    0.000    0.000 
#    0.000    0.000    0.000    0.000    0.000    0.000 
#
# Total GULP energy -297564.471448 kJ/mol
# GULP energy per Si atom -12398.519644 kJ/mol
# Density = 2.133873 g / cm^3
# Si number density = 21.387408 Si / 1000 Ang^3
#
#
#
# Elastic Constant Matrix: (Units=GPa)
#
#
# Indices 1 2 3 4 5 6 
#
# 1 117.5818 51.6909 22.2403 0.0000 0.0000 0.0000
# 2 51.6909 144.4370 30.6087 0.0000 0.0000 0.0000
# 3 22.2403 30.6087 24.2149 0.0000 0.0000 0.0000
# 4 0.0000 0.0000 0.0000 41.9615 0.0000 0.0000
# 5 0.0000 0.0000 0.0000 0.0000 26.2028 0.0000
# 6 0.0000 0.0000 0.0000 0.0000 0.0000 30.6783
#
#
#
# Elastic Compliance Matrix: (Units=1/GPa)
#
#
# Indices 1 2 3 4 5 6 
#
# 1 0.010882 -0.002426 -0.006927 0.000000 0.000000 0.000000
# 2 -0.002426 0.009998 -0.010409 0.000000 0.000000 0.000000
# 3 -0.006927 -0.010409 0.060817 0.000000 0.000000 0.000000
# 4 0.000000 0.000000 0.000000 0.023831 0.000000 0.000000
# 5 0.000000 0.000000 0.000000 0.000000 0.038164 0.000000
# 6 0.000000 0.000000 0.000000 0.000000 0.000000 0.032596
#
#
# Mechanical properties :
#
#
# Convention : Reuss Voigt Hill
#
# Bulk Modulus (GPa) = 23.71315 55.03485 39.37400
# Shear Modulus (GPa) = 21.75147 31.88144 26.81645
#
# Velocity S-wave (km/s) = 3.19254 3.86510 3.54481
# Velocity P-wave (km/s) = 4.97003 6.76069 5.93330
#
# Compressibility (1/GPa) = 0.04217069
#
# Stress axis : x y z
#
# Youngs Moduli (GPa) = 91.89793 100.02411 16.44287
#
# Poissons Ratio (x) = 0.24269 0.11391
# Poissons Ratio (y) = 0.22297 0.17115
# Poissons Ratio (z) = 0.63661 1.04115
#
# Static dielectric constant tensor:
#      x y z
#    x 4.187530 0.000000 0.000000 
#    y 0.000000 3.899030 0.000000 
#    z 0.000000 0.000000 3.721800 
# 
# 
# High freq. dielectric constant tensor:
#      x y z
#    x 1.857770 0.000000 0.000000 
#    y 0.000000 1.836890 0.000000 
#    z 0.000000 0.000000 1.817250 
# 
# From -- ./inp_files/8729.got.cif
#   From: 2010.03.12/outbox.cif.g09.slc.cpg/sg40_5_cif.got.tgz:8729.got - 2010.04.14 01:38:03.
