data_PCOD8184272
_publ_section_title
;
Structure prediction by ZEFSAII (Michael W. Deem and Ramdas Pophale) SiO2 
 PCOD8184272
Probable space group: A M A 2
;
_chemical_formula_sum "Si O2"
_cell_formula_units_Z 48
_cell_length_a 16.658924
_cell_length_b 11.581444
_cell_length_c 10.482164
_cell_angle_alpha 90.000000
_cell_angle_beta 90.000000
_cell_angle_gamma 90.000000
_cell_volume 2022.369974
_symmetry_space_group_name_H-M "A M A 2"
_symmetry_group_IT_number 40
_symmetry_cell_setting 'orthorhombic'
loop_
_space_group_symop_operation_xyz
x,y,z
-x,-y,z
1/2-x,y,z
1/2+x,-y,z
x,1/2+y,1/2+z
-x,1/2-y,1/2+z
1/2-x,1/2+y,1/2+z
1/2+x,1/2-y,1/2+z
loop_
_atom_site_type_symbol
_atom_site_label
_atom_site_fract_x
_atom_site_fract_y
_atom_site_fract_z
Si Si1 0.339904 0.963206 0.264590
Si Si2 0.909712 0.762086 0.666642
Si Si3 0.842239 0.380826 0.402642
Si Si4 0.658175 0.600325 0.262943
Si Si5 0.091521 0.015009 0.521055
Si Si6 0.588803 0.317862 0.669585
O O1 0.250000 0.007238 0.234318
O O2 0.351153 0.952235 0.417360
O O3 0.407990 0.055760 0.229614
O O4 0.351240 0.847725 0.180873
O O5 0.903659 0.828210 0.800799
O O6 0.885994 0.849619 0.550947
O O7 0.998726 0.717644 0.641461
O O8 0.750000 0.348992 0.367900
O O9 0.853950 0.521686 0.391102
O O10 0.861824 0.326800 0.538436
O O11 0.750000 0.592852 0.219183
O O12 0.630652 0.733401 0.274888
O O13 0.601413 0.555135 0.150584
O O14 0.000000 0.000000 0.476052
#
# Coordination Sequence:
#
# PCOD8184272 Si02
#       6
#     8   8   8   8   8   8
#     4  12  27  44  65  98 143 187 235 291 360 432
#     4  11  25  44  70 102 137 180 234 293 356 423
#     4  10  23  43  69  99 134 178 230 284 349 424
#     4  10  21  40  68  98 131 176 228 280 346 421
#     4  11  22  44  71 102 135 177 235 294 356 426
#     4  12  24  43  68  98 139 180 232 290 354 423
#
# _framework density 23.734528999999998
#
# number of rings (size 3 to 8) (size 9 to 14) (size 15 to 20)
#    0.000    1.000    1.667    5.000    2.333    3.333 
#    3.000    0.000    0.000    0.000    0.000    0.000 
#    0.000    0.000    0.000    0.000    0.000    0.000 
#
# Total GULP energy -297429.403787 kJ/mol
# GULP energy per Si atom -12392.891824 kJ/mol
# Density = 2.368051 g / cm^3
# Si number density = 23.734529 Si / 1000 Ang^3
#
#
#
# Elastic Constant Matrix: (Units=GPa)
#
#
# Indices 1 2 3 4 5 6 
#
# 1 86.7709 17.3505 23.2119 0.0000 0.0000 0.0000
# 2 17.3505 128.1952 26.9442 0.0000 0.0000 0.0000
# 3 23.2119 26.9442 49.4594 0.0000 0.0000 0.0000
# 4 0.0000 0.0000 0.0000 22.5957 0.0000 0.0000
# 5 0.0000 0.0000 0.0000 0.0000 28.5193 0.0000
# 6 0.0000 0.0000 0.0000 0.0000 0.0000 31.8566
#
#
#
# Elastic Compliance Matrix: (Units=1/GPa)
#
#
# Indices 1 2 3 4 5 6 
#
# 1 0.013213 -0.000548 -0.005903 0.000000 0.000000 0.000000
# 2 -0.000548 0.008832 -0.004554 0.000000 0.000000 0.000000
# 3 -0.005903 -0.004554 0.025470 0.000000 0.000000 0.000000
# 4 0.000000 0.000000 0.000000 0.044256 0.000000 0.000000
# 5 0.000000 0.000000 0.000000 0.000000 0.035064 0.000000
# 6 0.000000 0.000000 0.000000 0.000000 0.000000 0.031391
#
#
# Mechanical properties :
#
#
# Convention : Reuss Voigt Hill
#
# Bulk Modulus (GPa) = 39.20731 44.38207 41.79469
# Shear Modulus (GPa) = 26.49185 29.72224 28.10704
#
# Velocity S-wave (km/s) = 3.34454 3.54259 3.44499
# Velocity P-wave (km/s) = 5.60978 5.95594 5.78545
#
# Compressibility (1/GPa) = 0.02550545
#
# Stress axis : x y z
#
# Youngs Moduli (GPa) = 75.68233 113.22486 39.26199
#
# Poissons Ratio (x) = 0.06201 0.23175
# Poissons Ratio (y) = 0.04145 0.17882
# Poissons Ratio (z) = 0.44673 0.51567
#
# Static dielectric constant tensor:
#      x y z
#    x 4.117460 0.000000 0.000000 
#    y 0.000000 4.822640 0.000000 
#    z 0.000000 0.000000 4.153490 
# 
# 
# High freq. dielectric constant tensor:
#      x y z
#    x 1.938570 0.000000 0.000000 
#    y 0.000000 1.956690 0.000000 
#    z 0.000000 0.000000 1.922320 
# 
# From -- ./inp_files/12880.got.cif
#   From: 2010.03.12/outbox.cif.g09.slc.cpg/sg40_7_cif.got.tgz:12880.got - 2010.04.14 01:38:03.
