data_PCOD8184711
_publ_section_title
;
Structure prediction by ZEFSAII (Michael W. Deem and Ramdas Pophale) SiO2 
 PCOD8184711
Probable space group: A M A 2
;
_chemical_formula_sum "Si O2"
_cell_formula_units_Z 32
_cell_length_a 14.199873
_cell_length_b 19.677070
_cell_length_c 4.815618
_cell_angle_alpha 90.000000
_cell_angle_beta 90.000000
_cell_angle_gamma 90.000000
_cell_volume 1345.540951
_symmetry_space_group_name_H-M "A M A 2"
_symmetry_group_IT_number 40
_symmetry_cell_setting 'orthorhombic'
loop_
_space_group_symop_operation_xyz
x,y,z
-x,-y,z
1/2-x,y,z
1/2+x,-y,z
x,1/2+y,1/2+z
-x,1/2-y,1/2+z
1/2-x,1/2+y,1/2+z
1/2+x,1/2-y,1/2+z
loop_
_atom_site_type_symbol
_atom_site_label
_atom_site_fract_x
_atom_site_fract_y
_atom_site_fract_z
Si Si1 0.057971 0.768292 0.626440
Si Si2 0.105074 0.981137 0.434600
Si Si3 0.250000 0.198642 0.959597
Si Si4 0.355598 0.892408 0.923438
Si Si5 0.750000 0.902382 0.444465
O O1 0.155461 0.743950 0.485489
O O2 0.071384 0.836802 0.808052
O O3 0.987761 0.781487 0.363064
O O4 0.126913 0.960508 0.749311
O O5 0.159700 0.050957 0.402937
O O6 0.132798 0.916599 0.241606
O O7 0.000000 0.000000 0.369389
O O8 0.250000 0.150713 0.694005
O O9 0.250000 0.146679 0.196415
O O10 0.250000 0.863218 0.888594
#
# Coordination Sequence:
#
# PCOD8184711 Si02
#       5
#     8   8   4   8   4
#     4  12  28  48  75 109 146 198 249 301 373 433
#     4  12  27  45  74 106 141 189 240 299 365 432
#     4  12  28  48  72 108 154 192 240 309 366 439
#     4  12  24  50  73 100 144 191 247 299 354 435
#     4  12  26  46  72 106 152 188 236 301 374 435
#
# _framework density 23.782257000000001
#
# number of rings (size 3 to 8) (size 9 to 14) (size 15 to 20)
#    0.000    0.000    3.750    5.250   10.500    0.000 
#    0.000    0.000    0.000    0.000    0.000    0.000 
#    0.000    0.000    0.000    0.000    0.000    0.000 
#
# Total GULP energy -198295.049877 kJ/mol
# GULP energy per Si atom -12393.440617 kJ/mol
# Density = 2.372813 g / cm^3
# Si number density = 23.782257 Si / 1000 Ang^3
#
#
#
# Elastic Constant Matrix: (Units=GPa)
#
#
# Indices 1 2 3 4 5 6 
#
# 1 153.7510 35.0234 33.1853 0.0000 0.0000 0.0000
# 2 35.0234 42.0891 10.9042 0.0000 0.0000 0.0000
# 3 33.1853 10.9042 123.4879 0.0000 0.0000 0.0000
# 4 0.0000 0.0000 0.0000 54.2196 0.0000 0.0000
# 5 0.0000 0.0000 0.0000 0.0000 39.6572 0.0000
# 6 0.0000 0.0000 0.0000 0.0000 0.0000 32.9631
#
#
#
# Elastic Compliance Matrix: (Units=1/GPa)
#
#
# Indices 1 2 3 4 5 6 
#
# 1 0.008348 -0.006514 -0.001668 0.000000 0.000000 0.000000
# 2 -0.006514 0.029399 -0.000845 0.000000 0.000000 0.000000
# 3 -0.001668 -0.000845 0.008621 0.000000 0.000000 0.000000
# 4 0.000000 0.000000 0.000000 0.018444 0.000000 0.000000
# 5 0.000000 0.000000 0.000000 0.000000 0.025216 0.000000
# 6 0.000000 0.000000 0.000000 0.000000 0.000000 0.030337
#
#
# Mechanical properties :
#
#
# Convention : Reuss Voigt Hill
#
# Bulk Modulus (GPa) = 35.32069 53.06152 44.19110
# Shear Modulus (GPa) = 33.81634 41.38232 37.59933
#
# Velocity S-wave (km/s) = 3.77492 4.17592 3.98047
# Velocity P-wave (km/s) = 5.82099 6.75358 6.30455
#
# Compressibility (1/GPa) = 0.02831202
#
# Stress axis : x y z
#
# Youngs Moduli (GPa) = 119.78906 34.01486 115.99723
#
# Poissons Ratio (x) = 0.22159 0.19350
# Poissons Ratio (y) = 0.78035 0.09806
# Poissons Ratio (z) = 0.19983 0.02875
#
# Static dielectric constant tensor:
#      x y z
#    x 4.196200 0.000000 0.000000 
#    y 0.000000 4.152220 0.000000 
#    z 0.000000 0.000000 4.449990 
# 
# 
# High freq. dielectric constant tensor:
#      x y z
#    x 1.954280 0.000000 0.000000 
#    y 0.000000 1.941690 0.000000 
#    z 0.000000 0.000000 1.965550 
# 
# From -- ./inp_files/1065.got.cif
#   From: 2010.03.12/outbox.cif.g09.slc.cpg/sg40_1_cif.got.tgz:1065.got - 2010.04.14 01:38:03.
