data_PCOD8184123
_publ_section_title
;
Structure prediction by ZEFSAII (Michael W. Deem and Ramdas Pophale) SiO2 
 PCOD8184123
Probable space group: A M A 2
;
_chemical_formula_sum "Si O2"
_cell_formula_units_Z 64
_cell_length_a 21.147550
_cell_length_b 15.804094
_cell_length_c 9.758320
_cell_angle_alpha 90.000000
_cell_angle_beta 90.000000
_cell_angle_gamma 90.000000
_cell_volume 3261.404906
_symmetry_space_group_name_H-M "A M A 2"
_symmetry_group_IT_number 40
_symmetry_cell_setting 'orthorhombic'
loop_
_space_group_symop_operation_xyz
x,y,z
-x,-y,z
1/2-x,y,z
1/2+x,-y,z
x,1/2+y,1/2+z
-x,1/2-y,1/2+z
1/2-x,1/2+y,1/2+z
1/2+x,1/2-y,1/2+z
loop_
_atom_site_type_symbol
_atom_site_label
_atom_site_fract_x
_atom_site_fract_y
_atom_site_fract_z
Si Si1 0.678797 0.550273 0.913120
Si Si2 0.026835 0.408604 0.149454
Si Si3 0.094411 0.161108 0.768454
Si Si4 0.675836 0.377160 0.016586
Si Si5 0.073727 0.989247 0.905425
Si Si6 0.321508 0.676680 0.714691
Si Si7 0.322673 0.987697 0.119413
Si Si8 0.882647 0.705907 0.002052
O O1 0.750000 0.518352 0.893440
O O2 0.651783 0.554286 0.759411
O O3 0.648861 0.474467 0.005996
O O4 0.676645 0.643495 0.977592
O O5 0.073764 0.424689 0.277659
O O6 0.060780 0.361281 0.025089
O O7 0.000000 0.500000 0.100533
O O8 0.973797 0.342636 0.198240
O O9 0.145083 0.168854 0.646308
O O10 0.103981 0.078055 0.859846
O O11 0.101467 0.241473 0.866975
O O12 0.750000 0.373649 0.043690
O O13 0.658054 0.330421 0.873725
O O14 0.124220 0.953605 0.013856
O O15 0.000000 0.000000 0.957683
O O16 0.250000 0.711605 0.704332
O O17 0.325622 0.588301 0.635711
O O18 0.369525 0.739045 0.636710
O O19 0.250000 0.960697 0.078996
#
# Coordination Sequence:
#
# PCOD8184123 Si02
#       8
#     8   8   8   8   8   8   8   8
#     4   9  19  35  56  85 118 152 192 236 285 347
#     4   9  22  41  58  76 116 155 196 246 291 352
#     4  10  21  37  59  88 110 146 201 244 296 340
#     4   9  19  38  61  84 117 158 190 229 290 365
#     4   9  18  38  59  82 115 156 201 246 288 356
#     4   9  19  35  59  89 122 151 185 238 299 353
#     4   9  17  35  59  86 119 155 196 239 291 359
#     4  12  21  37  61  86 114 151 194 248 294 344
#
# _framework density 19.623446000000001
#
# number of rings (size 3 to 8) (size 9 to 14) (size 15 to 20)
#    0.000    2.750    1.250    3.375    0.000    2.500 
#    6.750    4.375    0.000    0.000    0.000    0.000 
#    0.000    0.000    0.000    0.000    0.000    0.000 
#
# Total GULP energy -396476.763553 kJ/mol
# GULP energy per Si atom -12389.898861 kJ/mol
# Density = 1.957878 g / cm^3
# Si number density = 19.623446 Si / 1000 Ang^3
#
#
#
# Elastic Constant Matrix: (Units=GPa)
#
#
# Indices 1 2 3 4 5 6 
#
# 1 76.5500 35.4295 60.8023 0.0000 0.0000 0.0000
# 2 35.4295 98.4199 58.8763 0.0000 0.0000 0.0000
# 3 60.8023 58.8763 120.0850 0.0000 0.0000 0.0000
# 4 0.0000 0.0000 0.0000 31.0894 0.0000 0.0000
# 5 0.0000 0.0000 0.0000 0.0000 29.8771 0.0000
# 6 0.0000 0.0000 0.0000 0.0000 0.0000 21.6702
#
#
#
# Elastic Compliance Matrix: (Units=1/GPa)
#
#
# Indices 1 2 3 4 5 6 
#
# 1 0.022070 -0.001783 -0.010301 0.000000 0.000000 0.000000
# 2 -0.001783 0.014521 -0.006217 0.000000 0.000000 0.000000
# 3 -0.010301 -0.006217 0.016591 0.000000 0.000000 0.000000
# 4 0.000000 0.000000 0.000000 0.032165 0.000000 0.000000
# 5 0.000000 0.000000 0.000000 0.000000 0.033470 0.000000
# 6 0.000000 0.000000 0.000000 0.000000 0.000000 0.046146
#
#
# Mechanical properties :
#
#
# Convention : Reuss Voigt Hill
#
# Bulk Modulus (GPa) = 60.30752 67.25233 63.77993
# Shear Modulus (GPa) = 24.14380 25.85714 25.00047
#
# Velocity S-wave (km/s) = 3.51145 3.63390 3.57320
# Velocity P-wave (km/s) = 6.87310 7.20783 7.04245
#
# Compressibility (1/GPa) = 0.01658168
#
# Stress axis : x y z
#
# Youngs Moduli (GPa) = 45.31026 68.86367 60.27369
#
# Poissons Ratio (x) = 0.12278 0.62085
# Poissons Ratio (y) = 0.08078 0.37472
# Poissons Ratio (z) = 0.46672 0.42812
#
# Static dielectric constant tensor:
#      x y z
#    x 3.454580 0.000000 0.000000 
#    y 0.000000 3.377490 0.000000 
#    z 0.000000 0.000000 3.552110 
# 
# 
# High freq. dielectric constant tensor:
#      x y z
#    x 1.753900 0.000000 0.000000 
#    y 0.000000 1.750460 0.000000 
#    z 0.000000 0.000000 1.763280 
# 
# From -- ./inp_files/8909.got.cif
#   From: 2010.03.12/outbox.cif.g09.slc.cpg/sg40_5_cif.got.tgz:8909.got - 2010.04.14 01:38:03.
