data_PCOD8184983
_publ_section_title
;
Structure prediction by ZEFSAII (Michael W. Deem and Ramdas Pophale) SiO2 
 PCOD8184983
Probable space group: A B A 2
;
_chemical_formula_sum "Si O2"
_cell_formula_units_Z 48
_cell_length_a 9.169833
_cell_length_b 13.805334
_cell_length_c 17.412837
_cell_angle_alpha 90.000000
_cell_angle_beta 90.000000
_cell_angle_gamma 90.000000
_cell_volume 2204.336436
_symmetry_space_group_name_H-M "A B A 2"
_symmetry_group_IT_number 41
_symmetry_cell_setting 'orthorhombic'
loop_
_space_group_symop_operation_xyz
x,y,z
-x,-y,z
1/2-x,y,1/2+z
1/2+x,-y,1/2+z
x,1/2+y,1/2+z
-x,1/2-y,1/2+z
1/2-x,1/2+y,z
1/2+x,1/2-y,z
loop_
_atom_site_type_symbol
_atom_site_label
_atom_site_fract_x
_atom_site_fract_y
_atom_site_fract_z
Si Si1 0.650282 0.051403 0.233400
Si Si2 0.994114 0.279444 0.951965
Si Si3 0.843931 0.459515 0.993020
Si Si4 0.968330 0.214089 0.631239
Si Si5 0.772101 0.131949 0.894465
Si Si6 0.766175 0.380167 0.648007
O O1 0.630547 0.126066 0.162881
O O2 0.711998 0.108649 0.305476
O O3 0.500000 0.000000 0.256117
O O4 0.763609 0.967267 0.209068
O O5 0.919643 0.179276 0.927603
O O6 0.136711 0.294301 0.899923
O O7 0.878682 0.366853 0.939126
O O8 0.047487 0.282061 0.039787
O O9 0.743272 0.427185 0.063574
O O10 0.000000 0.500000 0.024401
O O11 0.755329 0.535587 0.943090
O O12 0.913348 0.318689 0.661845
O O13 0.133586 0.196637 0.658199
#
# Coordination Sequence:
#
# PCOD8184983 Si02
#       6
#     8   8   8   8   8   8
#     4  10  23  40  59  85 122 160 194 242 305 363
#     4  10  21  40  64  89 119 158 204 251 297 354
#     4   9  19  38  62  85 117 156 196 242 296 356
#     4  10  21  40  63  86 115 157 203 245 293 352
#     4  11  23  39  61  91 123 157 198 249 307 361
#     4  10  20  39  63  86 115 154 199 247 295 352
#
# _framework density 21.775262000000001
#
# number of rings (size 3 to 8) (size 9 to 14) (size 15 to 20)
#    0.000    2.000    0.000    5.500    0.000    6.667 
#    0.000    5.833    0.000    0.000    0.000    0.000 
#    0.000    0.000    0.000    0.000    0.000    0.000 
#
# Total GULP energy -297604.056831 kJ/mol
# GULP energy per Si atom -12400.169035 kJ/mol
# Density = 2.172570 g / cm^3
# Si number density = 21.775262 Si / 1000 Ang^3
#
#
#
# Elastic Constant Matrix: (Units=GPa)
#
#
# Indices 1 2 3 4 5 6 
#
# 1 62.2145 52.0267 61.6688 0.0000 0.0000 0.0000
# 2 52.0267 118.7793 65.4549 0.0000 0.0000 0.0000
# 3 61.6688 65.4549 123.7575 0.0000 0.0000 0.0000
# 4 0.0000 0.0000 0.0000 26.8092 0.0000 0.0000
# 5 0.0000 0.0000 0.0000 0.0000 18.0424 0.0000
# 6 0.0000 0.0000 0.0000 0.0000 0.0000 57.3064
#
#
#
# Elastic Compliance Matrix: (Units=1/GPa)
#
#
# Indices 1 2 3 4 5 6 
#
# 1 0.037026 -0.008539 -0.013934 0.000000 0.000000 0.000000
# 2 -0.008539 0.013852 -0.003071 0.000000 0.000000 0.000000
# 3 -0.013934 -0.003071 0.016648 0.000000 0.000000 0.000000
# 4 0.000000 0.000000 0.000000 0.037301 0.000000 0.000000
# 5 0.000000 0.000000 0.000000 0.000000 0.055425 0.000000
# 6 0.000000 0.000000 0.000000 0.000000 0.000000 0.017450
#
#
# Mechanical properties :
#
#
# Convention : Reuss Voigt Hill
#
# Bulk Modulus (GPa) = 60.83720 73.67245 67.25482
# Shear Modulus (GPa) = 21.34310 28.80501 25.07405
#
# Velocity S-wave (km/s) = 3.13414 3.64102 3.39705
# Velocity P-wave (km/s) = 6.41065 7.18210 6.80731
#
# Compressibility (1/GPa) = 0.01643731
#
# Stress axis : x y z
#
# Youngs Moduli (GPa) = 27.00805 72.19410 60.06852
#
# Poissons Ratio (x) = 0.61650 0.83698
# Poissons Ratio (y) = 0.23063 0.18446
# Poissons Ratio (z) = 0.37632 0.22169
#
# Static dielectric constant tensor:
#      x y z
#    x 3.785020 0.000000 0.000000 
#    y 0.000000 4.271760 0.000000 
#    z 0.000000 0.000000 3.626110 
# 
# 
# High freq. dielectric constant tensor:
#      x y z
#    x 1.836480 0.000000 0.000000 
#    y 0.000000 1.872960 0.000000 
#    z 0.000000 0.000000 1.837320 
# 
# From -- ./inp_files/9644.got.cif
#   From: 2010.03.12/outbox.cif.g09.slc.cpg/sg41_5_cif.got.tgz:9644.got - 2010.04.14 01:55:53.
