data_PCOD8184703
_publ_section_title
;
Structure prediction by ZEFSAII (Michael W. Deem and Ramdas Pophale) SiO2 
 PCOD8184703
Probable space group: A M A 2
;
_chemical_formula_sum "Si O2"
_cell_formula_units_Z 40
_cell_length_a 10.052403
_cell_length_b 9.850991
_cell_length_c 19.487511
_cell_angle_alpha 90.000000
_cell_angle_beta 90.000000
_cell_angle_gamma 90.000000
_cell_volume 1929.772827
_symmetry_space_group_name_H-M "A M A 2"
_symmetry_group_IT_number 40
_symmetry_cell_setting 'orthorhombic'
loop_
_space_group_symop_operation_xyz
x,y,z
-x,-y,z
1/2-x,y,z
1/2+x,-y,z
x,1/2+y,1/2+z
-x,1/2-y,1/2+z
1/2-x,1/2+y,1/2+z
1/2+x,1/2-y,1/2+z
loop_
_atom_site_type_symbol
_atom_site_label
_atom_site_fract_x
_atom_site_fract_y
_atom_site_fract_z
Si Si1 0.250000 0.287329 0.869841
Si Si2 0.750000 0.493566 0.297426
Si Si3 0.250000 0.545972 0.770644
Si Si4 0.500000 0.000000 0.707699
Si Si5 0.250000 0.263442 0.382861
Si Si6 0.500000 0.500000 0.676473
Si Si7 0.001242 0.840367 0.459387
Si Si8 0.908671 0.769379 0.605455
O O1 0.250000 0.165909 0.814776
O O2 0.250000 0.422860 0.824655
O O3 0.373453 0.276879 0.921056
O O4 0.622106 0.541704 0.255272
O O5 0.750000 0.575939 0.368635
O O6 0.250000 0.686145 0.810908
O O7 0.380485 0.547406 0.724454
O O8 0.452899 0.127735 0.663959
O O9 0.124795 0.228979 0.427557
O O10 0.553596 0.618513 0.627795
O O11 0.998316 0.806711 0.539794
O O12 0.000000 0.000000 0.446988
O O13 0.750000 0.782210 0.591574
#
# Coordination Sequence:
#
# PCOD8184703 Si02
#       8
#     4   4   4   4   4   4   8   8
#     4  12  26  44  71 107 141 181 232 293 343 415
#     4  12  26  44  68 108 146 178 234 286 360 416
#     4  12  22  44  70 104 144 180 234 280 344 434
#     4  12  24  46  76 100 144 192 228 286 352 420
#     4  12  24  42  71  97 137 185 228 285 345 409
#     4  12  26  44  72 106 142 184 226 290 362 406
#     4  12  24  46  73  97 136 188 238 285 344 413
#     4  12  26  48  73 104 143 182 241 296 338 417
#
# _framework density 20.727830000000001
#
# number of rings (size 3 to 8) (size 9 to 14) (size 15 to 20)
#    0.000    0.000    6.000    4.800    0.000    3.200 
#    0.000    0.000    0.000    0.000    0.000    0.000 
#    0.000    0.000    0.000    0.000    0.000    0.000 
#
# Total GULP energy -248096.300560 kJ/mol
# GULP energy per Si atom -12404.815028 kJ/mol
# Density = 2.068065 g / cm^3
# Si number density = 20.727830 Si / 1000 Ang^3
#
#
#
# Elastic Constant Matrix: (Units=GPa)
#
#
# Indices 1 2 3 4 5 6 
#
# 1 138.9753 5.3604 35.5446 0.0000 0.0000 0.0000
# 2 5.3604 84.2617 13.8533 0.0000 0.0000 0.0000
# 3 35.5446 13.8533 84.7712 0.0000 0.0000 0.0000
# 4 0.0000 0.0000 0.0000 44.7066 0.0000 0.0000
# 5 0.0000 0.0000 0.0000 0.0000 45.1396 0.0000
# 6 0.0000 0.0000 0.0000 0.0000 0.0000 32.9406
#
#
#
# Elastic Compliance Matrix: (Units=1/GPa)
#
#
# Indices 1 2 3 4 5 6 
#
# 1 0.008060 0.000044 -0.003387 0.000000 0.000000 0.000000
# 2 0.000044 0.012196 -0.002011 0.000000 0.000000 0.000000
# 3 -0.003387 -0.002011 0.013545 0.000000 0.000000 0.000000
# 4 0.000000 0.000000 0.000000 0.022368 0.000000 0.000000
# 5 0.000000 0.000000 0.000000 0.000000 0.022154 0.000000
# 6 0.000000 0.000000 0.000000 0.000000 0.000000 0.030358
#
#
# Mechanical properties :
#
#
# Convention : Reuss Voigt Hill
#
# Bulk Modulus (GPa) = 43.30399 46.39165 44.84782
# Shear Modulus (GPa) = 39.34341 41.44069 40.39205
#
# Velocity S-wave (km/s) = 4.36144 4.47618 4.41918
# Velocity P-wave (km/s) = 6.80441 7.01034 6.90814
#
# Compressibility (1/GPa) = 0.02309256
#
# Stress axis : x y z
#
# Youngs Moduli (GPa) = 124.06895 81.99624 73.82664
#
# Poissons Ratio (x) = -0.00361 0.25003
# Poissons Ratio (y) = -0.00547 0.14850
# Poissons Ratio (z) = 0.42019 0.16493
#
# Static dielectric constant tensor:
#      x y z
#    x 3.906910 0.000000 0.000000 
#    y 0.000000 3.698740 0.000000 
#    z 0.000000 0.000000 3.929600 
# 
# 
# High freq. dielectric constant tensor:
#      x y z
#    x 1.830880 0.000000 0.000000 
#    y 0.000000 1.818310 0.000000 
#    z 0.000000 0.000000 1.825990 
# 
# From -- ./inp_files/23897.got.cif
#   From: 2010.03.12/outbox.cif.g09.slc.cpg/sg40_12_cif.got.tgz:23897.got - 2010.04.14 01:38:03.
