data_PCOD8184398
_publ_section_title
;
Structure prediction by ZEFSAII (Michael W. Deem and Ramdas Pophale) SiO2 
 PCOD8184398
Probable space group: A M A 2
;
_chemical_formula_sum "Si O2"
_cell_formula_units_Z 64
_cell_length_a 24.224798
_cell_length_b 10.227544
_cell_length_c 11.634878
_cell_angle_alpha 90.000000
_cell_angle_beta 90.000000
_cell_angle_gamma 90.000000
_cell_volume 2882.659554
_symmetry_space_group_name_H-M "A M A 2"
_symmetry_group_IT_number 40
_symmetry_cell_setting 'orthorhombic'
loop_
_space_group_symop_operation_xyz
x,y,z
-x,-y,z
1/2-x,y,z
1/2+x,-y,z
x,1/2+y,1/2+z
-x,1/2-y,1/2+z
1/2-x,1/2+y,1/2+z
1/2+x,1/2-y,1/2+z
loop_
_atom_site_type_symbol
_atom_site_label
_atom_site_fract_x
_atom_site_fract_y
_atom_site_fract_z
Si Si1 0.450517 0.263564 0.771600
Si Si2 0.876787 0.145430 0.462707
Si Si3 0.393423 0.407647 0.594828
Si Si4 0.685335 0.854650 0.103071
Si Si5 0.688274 0.812702 0.599328
Si Si6 0.688937 0.419980 0.856607
Si Si7 0.456091 0.382927 0.367191
Si Si8 0.901554 0.487028 0.168632
O O1 0.412581 0.255168 0.886130
O O2 0.438966 0.398364 0.699554
O O3 0.513125 0.247258 0.818270
O O4 0.439530 0.141610 0.684588
O O5 0.829793 0.222317 0.535461
O O6 0.850614 0.043595 0.372688
O O7 0.916408 0.066816 0.552101
O O8 0.362305 0.541990 0.565631
O O9 0.344957 0.313177 0.639921
O O10 0.425545 0.351811 0.485046
O O11 0.750000 0.892318 0.075231
O O12 0.676611 0.839485 0.240042
O O13 0.750000 0.800109 0.645460
O O14 0.683995 0.818539 0.461307
O O15 0.662483 0.943033 0.656634
O O16 0.750000 0.479921 0.851870
O O17 0.500000 0.500000 0.384200
O O18 0.408443 0.419320 0.277163
#
# Coordination Sequence:
#
# PCOD8184398 Si02
#       8
#     8   8   8   8   8   8   8   8
#     4  10  22  42  64  90 122 166 213 266 325 377
#     4  11  21  39  65  89 126 168 210 261 316 378
#     4  11  22  40  63  91 129 163 211 268 319 377
#     4  11  22  36  60  94 129 169 211 254 319 386
#     4   9  19  38  63  91 126 167 206 256 319 376
#     4   9  19  37  57  85 127 165 205 259 310 375
#     4  10  22  41  61  86 124 163 212 272 320 374
#     4   9  21  39  64  89 123 162 210 254 313 375
#
# _framework density 22.201722
#
# number of rings (size 3 to 8) (size 9 to 14) (size 15 to 20)
#    0.000    2.000    1.250    2.250    3.500    0.500 
#    0.000    4.375    0.000    0.000    0.000    0.000 
#    0.000    0.000    0.000    0.000    0.000    0.000 
#
# Total GULP energy -396494.497129 kJ/mol
# GULP energy per Si atom -12390.453035 kJ/mol
# Density = 2.215119 g / cm^3
# Si number density = 22.201722 Si / 1000 Ang^3
#
#
#
# Elastic Constant Matrix: (Units=GPa)
#
#
# Indices 1 2 3 4 5 6 
#
# 1 70.7315 6.6856 33.2813 0.0000 0.0000 0.0000
# 2 6.6856 48.6389 10.2742 0.0000 0.0000 0.0000
# 3 33.2813 10.2742 104.9639 0.0000 0.0000 0.0000
# 4 0.0000 0.0000 0.0000 31.9141 0.0000 0.0000
# 5 0.0000 0.0000 0.0000 0.0000 38.4701 0.0000
# 6 0.0000 0.0000 0.0000 0.0000 0.0000 23.8404
#
#
#
# Elastic Compliance Matrix: (Units=1/GPa)
#
#
# Indices 1 2 3 4 5 6 
#
# 1 0.016686 -0.001201 -0.005173 0.000000 0.000000 0.000000
# 2 -0.001201 0.021080 -0.001683 0.000000 0.000000 0.000000
# 3 -0.005173 -0.001683 0.011332 0.000000 0.000000 0.000000
# 4 0.000000 0.000000 0.000000 0.031334 0.000000 0.000000
# 5 0.000000 0.000000 0.000000 0.000000 0.025994 0.000000
# 6 0.000000 0.000000 0.000000 0.000000 0.000000 0.041946
#
#
# Mechanical properties :
#
#
# Convention : Reuss Voigt Hill
#
# Bulk Modulus (GPa) = 30.31699 36.09074 33.20386
# Shear Modulus (GPa) = 28.49336 30.45113 29.47225
#
# Velocity S-wave (km/s) = 3.58632 3.70748 3.64741
# Velocity P-wave (km/s) = 5.55282 5.88374 5.72067
#
# Compressibility (1/GPa) = 0.03298480
#
# Stress axis : x y z
#
# Youngs Moduli (GPa) = 59.93218 47.43797 88.24559
#
# Poissons Ratio (x) = 0.05696 0.45649
# Poissons Ratio (y) = 0.07197 0.14849
# Poissons Ratio (z) = 0.31003 0.07982
#
# Static dielectric constant tensor:
#      x y z
#    x 4.053950 0.000000 0.000000 
#    y 0.000000 3.748480 0.000000 
#    z 0.000000 0.000000 4.103840 
# 
# 
# High freq. dielectric constant tensor:
#      x y z
#    x 1.865970 0.000000 0.000000 
#    y 0.000000 1.850380 0.000000 
#    z 0.000000 0.000000 1.883720 
# 
# From -- ./inp_files/14059.got.cif
#   From: 2010.03.12/outbox.cif.g09.slc.cpg/sg40_8_cif.got.tgz:14059.got - 2010.04.14 01:38:03.
