data_PCOD8184718
_publ_section_title
;
Structure prediction by ZEFSAII (Michael W. Deem and Ramdas Pophale) SiO2 
 PCOD8184718
Probable space group: A M A 2
;
_chemical_formula_sum "Si O2"
_cell_formula_units_Z 64
_cell_length_a 9.473924
_cell_length_b 14.286826
_cell_length_c 27.837029
_cell_angle_alpha 90.000000
_cell_angle_beta 90.000000
_cell_angle_gamma 90.000000
_cell_volume 3767.806004
_symmetry_space_group_name_H-M "A M A 2"
_symmetry_group_IT_number 40
_symmetry_cell_setting 'orthorhombic'
loop_
_space_group_symop_operation_xyz
x,y,z
-x,-y,z
1/2-x,y,z
1/2+x,-y,z
x,1/2+y,1/2+z
-x,1/2-y,1/2+z
1/2-x,1/2+y,1/2+z
1/2+x,1/2-y,1/2+z
loop_
_atom_site_type_symbol
_atom_site_label
_atom_site_fract_x
_atom_site_fract_y
_atom_site_fract_z
Si Si1 0.414376 0.208066 0.503620
Si Si2 0.585624 0.791934 0.791500
Si Si3 0.408955 0.914237 0.974868
Si Si4 0.408955 0.414237 0.820252
Si Si5 0.087524 0.089873 0.593581
Si Si6 0.412221 0.334345 0.919143
Si Si7 0.412476 0.089873 0.701539
Si Si8 0.412221 0.334345 0.375977
O O1 0.250000 0.197685 0.488994
O O2 0.463095 0.315948 0.497373
O O3 0.443041 0.176673 0.558224
O O4 0.508022 0.140256 0.468950
O O5 0.750000 0.802315 0.806127
O O6 0.536905 0.684052 0.797747
O O7 0.556959 0.823327 0.736896
O O8 0.491978 0.859744 0.826170
O O9 0.250000 0.931644 0.992138
O O10 0.417225 0.914942 0.916477
O O11 0.500000 0.000000 0.995350
O O12 0.500000 0.500000 0.799770
O O13 0.250000 0.431644 0.802982
O O14 0.417225 0.414942 0.878643
O O15 0.250000 0.060008 0.590968
O O16 0.045113 0.121221 0.647560
O O17 0.000000 0.000000 0.576828
O O18 0.250000 0.306078 0.929806
O O19 0.500000 0.250000 0.897560
O O20 0.250000 0.060008 0.704152
O O21 0.500000 0.000000 0.718292
O O22 0.250000 0.306078 0.365314
#
# Coordination Sequence:
#
# PCOD8184718 Si02
#       8
#     8   8   8   8   8   8   8   8
#     4   9  18  32  48  68  94 123 156 191 230 278
#     4   9  18  32  48  68  94 123 156 191 230 278
#     4   9  18  30  44  64  91 123 157 189 221 264
#     4   9  18  30  44  64  91 123 157 189 221 264
#     4   9  18  33  52  72  94 120 151 191 239 287
#     4   9  17  29  44  64  90 120 154 189 225 265
#     4   9  18  33  52  72  94 120 151 191 239 287
#     4   9  17  29  44  64  90 120 154 189 225 265
#
# _framework density 16.986013
#
# number of rings (size 3 to 8) (size 9 to 14) (size 15 to 20)
#    0.000    3.000    0.000    2.250    0.000    7.000 
#    0.000    5.000    0.000    0.750    0.000    0.000 
#    0.000    0.000    0.000    0.000    0.000    0.500 
#
# Total GULP energy -396536.059075 kJ/mol
# GULP energy per Si atom -12391.751846 kJ/mol
# Density = 1.694735 g / cm^3
# Si number density = 16.986013 Si / 1000 Ang^3
#
#
#
# Elastic Constant Matrix: (Units=GPa)
#
#
# Indices 1 2 3 4 5 6 
#
# 1 73.9213 39.2011 38.5600 0.0000 0.0000 0.0000
# 2 39.2011 83.8663 50.1075 0.0000 0.0000 0.0000
# 3 38.5600 50.1075 95.7066 0.0000 0.0000 0.0000
# 4 0.0000 0.0000 0.0000 20.9548 0.0000 0.0000
# 5 0.0000 0.0000 0.0000 0.0000 22.3290 0.0000
# 6 0.0000 0.0000 0.0000 0.0000 0.0000 27.1723
#
#
#
# Elastic Compliance Matrix: (Units=1/GPa)
#
#
# Indices 1 2 3 4 5 6 
#
# 1 0.019189 -0.006330 -0.004417 0.000000 0.000000 0.000000
# 2 -0.006330 0.019440 -0.007627 0.000000 0.000000 0.000000
# 3 -0.004417 -0.007627 0.016221 0.000000 0.000000 0.000000
# 4 0.000000 0.000000 0.000000 0.047722 0.000000 0.000000
# 5 0.000000 0.000000 0.000000 0.000000 0.044785 0.000000
# 6 0.000000 0.000000 0.000000 0.000000 0.000000 0.036802
#
#
# Mechanical properties :
#
#
# Convention : Reuss Voigt Hill
#
# Bulk Modulus (GPa) = 55.24536 56.58125 55.91330
# Shear Modulus (GPa) = 22.03207 22.46624 22.24915
#
# Velocity S-wave (km/s) = 3.60539 3.64075 3.62311
# Velocity P-wave (km/s) = 7.06587 7.14536 7.10572
#
# Compressibility (1/GPa) = 0.01810107
#
# Stress axis : x y z
#
# Youngs Moduli (GPa) = 52.11321 51.44091 61.64690
#
# Poissons Ratio (x) = 0.32564 0.27229
# Poissons Ratio (y) = 0.32990 0.47020
# Poissons Ratio (z) = 0.23018 0.39235
#
# Static dielectric constant tensor:
#      x y z
#    x 3.406390 0.000000 0.000000 
#    y 0.000000 2.922730 0.000000 
#    z 0.000000 0.000000 3.504930 
# 
# 
# High freq. dielectric constant tensor:
#      x y z
#    x 1.662090 0.000000 0.000000 
#    y 0.000000 1.628030 0.000000 
#    z 0.000000 0.000000 1.638260 
# 
# From -- ./inp_files/26497.got.cif
#   From: 2010.03.12/outbox.cif.g09.slc.cpg/sg40_14_cif.got.tgz:26497.got - 2010.04.14 01:38:03.
