data_PCOD8184502
_publ_section_title
;
Structure prediction by ZEFSAII (Michael W. Deem and Ramdas Pophale) SiO2 
 PCOD8184502
Probable space group: A M A 2
;
_chemical_formula_sum "Si O2"
_cell_formula_units_Z 48
_cell_length_a 8.952402
_cell_length_b 27.281200
_cell_length_c 9.727523
_cell_angle_alpha 90.000000
_cell_angle_beta 90.000000
_cell_angle_gamma 90.000000
_cell_volume 2375.775018
_symmetry_space_group_name_H-M "A M A 2"
_symmetry_group_IT_number 40
_symmetry_cell_setting 'orthorhombic'
loop_
_space_group_symop_operation_xyz
x,y,z
-x,-y,z
1/2-x,y,z
1/2+x,-y,z
x,1/2+y,1/2+z
-x,1/2-y,1/2+z
1/2-x,1/2+y,1/2+z
1/2+x,1/2-y,1/2+z
loop_
_atom_site_type_symbol
_atom_site_label
_atom_site_fract_x
_atom_site_fract_y
_atom_site_fract_z
Si Si1 0.574830 0.902183 0.798810
Si Si2 0.922589 0.547330 0.057080
Si Si3 0.073661 0.213633 0.378552
Si Si4 0.073851 0.447036 0.552224
Si Si5 0.579777 0.616843 0.809849
Si Si6 0.924695 0.294246 0.192889
O O1 0.750000 0.910726 0.817372
O O2 0.509046 0.943116 0.698179
O O3 0.537616 0.849187 0.737746
O O4 0.492682 0.908731 0.943376
O O5 0.750000 0.536386 0.086645
O O6 0.000000 0.500000 0.987793
O O7 0.943214 0.593616 0.958941
O O8 0.250000 0.215347 0.373603
O O9 0.017511 0.214273 0.536948
O O10 0.021935 0.164757 0.299685
O O11 0.010343 0.259964 0.298870
O O12 0.250000 0.452762 0.530741
O O13 0.032781 0.423850 0.699126
O O14 0.000000 0.500000 0.538343
O O15 0.750000 0.633381 0.785490
O O16 0.750000 0.282846 0.203535
#
# Coordination Sequence:
#
# PCOD8184502 Si02
#       6
#     8   8   8   8   8   8
#     4  11  23  42  64  89 125 164 207 258 305 365
#     4  11  22  38  63  92 122 161 203 251 310 367
#     4  11  24  42  67  95 124 163 207 254 310 372
#     4  11  24  42  63  92 127 166 210 256 308 368
#     4  10  23  42  64  91 126 162 204 257 309 366
#     4  10  24  44  64  93 128 162 205 256 310 370
#
# _framework density 20.203934
#
# number of rings (size 3 to 8) (size 9 to 14) (size 15 to 20)
#    0.000    1.333    1.667    3.000    2.333    4.667 
#    0.000    0.000    0.000    0.000    0.000    0.000 
#    0.000    0.000    0.000    0.000    0.000    0.000 
#
# Total GULP energy -297725.449716 kJ/mol
# GULP energy per Si atom -12405.227072 kJ/mol
# Density = 2.015795 g / cm^3
# Si number density = 20.203934 Si / 1000 Ang^3
#
#
#
# Elastic Constant Matrix: (Units=GPa)
#
#
# Indices 1 2 3 4 5 6 
#
# 1 97.8166 58.8137 54.2977 0.0000 0.0000 0.0000
# 2 58.8137 95.0856 42.6680 0.0000 0.0000 0.0000
# 3 54.2977 42.6680 112.1259 0.0000 0.0000 0.0000
# 4 0.0000 0.0000 0.0000 41.8461 0.0000 0.0000
# 5 0.0000 0.0000 0.0000 0.0000 33.5561 0.0000
# 6 0.0000 0.0000 0.0000 0.0000 0.0000 40.1962
#
#
#
# Elastic Compliance Matrix: (Units=1/GPa)
#
#
# Indices 1 2 3 4 5 6 
#
# 1 0.018846 -0.009119 -0.005656 0.000000 0.000000 0.000000
# 2 -0.009119 0.017095 -0.002089 0.000000 0.000000 0.000000
# 3 -0.005656 -0.002089 0.012453 0.000000 0.000000 0.000000
# 4 0.000000 0.000000 0.000000 0.023897 0.000000 0.000000
# 5 0.000000 0.000000 0.000000 0.000000 0.029801 0.000000
# 6 0.000000 0.000000 0.000000 0.000000 0.000000 0.024878
#
#
# Mechanical properties :
#
#
# Convention : Reuss Voigt Hill
#
# Bulk Modulus (GPa) = 68.19132 68.50967 68.35049
# Shear Modulus (GPa) = 30.19595 33.06960 31.63277
#
# Velocity S-wave (km/s) = 3.87015 4.05012 3.96115
# Velocity P-wave (km/s) = 7.33454 7.47355 7.40437
#
# Compressibility (1/GPa) = 0.01466462
#
# Stress axis : x y z
#
# Youngs Moduli (GPa) = 53.06282 58.49819 80.30404
#
# Poissons Ratio (x) = 0.53342 0.45421
# Poissons Ratio (y) = 0.48386 0.16779
# Poissons Ratio (z) = 0.30013 0.12223
#
# Static dielectric constant tensor:
#      x y z
#    x 3.705440 0.000000 0.000000 
#    y 0.000000 3.596230 0.000000 
#    z 0.000000 0.000000 3.786280 
# 
# 
# High freq. dielectric constant tensor:
#      x y z
#    x 1.794370 0.000000 0.000000 
#    y 0.000000 1.798810 0.000000 
#    z 0.000000 0.000000 1.797880 
# 
# From -- ./inp_files/4617.got.cif
#   From: 2010.03.12/outbox.cif.g09.slc.cpg/sg40_3_cif.got.tgz:4617.got - 2010.04.14 01:38:03.
