data_PCOD8184625
_publ_section_title
;
Structure prediction by ZEFSAII (Michael W. Deem and Ramdas Pophale) SiO2 
 PCOD8184625
Probable space group: A M A 2
;
_chemical_formula_sum "Si O2"
_cell_formula_units_Z 64
_cell_length_a 29.636630
_cell_length_b 9.384972
_cell_length_c 10.417571
_cell_angle_alpha 90.000000
_cell_angle_beta 90.000000
_cell_angle_gamma 90.000000
_cell_volume 2897.532184
_symmetry_space_group_name_H-M "A M A 2"
_symmetry_group_IT_number 40
_symmetry_cell_setting 'orthorhombic'
loop_
_space_group_symop_operation_xyz
x,y,z
-x,-y,z
1/2-x,y,z
1/2+x,-y,z
x,1/2+y,1/2+z
-x,1/2-y,1/2+z
1/2-x,1/2+y,1/2+z
1/2+x,1/2-y,1/2+z
loop_
_atom_site_type_symbol
_atom_site_label
_atom_site_fract_x
_atom_site_fract_y
_atom_site_fract_z
Si Si1 0.042802 0.584827 0.327270
Si Si2 0.136712 0.558798 0.465206
Si Si3 0.412461 0.414881 0.125123
Si Si4 0.699613 0.166721 0.055131
Si Si5 0.834050 0.956089 0.485305
Si Si6 0.543158 0.092104 0.357244
Si Si7 0.891337 0.877175 0.240626
Si Si8 0.199243 0.786961 0.340326
O O1 0.085382 0.548415 0.418104
O O2 0.052977 0.528316 0.184470
O O3 0.030803 0.751131 0.305560
O O4 0.000000 0.500000 0.386041
O O5 0.163638 0.409260 0.461008
O O6 0.138879 0.604237 0.613762
O O7 0.162785 0.668442 0.374973
O O8 0.412097 0.281180 0.223448
O O9 0.364170 0.491770 0.106511
O O10 0.427665 0.370475 0.983017
O O11 0.750000 0.107647 0.027884
O O12 0.686309 0.143370 0.203899
O O13 0.699662 0.335452 0.033287
O O14 0.863257 0.887468 0.370632
O O15 0.803350 0.086893 0.442555
O O16 0.500000 0.000000 0.396602
O O17 0.570368 0.000774 0.250576
O O18 0.250000 0.723502 0.339896
#
# Coordination Sequence:
#
# PCOD8184625 Si02
#       8
#     8   8   8   8   8   8   8   8
#     4  12  26  46  69 100 135 179 228 283 343 402
#     4  12  23  45  70  95 138 179 223 279 340 401
#     4  11  23  44  67  97 134 177 226 277 339 396
#     4  11  25  42  67 103 137 179 228 276 337 402
#     4  11  22  40  69  97 134 178 223 277 333 402
#     4  11  25  44  65  94 134 170 224 282 332 401
#     4  11  22  42  68  96 129 180 221 268 340 398
#     4  11  23  43  68  96 135 178 223 279 338 403
#
# _framework density 22.087762999999999
#
# number of rings (size 3 to 8) (size 9 to 14) (size 15 to 20)
#    0.000    0.750    3.750    4.125    1.750    1.500 
#    2.250    0.000    0.000    0.000    0.000    0.000 
#    0.000    0.000    0.000    0.000    0.000    0.000 
#
# Total GULP energy -396774.814651 kJ/mol
# GULP energy per Si atom -12399.212958 kJ/mol
# Density = 2.203749 g / cm^3
# Si number density = 22.087763 Si / 1000 Ang^3
#
#
#
# Elastic Constant Matrix: (Units=GPa)
#
#
# Indices 1 2 3 4 5 6 
#
# 1 118.3033 46.6907 33.2545 0.0000 0.0000 0.0000
# 2 46.6907 135.7756 36.3986 0.0000 0.0000 0.0000
# 3 33.2545 36.3986 57.1355 0.0000 0.0000 0.0000
# 4 0.0000 0.0000 0.0000 33.3512 0.0000 0.0000
# 5 0.0000 0.0000 0.0000 0.0000 34.8304 0.0000
# 6 0.0000 0.0000 0.0000 0.0000 0.0000 37.5574
#
#
#
# Elastic Compliance Matrix: (Units=1/GPa)
#
#
# Indices 1 2 3 4 5 6 
#
# 1 0.010733 -0.002431 -0.004698 0.000000 0.000000 0.000000
# 2 -0.002431 0.009433 -0.004594 0.000000 0.000000 0.000000
# 3 -0.004698 -0.004594 0.023163 0.000000 0.000000 0.000000
# 4 0.000000 0.000000 0.000000 0.029984 0.000000 0.000000
# 5 0.000000 0.000000 0.000000 0.000000 0.028711 0.000000
# 6 0.000000 0.000000 0.000000 0.000000 0.000000 0.026626
#
#
# Mechanical properties :
#
#
# Convention : Reuss Voigt Hill
#
# Bulk Modulus (GPa) = 50.29633 60.43354 55.36494
# Shear Modulus (GPa) = 31.50125 34.13917 32.82021
#
# Velocity S-wave (km/s) = 3.78058 3.93570 3.85892
# Velocity P-wave (km/s) = 6.47129 6.93347 6.70636
#
# Compressibility (1/GPa) = 0.01988216
#
# Stress axis : x y z
#
# Youngs Moduli (GPa) = 93.17010 106.01308 43.17182
#
# Poissons Ratio (x) = 0.25777 0.20282
# Poissons Ratio (y) = 0.22654 0.19833
# Poissons Ratio (z) = 0.43771 0.48703
#
# Static dielectric constant tensor:
#      x y z
#    x 3.884290 0.000000 0.000000 
#    y 0.000000 4.101790 0.000000 
#    z 0.000000 0.000000 3.841570 
# 
# 
# High freq. dielectric constant tensor:
#      x y z
#    x 1.867920 0.000000 0.000000 
#    y 0.000000 1.880410 0.000000 
#    z 0.000000 0.000000 1.863810 
# 
# From -- ./inp_files/14406.got.cif
#   From: 2010.03.12/outbox.cif.g09.slc.cpg/sg40_8_cif.got.tgz:14406.got - 2010.04.14 01:38:03.
