data_PCOD8184586
_publ_section_title
;
Structure prediction by ZEFSAII (Michael W. Deem and Ramdas Pophale) SiO2 
 PCOD8184586
Probable space group: A M A 2
;
_chemical_formula_sum "Si O2"
_cell_formula_units_Z 48
_cell_length_a 14.891830
_cell_length_b 9.608386
_cell_length_c 15.984910
_cell_angle_alpha 90.000000
_cell_angle_beta 90.000000
_cell_angle_gamma 90.000000
_cell_volume 2287.224040
_symmetry_space_group_name_H-M "A M A 2"
_symmetry_group_IT_number 40
_symmetry_cell_setting 'orthorhombic'
loop_
_space_group_symop_operation_xyz
x,y,z
-x,-y,z
1/2-x,y,z
1/2+x,-y,z
x,1/2+y,1/2+z
-x,1/2-y,1/2+z
1/2-x,1/2+y,1/2+z
1/2+x,1/2-y,1/2+z
loop_
_atom_site_type_symbol
_atom_site_label
_atom_site_fract_x
_atom_site_fract_y
_atom_site_fract_z
Si Si1 0.852419 0.750196 0.058900
Si Si2 0.148830 0.780663 0.828179
Si Si3 0.019051 0.838043 0.978321
Si Si4 0.105069 0.984774 0.680910
Si Si5 0.601198 0.956550 0.205831
Si Si6 0.346277 0.779199 0.126412
O O1 0.750000 0.780566 0.029604
O O2 0.855612 0.600114 0.102351
O O3 0.888553 0.868854 0.120952
O O4 0.922525 0.757824 0.981202
O O5 0.250000 0.793372 0.863881
O O6 0.076061 0.781906 0.901143
O O7 0.131394 0.909796 0.766711
O O8 0.140154 0.633257 0.781748
O O9 0.072664 0.802714 0.062756
O O10 0.000000 0.000000 0.968165
O O11 0.145952 0.137750 0.678918
O O12 0.000000 0.000000 0.672245
O O13 0.500000 0.000000 0.223870
O O14 0.656125 0.098754 0.195573
O O15 0.250000 0.779689 0.079051
#
# Coordination Sequence:
#
# PCOD8184586 Si02
#       6
#     8   8   8   8   8   8
#     4  11  21  40  68  96 127 173 225 271 325 390
#     4  11  25  44  66  96 137 180 216 269 337 397
#     4  12  24  42  64 101 130 176 221 274 333 385
#     4  11  21  41  68  98 131 170 220 272 328 397
#     4  11  20  41  68  98 129 167 221 266 322 389
#     4  12  21  37  69 102 129 165 221 275 322 393
#
# _framework density 20.986139999999999
#
# number of rings (size 3 to 8) (size 9 to 14) (size 15 to 20)
#    0.000    0.667    5.000    6.000    0.000    0.667 
#    3.000    0.000    0.000    2.000    0.000    0.000 
#    0.000    0.000    0.000    0.000    0.000    0.000 
#
# Total GULP energy -297573.087854 kJ/mol
# GULP energy per Si atom -12398.878661 kJ/mol
# Density = 2.093837 g / cm^3
# Si number density = 20.986140 Si / 1000 Ang^3
#
#
#
# Elastic Constant Matrix: (Units=GPa)
#
#
# Indices 1 2 3 4 5 6 
#
# 1 175.4933 20.6482 42.4861 0.0000 0.0000 0.0000
# 2 20.6482 144.9181 38.8858 0.0000 0.0000 0.0000
# 3 42.4861 38.8858 89.6052 0.0000 0.0000 0.0000
# 4 0.0000 0.0000 0.0000 13.1772 0.0000 0.0000
# 5 0.0000 0.0000 0.0000 0.0000 25.4805 0.0000
# 6 0.0000 0.0000 0.0000 0.0000 0.0000 32.7556
#
#
#
# Elastic Compliance Matrix: (Units=1/GPa)
#
#
# Indices 1 2 3 4 5 6 
#
# 1 0.006439 -0.000111 -0.003005 0.000000 0.000000 0.000000
# 2 -0.000111 0.007812 -0.003337 0.000000 0.000000 0.000000
# 3 -0.003005 -0.003337 0.014033 0.000000 0.000000 0.000000
# 4 0.000000 0.000000 0.000000 0.075889 0.000000 0.000000
# 5 0.000000 0.000000 0.000000 0.000000 0.039246 0.000000
# 6 0.000000 0.000000 0.000000 0.000000 0.000000 0.030529
#
#
# Mechanical properties :
#
#
# Convention : Reuss Voigt Hill
#
# Bulk Modulus (GPa) = 65.03148 68.22855 66.63001
# Shear Modulus (GPa) = 26.04447 34.81575 30.43011
#
# Velocity S-wave (km/s) = 3.52665 4.07749 3.81203
# Velocity P-wave (km/s) = 6.90204 7.39930 7.15499
#
# Compressibility (1/GPa) = 0.01537717
#
# Stress axis : x y z
#
# Youngs Moduli (GPa) = 155.31043 128.01144 71.26041
#
# Poissons Ratio (x) = 0.01423 0.21411
# Poissons Ratio (y) = 0.01726 0.23782
# Poissons Ratio (z) = 0.46666 0.42722
#
# Static dielectric constant tensor:
#      x y z
#    x 4.159570 0.000000 0.000000 
#    y 0.000000 4.345740 0.000000 
#    z 0.000000 0.000000 3.507810 
# 
# 
# High freq. dielectric constant tensor:
#      x y z
#    x 1.852120 0.000000 0.000000 
#    y 0.000000 1.834060 0.000000 
#    z 0.000000 0.000000 1.778820 
# 
# From -- ./inp_files/20546.got.cif
#   From: 2010.03.12/outbox.cif.g09.slc.cpg/sg40_11_cif.got.tgz:20546.got - 2010.04.14 01:38:03.
