data_PCOD8184232
_publ_section_title
;
Structure prediction by ZEFSAII (Michael W. Deem and Ramdas Pophale) SiO2 
 PCOD8184232
Probable space group: A M A 2
;
_chemical_formula_sum "Si O2"
_cell_formula_units_Z 44
_cell_length_a 14.368589
_cell_length_b 16.030297
_cell_length_c 8.908739
_cell_angle_alpha 90.000000
_cell_angle_beta 90.000000
_cell_angle_gamma 90.000000
_cell_volume 2051.974345
_symmetry_space_group_name_H-M "A M A 2"
_symmetry_group_IT_number 40
_symmetry_cell_setting 'orthorhombic'
loop_
_space_group_symop_operation_xyz
x,y,z
-x,-y,z
1/2-x,y,z
1/2+x,-y,z
x,1/2+y,1/2+z
-x,1/2-y,1/2+z
1/2-x,1/2+y,1/2+z
1/2+x,1/2-y,1/2+z
loop_
_atom_site_type_symbol
_atom_site_label
_atom_site_fract_x
_atom_site_fract_y
_atom_site_fract_z
Si Si1 0.855252 0.562050 0.668970
Si Si2 0.517861 0.089024 0.442917
Si Si3 0.500000 0.500000 0.449366
Si Si4 0.353032 0.690546 0.864452
Si Si5 0.475459 0.333449 0.256840
Si Si6 0.349555 0.753458 0.180546
O O1 0.750000 0.528534 0.676764
O O2 0.893638 0.572893 0.837518
O O3 0.910674 0.498950 0.559866
O O4 0.862710 0.655862 0.603915
O O5 0.431275 0.119289 0.334561
O O6 0.538955 0.152224 0.578589
O O7 0.500000 0.000000 0.520105
O O8 0.494277 0.418141 0.346779
O O9 0.250000 0.669906 0.796105
O O10 0.385247 0.781725 0.807134
O O11 0.344788 0.688862 0.044131
O O12 0.565296 0.273383 0.287927
O O13 0.250000 0.750613 0.269000
#
# Coordination Sequence:
#
# PCOD8184232 Si02
#       6
#     8   8   4   8   8   8
#     4  11  23  41  64  90 127 171 211 261 323 386
#     4  11  23  42  64  96 132 165 207 265 332 381
#     4  12  24  40  66  96 128 166 220 270 322 380
#     4  10  21  39  65  92 124 169 214 259 316 386
#     4  11  22  39  67  96 125 167 215 272 315 380
#     4   9  19  38  62  87 120 164 209 254 316 377
#
# _framework density 21.442765000000001
#
# number of rings (size 3 to 8) (size 9 to 14) (size 15 to 20)
#    0.000    1.455    5.455    0.000    0.000    2.182 
#    0.000    0.000    0.000    0.000    0.000    0.000 
#    0.000    0.000    0.000    0.000    0.000    0.000 
#
# Total GULP energy -272569.191456 kJ/mol
# GULP energy per Si atom -12389.508703 kJ/mol
# Density = 2.139396 g / cm^3
# Si number density = 21.442765 Si / 1000 Ang^3
#
#
#
# Elastic Constant Matrix: (Units=GPa)
#
#
# Indices 1 2 3 4 5 6 
#
# 1 159.7544 41.8320 48.1086 0.0000 0.0000 0.0000
# 2 41.8320 81.9307 14.2847 0.0000 0.0000 0.0000
# 3 48.1086 14.2847 77.2701 0.0000 0.0000 0.0000
# 4 0.0000 0.0000 0.0000 21.6430 0.0000 0.0000
# 5 0.0000 0.0000 0.0000 0.0000 20.0439 0.0000
# 6 0.0000 0.0000 0.0000 0.0000 0.0000 15.8467
#
#
#
# Elastic Compliance Matrix: (Units=1/GPa)
#
#
# Indices 1 2 3 4 5 6 
#
# 1 0.008612 -0.003578 -0.004700 0.000000 0.000000 0.000000
# 2 -0.003578 0.014098 -0.000379 0.000000 0.000000 0.000000
# 3 -0.004700 -0.000379 0.015938 0.000000 0.000000 0.000000
# 4 0.000000 0.000000 0.000000 0.046204 0.000000 0.000000
# 5 0.000000 0.000000 0.000000 0.000000 0.049891 0.000000
# 6 0.000000 0.000000 0.000000 0.000000 0.000000 0.063105
#
#
# Mechanical properties :
#
#
# Convention : Reuss Voigt Hill
#
# Bulk Modulus (GPa) = 46.87253 58.60064 52.73659
# Shear Modulus (GPa) = 22.49490 25.82205 24.15847
#
# Velocity S-wave (km/s) = 3.24244 3.47397 3.36020
# Velocity P-wave (km/s) = 5.99373 6.59390 6.30096
#
# Compressibility (1/GPa) = 0.02133446
#
# Stress axis : x y z
#
# Youngs Moduli (GPa) = 116.11880 70.93156 62.74255
#
# Poissons Ratio (x) = 0.25376 0.29492
# Poissons Ratio (y) = 0.41542 0.02377
# Poissons Ratio (z) = 0.54581 0.02688
#
# Static dielectric constant tensor:
#      x y z
#    x 4.177580 0.000000 0.000000 
#    y 0.000000 4.032050 0.000000 
#    z 0.000000 0.000000 3.496910 
# 
# 
# High freq. dielectric constant tensor:
#      x y z
#    x 1.844980 0.000000 0.000000 
#    y 0.000000 1.845330 0.000000 
#    z 0.000000 0.000000 1.816750 
# 
# From -- ./inp_files/6384.got.cif
#   From: 2010.03.12/outbox.cif.g09.slc.cpg/sg40_4_cif.got.tgz:6384.got - 2010.04.14 01:38:03.
