data_PCOD8184990
_publ_section_title
;
Structure prediction by ZEFSAII (Michael W. Deem and Ramdas Pophale) SiO2 
 PCOD8184990
Probable space group: A B A 2
;
_chemical_formula_sum "Si O2"
_cell_formula_units_Z 64
_cell_length_a 23.871289
_cell_length_b 8.216611
_cell_length_c 16.388081
_cell_angle_alpha 90.000000
_cell_angle_beta 90.000000
_cell_angle_gamma 90.000000
_cell_volume 3214.376165
_symmetry_space_group_name_H-M "A B A 2"
_symmetry_group_IT_number 41
_symmetry_cell_setting 'orthorhombic'
loop_
_space_group_symop_operation_xyz
x,y,z
-x,-y,z
1/2-x,y,1/2+z
1/2+x,-y,1/2+z
x,1/2+y,1/2+z
-x,1/2-y,1/2+z
1/2-x,1/2+y,z
1/2+x,1/2-y,z
loop_
_atom_site_type_symbol
_atom_site_label
_atom_site_fract_x
_atom_site_fract_y
_atom_site_fract_z
Si Si1 0.973744 0.669684 0.383930
Si Si2 0.373702 0.169954 0.802597
Si Si3 0.684647 0.306075 0.958143
Si Si4 0.625446 0.834373 0.616608
Si Si5 0.098107 0.331265 0.544748
Si Si6 0.699131 0.159062 0.428240
Si Si7 0.579817 0.114169 0.900091
Si Si8 0.063057 0.496851 0.074219
O O1 0.924679 0.705549 0.318920
O O2 0.949938 0.660747 0.475667
O O3 0.000000 0.500000 0.357559
O O4 0.021497 0.805689 0.374356
O O5 0.354113 0.162322 0.709370
O O6 0.319485 0.227819 0.853208
O O7 0.394089 0.990291 0.827165
O O8 0.735678 0.184201 0.947055
O O9 0.695769 0.469039 0.906925
O O10 0.624928 0.248274 0.925271
O O11 0.678673 0.331824 0.055912
O O12 0.590085 0.668444 0.607290
O O13 0.591359 0.001233 0.596340
O O14 0.159856 0.308854 0.506361
O O15 0.090186 0.170365 0.602081
O O16 0.568045 0.994436 0.975825
O O17 0.000000 0.500000 0.105521
#
# Coordination Sequence:
#
# PCOD8184990 Si02
#       8
#     8   8   8   8   8   8   8   8
#     4  11  20  36  63  89 122 165 215 253 293 365
#     4  11  22  41  59  89 130 157 199 256 318 361
#     4  10  22  40  66  90 114 158 209 252 303 367
#     4  10  25  41  57  96 129 156 201 262 315 364
#     4  10  21  38  63  90 117 165 210 254 299 364
#     4  10  20  39  66  88 115 155 209 252 299 371
#     4  11  19  37  62  88 119 166 210 249 294 366
#     4  11  19  37  63  88 121 168 212 244 297 365
#
# _framework density 19.910549
#
# number of rings (size 3 to 8) (size 9 to 14) (size 15 to 20)
#    0.000    1.500    3.750    4.125    1.750    0.500 
#    9.000    5.000    0.000    0.000    0.000    0.000 
#    0.000    0.000    0.000    0.000    0.000    0.000 
#
# Total GULP energy -396679.401338 kJ/mol
# GULP energy per Si atom -12396.231292 kJ/mol
# Density = 1.986523 g / cm^3
# Si number density = 19.910549 Si / 1000 Ang^3
#
#
#
# Elastic Constant Matrix: (Units=GPa)
#
#
# Indices 1 2 3 4 5 6 
#
# 1 80.0248 12.9906 11.7367 0.0000 0.0000 0.0000
# 2 12.9906 129.3640 21.6092 0.0000 0.0000 0.0000
# 3 11.7367 21.6092 89.1912 0.0000 0.0000 0.0000
# 4 0.0000 0.0000 0.0000 18.1164 0.0000 0.0000
# 5 0.0000 0.0000 0.0000 0.0000 12.7434 0.0000
# 6 0.0000 0.0000 0.0000 0.0000 0.0000 31.1493
#
#
#
# Elastic Compliance Matrix: (Units=1/GPa)
#
#
# Indices 1 2 3 4 5 6 
#
# 1 0.012878 -0.001053 -0.001440 0.000000 0.000000 0.000000
# 2 -0.001053 0.008142 -0.001834 0.000000 0.000000 0.000000
# 3 -0.001440 -0.001834 0.011846 0.000000 0.000000 0.000000
# 4 0.000000 0.000000 0.000000 0.055199 0.000000 0.000000
# 5 0.000000 0.000000 0.000000 0.000000 0.078472 0.000000
# 6 0.000000 0.000000 0.000000 0.000000 0.000000 0.032103
#
#
# Mechanical properties :
#
#
# Convention : Reuss Voigt Hill
#
# Bulk Modulus (GPa) = 41.29998 43.47255 42.38626
# Shear Modulus (GPa) = 23.21651 29.21806 26.21729
#
# Velocity S-wave (km/s) = 3.41844 3.83491 3.63265
# Velocity P-wave (km/s) = 6.03065 6.44127 6.23934
#
# Compressibility (1/GPa) = 0.02421309
#
# Stress axis : x y z
#
# Youngs Moduli (GPa) = 77.65087 122.81655 84.41894
#
# Poissons Ratio (x) = 0.12929 0.12153
# Poissons Ratio (y) = 0.08175 0.15484
# Poissons Ratio (z) = 0.11178 0.22527
#
# Static dielectric constant tensor:
#      x y z
#    x 3.562240 0.000000 0.000000 
#    y 0.000000 3.903110 0.000000 
#    z 0.000000 0.000000 3.270250 
# 
# 
# High freq. dielectric constant tensor:
#      x y z
#    x 1.771630 0.000000 0.000000 
#    y 0.000000 1.804670 0.000000 
#    z 0.000000 0.000000 1.731400 
# 
# From -- ./inp_files/10763.got.cif
#   From: 2010.03.12/outbox.cif.g09.slc.cpg/sg41_6_cif.got.tgz:10763.got - 2010.04.14 01:55:53.
