data_PCOD8184796
_publ_section_title
;
Structure prediction by ZEFSAII (Michael W. Deem and Ramdas Pophale) SiO2 
 PCOD8184796
Probable space group: A B A 2
;
_chemical_formula_sum "Si O2"
_cell_formula_units_Z 64
_cell_length_a 11.699919
_cell_length_b 13.789368
_cell_length_c 18.500569
_cell_angle_alpha 90.000000
_cell_angle_beta 90.000000
_cell_angle_gamma 90.000000
_cell_volume 2984.779840
_symmetry_space_group_name_H-M "A B A 2"
_symmetry_group_IT_number 41
_symmetry_cell_setting 'orthorhombic'
loop_
_space_group_symop_operation_xyz
x,y,z
-x,-y,z
1/2-x,y,1/2+z
1/2+x,-y,1/2+z
x,1/2+y,1/2+z
-x,1/2-y,1/2+z
1/2-x,1/2+y,z
1/2+x,1/2-y,z
loop_
_atom_site_type_symbol
_atom_site_label
_atom_site_fract_x
_atom_site_fract_y
_atom_site_fract_z
Si Si1 0.934087 0.399557 0.037200
Si Si2 0.750000 0.344113 0.639886
Si Si3 0.065913 0.600443 0.742572
Si Si4 0.381636 0.745813 0.009410
Si Si5 0.618364 0.254187 0.770362
Si Si6 0.248351 0.357882 0.389886
Si Si7 0.874664 0.452455 0.889886
Si Si8 0.510958 0.384053 0.889886
O O1 0.849955 0.408982 0.105449
O O2 0.000000 0.500000 0.035278
O O3 0.863232 0.386722 0.961799
O O4 0.013432 0.305475 0.043925
O O5 0.849955 0.408981 0.674323
O O6 0.801789 0.280728 0.575922
O O7 0.698211 0.280728 0.703850
O O8 0.136768 0.613278 0.817973
O O9 0.000000 0.500000 0.744494
O O10 0.986568 0.694525 0.735848
O O11 0.307753 0.817197 0.960840
O O12 0.424430 0.653439 0.962251
O O13 0.692248 0.182803 0.818932
O O14 0.575570 0.346561 0.817521
O O15 0.270041 0.472981 0.389886
O O16 0.114331 0.336385 0.389886
O O17 0.000000 0.500000 0.889886
O O18 0.500000 0.500000 0.889886
#
# Coordination Sequence:
#
# PCOD8184796 Si02
#       8
#     8   8   8   8   8   8   8   8
#     4  11  23  44  70  99 131 177 235 278 330 414
#     4  12  28  40  64  98 146 192 210 272 354 404
#     4  11  23  44  70  99 131 177 235 278 330 414
#     4  11  24  46  67  99 139 180 230 277 336 421
#     4  11  24  46  67  99 139 180 230 277 336 421
#     4  11  21  43  75  96 125 182 223 291 340 390
#     4  10  18  41  72  96 120 165 237 269 328 391
#     4  11  27  42  69 108 137 163 231 302 337 385
#
# _framework density 21.442117
#
# number of rings (size 3 to 8) (size 9 to 14) (size 15 to 20)
#    0.000    1.000    5.000    3.000    3.500    3.000 
#    0.000    0.000    0.000    0.000    0.000    0.000 
#    0.000    0.000    0.000    0.000    0.000    0.000 
#
# Total GULP energy -396800.195119 kJ/mol
# GULP energy per Si atom -12400.006097 kJ/mol
# Density = 2.139331 g / cm^3
# Si number density = 21.442117 Si / 1000 Ang^3
#
#
#
# Elastic Constant Matrix: (Units=GPa)
#
#
# Indices 1 2 3 4 5 6 
#
# 1 97.9893 21.6985 54.8552 0.0000 0.0000 0.0000
# 2 21.6985 95.5564 30.0423 0.0000 0.0000 0.0000
# 3 54.8552 30.0423 142.1262 0.0000 0.0000 0.0000
# 4 0.0000 0.0000 0.0000 -7.6200 0.0000 0.0000
# 5 0.0000 0.0000 0.0000 0.0000 49.5300 0.0000
# 6 0.0000 0.0000 0.0000 0.0000 0.0000 25.8292
#
#
#
# Elastic Compliance Matrix: (Units=1/GPa)
#
#
# Indices 1 2 3 4 5 6 
#
# 1 0.013215 -0.001497 -0.004784 0.000000 0.000000 0.000000
# 2 -0.001497 0.011379 -0.001828 0.000000 0.000000 0.000000
# 3 -0.004784 -0.001828 0.009269 0.000000 0.000000 0.000000
# 4 0.000000 0.000000 0.000000 -0.131233 0.000000 0.000000
# 5 0.000000 0.000000 0.000000 0.000000 0.020190 0.000000
# 6 0.000000 0.000000 0.000000 0.000000 0.000000 0.038716
#
#
# Mechanical properties :
#
#
# Convention : Reuss Voigt Hill
#
# Bulk Modulus (GPa) = 56.66936 60.98487 58.82711
# Shear Modulus (GPa) = -305.52482 28.81956 -138.35263
#
# Velocity S-wave (km/s) = -11.94979 3.67012 -8.04138
# Velocity P-wave (km/s) = 12.80275 6.81639 7.66313
#
# Compressibility (1/GPa) = 0.01764622
#
# Stress axis : x y z
#
# Youngs Moduli (GPa) = 75.67306 87.87733 107.88912
#
# Poissons Ratio (x) = 0.13152 0.51614
# Poissons Ratio (y) = 0.11326 0.19719
# Poissons Ratio (z) = 0.36202 0.16061
#
# Static dielectric constant tensor:
#      x y z
#    x 4.049630 0.000000 0.000000 
#    y 0.000000 3.727510 0.000000 
#    z 0.000000 0.000000 4.550020 
# 
# 
# High freq. dielectric constant tensor:
#      x y z
#    x 1.853880 0.000000 0.000000 
#    y 0.000000 1.831110 0.000000 
#    z 0.000000 0.000000 1.849810 
# 
# From -- ./inp_files/10137.got.cif
#   From: 2010.03.12/outbox.cif.g09.slc.cpg/sg41_6_cif.got.tgz:10137.got - 2010.04.14 01:55:53.
