data_PCOD8184933
_publ_section_title
;
Structure prediction by ZEFSAII (Michael W. Deem and Ramdas Pophale) SiO2 
 PCOD8184933
Probable space group: A B A 2
;
_chemical_formula_sum "Si O2"
_cell_formula_units_Z 52
_cell_length_a 25.514020
_cell_length_b 8.521726
_cell_length_c 12.424120
_cell_angle_alpha 90.000000
_cell_angle_beta 90.000000
_cell_angle_gamma 90.000000
_cell_volume 2701.295501
_symmetry_space_group_name_H-M "A B A 2"
_symmetry_group_IT_number 41
_symmetry_cell_setting 'orthorhombic'
loop_
_space_group_symop_operation_xyz
x,y,z
-x,-y,z
1/2-x,y,1/2+z
1/2+x,-y,1/2+z
x,1/2+y,1/2+z
-x,1/2-y,1/2+z
1/2-x,1/2+y,z
1/2+x,1/2-y,z
loop_
_atom_site_type_symbol
_atom_site_label
_atom_site_fract_x
_atom_site_fract_y
_atom_site_fract_z
Si Si1 0.500000 0.000000 0.703120
Si Si2 0.690904 0.749965 0.084674
Si Si3 0.809775 0.314505 0.330400
Si Si4 0.028731 0.760692 0.860384
Si Si5 0.928283 0.241357 0.087962
Si Si6 0.234999 0.967754 0.457282
Si Si7 0.925469 0.918690 0.801434
O O1 0.466710 0.117574 0.777641
O O2 0.541572 0.087339 0.628155
O O3 0.704695 0.784484 0.207466
O O4 0.631646 0.690689 0.070134
O O5 0.729334 0.612956 0.047452
O O6 0.697710 0.906305 0.013956
O O7 0.802284 0.157337 0.399451
O O8 0.771965 0.452543 0.368975
O O9 0.869588 0.366517 0.346097
O O10 0.969238 0.823577 0.868039
O O11 0.067691 0.896078 0.818011
O O12 0.046175 0.699308 0.977200
O O13 0.931970 0.382005 0.174399
#
# Coordination Sequence:
#
# PCOD8184933 Si02
#       7
#     4   8   8   8   8   8   8
#     4  10  22  36  56  84 108 144 186 220 270 326
#     4  10  21  37  56  83 109 142 184 223 272 327
#     4  10  20  38  57  80 113 143 179 230 269 319
#     4  10  20  37  56  79 111 142 179 225 269 321
#     4  10  21  37  57  81 111 142 180 225 268 322
#     4  10  21  36  58  81 108 145 183 223 275 322
#     4   9  20  37  56  80 110 143 180 220 272 325
#
# _framework density 19.250024
#
# number of rings (size 3 to 8) (size 9 to 14) (size 15 to 20)
#    0.000    2.154    0.000    2.769    0.000    6.154 
#    0.000   15.385    0.000    0.000    0.000    0.000 
#    0.000    0.000    0.000    0.000    0.000    0.000 
#
# Total GULP energy -322512.354532 kJ/mol
# GULP energy per Si atom -12404.321328 kJ/mol
# Density = 1.920621 g / cm^3
# Si number density = 19.250024 Si / 1000 Ang^3
#
#
#
# Elastic Constant Matrix: (Units=GPa)
#
#
# Indices 1 2 3 4 5 6 
#
# 1 129.9126 51.9088 63.9467 0.0000 0.0000 0.0000
# 2 51.9088 95.7947 36.5336 0.0000 0.0000 0.0000
# 3 63.9467 36.5336 107.8289 0.0000 0.0000 0.0000
# 4 0.0000 0.0000 0.0000 18.3578 0.0000 0.0000
# 5 0.0000 0.0000 0.0000 0.0000 -10.1321 0.0000
# 6 0.0000 0.0000 0.0000 0.0000 0.0000 -19.0758
#
#
#
# Elastic Compliance Matrix: (Units=1/GPa)
#
#
# Indices 1 2 3 4 5 6 
#
# 1 0.012342 -0.004475 -0.005803 0.000000 0.000000 0.000000
# 2 -0.004475 0.013610 -0.001958 0.000000 0.000000 0.000000
# 3 -0.005803 -0.001958 0.013379 0.000000 0.000000 0.000000
# 4 0.000000 0.000000 0.000000 0.054473 0.000000 0.000000
# 5 0.000000 0.000000 0.000000 0.000000 -0.098696 0.000000
# 6 0.000000 0.000000 0.000000 0.000000 0.000000 -0.052422
#
#
# Mechanical properties :
#
#
# Convention : Reuss Voigt Hill
#
# Bulk Modulus (GPa) = 67.29485 70.92381 69.10933
# Shear Modulus (GPa) = -179.27492 9.90643 -84.68425
#
# Velocity S-wave (km/s) = -9.66084 2.27098 -6.63982
# Velocity P-wave (km/s) = 9.45560 6.61815 4.77537
#
# Compressibility (1/GPa) = 0.01485998
#
# Stress axis : x y z
#
# Youngs Moduli (GPa) = 81.02511 73.47387 74.74543
#
# Poissons Ratio (x) = 0.32876 0.43376
# Poissons Ratio (y) = 0.36255 0.14633
# Poissons Ratio (z) = 0.47020 0.14384
#
# Static dielectric constant tensor:
#      x y z
#    x 3.543100 0.000000 0.000000 
#    y 0.000000 3.548980 0.000000 
#    z 0.000000 0.000000 3.590650 
# 
# 
# High freq. dielectric constant tensor:
#      x y z
#    x 1.752910 0.000000 0.000000 
#    y 0.000000 1.748940 0.000000 
#    z 0.000000 0.000000 1.758630 
# 
# From -- ./inp_files/6538.got.cif
#   From: 2010.03.12/outbox.cif.g09.slc.cpg/sg41_4_cif.got.tgz:6538.got - 2010.04.14 01:55:53.
