data_PCOD8184157
_publ_section_title
;
Structure prediction by ZEFSAII (Michael W. Deem and Ramdas Pophale) SiO2 
 PCOD8184157
Probable space group: A M A 2
;
_chemical_formula_sum "Si O2"
_cell_formula_units_Z 32
_cell_length_a 18.053156
_cell_length_b 13.150090
_cell_length_c 7.511030
_cell_angle_alpha 90.000000
_cell_angle_beta 90.000000
_cell_angle_gamma 90.000000
_cell_volume 1783.123225
_symmetry_space_group_name_H-M "A M A 2"
_symmetry_group_IT_number 40
_symmetry_cell_setting 'orthorhombic'
loop_
_space_group_symop_operation_xyz
x,y,z
-x,-y,z
1/2-x,y,z
1/2+x,-y,z
x,1/2+y,1/2+z
-x,1/2-y,1/2+z
1/2-x,1/2+y,1/2+z
1/2+x,1/2-y,1/2+z
loop_
_atom_site_type_symbol
_atom_site_label
_atom_site_fract_x
_atom_site_fract_y
_atom_site_fract_z
Si Si1 0.420087 0.305062 0.947540
Si Si2 0.333752 0.306068 0.277953
Si Si3 0.833850 0.514237 0.044493
Si Si4 0.584888 0.302719 0.076453
O O1 0.381439 0.415003 0.907597
O O2 0.416715 0.232229 0.779378
O O3 0.375824 0.250631 0.111437
O O4 0.503759 0.325894 0.005279
O O5 0.250000 0.264393 0.289751
O O6 0.376489 0.285144 0.460601
O O7 0.335077 0.427793 0.237109
O O8 0.750000 0.505266 0.972257
O O9 0.867516 0.403951 0.063248
#
# Coordination Sequence:
#
# PCOD8184157 Si02
#       4
#     8   8   8   8
#     4  10  21  38  60  88 117 148 202 240 283 351
#     4   9  21  39  57  88 120 145 197 246 281 351
#     4   9  21  39  57  85 119 149 194 244 288 352
#     4  12  20  39  64  84 117 163 187 240 303 334
#
# _framework density 17.946038999999999
#
# number of rings (size 3 to 8) (size 9 to 14) (size 15 to 20)
#    1.500    0.500    2.500    1.500    0.000    4.000 
#    4.500    0.000    0.000    0.000    0.000    0.000 
#    0.000    0.000    0.000    0.000    0.000    0.000 
#
# Total GULP energy -198227.044346 kJ/mol
# GULP energy per Si atom -12389.190272 kJ/mol
# Density = 1.790519 g / cm^3
# Si number density = 17.946039 Si / 1000 Ang^3
#
#
#
# Elastic Constant Matrix: (Units=GPa)
#
#
# Indices 1 2 3 4 5 6 
#
# 1 141.9100 19.4554 24.0529 0.0000 0.0000 0.0000
# 2 19.4554 51.8752 -1.5086 0.0000 0.0000 0.0000
# 3 24.0529 -1.5086 61.1670 0.0000 0.0000 0.0000
# 4 0.0000 0.0000 0.0000 20.6472 0.0000 0.0000
# 5 0.0000 0.0000 0.0000 0.0000 21.4090 0.0000
# 6 0.0000 0.0000 0.0000 0.0000 0.0000 24.3955
#
#
#
# Elastic Compliance Matrix: (Units=1/GPa)
#
#
# Indices 1 2 3 4 5 6 
#
# 1 0.008019 -0.003102 -0.003230 0.000000 0.000000 0.000000
# 2 -0.003102 0.020490 0.001725 0.000000 0.000000 0.000000
# 3 -0.003230 0.001725 0.017661 0.000000 0.000000 0.000000
# 4 0.000000 0.000000 0.000000 0.048433 0.000000 0.000000
# 5 0.000000 0.000000 0.000000 0.000000 0.046709 0.000000
# 6 0.000000 0.000000 0.000000 0.000000 0.000000 0.040991
#
#
# Mechanical properties :
#
#
# Convention : Reuss Voigt Hill
#
# Bulk Modulus (GPa) = 27.05764 37.66126 32.35945
# Shear Modulus (GPa) = 24.52942 27.48717 26.00830
#
# Velocity S-wave (km/s) = 3.70110 3.91788 3.81103
# Velocity P-wave (km/s) = 5.77703 6.44188 6.11849
#
# Compressibility (1/GPa) = 0.03695813
#
# Stress axis : x y z
#
# Youngs Moduli (GPa) = 124.69766 48.80331 56.62072
#
# Poissons Ratio (x) = 0.15137 0.18288
# Poissons Ratio (y) = 0.38676 -0.09767
# Poissons Ratio (z) = 0.40277 -0.08419
#
# Static dielectric constant tensor:
#      x y z
#    x 3.567700 0.000000 0.000000 
#    y 0.000000 3.021400 0.000000 
#    z 0.000000 0.000000 3.126340 
# 
# 
# High freq. dielectric constant tensor:
#      x y z
#    x 1.723800 0.000000 0.000000 
#    y 0.000000 1.672200 0.000000 
#    z 0.000000 0.000000 1.671940 
# 
# From -- ./inp_files/1642.got.cif
#   From: 2010.03.12/outbox.cif.g09.slc.cpg/sg40_1_cif.got.tgz:1642.got - 2010.04.14 01:38:03.
