data_PCOD8184875
_publ_section_title
;
Structure prediction by ZEFSAII (Michael W. Deem and Ramdas Pophale) SiO2 
 PCOD8184875
Probable space group: A B A 2
;
_chemical_formula_sum "Si O2"
_cell_formula_units_Z 60
_cell_length_a 14.835132
_cell_length_b 8.247460
_cell_length_c 24.731133
_cell_angle_alpha 90.000000
_cell_angle_beta 90.000000
_cell_angle_gamma 90.000000
_cell_volume 3025.907487
_symmetry_space_group_name_H-M "A B A 2"
_symmetry_group_IT_number 41
_symmetry_cell_setting 'orthorhombic'
loop_
_space_group_symop_operation_xyz
x,y,z
-x,-y,z
1/2-x,y,1/2+z
1/2+x,-y,1/2+z
x,1/2+y,1/2+z
-x,1/2-y,1/2+z
1/2-x,1/2+y,z
1/2+x,1/2-y,z
loop_
_atom_site_type_symbol
_atom_site_label
_atom_site_fract_x
_atom_site_fract_y
_atom_site_fract_z
Si Si1 0.664922 0.273544 0.928950
Si Si2 0.296333 0.499163 0.741994
Si Si3 0.089675 0.086716 0.075103
Si Si4 0.000000 0.000000 0.261534
Si Si5 0.995459 0.182206 0.488576
Si Si6 0.169086 0.891562 0.982785
Si Si7 0.139327 0.691970 0.690219
Si Si8 0.343745 0.793357 0.806643
O O1 0.567332 0.189497 0.935558
O O2 0.736168 0.196374 0.971684
O O3 0.657285 0.465709 0.939141
O O4 0.689433 0.241330 0.867218
O O5 0.231735 0.602971 0.704031
O O6 0.357405 0.382822 0.704609
O O7 0.359060 0.623070 0.775524
O O8 0.240501 0.389272 0.783009
O O9 0.134572 0.172817 0.125868
O O10 0.059583 0.220262 0.032904
O O11 0.000000 0.000000 0.096795
O O12 0.158772 0.963036 0.044137
O O13 0.944132 0.882831 0.222467
O O14 0.064765 0.896652 0.300865
O O15 0.092073 0.256658 0.474122
O O16 0.000000 0.000000 0.509919
#
# Coordination Sequence:
#
# PCOD8184875 Si02
#       8
#     8   8   8   4   8   8   8   8
#     4  11  21  38  63  86 123 161 201 249 314 360
#     4   9  21  38  58  86 124 152 213 247 296 366
#     4   9  19  38  62  85 123 159 195 252 312 361
#     4  10  22  38  60  88 120 160 210 244 310 358
#     4  10  22  40  57  90 123 152 206 253 296 382
#     4  10  22  39  60  91 120 158 202 252 305 381
#     4  10  19  39  60  84 120 164 197 259 303 361
#     4  10  21  40  58  90 119 163 196 256 298 368
#
# _framework density 19.828762999999999
#
# number of rings (size 3 to 8) (size 9 to 14) (size 15 to 20)
#    0.000    2.133    0.667    2.800    0.933    2.667 
#   12.000    1.333    0.000    0.000    0.000    0.000 
#    0.000    0.000    0.000    0.000    0.000    0.000 
#
# Total GULP energy -371923.555362 kJ/mol
# GULP energy per Si atom -12397.451845 kJ/mol
# Density = 1.978363 g / cm^3
# Si number density = 19.828763 Si / 1000 Ang^3
#
#
#
# Elastic Constant Matrix: (Units=GPa)
#
#
# Indices 1 2 3 4 5 6 
#
# 1 81.0355 38.5458 24.5602 0.0000 0.0000 0.0000
# 2 38.5458 125.0448 30.8017 0.0000 0.0000 0.0000
# 3 24.5602 30.8017 98.0603 0.0000 0.0000 0.0000
# 4 0.0000 0.0000 0.0000 16.0566 0.0000 0.0000
# 5 0.0000 0.0000 0.0000 0.0000 15.7124 0.0000
# 6 0.0000 0.0000 0.0000 0.0000 0.0000 26.3595
#
#
#
# Elastic Compliance Matrix: (Units=1/GPa)
#
#
# Indices 1 2 3 4 5 6 
#
# 1 0.015005 -0.004010 -0.002499 0.000000 0.000000 0.000000
# 2 -0.004010 0.009739 -0.002055 0.000000 0.000000 0.000000
# 3 -0.002499 -0.002055 0.011469 0.000000 0.000000 0.000000
# 4 0.000000 0.000000 0.000000 0.062280 0.000000 0.000000
# 5 0.000000 0.000000 0.000000 0.000000 0.063644 0.000000
# 6 0.000000 0.000000 0.000000 0.000000 0.000000 0.037937
#
#
# Mechanical properties :
#
#
# Convention : Reuss Voigt Hill
#
# Bulk Modulus (GPa) = 52.39283 54.66178 53.52731
# Shear Modulus (GPa) = 22.36504 25.64123 24.00313
#
# Velocity S-wave (km/s) = 3.36208 3.59992 3.48303
# Velocity P-wave (km/s) = 6.44604 6.70119 6.57485
#
# Compressibility (1/GPa) = 0.01908658
#
# Stress axis : x y z
#
# Youngs Moduli (GPa) = 66.64493 102.67594 87.19103
#
# Poissons Ratio (x) = 0.41172 0.21785
# Poissons Ratio (y) = 0.26724 0.17917
# Poissons Ratio (z) = 0.16652 0.21099
#
# Static dielectric constant tensor:
#      x y z
#    x 3.727220 0.000000 0.000000 
#    y 0.000000 3.859370 0.000000 
#    z 0.000000 0.000000 3.445590 
# 
# 
# High freq. dielectric constant tensor:
#      x y z
#    x 1.769210 0.000000 0.000000 
#    y 0.000000 1.785400 0.000000 
#    z 0.000000 0.000000 1.765390 
# 
# From -- ./inp_files/12220.got.cif
#   From: 2010.03.12/outbox.cif.g09.slc.cpg/sg41_7_cif.got.tgz:12220.got - 2010.04.14 01:55:53.
