data_PCOD8184416
_publ_section_title
;
Structure prediction by ZEFSAII (Michael W. Deem and Ramdas Pophale) SiO2 
 PCOD8184416
Probable space group: A M A 2
;
_chemical_formula_sum "Si O2"
_cell_formula_units_Z 56
_cell_length_a 17.974439
_cell_length_b 9.402718
_cell_length_c 15.456667
_cell_angle_alpha 90.000000
_cell_angle_beta 90.000000
_cell_angle_gamma 90.000000
_cell_volume 2612.309359
_symmetry_space_group_name_H-M "A M A 2"
_symmetry_group_IT_number 40
_symmetry_cell_setting 'orthorhombic'
loop_
_space_group_symop_operation_xyz
x,y,z
-x,-y,z
1/2-x,y,z
1/2+x,-y,z
x,1/2+y,1/2+z
-x,1/2-y,1/2+z
1/2-x,1/2+y,1/2+z
1/2+x,1/2-y,1/2+z
loop_
_atom_site_type_symbol
_atom_site_label
_atom_site_fract_x
_atom_site_fract_y
_atom_site_fract_z
Si Si1 0.335175 0.694468 0.277160
Si Si2 0.938499 0.720317 0.495071
Si Si3 0.470100 0.156063 0.160903
Si Si4 0.337214 0.577404 0.087696
Si Si5 0.166760 0.254767 0.079507
Si Si6 0.976811 0.662278 0.836329
Si Si7 0.332677 0.528558 0.440778
O O1 0.250000 0.751266 0.278741
O O2 0.358070 0.647006 0.180288
O O3 0.388592 0.818627 0.315451
O O4 0.343092 0.554729 0.338339
O O5 0.876521 0.841292 0.508183
O O6 0.896994 0.570741 0.479668
O O7 0.987163 0.725262 0.581270
O O8 0.995712 0.746548 0.417595
O O9 0.382043 0.158620 0.144015
O O10 0.483166 0.233202 0.252624
O O11 0.500000 0.000000 0.176668
O O12 0.250000 0.585654 0.070789
O O13 0.365048 0.414980 0.079874
O O14 0.250000 0.253235 0.116932
O O15 0.162194 0.184725 0.984662
O O16 0.000000 0.500000 0.853446
O O17 0.250000 0.463403 0.459061
#
# Coordination Sequence:
#
# PCOD8184416 Si02
#       7
#     8   8   8   8   8   8   8
#     4  10  22  45  70  96 132 174 227 276 332 403
#     4  12  24  42  67  95 136 174 221 281 330 398
#     4  11  23  44  64  94 131 170 223 271 334 396
#     4  10  23  43  69  99 132 176 225 275 334 402
#     4  10  22  41  67  97 131 172 219 272 332 394
#     4  11  27  44  63 101 137 175 226 278 338 400
#     4  10  22  41  69 100 132 176 224 270 334 404
#
# _framework density 21.436969000000001
#
# number of rings (size 3 to 8) (size 9 to 14) (size 15 to 20)
#    0.000    1.429    2.857    1.286    6.000    0.000 
#    0.000    4.286    0.000    0.000    0.000    0.000 
#    0.000    0.000    0.000    0.000    0.000    0.000 
#
# Total GULP energy -347092.457979 kJ/mol
# GULP energy per Si atom -12396.159214 kJ/mol
# Density = 2.138818 g / cm^3
# Si number density = 21.436969 Si / 1000 Ang^3
#
#
#
# Elastic Constant Matrix: (Units=GPa)
#
#
# Indices 1 2 3 4 5 6 
#
# 1 98.3178 42.5057 35.1633 0.0000 0.0000 0.0000
# 2 42.5057 94.0139 20.8845 0.0000 0.0000 0.0000
# 3 35.1633 20.8845 114.2187 0.0000 0.0000 0.0000
# 4 0.0000 0.0000 0.0000 25.2669 0.0000 0.0000
# 5 0.0000 0.0000 0.0000 0.0000 35.2410 0.0000
# 6 0.0000 0.0000 0.0000 0.0000 0.0000 34.4193
#
#
#
# Elastic Compliance Matrix: (Units=1/GPa)
#
#
# Indices 1 2 3 4 5 6 
#
# 1 0.013687 -0.005474 -0.003213 0.000000 0.000000 0.000000
# 2 -0.005474 0.013277 -0.000742 0.000000 0.000000 0.000000
# 3 -0.003213 -0.000742 0.009880 0.000000 0.000000 0.000000
# 4 0.000000 0.000000 0.000000 0.039577 0.000000 0.000000
# 5 0.000000 0.000000 0.000000 0.000000 0.028376 0.000000
# 6 0.000000 0.000000 0.000000 0.000000 0.000000 0.029053
#
#
# Mechanical properties :
#
#
# Convention : Reuss Voigt Hill
#
# Bulk Modulus (GPa) = 55.60251 55.96193 55.78222
# Shear Modulus (GPa) = 31.50519 32.85191 32.17855
#
# Velocity S-wave (km/s) = 3.83778 3.91895 3.87858
# Velocity P-wave (km/s) = 6.75515 6.82932 6.79233
#
# Compressibility (1/GPa) = 0.01798480
#
# Stress axis : x y z
#
# Youngs Moduli (GPa) = 73.06275 75.31973 101.21576
#
# Poissons Ratio (x) = 0.41234 0.32517
# Poissons Ratio (y) = 0.39998 0.07513
# Poissons Ratio (z) = 0.23472 0.05591
#
# Static dielectric constant tensor:
#      x y z
#    x 4.090350 0.000000 0.000000 
#    y 0.000000 3.607830 0.000000 
#    z 0.000000 0.000000 4.077790 
# 
# 
# High freq. dielectric constant tensor:
#      x y z
#    x 1.856340 0.000000 0.000000 
#    y 0.000000 1.818180 0.000000 
#    z 0.000000 0.000000 1.848530 
# 
# From -- ./inp_files/18211.got.cif
#   From: 2010.03.12/outbox.cif.g09.slc.cpg/sg40_10_cif.got.tgz:18211.got - 2010.04.14 01:38:03.
