data_PCOD8184315
_publ_section_title
;
Structure prediction by ZEFSAII (Michael W. Deem and Ramdas Pophale) SiO2 
 PCOD8184315
Probable space group: A M A 2
;
_chemical_formula_sum "Si O2"
_cell_formula_units_Z 48
_cell_length_a 16.651106
_cell_length_b 14.622917
_cell_length_c 9.148984
_cell_angle_alpha 90.000000
_cell_angle_beta 90.000000
_cell_angle_gamma 90.000000
_cell_volume 2227.665447
_symmetry_space_group_name_H-M "A M A 2"
_symmetry_group_IT_number 40
_symmetry_cell_setting 'orthorhombic'
loop_
_space_group_symop_operation_xyz
x,y,z
-x,-y,z
1/2-x,y,z
1/2+x,-y,z
x,1/2+y,1/2+z
-x,1/2-y,1/2+z
1/2-x,1/2+y,1/2+z
1/2+x,1/2-y,1/2+z
loop_
_atom_site_type_symbol
_atom_site_label
_atom_site_fract_x
_atom_site_fract_y
_atom_site_fract_z
Si Si1 0.393459 0.742358 0.593810
Si Si2 0.750000 0.997374 0.169449
Si Si3 0.250000 0.812224 0.780337
Si Si4 0.750000 0.982237 0.822918
Si Si5 0.013314 0.603715 0.076724
Si Si6 0.633656 0.328944 0.281773
Si Si7 0.927190 0.926281 0.265471
Si Si8 0.250000 0.797737 0.125074
O O1 0.326684 0.763484 0.713157
O O2 0.434627 0.836802 0.542747
O O3 0.355759 0.702000 0.447236
O O4 0.448384 0.661743 0.664341
O O5 0.750000 0.104342 0.203192
O O6 0.834607 0.957889 0.234226
O O7 0.750000 0.983963 0.997094
O O8 0.250000 0.919737 0.745135
O O9 0.250000 0.800085 0.952040
O O10 0.672847 0.928621 0.764457
O O11 0.044866 0.656833 0.220402
O O12 0.000000 0.500000 0.124385
O O13 0.070875 0.604059 0.934978
O O14 0.671222 0.253929 0.176592
O O15 0.000000 0.000000 0.237420
#
# Coordination Sequence:
#
# PCOD8184315 Si02
#       8
#     8   4   4   4   8   8   8   4
#     4  12  24  44  71  97 145 185 239 294 366 430
#     4  11  23  46  72  99 139 187 237 290 358 430
#     4  11  23  44  70  99 133 189 234 295 365 429
#     4  10  21  44  65 101 132 174 240 283 350 432
#     4  11  26  43  65 104 140 188 237 293 361 423
#     4  11  23  44  64  99 140 176 235 296 350 428
#     4  11  26  47  72 105 143 191 247 295 361 436
#     4  10  25  38  71  99 132 178 241 288 355 427
#
# _framework density 21.547219999999999
#
# number of rings (size 3 to 8) (size 9 to 14) (size 15 to 20)
#    0.000    1.000    1.667    4.500    7.000    2.000 
#    6.000    0.000    0.000    0.000    0.000    0.000 
#    0.000    0.000    0.000    0.000    0.000    0.000 
#
# Total GULP energy -297421.048705 kJ/mol
# GULP energy per Si atom -12392.543696 kJ/mol
# Density = 2.149818 g / cm^3
# Si number density = 21.547220 Si / 1000 Ang^3
#
#
#
# Elastic Constant Matrix: (Units=GPa)
#
#
# Indices 1 2 3 4 5 6 
#
# 1 100.0956 45.3955 26.3569 0.0000 0.0000 0.0000
# 2 45.3955 162.1530 44.7653 0.0000 0.0000 0.0000
# 3 26.3569 44.7653 93.8669 0.0000 0.0000 0.0000
# 4 0.0000 0.0000 0.0000 36.1649 0.0000 0.0000
# 5 0.0000 0.0000 0.0000 0.0000 17.5194 0.0000
# 6 0.0000 0.0000 0.0000 0.0000 0.0000 65.1438
#
#
#
# Elastic Compliance Matrix: (Units=1/GPa)
#
#
# Indices 1 2 3 4 5 6 
#
# 1 0.011759 -0.002741 -0.001994 0.000000 0.000000 0.000000
# 2 -0.002741 0.007741 -0.002922 0.000000 0.000000 0.000000
# 3 -0.001994 -0.002922 0.012607 0.000000 0.000000 0.000000
# 4 0.000000 0.000000 0.000000 0.027651 0.000000 0.000000
# 5 0.000000 0.000000 0.000000 0.000000 0.057080 0.000000
# 6 0.000000 0.000000 0.000000 0.000000 0.000000 0.015351
#
#
# Mechanical properties :
#
#
# Convention : Reuss Voigt Hill
#
# Bulk Modulus (GPa) = 59.55450 65.46121 62.50785
# Shear Modulus (GPa) = 32.65816 39.73881 36.19849
#
# Velocity S-wave (km/s) = 3.89737 4.29915 4.10318
# Velocity P-wave (km/s) = 6.92471 7.42226 7.17780
#
# Compressibility (1/GPa) = 0.01679134
#
# Stress axis : x y z
#
# Youngs Moduli (GPa) = 85.04214 129.17985 79.32161
#
# Poissons Ratio (x) = 0.35413 0.15820
# Poissons Ratio (y) = 0.23313 0.23178
# Poissons Ratio (z) = 0.16961 0.37747
#
# Static dielectric constant tensor:
#      x y z
#    x 3.771360 0.000000 0.000000 
#    y 0.000000 4.355100 0.000000 
#    z 0.000000 0.000000 3.829760 
# 
# 
# High freq. dielectric constant tensor:
#      x y z
#    x 1.838110 0.000000 0.000000 
#    y 0.000000 1.872500 0.000000 
#    z 0.000000 0.000000 1.852810 
# 
# From -- ./inp_files/7496.got.cif
#   From: 2010.03.12/outbox.cif.g09.slc.cpg/sg40_4_cif.got.tgz:7496.got - 2010.04.14 01:38:03.
