data_PCOD8184063
_publ_section_title
;
Structure prediction by ZEFSAII (Michael W. Deem and Ramdas Pophale) SiO2 
 PCOD8184063
Probable space group: A M A 2
;
_chemical_formula_sum "Si O2"
_cell_formula_units_Z 40
_cell_length_a 14.694811
_cell_length_b 26.781114
_cell_length_c 5.253328
_cell_angle_alpha 90.000000
_cell_angle_beta 90.000000
_cell_angle_gamma 90.000000
_cell_volume 2067.412608
_symmetry_space_group_name_H-M "A M A 2"
_symmetry_group_IT_number 40
_symmetry_cell_setting 'orthorhombic'
loop_
_space_group_symop_operation_xyz
x,y,z
-x,-y,z
1/2-x,y,z
1/2+x,-y,z
x,1/2+y,1/2+z
-x,1/2-y,1/2+z
1/2-x,1/2+y,1/2+z
1/2+x,1/2-y,1/2+z
loop_
_atom_site_type_symbol
_atom_site_label
_atom_site_fract_x
_atom_site_fract_y
_atom_site_fract_z
Si Si1 0.852731 0.265008 0.919350
Si Si2 0.647149 0.701561 0.926417
Si Si3 0.648405 0.428040 0.653770
Si Si4 0.974803 0.859458 0.425045
Si Si5 0.074311 0.542489 0.149505
O O1 0.750000 0.285147 0.881747
O O2 0.884797 0.236844 0.661282
O O3 0.918772 0.310030 0.991856
O O4 0.857968 0.228902 0.158655
O O5 0.750000 0.682546 0.979845
O O6 0.580838 0.654025 0.896149
O O7 0.750000 0.405202 0.644488
O O8 0.573402 0.383300 0.672283
O O9 0.632242 0.462038 0.406721
O O10 0.638834 0.463951 0.901756
O O11 0.969327 0.901589 0.645363
O O12 0.000000 0.500000 0.145660
#
# Coordination Sequence:
#
# PCOD8184063 Si02
#       5
#     8   8   8   8   8
#     4  10  21  35  56  87 119 154 199 244 293 351
#     4  10  22  37  55  84 124 160 198 241 289 357
#     4  10  22  38  63  91 118 151 196 251 299 348
#     4  10  23  36  65  84 122 156 202 241 300 353
#     4  10  23  40  62  86 124 155 195 250 302 357
#
# _framework density 19.347857000000001
#
# number of rings (size 3 to 8) (size 9 to 14) (size 15 to 20)
#    1.200    0.800    0.000    3.000    5.600    0.000 
#    0.000    2.000    0.000    0.000    0.000    0.000 
#    0.000    0.000    0.000    0.000    0.000    0.000 
#
# Total GULP energy -247794.961119 kJ/mol
# GULP energy per Si atom -12389.748056 kJ/mol
# Density = 1.930382 g / cm^3
# Si number density = 19.347857 Si / 1000 Ang^3
#
#
#
# Elastic Constant Matrix: (Units=GPa)
#
#
# Indices 1 2 3 4 5 6 
#
# 1 126.3841 59.6309 36.6164 0.0000 0.0000 0.0000
# 2 59.6309 64.4118 34.8446 0.0000 0.0000 0.0000
# 3 36.6164 34.8446 133.7174 0.0000 0.0000 0.0000
# 4 0.0000 0.0000 0.0000 10.6465 0.0000 0.0000
# 5 0.0000 0.0000 0.0000 0.0000 15.7663 0.0000
# 6 0.0000 0.0000 0.0000 0.0000 0.0000 28.3797
#
#
#
# Elastic Compliance Matrix: (Units=1/GPa)
#
#
# Indices 1 2 3 4 5 6 
#
# 1 0.014082 -0.012748 -0.000534 0.000000 0.000000 0.000000
# 2 -0.012748 0.029613 -0.004226 0.000000 0.000000 0.000000
# 3 -0.000534 -0.004226 0.008726 0.000000 0.000000 0.000000
# 4 0.000000 0.000000 0.000000 0.093927 0.000000 0.000000
# 5 0.000000 0.000000 0.000000 0.000000 0.063426 0.000000
# 6 0.000000 0.000000 0.000000 0.000000 0.000000 0.035236
#
#
# Mechanical properties :
#
#
# Convention : Reuss Voigt Hill
#
# Bulk Modulus (GPa) = 57.45493 65.18857 61.32175
# Shear Modulus (GPa) = 17.49309 23.85327 20.67318
#
# Velocity S-wave (km/s) = 3.01015 3.51502 3.27234
# Velocity P-wave (km/s) = 6.46850 7.08801 6.78533
#
# Compressibility (1/GPa) = 0.01740495
#
# Stress axis : x y z
#
# Youngs Moduli (GPa) = 71.01384 33.76950 114.60081
#
# Poissons Ratio (x) = 0.43048 0.06123
# Poissons Ratio (y) = 0.90525 0.48428
# Poissons Ratio (z) = 0.03794 0.14270
#
# Static dielectric constant tensor:
#      x y z
#    x 3.689650 0.000000 0.000000 
#    y 0.000000 3.162990 0.000000 
#    z 0.000000 0.000000 3.655620 
# 
# 
# High freq. dielectric constant tensor:
#      x y z
#    x 1.755400 0.000000 0.000000 
#    y 0.000000 1.717670 0.000000 
#    z 0.000000 0.000000 1.763080 
# 
# From -- ./inp_files/1265.got.cif
#   From: 2010.03.12/outbox.cif.g09.slc.cpg/sg40_1_cif.got.tgz:1265.got - 2010.04.14 01:38:03.
