data_PCOD8184896
_publ_section_title
;
Structure prediction by ZEFSAII (Michael W. Deem and Ramdas Pophale) SiO2 
 PCOD8184896
Probable space group: A B A 2
;
_chemical_formula_sum "Si O2"
_cell_formula_units_Z 60
_cell_length_a 29.638567
_cell_length_b 20.952748
_cell_length_c 5.066184
_cell_angle_alpha 90.000000
_cell_angle_beta 90.000000
_cell_angle_gamma 90.000000
_cell_volume 3146.148015
_symmetry_space_group_name_H-M "A B A 2"
_symmetry_group_IT_number 41
_symmetry_cell_setting 'orthorhombic'
loop_
_space_group_symop_operation_xyz
x,y,z
-x,-y,z
1/2-x,y,1/2+z
1/2+x,-y,1/2+z
x,1/2+y,1/2+z
-x,1/2-y,1/2+z
1/2-x,1/2+y,z
1/2+x,1/2-y,z
loop_
_atom_site_type_symbol
_atom_site_label
_atom_site_fract_x
_atom_site_fract_y
_atom_site_fract_z
Si Si1 0.068088 0.602228 0.107670
Si Si2 0.068930 0.399407 0.330147
Si Si3 0.376802 0.428110 0.310178
Si Si4 0.500000 0.500000 0.719818
Si Si5 0.275718 0.425384 0.234859
Si Si6 0.122768 0.573758 0.627204
Si Si7 0.724125 0.422875 0.198546
Si Si8 0.000067 0.291988 0.254858
O O1 0.031275 0.546703 0.044261
O O2 0.102421 0.579679 0.335537
O O3 0.044523 0.667622 0.191138
O O4 0.094390 0.615344 0.836354
O O5 0.095126 0.385912 0.601595
O O6 0.032026 0.454627 0.396404
O O7 0.044791 0.334955 0.238899
O O8 0.103117 0.422154 0.102412
O O9 0.325827 0.401771 0.307199
O O10 0.378419 0.500844 0.217852
O O11 0.241293 0.398417 0.455227
O O12 0.274577 0.501255 0.216837
O O13 0.173724 0.600427 0.630227
O O14 0.741808 0.395796 0.476589
O O15 0.994345 0.265137 0.548699
#
# Coordination Sequence:
#
# PCOD8184896 Si02
#       8
#     8   8   8   4   8   8   8   8
#     4  11  22  34  55  78 106 140 178 220 263 322
#     4  11  22  34  55  78 106 140 178 220 263 322
#     4  11  19  32  50  80 113 138 176 215 258 316
#     4  10  20  34  48  78 104 132 168 204 280 304
#     4   9  17  28  44  67 105 150 174 195 243 312
#     4  11  19  32  50  80 113 138 176 215 258 316
#     4   9  17  28  44  67 105 150 174 195 243 312
#     4  11  24  43  56  73 104 143 184 228 264 307
#
# _framework density 19.070938999999999
#
# number of rings (size 3 to 8) (size 9 to 14) (size 15 to 20)
#    0.000    1.600    2.667    3.200    0.000    8.533 
#    0.000    0.000    0.000    0.000    0.000    0.000 
#    0.000   74.667    0.000    0.000    0.000    0.000 
#
# Total GULP energy -371989.018140 kJ/mol
# GULP energy per Si atom -12399.633938 kJ/mol
# Density = 1.902753 g / cm^3
# Si number density = 19.070939 Si / 1000 Ang^3
#
#
#
# Elastic Constant Matrix: (Units=GPa)
#
#
# Indices 1 2 3 4 5 6 
#
# 1 133.5061 19.4634 41.1223 0.0000 0.0000 0.0000
# 2 19.4634 42.8643 0.4529 0.0000 0.0000 0.0000
# 3 41.1223 0.4529 101.3355 0.0000 0.0000 0.0000
# 4 0.0000 0.0000 0.0000 24.3192 0.0000 0.0000
# 5 0.0000 0.0000 0.0000 0.0000 30.4548 0.0000
# 6 0.0000 0.0000 0.0000 0.0000 0.0000 12.1262
#
#
#
# Elastic Compliance Matrix: (Units=1/GPa)
#
#
# Indices 1 2 3 4 5 6 
#
# 1 0.009247 -0.004159 -0.003734 0.000000 0.000000 0.000000
# 2 -0.004159 0.025201 0.001575 0.000000 0.000000 0.000000
# 3 -0.003734 0.001575 0.011376 0.000000 0.000000 0.000000
# 4 0.000000 0.000000 0.000000 0.041120 0.000000 0.000000
# 5 0.000000 0.000000 0.000000 0.000000 0.032836 0.000000
# 6 0.000000 0.000000 0.000000 0.000000 0.000000 0.082466
#
#
# Mechanical properties :
#
#
# Convention : Reuss Voigt Hill
#
# Bulk Modulus (GPa) = 30.13056 44.42033 37.27544
# Shear Modulus (GPa) = 22.12937 27.82455 24.97696
#
# Velocity S-wave (km/s) = 3.41012 3.82383 3.62289
# Velocity P-wave (km/s) = 5.59810 6.54510 6.09003
#
# Compressibility (1/GPa) = 0.03318890
#
# Stress axis : x y z
#
# Youngs Moduli (GPa) = 108.14653 39.68036 87.90169
#
# Poissons Ratio (x) = 0.16504 0.32820
# Poissons Ratio (y) = 0.44980 -0.13846
# Poissons Ratio (z) = 0.40379 -0.06250
#
# Static dielectric constant tensor:
#      x y z
#    x 3.812740 0.000000 0.000000 
#    y 0.000000 2.991900 0.000000 
#    z 0.000000 0.000000 3.602560 
# 
# 
# High freq. dielectric constant tensor:
#      x y z
#    x 1.757090 0.000000 0.000000 
#    y 0.000000 1.675840 0.000000 
#    z 0.000000 0.000000 1.751980 
# 
# From -- ./inp_files/1185.got.cif
#   From: 2010.03.12/outbox.cif.g09.slc.cpg/sg41_1_cif.got.tgz:1185.got - 2010.04.14 01:55:53.
