data_PCOD8184757
_publ_section_title
;
Structure prediction by ZEFSAII (Michael W. Deem and Ramdas Pophale) SiO2 
 PCOD8184757
Probable space group: A B A 2
;
_chemical_formula_sum "Si O2"
_cell_formula_units_Z 56
_cell_length_a 21.228582
_cell_length_b 24.704518
_cell_length_c 5.224341
_cell_angle_alpha 90.000000
_cell_angle_beta 90.000000
_cell_angle_gamma 90.000000
_cell_volume 2739.863248
_symmetry_space_group_name_H-M "A B A 2"
_symmetry_group_IT_number 41
_symmetry_cell_setting 'orthorhombic'
loop_
_space_group_symop_operation_xyz
x,y,z
-x,-y,z
1/2-x,y,1/2+z
1/2+x,-y,1/2+z
x,1/2+y,1/2+z
-x,1/2-y,1/2+z
1/2-x,1/2+y,z
1/2+x,1/2-y,z
loop_
_atom_site_type_symbol
_atom_site_label
_atom_site_fract_x
_atom_site_fract_y
_atom_site_fract_z
Si Si1 0.785474 0.098665 0.802740
Si Si2 0.176919 0.020762 0.794881
Si Si3 0.463775 0.241317 0.737312
Si Si4 0.115604 0.055696 0.295774
Si Si5 0.497579 0.128156 0.824861
Si Si6 0.269892 0.124700 0.797888
Si Si7 0.077691 0.852563 0.824929
O O1 0.748209 0.121242 0.556748
O O2 0.856658 0.118308 0.790398
O O3 0.782870 0.033691 0.802168
O O4 0.132158 0.020469 0.545293
O O5 0.227476 0.069321 0.792829
O O6 0.130509 0.022406 0.039324
O O7 0.478927 0.244949 0.434716
O O8 0.447954 0.178718 0.800221
O O9 0.411372 0.287042 0.803599
O O10 0.156958 0.110749 0.300057
O O11 0.042565 0.073121 0.300077
O O12 0.549296 0.131268 0.600358
O O13 0.530498 0.128210 0.101336
O O14 0.250695 0.159025 0.546917
#
# Coordination Sequence:
#
# PCOD8184757 Si02
#       7
#     8   8   8   8   8   8   8
#     4  12  23  38  59  79 101 142 188 230 272 313
#     4  10  19  33  50  73 102 141 186 220 254 312
#     4   8  16  32  56  77 101 135 170 205 252 316
#     4  10  18  30  51  76 105 136 173 217 258 308
#     4  10  19  35  56  82 110 144 175 214 273 332
#     4   8  14  25  42  62  88 122 166 207 234 278
#     4  10  21  37  55  81 109 136 182 229 266 325
#
# _framework density 20.438977000000001
#
# number of rings (size 3 to 8) (size 9 to 14) (size 15 to 20)
#    0.000    2.286    0.000    5.143    0.000    0.000 
#    0.000    4.286    0.000    5.143    0.000    0.000 
#    0.000    0.000    0.000    0.000    0.000    0.000 
#
# Total GULP energy -346899.866026 kJ/mol
# GULP energy per Si atom -12389.280930 kJ/mol
# Density = 2.039246 g / cm^3
# Si number density = 20.438977 Si / 1000 Ang^3
#
#
#
# Elastic Constant Matrix: (Units=GPa)
#
#
# Indices 1 2 3 4 5 6 
#
# 1 69.1892 21.8441 24.4013 0.0000 0.0000 0.0000
# 2 21.8441 31.4777 7.4889 0.0000 0.0000 0.0000
# 3 24.4013 7.4889 169.4791 0.0000 0.0000 0.0000
# 4 0.0000 0.0000 0.0000 14.2711 0.0000 0.0000
# 5 0.0000 0.0000 0.0000 0.0000 28.7456 0.0000
# 6 0.0000 0.0000 0.0000 0.0000 0.0000 9.9534
#
#
#
# Elastic Compliance Matrix: (Units=1/GPa)
#
#
# Indices 1 2 3 4 5 6 
#
# 1 0.019293 -0.012863 -0.002209 0.000000 0.000000 0.000000
# 2 -0.012863 0.040682 0.000054 0.000000 0.000000 0.000000
# 3 -0.002209 0.000054 0.006216 0.000000 0.000000 0.000000
# 4 0.000000 0.000000 0.000000 0.070072 0.000000 0.000000
# 5 0.000000 0.000000 0.000000 0.000000 0.034788 0.000000
# 6 0.000000 0.000000 0.000000 0.000000 0.000000 0.100469
#
#
# Mechanical properties :
#
#
# Convention : Reuss Voigt Hill
#
# Bulk Modulus (GPa) = 27.65855 41.95717 34.80786
# Shear Modulus (GPa) = 15.94348 25.02146 20.48247
#
# Velocity S-wave (km/s) = 2.79597 3.50266 3.16907
# Velocity P-wave (km/s) = 4.89744 6.07707 5.51886
#
# Compressibility (1/GPa) = 0.03615519
#
# Stress axis : x y z
#
# Youngs Moduli (GPa) = 51.83125 24.58095 160.87146
#
# Poissons Ratio (x) = 0.31619 0.35544
# Poissons Ratio (y) = 0.66671 -0.00875
# Poissons Ratio (z) = 0.11452 -0.00134
#
# Static dielectric constant tensor:
#      x y z
#    x 3.302180 0.000000 0.000000 
#    y 0.000000 3.447870 0.000000 
#    z 0.000000 0.000000 5.080520 
# 
# 
# High freq. dielectric constant tensor:
#      x y z
#    x 1.767370 0.000000 0.000000 
#    y 0.000000 1.752980 0.000000 
#    z 0.000000 0.000000 1.837060 
# 
# From -- ./inp_files/750.got.cif
#   From: 2010.03.12/outbox.cif.g09.slc.cpg/sg41_1_cif.got.tgz:750.got - 2010.04.14 01:55:53.
