data_PCOD8184724
_publ_section_title
;
Structure prediction by ZEFSAII (Michael W. Deem and Ramdas Pophale) SiO2 
 PCOD8184724
Probable space group: A B A 2
;
_chemical_formula_sum "Si O2"
_cell_formula_units_Z 60
_cell_length_a 5.473429
_cell_length_b 31.660437
_cell_length_c 11.790464
_cell_angle_alpha 90.000000
_cell_angle_beta 90.000000
_cell_angle_gamma 90.000000
_cell_volume 2043.183113
_symmetry_space_group_name_H-M "A B A 2"
_symmetry_group_IT_number 41
_symmetry_cell_setting 'orthorhombic'
loop_
_space_group_symop_operation_xyz
x,y,z
-x,-y,z
1/2-x,y,1/2+z
1/2+x,-y,1/2+z
x,1/2+y,1/2+z
-x,1/2-y,1/2+z
1/2-x,1/2+y,z
1/2+x,1/2-y,z
loop_
_atom_site_type_symbol
_atom_site_label
_atom_site_fract_x
_atom_site_fract_y
_atom_site_fract_z
Si Si1 0.354199 0.769484 0.179160
Si Si2 0.848646 0.636279 0.217029
Si Si3 0.591697 0.093030 0.984225
Si Si4 0.749583 0.982071 0.245458
Si Si5 0.344017 0.114205 0.742089
Si Si6 0.087210 0.635530 0.479374
Si Si7 0.934454 0.231257 0.941437
Si Si8 0.000000 0.500000 0.031586
O O1 0.607480 0.751748 0.124393
O O2 0.308588 0.818965 0.157898
O O3 0.383044 0.757377 0.310611
O O4 0.615997 0.622560 0.294970
O O5 0.104245 0.640698 0.291162
O O6 0.909221 0.601358 0.120542
O O7 0.352301 0.118021 0.928335
O O8 0.544090 0.043120 0.959745
O O9 0.855224 0.107726 0.936156
O O10 0.760113 0.932804 0.257536
O O11 0.500000 0.000000 0.306890
O O12 0.000000 0.000000 0.299771
O O13 0.738321 0.994365 0.112100
O O14 0.389611 0.129548 0.614073
O O15 0.035052 0.684367 0.455004
O O16 0.152134 0.262891 0.990693
#
# Coordination Sequence:
#
# PCOD8184724 Si02
#       8
#     8   8   8   8   8   8   8   4
#     4  10  21  37  55  74  95 129 175 216 251 296
#     4  10  18  33  48  71 105 130 163 207 250 304
#     4  10  20  30  49  76 107 135 164 200 251 302
#     4  10  16  25  42  65  99 132 160 193 227 282
#     4  10  18  30  44  72 104 133 156 200 248 305
#     4  10  18  34  48  73 106 129 164 209 249 304
#     4  10  21  37  56  74  96 130 174 216 250 298
#     4  10  18  28  48  70 108 136 168 198 232 300
#
# _framework density 29.365943999999999
#
# number of rings (size 3 to 8) (size 9 to 14) (size 15 to 20)
#    0.400    1.600    2.667    4.000    0.000    0.000 
#    0.000   16.000    0.000    0.000    0.000    1.867 
#    8.000    0.000    0.000    0.000    0.000    0.000 
#
# Total GULP energy -371898.717801 kJ/mol
# GULP energy per Si atom -12396.623927 kJ/mol
# Density = 2.929911 g / cm^3
# Si number density = 29.365944 Si / 1000 Ang^3
#
#
#
# Elastic Constant Matrix: (Units=GPa)
#
#
# Indices 1 2 3 4 5 6 
#
# 1 325.7298 110.9781 105.8326 0.0000 0.0000 0.0000
# 2 110.9781 202.6751 16.6482 0.0000 0.0000 0.0000
# 3 105.8326 16.6482 120.5959 0.0000 0.0000 0.0000
# 4 0.0000 0.0000 0.0000 19.7545 0.0000 0.0000
# 5 0.0000 0.0000 0.0000 0.0000 59.2542 0.0000
# 6 0.0000 0.0000 0.0000 0.0000 0.0000 45.8529
#
#
#
# Elastic Compliance Matrix: (Units=1/GPa)
#
#
# Indices 1 2 3 4 5 6 
#
# 1 0.005362 -0.002579 -0.004349 0.000000 0.000000 0.000000
# 2 -0.002579 0.006231 0.001403 0.000000 0.000000 0.000000
# 3 -0.004349 0.001403 0.011915 0.000000 0.000000 0.000000
# 4 0.000000 0.000000 0.000000 0.050621 0.000000 0.000000
# 5 0.000000 0.000000 0.000000 0.000000 0.016876 0.000000
# 6 0.000000 0.000000 0.000000 0.000000 0.000000 0.021809
#
#
# Mechanical properties :
#
#
# Convention : Reuss Voigt Hill
#
# Bulk Modulus (GPa) = 80.27289 123.99093 102.13191
# Shear Modulus (GPa) = 39.05713 52.67511 45.86612
#
# Velocity S-wave (km/s) = 3.65089 4.23986 3.95635
# Velocity P-wave (km/s) = 6.72062 8.14143 7.46491
#
# Compressibility (1/GPa) = 0.01245751
#
# Stress axis : x y z
#
# Youngs Moduli (GPa) = 186.50665 160.49424 83.92484
#
# Poissons Ratio (x) = 0.41386 0.36502
# Poissons Ratio (y) = 0.48093 -0.11773
# Poissons Ratio (z) = 0.81119 -0.22514
#
# Static dielectric constant tensor:
#      x y z
#    x 7.038320 0.000000 0.000000 
#    y 0.000000 4.876390 0.000000 
#    z 0.000000 0.000000 6.361900 
# 
# 
# High freq. dielectric constant tensor:
#      x y z
#    x 2.249490 0.000000 0.000000 
#    y 0.000000 2.168780 0.000000 
#    z 0.000000 0.000000 2.280930 
# 
# From -- ./inp_files/9491.got.cif
#   From: 2010.03.12/outbox.cif.g09.slc.cpg/sg41_5_cif.got.tgz:9491.got - 2010.04.14 01:55:53.
