data_PCOD8184667
_publ_section_title
;
Structure prediction by ZEFSAII (Michael W. Deem and Ramdas Pophale) SiO2 
 PCOD8184667
Probable space group: A M A 2
;
_chemical_formula_sum "Si O2"
_cell_formula_units_Z 48
_cell_length_a 27.005891
_cell_length_b 5.725337
_cell_length_c 13.591075
_cell_angle_alpha 90.000000
_cell_angle_beta 90.000000
_cell_angle_gamma 90.000000
_cell_volume 2101.422483
_symmetry_space_group_name_H-M "A M A 2"
_symmetry_group_IT_number 40
_symmetry_cell_setting 'orthorhombic'
loop_
_space_group_symop_operation_xyz
x,y,z
-x,-y,z
1/2-x,y,z
1/2+x,-y,z
x,1/2+y,1/2+z
-x,1/2-y,1/2+z
1/2-x,1/2+y,1/2+z
1/2+x,1/2-y,1/2+z
loop_
_atom_site_type_symbol
_atom_site_label
_atom_site_fract_x
_atom_site_fract_y
_atom_site_fract_z
Si Si1 0.694345 0.596904 0.267240
Si Si2 0.305033 0.610308 0.478432
Si Si3 0.099254 0.904849 0.480246
Si Si4 0.351912 0.736229 0.111611
Si Si5 0.971921 0.749465 0.134786
Si Si6 0.106477 0.567580 0.767881
O O1 0.750000 0.693052 0.252985
O O2 0.690698 0.436614 0.362728
O O3 0.678889 0.460829 0.169095
O O4 0.659452 0.816680 0.287890
O O5 0.250000 0.708149 0.501562
O O6 0.346755 0.797252 0.501169
O O7 0.313205 0.387403 0.548586
O O8 0.056151 0.749016 0.529107
O O9 0.104871 0.146889 0.538528
O O10 0.085742 0.949017 0.367115
O O11 0.386121 0.870544 0.187831
O O12 0.932836 0.745409 0.225533
O O13 0.000000 0.500000 0.145145
O O14 0.000000 0.000000 0.141462
#
# Coordination Sequence:
#
# PCOD8184667 Si02
#       6
#     8   8   8   8   8   8
#     4  11  24  41  70 110 152 200 249 297 362 447
#     4  11  24  41  70 110 152 200 249 297 362 447
#     4  12  26  47  75 106 149 194 243 313 375 447
#     4  12  22  44  69 104 148 201 242 299 367 434
#     4  12  29  54  82 112 145 191 258 323 392 460
#     4  12  26  47  75 106 149 194 243 313 375 447
#
# _framework density 22.841669
#
# number of rings (size 3 to 8) (size 9 to 14) (size 15 to 20)
#    0.000    0.333    6.667    1.500    0.000    5.333 
#    0.000    5.000    0.000    0.000    0.000    0.000 
#    0.000    0.000    0.000    0.000    0.000    0.000 
#
# Total GULP energy -297537.440238 kJ/mol
# GULP energy per Si atom -12397.393343 kJ/mol
# Density = 2.278968 g / cm^3
# Si number density = 22.841669 Si / 1000 Ang^3
#
#
#
# Elastic Constant Matrix: (Units=GPa)
#
#
# Indices 1 2 3 4 5 6 
#
# 1 115.0892 45.5247 36.0801 0.0000 0.0000 0.0000
# 2 45.5247 87.0375 13.4940 0.0000 0.0000 0.0000
# 3 36.0801 13.4940 104.0240 0.0000 0.0000 0.0000
# 4 0.0000 0.0000 0.0000 47.6659 0.0000 0.0000
# 5 0.0000 0.0000 0.0000 0.0000 17.9716 0.0000
# 6 0.0000 0.0000 0.0000 0.0000 0.0000 40.5469
#
#
#
# Elastic Compliance Matrix: (Units=1/GPa)
#
#
# Indices 1 2 3 4 5 6 
#
# 1 0.012046 -0.005769 -0.003430 0.000000 0.000000 0.000000
# 2 -0.005769 0.014488 0.000122 0.000000 0.000000 0.000000
# 3 -0.003430 0.000122 0.010787 0.000000 0.000000 0.000000
# 4 0.000000 0.000000 0.000000 0.020979 0.000000 0.000000
# 5 0.000000 0.000000 0.000000 0.000000 0.055643 0.000000
# 6 0.000000 0.000000 0.000000 0.000000 0.000000 0.024663
#
#
# Mechanical properties :
#
#
# Convention : Reuss Voigt Hill
#
# Bulk Modulus (GPa) = 52.17395 55.14984 53.66189
# Shear Modulus (GPa) = 30.64668 35.30699 32.97683
#
# Velocity S-wave (km/s) = 3.66690 3.93584 3.80375
# Velocity P-wave (km/s) = 6.38900 6.69711 6.54487
#
# Compressibility (1/GPa) = 0.01916665
#
# Stress axis : x y z
#
# Youngs Moduli (GPa) = 83.01443 69.02317 92.70425
#
# Poissons Ratio (x) = 0.39819 0.31795
# Poissons Ratio (y) = 0.47891 -0.01127
# Poissons Ratio (z) = 0.28472 -0.00839
#
# Static dielectric constant tensor:
#      x y z
#    x 4.307870 0.000000 0.000000 
#    y 0.000000 4.053140 0.000000 
#    z 0.000000 0.000000 4.384920 
# 
# 
# High freq. dielectric constant tensor:
#      x y z
#    x 1.902640 0.000000 0.000000 
#    y 0.000000 1.896840 0.000000 
#    z 0.000000 0.000000 1.921420 
# 
# From -- ./inp_files/18651.got.cif
#   From: 2010.03.12/outbox.cif.g09.slc.cpg/sg40_10_cif.got.tgz:18651.got - 2010.04.14 01:38:03.
