data_PCOD8184187
_publ_section_title
;
Structure prediction by ZEFSAII (Michael W. Deem and Ramdas Pophale) SiO2 
 PCOD8184187
Probable space group: A M A 2
;
_chemical_formula_sum "Si O2"
_cell_formula_units_Z 40
_cell_length_a 8.672407
_cell_length_b 19.113759
_cell_length_c 10.651251
_cell_angle_alpha 90.000000
_cell_angle_beta 90.000000
_cell_angle_gamma 90.000000
_cell_volume 1765.575835
_symmetry_space_group_name_H-M "A M A 2"
_symmetry_group_IT_number 40
_symmetry_cell_setting 'orthorhombic'
loop_
_space_group_symop_operation_xyz
x,y,z
-x,-y,z
1/2-x,y,z
1/2+x,-y,z
x,1/2+y,1/2+z
-x,1/2-y,1/2+z
1/2-x,1/2+y,1/2+z
1/2+x,1/2-y,1/2+z
loop_
_atom_site_type_symbol
_atom_site_label
_atom_site_fract_x
_atom_site_fract_y
_atom_site_fract_z
Si Si1 0.568298 0.790422 0.500000
Si Si2 0.570408 0.076650 0.398616
Si Si3 0.568070 0.422373 0.371175
Si Si4 0.067356 0.793280 0.756822
Si Si5 0.571245 0.075574 0.120966
O O1 0.750000 0.783674 0.510217
O O2 0.516859 0.871305 0.491885
O O3 0.496653 0.758529 0.628192
O O4 0.506392 0.749760 0.377406
O O5 0.750000 0.072689 0.433018
O O6 0.547133 0.109328 0.258077
O O7 0.500000 0.000000 0.414023
O O8 0.500000 0.500000 0.355588
O O9 0.750000 0.425727 0.359534
O O10 0.499152 0.372208 0.264348
O O11 0.517578 0.387422 0.505644
O O12 0.250000 0.794635 0.751530
O O13 0.750000 0.071289 0.083621
O O14 0.500000 0.000000 0.133684
#
# Coordination Sequence:
#
# PCOD8184187 Si02
#       5
#     8   8   8   8   8
#     4  11  26  46  69  98 132 173 221 271 329 394
#     4  10  21  38  64  96 133 173 218 271 326 387
#     4  11  22  38  64  96 132 172 218 272 328 388
#     4  11  26  47  69  97 133 174 220 271 328 394
#     4   9  17  31  54  89 128 168 210 259 316 379
#
# _framework density 22.655498000000001
#
# number of rings (size 3 to 8) (size 9 to 14) (size 15 to 20)
#    0.000    1.600    0.000    5.400    2.800    6.400 
#    0.000    4.000    0.000    0.000    0.000    0.000 
#    0.000    0.000    0.000    0.000    0.000    0.000 
#
# Total GULP energy -247953.065697 kJ/mol
# GULP energy per Si atom -12397.653285 kJ/mol
# Density = 2.260393 g / cm^3
# Si number density = 22.655498 Si / 1000 Ang^3
#
#
#
# Elastic Constant Matrix: (Units=GPa)
#
#
# Indices 1 2 3 4 5 6 
#
# 1 117.2399 26.9636 55.0633 0.0000 0.0000 0.0000
# 2 26.9636 74.1514 52.1569 0.0000 0.0000 0.0000
# 3 55.0633 52.1569 153.3821 0.0000 0.0000 0.0000
# 4 0.0000 0.0000 0.0000 32.2597 0.0000 0.0000
# 5 0.0000 0.0000 0.0000 0.0000 20.0253 0.0000
# 6 0.0000 0.0000 0.0000 0.0000 0.0000 14.4808
#
#
#
# Elastic Compliance Matrix: (Units=1/GPa)
#
#
# Indices 1 2 3 4 5 6 
#
# 1 0.010388 -0.001517 -0.003213 0.000000 0.000000 0.000000
# 2 -0.001517 0.017947 -0.005558 0.000000 0.000000 0.000000
# 3 -0.003213 -0.005558 0.009563 0.000000 0.000000 0.000000
# 4 0.000000 0.000000 0.000000 0.030998 0.000000 0.000000
# 5 0.000000 0.000000 0.000000 0.000000 0.049937 0.000000
# 6 0.000000 0.000000 0.000000 0.000000 0.000000 0.069057
#
#
# Mechanical properties :
#
#
# Convention : Reuss Voigt Hill
#
# Bulk Modulus (GPa) = 57.73370 68.12677 62.93023
# Shear Modulus (GPa) = 23.33826 27.39249 25.36538
#
# Velocity S-wave (km/s) = 3.21306 3.48097 3.34969
# Velocity P-wave (km/s) = 6.26926 6.80384 6.54201
#
# Compressibility (1/GPa) = 0.01732091
#
# Stress axis : x y z
#
# Youngs Moduli (GPa) = 96.26914 55.71917 104.56729
#
# Poissons Ratio (x) = 0.08453 0.33599
# Poissons Ratio (y) = 0.14605 0.58121
# Poissons Ratio (z) = 0.30933 0.30970
#
# Static dielectric constant tensor:
#      x y z
#    x 4.135950 0.000000 0.000000 
#    y 0.000000 4.022110 0.000000 
#    z 0.000000 0.000000 4.838720 
# 
# 
# High freq. dielectric constant tensor:
#      x y z
#    x 1.896960 0.000000 0.000000 
#    y 0.000000 1.884310 0.000000 
#    z 0.000000 0.000000 1.905320 
# 
# From -- ./inp_files/10129.got.cif
#   From: 2010.03.12/outbox.cif.g09.slc.cpg/sg40_6_cif.got.tgz:10129.got - 2010.04.14 01:38:03.
