data_PCOD8184779
_publ_section_title
;
Structure prediction by ZEFSAII (Michael W. Deem and Ramdas Pophale) SiO2 
 PCOD8184779
Probable space group: A B A 2
;
_chemical_formula_sum "Si O2"
_cell_formula_units_Z 52
_cell_length_a 9.105335
_cell_length_b 16.622717
_cell_length_c 18.163060
_cell_angle_alpha 90.000000
_cell_angle_beta 90.000000
_cell_angle_gamma 90.000000
_cell_volume 2749.077337
_symmetry_space_group_name_H-M "A B A 2"
_symmetry_group_IT_number 41
_symmetry_cell_setting 'orthorhombic'
loop_
_space_group_symop_operation_xyz
x,y,z
-x,-y,z
1/2-x,y,1/2+z
1/2+x,-y,1/2+z
x,1/2+y,1/2+z
-x,1/2-y,1/2+z
1/2-x,1/2+y,z
1/2+x,1/2-y,z
loop_
_atom_site_type_symbol
_atom_site_label
_atom_site_fract_x
_atom_site_fract_y
_atom_site_fract_z
Si Si1 0.899603 0.844402 0.416050
Si Si2 0.494776 0.190756 0.625458
Si Si3 0.815586 0.610000 0.737366
Si Si4 0.000000 0.000000 0.332591
Si Si5 0.369257 0.739357 0.839036
Si Si6 0.178848 0.172302 0.577127
Si Si7 0.511582 0.157388 0.209647
O O1 0.754543 0.804731 0.384524
O O2 0.883156 0.864850 0.502110
O O3 0.028062 0.780777 0.400035
O O4 0.930050 0.930031 0.380313
O O5 0.571113 0.117480 0.669002
O O6 0.355672 0.161796 0.577412
O O7 0.623272 0.234153 0.577420
O O8 0.427641 0.254703 0.684148
O O9 0.808881 0.692621 0.783963
O O10 0.648158 0.595131 0.710702
O O11 0.866385 0.533702 0.783867
O O12 0.445809 0.668689 0.791287
O O13 0.109424 0.127407 0.649217
#
# Coordination Sequence:
#
# PCOD8184779 Si02
#       7
#     8   8   8   4   8   8   8
#     4  11  22  39  56  90 120 161 195 242 306 358
#     4   9  16  30  57  89 110 140 196 250 283 324
#     4  10  18  37  57  87 117 148 199 243 290 348
#     4  10  26  36  60  80 134 160 184 240 322 358
#     4  10  19  33  63  83 110 154 207 245 276 340
#     4  10  19  30  56  89 117 146 191 254 294 342
#     4   9  17  32  56  90 106 144 196 256 278 330
#
# _framework density 18.915437000000001
#
# number of rings (size 3 to 8) (size 9 to 14) (size 15 to 20)
#    0.923    1.231    3.077    0.923    4.308    0.000 
#    0.000    2.308    0.000    0.000    0.000    0.000 
#    0.000    0.000    0.000    0.000    0.000    0.000 
#
# Total GULP energy -322199.518674 kJ/mol
# GULP energy per Si atom -12392.289180 kJ/mol
# Density = 1.887238 g / cm^3
# Si number density = 18.915437 Si / 1000 Ang^3
#
#
#
# Elastic Constant Matrix: (Units=GPa)
#
#
# Indices 1 2 3 4 5 6 
#
# 1 113.3571 37.4179 28.5048 0.0000 0.0000 0.0000
# 2 37.4179 67.6921 30.2710 0.0000 0.0000 0.0000
# 3 28.5048 30.2710 63.9292 0.0000 0.0000 0.0000
# 4 0.0000 0.0000 0.0000 7.0927 0.0000 0.0000
# 5 0.0000 0.0000 0.0000 0.0000 33.3937 0.0000
# 6 0.0000 0.0000 0.0000 0.0000 0.0000 17.5537
#
#
#
# Elastic Compliance Matrix: (Units=1/GPa)
#
#
# Indices 1 2 3 4 5 6 
#
# 1 0.011121 -0.004985 -0.002598 0.000000 0.000000 0.000000
# 2 -0.004985 0.020976 -0.007709 0.000000 0.000000 0.000000
# 3 -0.002598 -0.007709 0.020451 0.000000 0.000000 0.000000
# 4 0.000000 0.000000 0.000000 0.140990 0.000000 0.000000
# 5 0.000000 0.000000 0.000000 0.000000 0.029946 0.000000
# 6 0.000000 0.000000 0.000000 0.000000 0.000000 0.056968
#
#
# Mechanical properties :
#
#
# Convention : Reuss Voigt Hill
#
# Bulk Modulus (GPa) = 45.53228 48.59620 47.06424
# Shear Modulus (GPa) = 15.70559 21.52699 18.61629
#
# Velocity S-wave (km/s) = 2.88463 3.37718 3.14058
# Velocity P-wave (km/s) = 5.93452 6.39955 6.17141
#
# Compressibility (1/GPa) = 0.02196244
#
# Stress axis : x y z
#
# Youngs Moduli (GPa) = 89.92369 47.67335 48.89703
#
# Poissons Ratio (x) = 0.23767 0.12703
# Poissons Ratio (y) = 0.44830 0.37697
# Poissons Ratio (z) = 0.23361 0.36754
#
# Static dielectric constant tensor:
#      x y z
#    x 3.461630 0.000000 0.000000 
#    y 0.000000 2.995650 0.000000 
#    z 0.000000 0.000000 3.475930 
# 
# 
# High freq. dielectric constant tensor:
#      x y z
#    x 1.745090 0.000000 0.000000 
#    y 0.000000 1.682860 0.000000 
#    z 0.000000 0.000000 1.729760 
# 
# From -- ./inp_files/9731.got.cif
#   From: 2010.03.12/outbox.cif.g09.slc.cpg/sg41_5_cif.got.tgz:9731.got - 2010.04.14 01:55:53.
