data_PCOD8184583
_publ_section_title
;
Structure prediction by ZEFSAII (Michael W. Deem and Ramdas Pophale) SiO2 
 PCOD8184583
Probable space group: A M A 2
;
_chemical_formula_sum "Si O2"
_cell_formula_units_Z 36
_cell_length_a 17.172553
_cell_length_b 13.077466
_cell_length_c 8.088679
_cell_angle_alpha 90.000000
_cell_angle_beta 90.000000
_cell_angle_gamma 90.000000
_cell_volume 1816.502775
_symmetry_space_group_name_H-M "A M A 2"
_symmetry_group_IT_number 40
_symmetry_cell_setting 'orthorhombic'
loop_
_space_group_symop_operation_xyz
x,y,z
-x,-y,z
1/2-x,y,z
1/2+x,-y,z
x,1/2+y,1/2+z
-x,1/2-y,1/2+z
1/2-x,1/2+y,1/2+z
1/2+x,1/2-y,1/2+z
loop_
_atom_site_type_symbol
_atom_site_label
_atom_site_fract_x
_atom_site_fract_y
_atom_site_fract_z
Si Si1 0.879978 0.850840 0.794720
Si Si2 0.250000 0.162837 0.054518
Si Si3 0.500000 0.000000 0.957314
Si Si4 0.750000 0.474712 0.123703
Si Si5 0.879175 0.151339 0.108808
Si Si6 0.750000 0.531713 0.758010
Si Si7 0.250000 0.323420 0.334906
O O1 0.826457 0.914613 0.673083
O O2 0.913585 0.754680 0.690674
O O3 0.828489 0.813449 0.951495
O O4 0.951100 0.922831 0.844597
O O5 0.250000 0.042346 0.097693
O O6 0.250000 0.221346 0.227208
O O7 0.552484 0.071841 0.072133
O O8 0.750000 0.585475 0.204249
O O9 0.750000 0.472937 0.927946
O O10 0.825852 0.102252 0.250362
O O11 0.827681 0.174332 0.945944
#
# Coordination Sequence:
#
# PCOD8184583 Si02
#       7
#     8   4   4   4   8   4   4
#     4  11  23  43  65  93 129 172 213 269 326 382
#     4  11  20  39  72  96 124 166 223 278 317 371
#     4  12  24  46  62  90 152 170 210 260 340 400
#     4  11  20  41  68  98 122 160 227 275 310 374
#     4  11  23  43  65  93 129 172 213 269 326 382
#     4  11  20  41  68  98 122 160 227 275 310 374
#     4  11  20  39  72  96 124 166 223 278 317 371
#
# _framework density 19.818301999999999
#
# number of rings (size 3 to 8) (size 9 to 14) (size 15 to 20)
#    0.000    0.889    4.444    6.667    0.000    1.778 
#    8.000    0.000    0.000    0.000    0.000    0.000 
#    0.000    0.000    0.000    0.000    0.000    0.000 
#
# Total GULP energy -223225.568766 kJ/mol
# GULP energy per Si atom -12401.420487 kJ/mol
# Density = 1.977320 g / cm^3
# Si number density = 19.818302 Si / 1000 Ang^3
#
#
#
# Elastic Constant Matrix: (Units=GPa)
#
#
# Indices 1 2 3 4 5 6 
#
# 1 129.6318 63.1935 47.7802 0.0000 0.0000 0.0000
# 2 63.1935 136.0179 41.8653 0.0000 0.0000 0.0000
# 3 47.7802 41.8653 102.0813 0.0000 0.0000 0.0000
# 4 0.0000 0.0000 0.0000 59.1950 0.0000 0.0000
# 5 0.0000 0.0000 0.0000 0.0000 -7.6253 0.0000
# 6 0.0000 0.0000 0.0000 0.0000 0.0000 17.9873
#
#
#
# Elastic Compliance Matrix: (Units=1/GPa)
#
#
# Indices 1 2 3 4 5 6 
#
# 1 0.010956 -0.004019 -0.003480 0.000000 0.000000 0.000000
# 2 -0.004019 0.009888 -0.002174 0.000000 0.000000 0.000000
# 3 -0.003480 -0.002174 0.012317 0.000000 0.000000 0.000000
# 4 0.000000 0.000000 0.000000 0.016893 0.000000 0.000000
# 5 0.000000 0.000000 0.000000 0.000000 -0.131143 0.000000
# 6 0.000000 0.000000 0.000000 0.000000 0.000000 0.055595
#
#
# Mechanical properties :
#
#
# Convention : Reuss Voigt Hill
#
# Bulk Modulus (GPa) = 72.38619 74.82323 73.60471
# Shear Modulus (GPa) = -3241.54869 28.23754 -1606.65558
#
# Velocity S-wave (km/s) = -40.48685 3.77878 -28.50356
# Velocity P-wave (km/s) = 46.35704 7.54158 32.34270
#
# Compressibility (1/GPa) = 0.01381479
#
# Stress axis : x y z
#
# Youngs Moduli (GPa) = 91.27437 101.12819 81.19156
#
# Poissons Ratio (x) = 0.40644 0.28253
# Poissons Ratio (y) = 0.36684 0.17653
# Poissons Ratio (z) = 0.31761 0.21988
#
# Static dielectric constant tensor:
#      x y z
#    x 3.339170 0.000000 0.000000 
#    y 0.000000 3.866130 0.000000 
#    z 0.000000 0.000000 3.533730 
# 
# 
# High freq. dielectric constant tensor:
#      x y z
#    x 1.756410 0.000000 0.000000 
#    y 0.000000 1.796480 0.000000 
#    z 0.000000 0.000000 1.775130 
# 
# From -- ./inp_files/6124.got.cif
#   From: 2010.03.12/outbox.cif.g09.slc.cpg/sg40_4_cif.got.tgz:6124.got - 2010.04.14 01:38:03.
