data_PCOD8184601
_publ_section_title
;
Structure prediction by ZEFSAII (Michael W. Deem and Ramdas Pophale) SiO2 
 PCOD8184601
Probable space group: A M A 2
;
_chemical_formula_sum "Si O2"
_cell_formula_units_Z 64
_cell_length_a 20.986017
_cell_length_b 9.129385
_cell_length_c 16.712113
_cell_angle_alpha 90.000000
_cell_angle_beta 90.000000
_cell_angle_gamma 90.000000
_cell_volume 3201.864184
_symmetry_space_group_name_H-M "A M A 2"
_symmetry_group_IT_number 40
_symmetry_cell_setting 'orthorhombic'
loop_
_space_group_symop_operation_xyz
x,y,z
-x,-y,z
1/2-x,y,z
1/2+x,-y,z
x,1/2+y,1/2+z
-x,1/2-y,1/2+z
1/2-x,1/2+y,1/2+z
1/2+x,1/2-y,1/2+z
loop_
_atom_site_type_symbol
_atom_site_label
_atom_site_fract_x
_atom_site_fract_y
_atom_site_fract_z
Si Si1 0.617103 0.673585 0.235590
Si Si2 0.123692 0.777140 0.258491
Si Si3 0.006629 0.168175 0.320513
Si Si4 0.177827 0.039920 0.857405
Si Si5 0.974704 0.241880 0.995972
Si Si6 0.098907 0.558288 0.513889
Si Si7 0.063835 0.566842 0.139608
Si Si8 0.177295 0.553816 0.675597
O O1 0.550265 0.755865 0.252942
O O2 0.635373 0.583928 0.314991
O O3 0.612700 0.568295 0.156412
O O4 0.672768 0.789867 0.219229
O O5 0.179033 0.681627 0.299279
O O6 0.094494 0.710620 0.177668
O O7 0.065176 0.771212 0.320886
O O8 0.150764 0.935821 0.238463
O O9 0.035232 0.195543 0.407594
O O10 0.000000 0.000000 0.296570
O O11 0.250000 0.985638 0.869776
O O12 0.148319 0.083153 0.942388
O O13 0.953064 0.381355 0.049811
O O14 0.046817 0.189293 0.014514
O O15 0.930421 0.102090 0.006286
O O16 0.135889 0.562501 0.596475
O O17 0.000000 0.500000 0.180883
O O18 0.250000 0.517154 0.653920
#
# Coordination Sequence:
#
# PCOD8184601 Si02
#       8
#     8   8   8   8   8   8   8   8
#     4  11  24  39  67  95 125 168 215 266 326 381
#     4  11  23  39  65  96 120 164 213 263 323 378
#     4  12  22  38  65  97 130 157 208 270 331 386
#     4  11  23  43  65  90 126 174 222 259 307 389
#     4  11  23  39  62  99 132 160 204 271 331 384
#     4  11  23  39  67  94 125 171 219 260 321 384
#     4  11  21  37  62  91 129 159 199 256 330 378
#     4  12  25  44  63  92 132 173 218 266 316 388
#
# _framework density 19.988354999999999
#
# number of rings (size 3 to 8) (size 9 to 14) (size 15 to 20)
#    0.000    0.750    6.250    2.250    0.000    0.000 
#    0.000    0.000    0.000    0.000    0.000    0.000 
#    0.000    0.000    0.000    0.000    0.000    0.000 
#
# Total GULP energy -396667.649524 kJ/mol
# GULP energy per Si atom -12395.864048 kJ/mol
# Density = 1.994286 g / cm^3
# Si number density = 19.988355 Si / 1000 Ang^3
#
#
#
# Elastic Constant Matrix: (Units=GPa)
#
#
# Indices 1 2 3 4 5 6 
#
# 1 89.9825 20.8619 22.0432 0.0000 0.0000 0.0000
# 2 20.8619 108.1778 39.3317 0.0000 0.0000 0.0000
# 3 22.0432 39.3317 97.2635 0.0000 0.0000 0.0000
# 4 0.0000 0.0000 0.0000 26.5269 0.0000 0.0000
# 5 0.0000 0.0000 0.0000 0.0000 18.8258 0.0000
# 6 0.0000 0.0000 0.0000 0.0000 0.0000 22.4245
#
#
#
# Elastic Compliance Matrix: (Units=1/GPa)
#
#
# Indices 1 2 3 4 5 6 
#
# 1 0.011985 -0.001552 -0.002089 0.000000 0.000000 0.000000
# 2 -0.001552 0.011038 -0.004112 0.000000 0.000000 0.000000
# 3 -0.002089 -0.004112 0.012418 0.000000 0.000000 0.000000
# 4 0.000000 0.000000 0.000000 0.037698 0.000000 0.000000
# 5 0.000000 0.000000 0.000000 0.000000 0.053119 0.000000
# 6 0.000000 0.000000 0.000000 0.000000 0.000000 0.044594
#
#
# Mechanical properties :
#
#
# Convention : Reuss Voigt Hill
#
# Bulk Modulus (GPa) = 50.16136 51.09971 50.63054
# Shear Modulus (GPa) = 25.90661 27.76791 26.83726
#
# Velocity S-wave (km/s) = 3.60402 3.73125 3.66819
# Velocity P-wave (km/s) = 6.51678 6.64704 6.58223
#
# Compressibility (1/GPa) = 0.01993566
#
# Stress axis : x y z
#
# Youngs Moduli (GPa) = 83.43962 90.59297 80.53129
#
# Poissons Ratio (x) = 0.14059 0.16820
# Poissons Ratio (y) = 0.12949 0.33115
# Poissons Ratio (z) = 0.17427 0.37252
#
# Static dielectric constant tensor:
#      x y z
#    x 3.601760 0.000000 0.000000 
#    y 0.000000 3.782600 0.000000 
#    z 0.000000 0.000000 3.457500 
# 
# 
# High freq. dielectric constant tensor:
#      x y z
#    x 1.769040 0.000000 0.000000 
#    y 0.000000 1.793130 0.000000 
#    z 0.000000 0.000000 1.775210 
# 
# From -- ./inp_files/21400.got.cif
#   From: 2010.03.12/outbox.cif.g09.slc.cpg/sg40_11_cif.got.tgz:21400.got - 2010.04.14 01:38:03.
