data_PCOD8184059
_publ_section_title
;
Structure prediction by ZEFSAII (Michael W. Deem and Ramdas Pophale) SiO2 
 PCOD8184059
Probable space group: A M A 2
;
_chemical_formula_sum "Si O2"
_cell_formula_units_Z 40
_cell_length_a 8.970337
_cell_length_b 28.918723
_cell_length_c 7.462489
_cell_angle_alpha 90.000000
_cell_angle_beta 90.000000
_cell_angle_gamma 90.000000
_cell_volume 1935.849427
_symmetry_space_group_name_H-M "A M A 2"
_symmetry_group_IT_number 40
_symmetry_cell_setting 'orthorhombic'
loop_
_space_group_symop_operation_xyz
x,y,z
-x,-y,z
1/2-x,y,z
1/2+x,-y,z
x,1/2+y,1/2+z
-x,1/2-y,1/2+z
1/2-x,1/2+y,1/2+z
1/2+x,1/2-y,1/2+z
loop_
_atom_site_type_symbol
_atom_site_label
_atom_site_fract_x
_atom_site_fract_y
_atom_site_fract_z
Si Si1 0.925223 0.547439 0.176300
Si Si2 0.911758 0.798499 0.924642
Si Si3 0.575712 0.618491 0.860495
Si Si4 0.573089 0.398635 0.483462
Si Si5 0.087505 0.709009 0.842062
O O1 0.750000 0.540770 0.204125
O O2 0.000000 0.500000 0.112449
O O3 0.997523 0.561559 0.365929
O O4 0.960941 0.584380 0.022421
O O5 0.750000 0.787433 0.837522
O O6 0.894001 0.799879 0.135445
O O7 0.964864 0.850506 0.878738
O O8 0.028800 0.760882 0.862592
O O9 0.750000 0.621828 0.818323
O O10 0.493034 0.600086 0.683662
O O11 0.519631 0.669571 0.923141
O O12 0.750000 0.406449 0.496962
O O13 0.250000 0.705838 0.935958
#
# Coordination Sequence:
#
# PCOD8184059 Si02
#       5
#     8   8   8   8   8
#     4  11  25  43  66  94 122 160 207 258 313 370
#     4   9  20  36  53  82 118 156 200 243 297 359
#     4  10  22  41  63  89 124 163 205 254 309 368
#     4  10  22  41  64  91 125 163 204 254 309 369
#     4  10  21  35  55  84 117 158 203 247 299 358
#
# _framework density 20.662765
#
# number of rings (size 3 to 8) (size 9 to 14) (size 15 to 20)
#    0.000    2.000    0.000    3.600    2.800    8.800 
#    0.000    2.000    0.000    0.000    0.000    0.000 
#    0.000    0.000    0.000    0.000    0.000    0.000 
#
# Total GULP energy -247958.724374 kJ/mol
# GULP energy per Si atom -12397.936219 kJ/mol
# Density = 2.061574 g / cm^3
# Si number density = 20.662765 Si / 1000 Ang^3
#
#
#
# Elastic Constant Matrix: (Units=GPa)
#
#
# Indices 1 2 3 4 5 6 
#
# 1 124.5813 39.8568 26.1038 0.0000 0.0000 0.0000
# 2 39.8568 80.9527 5.5985 0.0000 0.0000 0.0000
# 3 26.1038 5.5985 44.5026 0.0000 0.0000 0.0000
# 4 0.0000 0.0000 0.0000 4.5829 0.0000 0.0000
# 5 0.0000 0.0000 0.0000 0.0000 25.1312 0.0000
# 6 0.0000 0.0000 0.0000 0.0000 0.0000 3.0005
#
#
#
# Elastic Compliance Matrix: (Units=1/GPa)
#
#
# Indices 1 2 3 4 5 6 
#
# 1 0.010799 -0.004922 -0.005715 0.000000 0.000000 0.000000
# 2 -0.004922 0.014704 0.001037 0.000000 0.000000 0.000000
# 3 -0.005715 0.001037 0.025692 0.000000 0.000000 0.000000
# 4 0.000000 0.000000 0.000000 0.218205 0.000000 0.000000
# 5 0.000000 0.000000 0.000000 0.000000 0.039791 0.000000
# 6 0.000000 0.000000 0.000000 0.000000 0.000000 0.333280
#
#
# Mechanical properties :
#
#
# Convention : Reuss Voigt Hill
#
# Bulk Modulus (GPa) = 31.25369 43.68389 37.46879
# Shear Modulus (GPa) = 7.43675 18.44141 12.93908
#
# Velocity S-wave (km/s) = 1.89919 2.99071 2.50512
# Velocity P-wave (km/s) = 4.46852 5.75439 5.15173
#
# Compressibility (1/GPa) = 0.03199622
#
# Stress axis : x y z
#
# Youngs Moduli (GPa) = 92.60170 68.00733 38.92194
#
# Poissons Ratio (x) = 0.33470 0.22245
# Poissons Ratio (y) = 0.45575 -0.04036
# Poissons Ratio (z) = 0.52923 -0.07052
#
# Static dielectric constant tensor:
#      x y z
#    x 3.980380 0.000000 0.000000 
#    y 0.000000 8.640140 0.000000 
#    z 0.000000 0.000000 3.559130 
# 
# 
# High freq. dielectric constant tensor:
#      x y z
#    x 1.820270 0.000000 0.000000 
#    y 0.000000 1.811310 0.000000 
#    z 0.000000 0.000000 1.803320 
# 
# From -- ./inp_files/4240.got.cif
#   From: 2010.03.12/outbox.cif.g09.slc.cpg/sg40_3_cif.got.tgz:4240.got - 2010.04.14 01:38:03.
