data_PCOD8184426
_publ_section_title
;
Structure prediction by ZEFSAII (Michael W. Deem and Ramdas Pophale) SiO2 
 PCOD8184426
Probable space group: A M A 2
;
_chemical_formula_sum "Si O2"
_cell_formula_units_Z 48
_cell_length_a 26.463122
_cell_length_b 9.570501
_cell_length_c 9.535014
_cell_angle_alpha 90.000000
_cell_angle_beta 90.000000
_cell_angle_gamma 90.000000
_cell_volume 2414.888520
_symmetry_space_group_name_H-M "A M A 2"
_symmetry_group_IT_number 40
_symmetry_cell_setting 'orthorhombic'
loop_
_space_group_symop_operation_xyz
x,y,z
-x,-y,z
1/2-x,y,z
1/2+x,-y,z
x,1/2+y,1/2+z
-x,1/2-y,1/2+z
1/2-x,1/2+y,1/2+z
1/2+x,1/2-y,1/2+z
loop_
_atom_site_type_symbol
_atom_site_label
_atom_site_fract_x
_atom_site_fract_y
_atom_site_fract_z
Si Si1 0.032337 0.137741 0.937180
Si Si2 0.192445 0.700248 0.616043
Si Si3 0.633591 0.800977 0.391559
Si Si4 0.691483 0.482684 0.109516
Si Si5 0.363091 0.019144 0.897409
Si Si6 0.528840 0.354975 0.756178
O O1 0.085626 0.102264 0.864534
O O2 0.006139 0.246335 0.835647
O O3 0.038802 0.196856 0.096249
O O4 0.000000 0.000000 0.947308
O O5 0.250000 0.655509 0.602900
O O6 0.177655 0.692106 0.777820
O O7 0.160565 0.586693 0.534406
O O8 0.183729 0.857622 0.558542
O O9 0.653565 0.884962 0.524789
O O10 0.623160 0.640771 0.434068
O O11 0.582228 0.870294 0.335017
O O12 0.750000 0.436842 0.093066
O O13 0.676360 0.467288 0.271449
O O14 0.500000 0.500000 0.759522
#
# Coordination Sequence:
#
# PCOD8184426 Si02
#       6
#     8   8   8   8   8   8
#     4  11  24  44  63  94 127 160 206 261 306 374
#     4  10  22  42  64  89 125 165 209 260 314 369
#     4  11  23  42  64  94 125 167 206 259 313 370
#     4  10  24  41  62  94 127 162 210 257 307 372
#     4  11  23  40  67  91 126 163 208 254 315 371
#     4  11  26  40  64  94 126 162 213 254 313 374
#
# _framework density 19.876694000000001
#
# number of rings (size 3 to 8) (size 9 to 14) (size 15 to 20)
#    0.000    1.333    3.333    1.000    4.667    4.000 
#    0.000    0.000    0.000    0.000    0.000    0.000 
#    0.000    0.000    0.000    0.000    0.000    0.000 
#
# Total GULP energy -297669.962491 kJ/mol
# GULP energy per Si atom -12402.915104 kJ/mol
# Density = 1.983145 g / cm^3
# Si number density = 19.876694 Si / 1000 Ang^3
#
#
#
# Elastic Constant Matrix: (Units=GPa)
#
#
# Indices 1 2 3 4 5 6 
#
# 1 106.5208 29.5694 19.8801 0.0000 0.0000 0.0000
# 2 29.5694 76.1389 44.4367 0.0000 0.0000 0.0000
# 3 19.8801 44.4367 68.6969 0.0000 0.0000 0.0000
# 4 0.0000 0.0000 0.0000 28.1923 0.0000 0.0000
# 5 0.0000 0.0000 0.0000 0.0000 39.5049 0.0000
# 6 0.0000 0.0000 0.0000 0.0000 0.0000 36.7050
#
#
#
# Elastic Compliance Matrix: (Units=1/GPa)
#
#
# Indices 1 2 3 4 5 6 
#
# 1 0.010540 -0.003716 -0.000646 0.000000 0.000000 0.000000
# 2 -0.003716 0.022409 -0.013420 0.000000 0.000000 0.000000
# 3 -0.000646 -0.013420 0.023425 0.000000 0.000000 0.000000
# 4 0.000000 0.000000 0.000000 0.035471 0.000000 0.000000
# 5 0.000000 0.000000 0.000000 0.000000 0.025313 0.000000
# 6 0.000000 0.000000 0.000000 0.000000 0.000000 0.027244
#
#
# Mechanical properties :
#
#
# Convention : Reuss Voigt Hill
#
# Bulk Modulus (GPa) = 48.05674 48.79213 48.42443
# Shear Modulus (GPa) = 26.75170 31.37847 29.06508
#
# Velocity S-wave (km/s) = 3.67261 3.97754 3.82811
# Velocity P-wave (km/s) = 6.49723 6.75982 6.62982
#
# Compressibility (1/GPa) = 0.02080874
#
# Stress axis : x y z
#
# Youngs Moduli (GPa) = 94.87631 44.62401 42.69011
#
# Poissons Ratio (x) = 0.16583 0.02760
# Poissons Ratio (y) = 0.35257 0.57291
# Poissons Ratio (z) = 0.06133 0.59886
#
# Static dielectric constant tensor:
#      x y z
#    x 3.872040 0.000000 0.000000 
#    y 0.000000 3.573300 0.000000 
#    z 0.000000 0.000000 3.616110 
# 
# 
# High freq. dielectric constant tensor:
#      x y z
#    x 1.796230 0.000000 0.000000 
#    y 0.000000 1.775420 0.000000 
#    z 0.000000 0.000000 1.773900 
# 
# From -- ./inp_files/9301.got.cif
#   From: 2010.03.12/outbox.cif.g09.slc.cpg/sg40_5_cif.got.tgz:9301.got - 2010.04.14 01:38:03.
