data_PCOD8184243
_publ_section_title
;
Structure prediction by ZEFSAII (Michael W. Deem and Ramdas Pophale) SiO2 
 PCOD8184243
Probable space group: A M A 2
;
_chemical_formula_sum "Si O2"
_cell_formula_units_Z 40
_cell_length_a 18.027728
_cell_length_b 9.016403
_cell_length_c 12.130598
_cell_angle_alpha 90.000000
_cell_angle_beta 90.000000
_cell_angle_gamma 90.000000
_cell_volume 1971.771216
_symmetry_space_group_name_H-M "A M A 2"
_symmetry_group_IT_number 40
_symmetry_cell_setting 'orthorhombic'
loop_
_space_group_symop_operation_xyz
x,y,z
-x,-y,z
1/2-x,y,z
1/2+x,-y,z
x,1/2+y,1/2+z
-x,1/2-y,1/2+z
1/2-x,1/2+y,1/2+z
1/2+x,1/2-y,1/2+z
loop_
_atom_site_type_symbol
_atom_site_label
_atom_site_fract_x
_atom_site_fract_y
_atom_site_fract_z
Si Si1 0.833370 0.237072 0.408110
Si Si2 0.392662 0.242903 0.140583
Si Si3 0.577999 0.951479 0.333173
Si Si4 0.040623 0.155313 0.558311
Si Si5 0.163123 0.060717 0.707940
O O1 0.750000 0.184170 0.387797
O O2 0.842898 0.289995 0.533853
O O3 0.851756 0.377307 0.330642
O O4 0.883105 0.093554 0.386872
O O5 0.375270 0.119449 0.233407
O O6 0.479228 0.228877 0.102551
O O7 0.369708 0.396931 0.197671
O O8 0.562673 0.828890 0.429405
O O9 0.500000 0.000000 0.282087
O O10 0.117121 0.168806 0.626545
O O11 0.000000 0.000000 0.575825
O O12 0.250000 0.064580 0.675906
#
# Coordination Sequence:
#
# PCOD8184243 Si02
#       5
#     8   8   8   8   8
#     4  11  23  41  61  89 127 161 201 254 303 360
#     4  11  22  40  64  88 124 159 205 250 304 366
#     4  11  21  41  65  91 120 160 206 250 309 357
#     4   9  18  36  62  86 114 154 197 245 295 355
#     4  10  21  40  63  86 122 162 197 247 308 356
#
# _framework density 20.286328999999999
#
# number of rings (size 3 to 8) (size 9 to 14) (size 15 to 20)
#    0.000    1.600    6.000    1.800    0.000    1.600 
#    7.200    0.000    0.000    0.000    0.000    0.000 
#    0.000    0.000    0.000    0.000    0.000    0.000 
#
# Total GULP energy -247879.085404 kJ/mol
# GULP energy per Si atom -12393.954270 kJ/mol
# Density = 2.024016 g / cm^3
# Si number density = 20.286329 Si / 1000 Ang^3
#
#
#
# Elastic Constant Matrix: (Units=GPa)
#
#
# Indices 1 2 3 4 5 6 
#
# 1 93.7446 23.6715 37.7613 0.0000 0.0000 0.0000
# 2 23.6715 36.8174 50.0588 0.0000 0.0000 0.0000
# 3 37.7613 50.0588 141.2710 0.0000 0.0000 0.0000
# 4 0.0000 0.0000 0.0000 38.2091 0.0000 0.0000
# 5 0.0000 0.0000 0.0000 0.0000 32.2903 0.0000
# 6 0.0000 0.0000 0.0000 0.0000 0.0000 14.4372
#
#
#
# Elastic Compliance Matrix: (Units=1/GPa)
#
#
# Indices 1 2 3 4 5 6 
#
# 1 0.012804 -0.006906 -0.000975 0.000000 0.000000 0.000000
# 2 -0.006906 0.056138 -0.018046 0.000000 0.000000 0.000000
# 3 -0.000975 -0.018046 0.013734 0.000000 0.000000 0.000000
# 4 0.000000 0.000000 0.000000 0.026172 0.000000 0.000000
# 5 0.000000 0.000000 0.000000 0.000000 0.030969 0.000000
# 6 0.000000 0.000000 0.000000 0.000000 0.000000 0.069265
#
#
# Mechanical properties :
#
#
# Convention : Reuss Voigt Hill
#
# Bulk Modulus (GPa) = 32.44606 54.97957 43.71281
# Shear Modulus (GPa) = 18.43583 27.67675 23.05629
#
# Velocity S-wave (km/s) = 3.01787 3.69766 3.37492
# Velocity P-wave (km/s) = 5.30775 6.73727 6.06478
#
# Compressibility (1/GPa) = 0.03082038
#
# Stress axis : x y z
#
# Youngs Moduli (GPa) = 78.10041 17.81326 72.81250
#
# Poissons Ratio (x) = 0.12302 0.07101
# Poissons Ratio (y) = 0.53938 1.31399
# Poissons Ratio (z) = 0.07617 0.32146
#
# Static dielectric constant tensor:
#      x y z
#    x 3.927760 0.000000 0.000000 
#    y 0.000000 3.312920 0.000000 
#    z 0.000000 0.000000 3.894610 
# 
# 
# High freq. dielectric constant tensor:
#      x y z
#    x 1.800140 0.000000 0.000000 
#    y 0.000000 1.751440 0.000000 
#    z 0.000000 0.000000 1.804270 
# 
# From -- ./inp_files/7146.got.cif
#   From: 2010.03.12/outbox.cif.g09.slc.cpg/sg40_4_cif.got.tgz:7146.got - 2010.04.14 01:38:03.
