data_PCOD8184887
_publ_section_title
;
Structure prediction by ZEFSAII (Michael W. Deem and Ramdas Pophale) SiO2 
 PCOD8184887
Probable space group: A B A 2
;
_chemical_formula_sum "Si O2"
_cell_formula_units_Z 48
_cell_length_a 15.108478
_cell_length_b 16.806329
_cell_length_c 9.775834
_cell_angle_alpha 90.000000
_cell_angle_beta 90.000000
_cell_angle_gamma 90.000000
_cell_volume 2482.260726
_symmetry_space_group_name_H-M "A B A 2"
_symmetry_group_IT_number 41
_symmetry_cell_setting 'orthorhombic'
loop_
_space_group_symop_operation_xyz
x,y,z
-x,-y,z
1/2-x,y,1/2+z
1/2+x,-y,1/2+z
x,1/2+y,1/2+z
-x,1/2-y,1/2+z
1/2-x,1/2+y,z
1/2+x,1/2-y,z
loop_
_atom_site_type_symbol
_atom_site_label
_atom_site_fract_x
_atom_site_fract_y
_atom_site_fract_z
Si Si1 0.908305 0.542147 0.085110
Si Si2 0.424228 0.773402 0.100522
Si Si3 0.229108 0.071415 0.464881
Si Si4 0.910214 0.470590 0.365797
Si Si5 0.258734 0.681075 0.213071
Si Si6 0.575233 0.793661 0.306834
O O1 0.911563 0.635639 0.056346
O O2 0.883651 0.531237 0.244746
O O3 0.000000 0.500000 0.047552
O O4 0.835074 0.503111 0.986271
O O5 0.336301 0.741027 0.173700
O O6 0.505325 0.755452 0.202879
O O7 0.447390 0.726537 0.962872
O O8 0.329873 0.037891 0.471257
O O9 0.218931 0.136780 0.581763
O O10 0.208256 0.114392 0.320884
O O11 0.931845 0.388339 0.288760
O O12 0.000000 0.500000 0.442354
O O13 0.176546 0.732546 0.273746
#
# Coordination Sequence:
#
# PCOD8184887 Si02
#       6
#     8   8   8   8   8   8
#     4  11  22  42  66  92 128 174 210 262 325 390
#     4  12  25  41  70  98 129 172 227 270 321 389
#     4  11  21  43  69  90 129 174 213 265 328 388
#     4  10  19  42  66  89 124 174 209 250 333 382
#     4  11  23  43  65  94 130 172 214 265 331 385
#     4  11  24  43  65  97 131 174 213 271 330 386
#
# _framework density 19.337211
#
# number of rings (size 3 to 8) (size 9 to 14) (size 15 to 20)
#    0.000    1.000   10.000    0.000    4.667    1.333 
#    3.000    0.833    0.000    0.000    0.000    0.000 
#    0.000    0.000    0.000    0.000    0.000    0.000 
#
# Total GULP energy -297605.529102 kJ/mol
# GULP energy per Si atom -12400.230379 kJ/mol
# Density = 1.929320 g / cm^3
# Si number density = 19.337211 Si / 1000 Ang^3
#
#
#
# Elastic Constant Matrix: (Units=GPa)
#
#
# Indices 1 2 3 4 5 6 
#
# 1 145.5022 41.6565 50.2709 0.0000 0.0000 0.0000
# 2 41.6565 63.6193 12.8378 0.0000 0.0000 0.0000
# 3 50.2709 12.8378 87.8752 0.0000 0.0000 0.0000
# 4 0.0000 0.0000 0.0000 25.2027 0.0000 0.0000
# 5 0.0000 0.0000 0.0000 0.0000 37.6986 0.0000
# 6 0.0000 0.0000 0.0000 0.0000 0.0000 38.5307
#
#
#
# Elastic Compliance Matrix: (Units=1/GPa)
#
#
# Indices 1 2 3 4 5 6 
#
# 1 0.010238 -0.005689 -0.005026 0.000000 0.000000 0.000000
# 2 -0.005689 0.019358 0.000427 0.000000 0.000000 0.000000
# 3 -0.005026 0.000427 0.014192 0.000000 0.000000 0.000000
# 4 0.000000 0.000000 0.000000 0.039678 0.000000 0.000000
# 5 0.000000 0.000000 0.000000 0.000000 0.026526 0.000000
# 6 0.000000 0.000000 0.000000 0.000000 0.000000 0.025953
#
#
# Mechanical properties :
#
#
# Convention : Reuss Voigt Hill
#
# Bulk Modulus (GPa) = 43.08221 56.28081 49.68151
# Shear Modulus (GPa) = 30.43958 33.10182 31.77070
#
# Velocity S-wave (km/s) = 3.97185 4.14190 4.05777
# Velocity P-wave (km/s) = 6.58498 7.21401 6.90666
#
# Compressibility (1/GPa) = 0.02321144
#
# Stress axis : x y z
#
# Youngs Moduli (GPa) = 97.67550 51.65902 70.45988
#
# Poissons Ratio (x) = 0.29391 0.35411
# Poissons Ratio (y) = 0.55572 -0.03007
# Poissons Ratio (z) = 0.49089 -0.02205
#
# Static dielectric constant tensor:
#      x y z
#    x 3.799130 0.000000 0.000000 
#    y 0.000000 3.423140 0.000000 
#    z 0.000000 0.000000 3.454180 
# 
# 
# High freq. dielectric constant tensor:
#      x y z
#    x 1.765070 0.000000 0.000000 
#    y 0.000000 1.740840 0.000000 
#    z 0.000000 0.000000 1.746450 
# 
# From -- ./inp_files/2518.got.cif
#   From: 2010.03.12/outbox.cif.g09.slc.cpg/sg41_2_cif.got.tgz:2518.got - 2010.04.14 01:55:53.
