data_PCOD8184459
_publ_section_title
;
Structure prediction by ZEFSAII (Michael W. Deem and Ramdas Pophale) SiO2 
 PCOD8184459
Probable space group: A M A 2
;
_chemical_formula_sum "Si O2"
_cell_formula_units_Z 64
_cell_length_a 32.529592
_cell_length_b 9.837768
_cell_length_c 9.770472
_cell_angle_alpha 90.000000
_cell_angle_beta 90.000000
_cell_angle_gamma 90.000000
_cell_volume 3126.732568
_symmetry_space_group_name_H-M "A M A 2"
_symmetry_group_IT_number 40
_symmetry_cell_setting 'orthorhombic'
loop_
_space_group_symop_operation_xyz
x,y,z
-x,-y,z
1/2-x,y,z
1/2+x,-y,z
x,1/2+y,1/2+z
-x,1/2-y,1/2+z
1/2-x,1/2+y,1/2+z
1/2+x,1/2-y,1/2+z
loop_
_atom_site_type_symbol
_atom_site_label
_atom_site_fract_x
_atom_site_fract_y
_atom_site_fract_z
Si Si1 0.164282 0.357202 0.987860
Si Si2 0.920817 0.752470 0.395918
Si Si3 0.515049 0.644710 0.182416
Si Si4 0.429107 0.281633 0.685223
Si Si5 0.426004 0.941867 0.451612
Si Si6 0.663616 0.177291 0.790361
Si Si7 0.702886 0.866188 0.499382
Si Si8 0.850235 0.865959 0.767620
O O1 0.117782 0.405607 0.016854
O O2 0.190805 0.486467 0.935971
O O3 0.167838 0.236975 0.879690
O O4 0.180175 0.304979 0.135618
O O5 0.956531 0.700351 0.301234
O O6 0.914962 0.662955 0.535257
O O7 0.878747 0.759477 0.311484
O O8 0.933569 0.898083 0.459299
O O9 0.500000 0.500000 0.234320
O O10 0.476231 0.740836 0.167631
O O11 0.538911 0.635775 0.037443
O O12 0.426929 0.404196 0.791932
O O13 0.398757 0.160994 0.739479
O O14 0.697105 0.245158 0.889784
O O15 0.656286 0.018041 0.823712
O O16 0.750000 0.868311 0.545732
O O17 0.674686 0.837147 0.629979
#
# Coordination Sequence:
#
# PCOD8184459 Si02
#       8
#     8   8   8   8   8   8   8   8
#     4  10  22  43  69  95 128 171 213 263 323 387
#     4  12  22  42  63  90 126 168 214 266 319 378
#     4  12  24  40  61  87 129 167 212 269 313 369
#     4  11  23  40  62  92 126 168 214 262 316 372
#     4  11  23  43  64  89 126 171 218 262 319 381
#     4  11  21  39  68  97 127 171 213 262 323 388
#     4  11  24  43  68  97 128 166 213 266 324 388
#     4  10  23  43  67  95 131 169 211 263 322 388
#
# _framework density 20.468651999999999
#
# number of rings (size 3 to 8) (size 9 to 14) (size 15 to 20)
#    0.000    1.000    5.000    2.250    0.000    4.500 
#    4.500    0.000    0.000    0.000    0.000    0.000 
#    0.000    0.000    0.000    0.000    0.000    0.000 
#
# Total GULP energy -396845.924271 kJ/mol
# GULP energy per Si atom -12401.435133 kJ/mol
# Density = 2.042206 g / cm^3
# Si number density = 20.468652 Si / 1000 Ang^3
#
#
#
# Elastic Constant Matrix: (Units=GPa)
#
#
# Indices 1 2 3 4 5 6 
#
# 1 94.0716 21.2246 22.2273 0.0000 0.0000 0.0000
# 2 21.2246 71.5049 52.7281 0.0000 0.0000 0.0000
# 3 22.2273 52.7281 121.9496 0.0000 0.0000 0.0000
# 4 0.0000 0.0000 0.0000 26.1272 0.0000 0.0000
# 5 0.0000 0.0000 0.0000 0.0000 20.0395 0.0000
# 6 0.0000 0.0000 0.0000 0.0000 0.0000 22.5357
#
#
#
# Elastic Compliance Matrix: (Units=1/GPa)
#
#
# Indices 1 2 3 4 5 6 
#
# 1 0.011461 -0.002733 -0.000907 0.000000 0.000000 0.000000
# 2 -0.002733 0.021183 -0.008661 0.000000 0.000000 0.000000
# 3 -0.000907 -0.008661 0.012110 0.000000 0.000000 0.000000
# 4 0.000000 0.000000 0.000000 0.038274 0.000000 0.000000
# 5 0.000000 0.000000 0.000000 0.000000 0.049901 0.000000
# 6 0.000000 0.000000 0.000000 0.000000 0.000000 0.044374
#
#
# Mechanical properties :
#
#
# Convention : Reuss Voigt Hill
#
# Bulk Modulus (GPa) = 49.62272 53.32068 51.47170
# Shear Modulus (GPa) = 23.96659 26.49686 25.23172
#
# Velocity S-wave (km/s) = 3.42554 3.60183 3.51479
# Velocity P-wave (km/s) = 6.31994 6.58818 6.45545
#
# Compressibility (1/GPa) = 0.02015206
#
# Stress axis : x y z
#
# Youngs Moduli (GPa) = 87.25091 47.20807 82.57478
#
# Poissons Ratio (x) = 0.12902 0.07492
# Poissons Ratio (y) = 0.23845 0.71517
# Poissons Ratio (z) = 0.07917 0.40886
#
# Static dielectric constant tensor:
#      x y z
#    x 3.702520 0.000000 0.000000 
#    y 0.000000 3.662670 0.000000 
#    z 0.000000 0.000000 3.814750 
# 
# 
# High freq. dielectric constant tensor:
#      x y z
#    x 1.797090 0.000000 0.000000 
#    y 0.000000 1.789260 0.000000 
#    z 0.000000 0.000000 1.811630 
# 
# From -- ./inp_files/9434.got.cif
#   From: 2010.03.12/outbox.cif.g09.slc.cpg/sg40_5_cif.got.tgz:9434.got - 2010.04.14 01:38:03.
