data_PCOD8184049
_publ_section_title
;
Structure prediction by ZEFSAII (Michael W. Deem and Ramdas Pophale) SiO2 
 PCOD8184049
Probable space group: A M A 2
;
_chemical_formula_sum "Si O2"
_cell_formula_units_Z 44
_cell_length_a 24.489039
_cell_length_b 5.365722
_cell_length_c 18.621280
_cell_angle_alpha 90.000000
_cell_angle_beta 90.000000
_cell_angle_gamma 90.000000
_cell_volume 2446.861802
_symmetry_space_group_name_H-M "A M A 2"
_symmetry_group_IT_number 40
_symmetry_cell_setting 'orthorhombic'
loop_
_space_group_symop_operation_xyz
x,y,z
-x,-y,z
1/2-x,y,z
1/2+x,-y,z
x,1/2+y,1/2+z
-x,1/2-y,1/2+z
1/2-x,1/2+y,1/2+z
1/2+x,1/2-y,1/2+z
loop_
_atom_site_type_symbol
_atom_site_label
_atom_site_fract_x
_atom_site_fract_y
_atom_site_fract_z
Si Si1 0.000000 0.000000 0.149140
Si Si2 0.093436 0.265956 0.736965
Si Si3 0.148028 0.495177 0.121392
Si Si4 0.534421 0.255586 0.377765
Si Si5 0.052667 0.331064 0.035542
Si Si6 0.189484 0.989521 0.165979
O O1 0.045094 0.127651 0.097914
O O2 0.965092 0.178148 0.200286
O O3 0.084683 0.242340 0.821890
O O4 0.140958 0.475677 0.725304
O O5 0.114785 0.013622 0.697783
O O6 0.106306 0.490186 0.054364
O O7 0.184301 0.245869 0.121329
O O8 0.183839 0.748258 0.112817
O O9 0.500000 0.500000 0.359075
O O10 0.559923 0.290023 0.457046
O O11 0.500000 0.000000 0.370583
O O12 0.000000 0.500000 0.033998
O O13 0.250000 0.983193 0.201291
#
# Coordination Sequence:
#
# PCOD8184049 Si02
#       6
#     4   8   8   8   8   8
#     4  12  18  36  54  86 120 144 188 226 278 342
#     4  10  23  33  59  84 113 150 189 232 280 334
#     4  10  21  34  60  82 104 150 186 237 276 331
#     4  11  25  35  52  83 123 154 180 224 277 344
#     4  11  20  35  52  84 120 152 182 219 286 341
#     4  10  21  37  58  86 107 140 197 247 286 321
#
# _framework density 17.982216000000001
#
# number of rings (size 3 to 8) (size 9 to 14) (size 15 to 20)
#    1.091    0.364    5.455    0.545    5.091    0.000 
#    0.000    0.000    0.000    2.182    0.000    0.000 
#    0.000    0.000    0.000    0.000    0.000    0.000 
#
# Total GULP energy -272559.671442 kJ/mol
# GULP energy per Si atom -12389.075975 kJ/mol
# Density = 1.794129 g / cm^3
# Si number density = 17.982216 Si / 1000 Ang^3
#
#
#
# Elastic Constant Matrix: (Units=GPa)
#
#
# Indices 1 2 3 4 5 6 
#
# 1 91.8816 27.4002 33.4834 0.0000 0.0000 0.0000
# 2 27.4002 114.8750 15.3803 0.0000 0.0000 0.0000
# 3 33.4834 15.3803 84.6919 0.0000 0.0000 0.0000
# 4 0.0000 0.0000 0.0000 100.8258 0.0000 0.0000
# 5 0.0000 0.0000 0.0000 0.0000 -11.7431 0.0000
# 6 0.0000 0.0000 0.0000 0.0000 0.0000 19.8180
#
#
#
# Elastic Compliance Matrix: (Units=1/GPa)
#
#
# Indices 1 2 3 4 5 6 
#
# 1 0.013407 -0.002550 -0.004837 0.000000 0.000000 0.000000
# 2 -0.002550 0.009407 -0.000700 0.000000 0.000000 0.000000
# 3 -0.004837 -0.000700 0.013847 0.000000 0.000000 0.000000
# 4 0.000000 0.000000 0.000000 0.009918 0.000000 0.000000
# 5 0.000000 0.000000 0.000000 0.000000 -0.085157 0.000000
# 6 0.000000 0.000000 0.000000 0.000000 0.000000 0.050459
#
#
# Mechanical properties :
#
#
# Convention : Reuss Voigt Hill
#
# Bulk Modulus (GPa) = 48.81434 49.33071 49.07253
# Shear Modulus (GPa) = 143.32428 36.12579 89.72503
#
# Velocity S-wave (km/s) = 8.93736 4.48702 7.07141
# Velocity P-wave (km/s) = 11.56316 7.37137 9.69649
#
# Compressibility (1/GPa) = 0.02048578
#
# Stress axis : x y z
#
# Youngs Moduli (GPa) = 74.58853 106.30242 72.21712
#
# Poissons Ratio (x) = 0.27109 0.34934
# Poissons Ratio (y) = 0.19021 0.05056
# Poissons Ratio (z) = 0.36081 0.07443
#
# Static dielectric constant tensor:
#      x y z
#    x 3.237460 0.000000 0.000000 
#    y 0.000000 3.151430 0.000000 
#    z 0.000000 0.000000 3.317930 
# 
# 
# High freq. dielectric constant tensor:
#      x y z
#    x 1.678260 0.000000 0.000000 
#    y 0.000000 1.704930 0.000000 
#    z 0.000000 0.000000 1.666040 
# 
# From -- ./inp_files/21477.got.cif
#   From: 2010.03.12/outbox.cif.g09.slc.cpg/sg40_11_cif.got.tgz:21477.got - 2010.04.14 01:38:03.
