data_PCOD8184223
_publ_section_title
;
Structure prediction by ZEFSAII (Michael W. Deem and Ramdas Pophale) SiO2 
 PCOD8184223
Probable space group: A M A 2
;
_chemical_formula_sum "Si O2"
_cell_formula_units_Z 48
_cell_length_a 21.315835
_cell_length_b 11.943615
_cell_length_c 8.182644
_cell_angle_alpha 90.000000
_cell_angle_beta 90.000000
_cell_angle_gamma 90.000000
_cell_volume 2083.204007
_symmetry_space_group_name_H-M "A M A 2"
_symmetry_group_IT_number 40
_symmetry_cell_setting 'orthorhombic'
loop_
_space_group_symop_operation_xyz
x,y,z
-x,-y,z
1/2-x,y,z
1/2+x,-y,z
x,1/2+y,1/2+z
-x,1/2-y,1/2+z
1/2-x,1/2+y,1/2+z
1/2+x,1/2-y,1/2+z
loop_
_atom_site_type_symbol
_atom_site_label
_atom_site_fract_x
_atom_site_fract_y
_atom_site_fract_z
Si Si1 0.083985 0.762984 0.105810
Si Si2 0.630092 0.350569 0.658623
Si Si3 0.680236 0.124780 0.605149
Si Si4 0.820943 0.557162 0.468257
Si Si5 0.679180 0.894295 0.504363
Si Si6 0.991601 0.871966 0.343363
O O1 0.125771 0.858985 0.026308
O O2 0.132629 0.660898 0.139255
O O3 0.053760 0.813867 0.269354
O O4 0.031083 0.712163 0.984812
O O5 0.631345 0.225446 0.582243
O O6 0.662711 0.434484 0.534343
O O7 0.558596 0.383283 0.695882
O O8 0.668887 0.337781 0.827934
O O9 0.750000 0.173445 0.577064
O O10 0.664044 0.026397 0.475937
O O11 0.676267 0.055859 0.773682
O O12 0.750000 0.590459 0.526739
O O13 0.750000 0.875493 0.564528
O O14 0.000000 0.000000 0.409382
#
# Coordination Sequence:
#
# PCOD8184223 Si02
#       6
#     8   8   8   8   8   8
#     4  11  24  43  66  91 128 170 210 265 312 373
#     4  11  22  41  66  89 129 170 209 260 317 376
#     4  10  21  39  63  95 128 161 204 258 318 375
#     4  11  21  39  68  96 124 163 206 259 323 374
#     4  10  21  41  66  95 130 166 210 264 322 377
#     4  11  24  44  62  91 129 170 218 258 311 380
#
# _framework density 23.041429999999998
#
# number of rings (size 3 to 8) (size 9 to 14) (size 15 to 20)
#    0.000    1.333    5.000    2.000    0.000    4.000 
#    3.000    0.000    0.000    0.000    0.000    0.000 
#    0.000    0.000    0.000    0.000    0.000    0.000 
#
# Total GULP energy -297470.739014 kJ/mol
# GULP energy per Si atom -12394.614126 kJ/mol
# Density = 2.298899 g / cm^3
# Si number density = 23.041430 Si / 1000 Ang^3
#
#
#
# Elastic Constant Matrix: (Units=GPa)
#
#
# Indices 1 2 3 4 5 6 
#
# 1 91.9338 35.9100 15.6535 0.0000 0.0000 0.0000
# 2 35.9100 140.7164 23.1338 0.0000 0.0000 0.0000
# 3 15.6535 23.1338 31.4815 0.0000 0.0000 0.0000
# 4 0.0000 0.0000 0.0000 34.0071 0.0000 0.0000
# 5 0.0000 0.0000 0.0000 0.0000 16.8269 0.0000
# 6 0.0000 0.0000 0.0000 0.0000 0.0000 40.9154
#
#
#
# Elastic Compliance Matrix: (Units=1/GPa)
#
#
# Indices 1 2 3 4 5 6 
#
# 1 0.012605 -0.002487 -0.004440 0.000000 0.000000 0.000000
# 2 -0.002487 0.008574 -0.005064 0.000000 0.000000 0.000000
# 3 -0.004440 -0.005064 0.037693 0.000000 0.000000 0.000000
# 4 0.000000 0.000000 0.000000 0.029406 0.000000 0.000000
# 5 0.000000 0.000000 0.000000 0.000000 0.059429 0.000000
# 6 0.000000 0.000000 0.000000 0.000000 0.000000 0.024441
#
#
# Mechanical properties :
#
#
# Convention : Reuss Voigt Hill
#
# Bulk Modulus (GPa) = 28.66094 45.94734 37.30414
# Shear Modulus (GPa) = 24.06649 30.97886 27.52267
#
# Velocity S-wave (km/s) = 3.23536 3.67070 3.45988
# Velocity P-wave (km/s) = 5.14029 6.16035 5.67329
#
# Compressibility (1/GPa) = 0.03489069
#
# Stress axis : x y z
#
# Youngs Moduli (GPa) = 79.33531 116.63776 26.52984
#
# Poissons Ratio (x) = 0.29004 0.11780
# Poissons Ratio (y) = 0.19728 0.13434
# Poissons Ratio (z) = 0.35226 0.59062
#
# Static dielectric constant tensor:
#      x y z
#    x 4.320570 0.000000 0.000000 
#    y 0.000000 4.319210 0.000000 
#    z 0.000000 0.000000 3.834040 
# 
# 
# High freq. dielectric constant tensor:
#      x y z
#    x 1.918080 0.000000 0.000000 
#    y 0.000000 1.929310 0.000000 
#    z 0.000000 0.000000 1.876540 
# 
# From -- ./inp_files/8715.got.cif
#   From: 2010.03.12/outbox.cif.g09.slc.cpg/sg40_5_cif.got.tgz:8715.got - 2010.04.14 01:38:03.
