data_PCOD8184868
_publ_section_title
;
Structure prediction by ZEFSAII (Michael W. Deem and Ramdas Pophale) SiO2 
 PCOD8184868
Probable space group: A B A 2
;
_chemical_formula_sum "Si O2"
_cell_formula_units_Z 40
_cell_length_a 8.703329
_cell_length_b 22.353384
_cell_length_c 8.702442
_cell_angle_alpha 90.000000
_cell_angle_beta 90.000000
_cell_angle_gamma 90.000000
_cell_volume 1693.050129
_symmetry_space_group_name_H-M "A B A 2"
_symmetry_group_IT_number 41
_symmetry_cell_setting 'orthorhombic'
loop_
_space_group_symop_operation_xyz
x,y,z
-x,-y,z
1/2-x,y,1/2+z
1/2+x,-y,1/2+z
x,1/2+y,1/2+z
-x,1/2-y,1/2+z
1/2-x,1/2+y,z
1/2+x,1/2-y,z
loop_
_atom_site_type_symbol
_atom_site_label
_atom_site_fract_x
_atom_site_fract_y
_atom_site_fract_z
Si Si1 0.239677 0.472707 0.432500
Si Si2 0.119655 0.687332 0.742208
Si Si3 0.551641 0.090363 0.183048
Si Si4 0.193186 0.556422 0.681641
Si Si5 0.939826 0.788210 0.598875
O O1 0.350609 0.437527 0.545842
O O2 0.124680 0.427118 0.346860
O O3 0.143961 0.524738 0.522603
O O4 0.345932 0.508428 0.312417
O O5 0.096135 0.616730 0.709696
O O6 0.289839 0.706653 0.701733
O O7 0.005438 0.722289 0.628986
O O8 0.091598 0.702365 0.919486
O O9 0.376890 0.067850 0.175400
O O10 0.558969 0.161977 0.160938
#
# Coordination Sequence:
#
# PCOD8184868 Si02
#       5
#     8   8   8   8   8
#     4  10  19  38  64  91 128 170 214 266 323 394
#     4  11  24  45  73  98 134 179 226 284 341 409
#     4  10  23  41  62  93 133 171 219 275 333 402
#     4  10  21  41  64  93 130 173 216 268 335 401
#     4  11  25  47  70  99 135 177 229 283 345 406
#
# _framework density 23.626000000000001
#
# number of rings (size 3 to 8) (size 9 to 14) (size 15 to 20)
#    0.000    1.600    0.000    6.000    0.000    4.800 
#    0.000   36.000    0.000    0.000    0.000    0.000 
#    0.000    0.000    0.000    0.000    0.000    0.000 
#
# Total GULP energy -247981.074910 kJ/mol
# GULP energy per Si atom -12399.053745 kJ/mol
# Density = 2.357223 g / cm^3
# Si number density = 23.626000 Si / 1000 Ang^3
#
#
#
# Elastic Constant Matrix: (Units=GPa)
#
#
# Indices 1 2 3 4 5 6 
#
# 1 57.9649 42.7854 38.9943 0.0000 0.0000 0.0000
# 2 42.7854 101.7363 60.4911 0.0000 0.0000 0.0000
# 3 38.9943 60.4911 167.1024 0.0000 0.0000 0.0000
# 4 0.0000 0.0000 0.0000 10.8605 0.0000 0.0000
# 5 0.0000 0.0000 0.0000 0.0000 35.8499 0.0000
# 6 0.0000 0.0000 0.0000 0.0000 0.0000 37.8299
#
#
#
# Elastic Compliance Matrix: (Units=1/GPa)
#
#
# Indices 1 2 3 4 5 6 
#
# 1 0.025927 -0.009310 -0.002680 0.000000 0.000000 0.000000
# 2 -0.009310 0.015868 -0.003572 0.000000 0.000000 0.000000
# 3 -0.002680 -0.003572 0.007903 0.000000 0.000000 0.000000
# 4 0.000000 0.000000 0.000000 0.092077 0.000000 0.000000
# 5 0.000000 0.000000 0.000000 0.000000 0.027894 0.000000
# 6 0.000000 0.000000 0.000000 0.000000 0.000000 0.026434
#
#
# Mechanical properties :
#
#
# Convention : Reuss Voigt Hill
#
# Bulk Modulus (GPa) = 53.83794 67.92726 60.88260
# Shear Modulus (GPa) = 21.42078 29.21023 25.31550
#
# Velocity S-wave (km/s) = 3.01435 3.52000 3.27694
# Velocity P-wave (km/s) = 5.91203 6.73306 6.33586
#
# Compressibility (1/GPa) = 0.01857426
#
# Stress axis : x y z
#
# Youngs Moduli (GPa) = 38.57031 63.01796 126.53863
#
# Poissons Ratio (x) = 0.58670 0.33911
# Poissons Ratio (y) = 0.35909 0.45197
# Poissons Ratio (z) = 0.10336 0.22509
#
# Static dielectric constant tensor:
#      x y z
#    x 4.000220 0.000000 0.000000 
#    y 0.000000 4.996420 0.000000 
#    z 0.000000 0.000000 4.483480 
# 
# 
# High freq. dielectric constant tensor:
#      x y z
#    x 1.924270 0.000000 0.000000 
#    y 0.000000 1.946250 0.000000 
#    z 0.000000 0.000000 1.954690 
# 
# From -- ./inp_files/1712.got.cif
#   From: 2010.03.12/outbox.cif.g09.slc.cpg/sg41_1_cif.got.tgz:1712.got - 2010.04.14 01:55:53.
