data_PCOD8184971
_publ_section_title
;
Structure prediction by ZEFSAII (Michael W. Deem and Ramdas Pophale) SiO2 
 PCOD8184971
Probable space group: A B A 2
;
_chemical_formula_sum "Si O2"
_cell_formula_units_Z 40
_cell_length_a 13.116097
_cell_length_b 8.748443
_cell_length_c 15.955112
_cell_angle_alpha 90.000000
_cell_angle_beta 90.000000
_cell_angle_gamma 90.000000
_cell_volume 1830.776139
_symmetry_space_group_name_H-M "A B A 2"
_symmetry_group_IT_number 41
_symmetry_cell_setting 'orthorhombic'
loop_
_space_group_symop_operation_xyz
x,y,z
-x,-y,z
1/2-x,y,1/2+z
1/2+x,-y,1/2+z
x,1/2+y,1/2+z
-x,1/2-y,1/2+z
1/2-x,1/2+y,z
1/2+x,1/2-y,z
loop_
_atom_site_type_symbol
_atom_site_label
_atom_site_fract_x
_atom_site_fract_y
_atom_site_fract_z
Si Si1 0.000000 0.000000 0.736210
Si Si2 0.601166 0.799422 0.963792
Si Si3 0.500000 0.000000 0.691373
Si Si4 0.069527 0.780099 0.327105
Si Si5 0.930472 0.719900 0.100479
Si Si6 0.786584 0.112140 0.463792
O O1 0.927582 0.106759 0.679814
O O2 0.070729 0.105521 0.795178
O O3 0.531957 0.814137 0.881523
O O4 0.664366 0.639854 0.963793
O O5 0.684819 0.934330 0.963792
O O6 0.531957 0.814139 0.046061
O O7 0.572417 0.106757 0.747770
O O8 0.429272 0.105521 0.632405
O O9 0.170020 0.805062 0.381212
O O10 0.829981 0.694939 0.046372
#
# Coordination Sequence:
#
# PCOD8184971 Si02
#       6
#     4   8   4   8   8   8
#     4  10  20  38  66  86 114 160 188 242 294 346
#     4  11  23  40  61  87 117 156 198 240 284 348
#     4  10  20  38  66  86 114 160 188 242 294 346
#     4  10  21  42  63  83 121 153 197 236 295 340
#     4  10  21  42  63  83 121 153 197 236 295 340
#     4  11  23  40  61  87 117 156 198 240 284 348
#
# _framework density 21.848655999999998
#
# number of rings (size 3 to 8) (size 9 to 14) (size 15 to 20)
#    0.000    1.600    4.000    1.200    5.600    1.600 
#    0.000   12.000    0.000    0.000    0.000    0.000 
#    0.000    0.000    0.000    0.000    0.000    0.000 
#
# Total GULP energy -248061.105581 kJ/mol
# GULP energy per Si atom -12403.055279 kJ/mol
# Density = 2.179893 g / cm^3
# Si number density = 21.848656 Si / 1000 Ang^3
#
#
#
# Elastic Constant Matrix: (Units=GPa)
#
#
# Indices 1 2 3 4 5 6 
#
# 1 63.4544 -0.8290 1.2978 0.0000 0.0000 0.0000
# 2 -0.8290 110.9441 32.7799 0.0000 0.0000 0.0000
# 3 1.2978 32.7799 89.2872 0.0000 0.0000 0.0000
# 4 0.0000 0.0000 0.0000 32.8637 0.0000 0.0000
# 5 0.0000 0.0000 0.0000 0.0000 4.9394 0.0000
# 6 0.0000 0.0000 0.0000 0.0000 0.0000 28.1431
#
#
#
# Elastic Compliance Matrix: (Units=1/GPa)
#
#
# Indices 1 2 3 4 5 6 
#
# 1 0.015768 0.000208 -0.000306 0.000000 0.000000 0.000000
# 2 0.000208 0.010113 -0.003716 0.000000 0.000000 0.000000
# 3 -0.000306 -0.003716 0.012568 0.000000 0.000000 0.000000
# 4 0.000000 0.000000 0.000000 0.030429 0.000000 0.000000
# 5 0.000000 0.000000 0.000000 0.000000 0.202454 0.000000
# 6 0.000000 0.000000 0.000000 0.000000 0.000000 0.035533
#
#
# Mechanical properties :
#
#
# Convention : Reuss Voigt Hill
#
# Bulk Modulus (GPa) = 32.44309 36.68699 34.56504
# Shear Modulus (GPa) = 15.39568 28.55171 21.97370
#
# Velocity S-wave (km/s) = 2.65741 3.61888 3.17475
# Velocity P-wave (km/s) = 4.92920 5.85573 5.41233
#
# Compressibility (1/GPa) = 0.03082320
#
# Stress axis : x y z
#
# Youngs Moduli (GPa) = 63.41827 98.88277 79.56443
#
# Poissons Ratio (x) = -0.02058 0.02431
# Poissons Ratio (y) = -0.01320 0.29564
# Poissons Ratio (z) = 0.01938 0.36743
#
# Static dielectric constant tensor:
#      x y z
#    x 3.402290 0.000000 0.000000 
#    y 0.000000 4.052140 0.000000 
#    z 0.000000 0.000000 4.171780 
# 
# 
# High freq. dielectric constant tensor:
#      x y z
#    x 1.813870 0.000000 0.000000 
#    y 0.000000 1.875620 0.000000 
#    z 0.000000 0.000000 1.874450 
# 
# From -- ./inp_files/8247.got.cif
#   From: 2010.03.12/outbox.cif.g09.slc.cpg/sg41_5_cif.got.tgz:8247.got - 2010.04.14 01:55:53.
