data_PCOD8184928
_publ_section_title
;
Structure prediction by ZEFSAII (Michael W. Deem and Ramdas Pophale) SiO2 
 PCOD8184928
Probable space group: A B A 2
;
_chemical_formula_sum "Si O2"
_cell_formula_units_Z 52
_cell_length_a 16.089580
_cell_length_b 11.879041
_cell_length_c 13.635201
_cell_angle_alpha 90.000000
_cell_angle_beta 90.000000
_cell_angle_gamma 90.000000
_cell_volume 2606.079339
_symmetry_space_group_name_H-M "A B A 2"
_symmetry_group_IT_number 41
_symmetry_cell_setting 'orthorhombic'
loop_
_space_group_symop_operation_xyz
x,y,z
-x,-y,z
1/2-x,y,1/2+z
1/2+x,-y,1/2+z
x,1/2+y,1/2+z
-x,1/2-y,1/2+z
1/2-x,1/2+y,z
1/2+x,1/2-y,z
loop_
_atom_site_type_symbol
_atom_site_label
_atom_site_fract_x
_atom_site_fract_y
_atom_site_fract_z
Si Si1 0.912565 0.384436 0.995570
Si Si2 0.000000 0.000000 0.329963
Si Si3 0.864633 0.166099 0.274096
Si Si4 0.264197 0.971064 0.920935
Si Si5 0.000000 0.000000 0.991628
Si Si6 0.000000 0.000000 0.666186
Si Si7 0.615582 0.419774 0.825315
Si Si8 0.862067 0.148588 0.057804
O O1 0.965997 0.398310 0.897483
O O2 0.837184 0.472816 0.984509
O O3 0.872319 0.262939 0.997669
O O4 0.973560 0.399935 0.090900
O O5 0.932302 0.065202 0.265795
O O6 0.797909 0.132586 0.356110
O O7 0.899033 0.290752 0.294305
O O8 0.825620 0.170931 0.165726
O O9 0.212901 0.053726 0.847035
O O10 0.203678 0.925841 0.002463
O O11 0.064974 0.067351 0.925105
O O12 0.951514 0.087258 0.061032
O O13 0.920179 0.006110 0.740498
#
# Coordination Sequence:
#
# PCOD8184928 Si02
#       8
#     8   4   8   8   4   4   8   8
#     4  10  20  39  60  83 119 156 195 242 295 355
#     4   9  21  37  59  86 116 150 196 246 292 344
#     4  11  21  37  61  85 120 153 196 243 295 350
#     4  10  24  38  58  88 124 152 198 246 298 346
#     4   9  21  37  59  86 116 150 196 246 292 344
#     4  10  20  36  62  86 110 154 206 232 282 364
#     4  10  20  39  60  83 119 156 195 242 295 355
#     4  11  21  37  61  85 120 153 196 243 295 350
#
# _framework density 19.953344000000001
#
# number of rings (size 3 to 8) (size 9 to 14) (size 15 to 20)
#    0.000    1.846    1.538    2.308    2.154    0.000 
#    0.000    0.000    0.000    0.000    0.000    0.000 
#    0.000    0.000    0.000    0.000    0.000    0.000 
#
# Total GULP energy -322107.735065 kJ/mol
# GULP energy per Si atom -12388.759041 kJ/mol
# Density = 1.990793 g / cm^3
# Si number density = 19.953344 Si / 1000 Ang^3
#
#
#
# Elastic Constant Matrix: (Units=GPa)
#
#
# Indices 1 2 3 4 5 6 
#
# 1 73.0891 18.8856 20.6072 0.0000 0.0000 0.0000
# 2 18.8856 79.6951 30.0873 0.0000 0.0000 0.0000
# 3 20.6072 30.0873 86.8563 0.0000 0.0000 0.0000
# 4 0.0000 0.0000 0.0000 11.4402 0.0000 0.0000
# 5 0.0000 0.0000 0.0000 0.0000 21.4985 0.0000
# 6 0.0000 0.0000 0.0000 0.0000 0.0000 19.6169
#
#
#
# Elastic Compliance Matrix: (Units=1/GPa)
#
#
# Indices 1 2 3 4 5 6 
#
# 1 0.015104 -0.002561 -0.002696 0.000000 0.000000 0.000000
# 2 -0.002561 0.014870 -0.004543 0.000000 0.000000 0.000000
# 3 -0.002696 -0.004543 0.013727 0.000000 0.000000 0.000000
# 4 0.000000 0.000000 0.000000 0.087411 0.000000 0.000000
# 5 0.000000 0.000000 0.000000 0.000000 0.046515 0.000000
# 6 0.000000 0.000000 0.000000 0.000000 0.000000 0.050977
#
#
# Mechanical properties :
#
#
# Convention : Reuss Voigt Hill
#
# Bulk Modulus (GPa) = 41.49556 42.08897 41.79227
# Shear Modulus (GPa) = 19.51313 21.84848 20.68080
#
# Velocity S-wave (km/s) = 3.13059 3.31264 3.22290
# Velocity P-wave (km/s) = 5.82314 5.98088 5.90253
#
# Compressibility (1/GPa) = 0.02409896
#
# Stress axis : x y z
#
# Youngs Moduli (GPa) = 66.20781 67.24937 72.85019
#
# Poissons Ratio (x) = 0.17225 0.19642
# Poissons Ratio (y) = 0.16958 0.33098
# Poissons Ratio (z) = 0.17851 0.30554
#
# Static dielectric constant tensor:
#      x y z
#    x 3.815260 0.000000 0.000000 
#    y 0.000000 3.504640 0.000000 
#    z 0.000000 0.000000 3.693850 
# 
# 
# High freq. dielectric constant tensor:
#      x y z
#    x 1.774870 0.000000 0.000000 
#    y 0.000000 1.766840 0.000000 
#    z 0.000000 0.000000 1.788630 
# 
# From -- ./inp_files/8783.got.cif
#   From: 2010.03.12/outbox.cif.g09.slc.cpg/sg41_5_cif.got.tgz:8783.got - 2010.04.14 01:55:53.
