data_PCOD8184469
_publ_section_title
;
Structure prediction by ZEFSAII (Michael W. Deem and Ramdas Pophale) SiO2 
 PCOD8184469
Probable space group: A M A 2
;
_chemical_formula_sum "Si O2"
_cell_formula_units_Z 64
_cell_length_a 17.411276
_cell_length_b 11.624221
_cell_length_c 14.418578
_cell_angle_alpha 90.000000
_cell_angle_beta 90.000000
_cell_angle_gamma 90.000000
_cell_volume 2918.212338
_symmetry_space_group_name_H-M "A M A 2"
_symmetry_group_IT_number 40
_symmetry_cell_setting 'orthorhombic'
loop_
_space_group_symop_operation_xyz
x,y,z
-x,-y,z
1/2-x,y,z
1/2+x,-y,z
x,1/2+y,1/2+z
-x,1/2-y,1/2+z
1/2-x,1/2+y,1/2+z
1/2+x,1/2-y,1/2+z
loop_
_atom_site_type_symbol
_atom_site_label
_atom_site_fract_x
_atom_site_fract_y
_atom_site_fract_z
Si Si1 0.836336 0.053861 0.547930
Si Si2 0.610975 0.240502 0.774241
Si Si3 0.166686 0.502093 0.250832
Si Si4 0.932926 0.771130 0.008194
Si Si5 0.056975 0.693366 0.295078
Si Si6 0.163368 0.177382 0.459635
Si Si7 0.159070 0.572148 0.622299
Si Si8 0.408568 0.820376 0.115538
O O1 0.750000 0.106900 0.537718
O O2 0.843537 0.980181 0.641528
O O3 0.901185 0.150587 0.546920
O O4 0.852398 0.958455 0.470404
O O5 0.669267 0.134597 0.769163
O O6 0.528046 0.185677 0.752424
O O7 0.606293 0.285587 0.878857
O O8 0.634074 0.344130 0.706408
O O9 0.250000 0.550206 0.283438
O O10 0.098153 0.569120 0.302466
O O11 0.867500 0.867167 0.026754
O O12 0.008234 0.805958 0.066758
O O13 0.945350 0.755460 0.898642
O O14 0.100612 0.773396 0.220713
O O15 0.250000 0.197592 0.426262
O O16 0.151290 0.252521 0.551749
O O17 0.250000 0.550933 0.623225
O O18 0.113499 0.453128 0.626485
#
# Coordination Sequence:
#
# PCOD8184469 Si02
#       8
#     8   8   8   8   8   8   8   8
#     4  10  22  44  71  99 137 183 236 289 344 412
#     4  12  25  46  72 104 144 189 239 291 353 428
#     4  11  23  43  72 102 141 186 238 294 349 416
#     4  12  26  46  70 103 143 187 232 292 355 426
#     4  12  27  45  71 108 141 189 236 297 363 427
#     4  11  24  45  72 103 139 187 240 291 349 417
#     4  12  27  47  74 104 142 193 241 292 356 425
#     4  12  26  48  69 102 146 188 232 292 355 431
#
# _framework density 21.931234
#
# number of rings (size 3 to 8) (size 9 to 14) (size 15 to 20)
#    0.000    0.500    5.000    2.625    3.500    3.000 
#    0.000    0.000    0.000    0.000    0.000    0.000 
#    0.000    0.000    0.000    0.000    0.000    0.000 
#
# Total GULP energy -396698.514839 kJ/mol
# GULP energy per Si atom -12396.828589 kJ/mol
# Density = 2.188132 g / cm^3
# Si number density = 21.931234 Si / 1000 Ang^3
#
#
#
# Elastic Constant Matrix: (Units=GPa)
#
#
# Indices 1 2 3 4 5 6 
#
# 1 125.5560 59.9445 29.6485 0.0000 0.0000 0.0000
# 2 59.9445 127.1780 32.4239 0.0000 0.0000 0.0000
# 3 29.6485 32.4239 107.9081 0.0000 0.0000 0.0000
# 4 0.0000 0.0000 0.0000 29.7073 0.0000 0.0000
# 5 0.0000 0.0000 0.0000 0.0000 28.8449 0.0000
# 6 0.0000 0.0000 0.0000 0.0000 0.0000 41.9005
#
#
#
# Elastic Compliance Matrix: (Units=1/GPa)
#
#
# Indices 1 2 3 4 5 6 
#
# 1 0.010501 -0.004564 -0.001514 0.000000 0.000000 0.000000
# 2 -0.004564 0.010499 -0.001901 0.000000 0.000000 0.000000
# 3 -0.001514 -0.001901 0.010254 0.000000 0.000000 0.000000
# 4 0.000000 0.000000 0.000000 0.033662 0.000000 0.000000
# 5 0.000000 0.000000 0.000000 0.000000 0.034668 0.000000
# 6 0.000000 0.000000 0.000000 0.000000 0.000000 0.023866
#
#
# Mechanical properties :
#
#
# Convention : Reuss Voigt Hill
#
# Bulk Modulus (GPa) = 65.37114 67.18622 66.27868
# Shear Modulus (GPa) = 34.60084 35.99887 35.29986
#
# Velocity S-wave (km/s) = 3.97633 4.05587 4.01630
# Velocity P-wave (km/s) = 7.13818 7.25499 7.19682
#
# Compressibility (1/GPa) = 0.01529727
#
# Stress axis : x y z
#
# Youngs Moduli (GPa) = 95.23047 95.25115 97.52065
#
# Poissons Ratio (x) = 0.43468 0.14764
# Poissons Ratio (y) = 0.43459 0.18536
# Poissons Ratio (z) = 0.14417 0.18105
#
# Static dielectric constant tensor:
#      x y z
#    x 4.028030 0.000000 0.000000 
#    y 0.000000 3.835730 0.000000 
#    z 0.000000 0.000000 3.987520 
# 
# 
# High freq. dielectric constant tensor:
#      x y z
#    x 1.872930 0.000000 0.000000 
#    y 0.000000 1.862520 0.000000 
#    z 0.000000 0.000000 1.864360 
# 
# From -- ./inp_files/17890.got.cif
#   From: 2010.03.12/outbox.cif.g09.slc.cpg/sg40_9_cif.got.tgz:17890.got - 2010.04.14 01:38:03.
