data_PCOD8184137
_publ_section_title
;
Structure prediction by ZEFSAII (Michael W. Deem and Ramdas Pophale) SiO2 
 PCOD8184137
Probable space group: A M A 2
;
_chemical_formula_sum "Si O2"
_cell_formula_units_Z 64
_cell_length_a 14.986649
_cell_length_b 17.432520
_cell_length_c 11.510903
_cell_angle_alpha 90.000000
_cell_angle_beta 90.000000
_cell_angle_gamma 90.000000
_cell_volume 3007.281636
_symmetry_space_group_name_H-M "A M A 2"
_symmetry_group_IT_number 40
_symmetry_cell_setting 'orthorhombic'
loop_
_space_group_symop_operation_xyz
x,y,z
-x,-y,z
1/2-x,y,z
1/2+x,-y,z
x,1/2+y,1/2+z
-x,1/2-y,1/2+z
1/2-x,1/2+y,1/2+z
1/2+x,1/2-y,1/2+z
loop_
_atom_site_type_symbol
_atom_site_label
_atom_site_fract_x
_atom_site_fract_y
_atom_site_fract_z
Si Si1 0.419590 0.550589 0.492910
Si Si2 0.587653 0.318339 0.320799
Si Si3 0.351139 0.580834 0.126356
Si Si4 0.349161 0.620990 0.725118
Si Si5 0.907035 0.709410 0.218174
Si Si6 0.351036 0.451750 0.291682
Si Si7 0.352665 0.820925 0.458962
Si Si8 0.479110 0.084242 0.422848
O O1 0.500000 0.500000 0.545778
O O2 0.454730 0.617063 0.406161
O O3 0.364045 0.591661 0.594048
O O4 0.361798 0.490636 0.417606
O O5 0.653747 0.356026 0.227990
O O6 0.509505 0.273483 0.251621
O O7 0.647257 0.260516 0.395623
O O8 0.250000 0.569637 0.078002
O O9 0.393341 0.503063 0.185819
O O10 0.415656 0.615706 0.026439
O O11 0.250000 0.595207 0.762556
O O12 0.351970 0.713238 0.739890
O O13 0.423381 0.582423 0.804469
O O14 0.881365 0.636517 0.297144
O O15 0.891228 0.685174 0.087138
O O16 0.250000 0.452593 0.255989
O O17 0.250000 0.852771 0.457136
O O18 0.425919 0.875015 0.397826
O O19 0.500000 0.000000 0.463354
#
# Coordination Sequence:
#
# PCOD8184137 Si02
#       8
#     8   8   8   8   8   8   8   8
#     4  11  22  40  66  95 134 181 229 284 347 412
#     4  11  22  40  68 100 135 173 225 281 344 412
#     4  10  22  40  66  97 133 171 216 278 341 401
#     4  12  26  43  66  95 134 184 231 279 344 413
#     4  12  22  40  66  99 132 174 224 279 340 409
#     4  10  21  37  63  99 130 165 220 285 345 405
#     4  12  25  43  69 101 139 179 223 282 350 419
#     4  12  26  44  67  93 131 178 232 280 336 407
#
# _framework density 21.281679
#
# number of rings (size 3 to 8) (size 9 to 14) (size 15 to 20)
#    0.000    0.750    5.000    3.375    0.000    3.000 
#    0.000    0.000    0.000    0.000    0.000    0.000 
#    0.000    0.000    0.000    0.000    0.000    0.000 
#
# Total GULP energy -396550.692194 kJ/mol
# GULP energy per Si atom -12392.209131 kJ/mol
# Density = 2.123324 g / cm^3
# Si number density = 21.281679 Si / 1000 Ang^3
#
#
#
# Elastic Constant Matrix: (Units=GPa)
#
#
# Indices 1 2 3 4 5 6 
#
# 1 132.8477 25.9327 41.2428 0.0000 0.0000 0.0000
# 2 25.9327 89.3848 28.5679 0.0000 0.0000 0.0000
# 3 41.2428 28.5679 97.3790 0.0000 0.0000 0.0000
# 4 0.0000 0.0000 0.0000 10.1651 0.0000 0.0000
# 5 0.0000 0.0000 0.0000 0.0000 9.8496 0.0000
# 6 0.0000 0.0000 0.0000 0.0000 0.0000 20.7845
#
#
#
# Elastic Compliance Matrix: (Units=1/GPa)
#
#
# Indices 1 2 3 4 5 6 
#
# 1 0.008848 -0.001511 -0.003304 0.000000 0.000000 0.000000
# 2 -0.001511 0.012603 -0.003057 0.000000 0.000000 0.000000
# 3 -0.003304 -0.003057 0.012565 0.000000 0.000000 0.000000
# 4 0.000000 0.000000 0.000000 0.098376 0.000000 0.000000
# 5 0.000000 0.000000 0.000000 0.000000 0.101527 0.000000
# 6 0.000000 0.000000 0.000000 0.000000 0.000000 0.048113
#
#
# Mechanical properties :
#
#
# Convention : Reuss Voigt Hill
#
# Bulk Modulus (GPa) = 54.72969 56.78870 55.75919
# Shear Modulus (GPa) = 16.45448 23.08438 19.76943
#
# Velocity S-wave (km/s) = 2.78362 3.29706 3.05116
# Velocity P-wave (km/s) = 6.00866 6.42156 6.21854
#
# Compressibility (1/GPa) = 0.01827162
#
# Stress axis : x y z
#
# Youngs Moduli (GPa) = 113.01785 79.34541 79.58303
#
# Poissons Ratio (x) = 0.11989 0.26295
# Poissons Ratio (y) = 0.17077 0.24332
# Poissons Ratio (z) = 0.37343 0.24259
#
# Static dielectric constant tensor:
#      x y z
#    x 3.865860 0.000000 0.000000 
#    y 0.000000 4.158630 0.000000 
#    z 0.000000 0.000000 3.793810 
# 
# 
# High freq. dielectric constant tensor:
#      x y z
#    x 1.838870 0.000000 0.000000 
#    y 0.000000 1.830560 0.000000 
#    z 0.000000 0.000000 1.827320 
# 
# From -- ./inp_files/12487.got.cif
#   From: 2010.03.12/outbox.cif.g09.slc.cpg/sg40_7_cif.got.tgz:12487.got - 2010.04.14 01:38:03.
