data_PCOD8184400
_publ_section_title
;
Structure prediction by ZEFSAII (Michael W. Deem and Ramdas Pophale) SiO2 
 PCOD8184400
Probable space group: A M A 2
;
_chemical_formula_sum "Si O2"
_cell_formula_units_Z 44
_cell_length_a 15.211043
_cell_length_b 16.045456
_cell_length_c 9.141861
_cell_angle_alpha 90.000000
_cell_angle_beta 90.000000
_cell_angle_gamma 90.000000
_cell_volume 2231.236838
_symmetry_space_group_name_H-M "A M A 2"
_symmetry_group_IT_number 40
_symmetry_cell_setting 'orthorhombic'
loop_
_space_group_symop_operation_xyz
x,y,z
-x,-y,z
1/2-x,y,z
1/2+x,-y,z
x,1/2+y,1/2+z
-x,1/2-y,1/2+z
1/2-x,1/2+y,1/2+z
1/2+x,1/2-y,1/2+z
loop_
_atom_site_type_symbol
_atom_site_label
_atom_site_fract_x
_atom_site_fract_y
_atom_site_fract_z
Si Si1 0.846608 0.791765 0.035210
Si Si2 0.349123 0.527635 0.408588
Si Si3 0.154509 0.136037 0.342442
Si Si4 0.904795 0.529231 0.701026
Si Si5 0.500000 0.000000 0.678509
Si Si6 0.532582 0.141910 0.451584
O O1 0.750000 0.761792 0.980870
O O2 0.845736 0.799952 0.208864
O O3 0.870105 0.881345 0.970835
O O4 0.920947 0.726926 0.992867
O O5 0.250000 0.520371 0.347493
O O6 0.358477 0.459335 0.541779
O O7 0.415555 0.518337 0.275963
O O8 0.250000 0.144575 0.423576
O O9 0.071415 0.161477 0.439695
O O10 0.147053 0.039613 0.294276
O O11 0.918840 0.610979 0.802258
O O12 0.000000 0.500000 0.654486
O O13 0.537257 0.073866 0.578357
#
# Coordination Sequence:
#
# PCOD8184400 Si02
#       6
#     8   8   8   8   4   8
#     4   9  21  39  62  86 115 158 201 246 303 355
#     4  10  22  41  62  84 119 165 199 242 304 370
#     4   9  18  36  59  83 116 159 196 235 297 362
#     4   9  16  36  60  85 112 150 205 238 287 357
#     4  12  24  38  56  96 128 154 196 252 310 354
#     4  11  22  37  62  95 119 154 201 258 299 349
#
# _framework density 19.720003999999999
#
# number of rings (size 3 to 8) (size 9 to 14) (size 15 to 20)
#    0.000    2.182    3.636    1.636    2.545    2.909 
#    0.000    0.000    0.000    0.000    0.000    0.000 
#    0.000    0.000    0.000    0.000    0.000    0.000 
#
# Total GULP energy -272547.299647 kJ/mol
# GULP energy per Si atom -12388.513620 kJ/mol
# Density = 1.967512 g / cm^3
# Si number density = 19.720004 Si / 1000 Ang^3
#
#
#
# Elastic Constant Matrix: (Units=GPa)
#
#
# Indices 1 2 3 4 5 6 
#
# 1 130.0576 49.0818 35.8066 0.0000 0.0000 0.0000
# 2 49.0818 60.3098 29.0628 0.0000 0.0000 0.0000
# 3 35.8066 29.0628 72.9872 0.0000 0.0000 0.0000
# 4 0.0000 0.0000 0.0000 21.1528 0.0000 0.0000
# 5 0.0000 0.0000 0.0000 0.0000 22.7261 0.0000
# 6 0.0000 0.0000 0.0000 0.0000 0.0000 31.1212
#
#
#
# Elastic Compliance Matrix: (Units=1/GPa)
#
#
# Indices 1 2 3 4 5 6 
#
# 1 0.011414 -0.008156 -0.002352 0.000000 0.000000 0.000000
# 2 -0.008156 0.026346 -0.006489 0.000000 0.000000 0.000000
# 3 -0.002352 -0.006489 0.017439 0.000000 0.000000 0.000000
# 4 0.000000 0.000000 0.000000 0.047275 0.000000 0.000000
# 5 0.000000 0.000000 0.000000 0.000000 0.044002 0.000000
# 6 0.000000 0.000000 0.000000 0.000000 0.000000 0.032132
#
#
# Mechanical properties :
#
#
# Convention : Reuss Voigt Hill
#
# Bulk Modulus (GPa) = 47.16056 54.58412 50.87234
# Shear Modulus (GPa) = 22.76122 24.96025 23.86073
#
# Velocity S-wave (km/s) = 3.40107 3.56157 3.48224
# Velocity P-wave (km/s) = 6.27615 6.68227 6.48239
#
# Compressibility (1/GPa) = 0.02120416
#
# Stress axis : x y z
#
# Youngs Moduli (GPa) = 87.60883 37.95682 57.34262
#
# Poissons Ratio (x) = 0.30957 0.13488
# Poissons Ratio (y) = 0.71452 0.37212
# Poissons Ratio (z) = 0.20607 0.24632
#
# Static dielectric constant tensor:
#      x y z
#    x 4.483550 0.000000 0.000000 
#    y 0.000000 3.424590 0.000000 
#    z 0.000000 0.000000 3.581110 
# 
# 
# High freq. dielectric constant tensor:
#      x y z
#    x 1.789530 0.000000 0.000000 
#    y 0.000000 1.736270 0.000000 
#    z 0.000000 0.000000 1.757380 
# 
# From -- ./inp_files/6376.got.cif
#   From: 2010.03.12/outbox.cif.g09.slc.cpg/sg40_4_cif.got.tgz:6376.got - 2010.04.14 01:38:03.
