data_PCOD8184301
_publ_section_title
;
Structure prediction by ZEFSAII (Michael W. Deem and Ramdas Pophale) SiO2 
 PCOD8184301
Probable space group: A M A 2
;
_chemical_formula_sum "Si O2"
_cell_formula_units_Z 60
_cell_length_a 27.606820
_cell_length_b 9.287013
_cell_length_c 11.570391
_cell_angle_alpha 90.000000
_cell_angle_beta 90.000000
_cell_angle_gamma 90.000000
_cell_volume 2966.473496
_symmetry_space_group_name_H-M "A M A 2"
_symmetry_group_IT_number 40
_symmetry_cell_setting 'orthorhombic'
loop_
_space_group_symop_operation_xyz
x,y,z
-x,-y,z
1/2-x,y,z
1/2+x,-y,z
x,1/2+y,1/2+z
-x,1/2-y,1/2+z
1/2-x,1/2+y,1/2+z
1/2+x,1/2-y,1/2+z
loop_
_atom_site_type_symbol
_atom_site_label
_atom_site_fract_x
_atom_site_fract_y
_atom_site_fract_z
Si Si1 0.989970 0.341706 0.854780
Si Si2 0.693384 0.510585 0.678196
Si Si3 0.936699 0.396002 0.442611
Si Si4 0.695965 0.531730 0.932746
Si Si5 0.804764 0.199227 0.960807
Si Si6 0.000000 0.500000 0.635616
Si Si7 0.861570 0.742155 0.083865
Si Si8 0.599631 0.161123 0.817489
O O1 0.003959 0.358843 0.718489
O O2 0.933601 0.292298 0.867923
O O3 0.000000 0.500000 0.914334
O O4 0.021996 0.216439 0.908880
O O5 0.750000 0.487284 0.693550
O O6 0.680504 0.632080 0.584624
O O7 0.673098 0.357107 0.642647
O O8 0.671875 0.551027 0.804914
O O9 0.952644 0.487372 0.555551
O O10 0.888555 0.311554 0.474971
O O11 0.926351 0.508151 0.340119
O O12 0.750000 0.595084 0.928161
O O13 0.695997 0.368460 0.974518
O O14 0.668173 0.611865 0.032808
O O15 0.750000 0.145545 0.924188
O O16 0.845975 0.155999 0.869089
O O17 0.898026 0.679305 0.179661
#
# Coordination Sequence:
#
# PCOD8184301 Si02
#       8
#     8   8   8   8   8   4   8   8
#     4  10  24  44  67  95 126 168 219 266 325 389
#     4  10  21  42  66  89 132 178 218 267 322 386
#     4  12  24  45  64  96 133 165 216 275 323 388
#     4  10  23  41  64  94 132 171 219 273 319 383
#     4  10  22  41  65  95 130 174 217 267 325 381
#     4  10  22  46  68  88 128 168 210 276 318 386
#     4  12  24  39  65 100 127 169 222 260 330 390
#     4  12  23  42  68  97 130 175 211 268 332 389
#
# _framework density 20.226035
#
# number of rings (size 3 to 8) (size 9 to 14) (size 15 to 20)
#    0.400    0.800    5.333    0.400    1.867    2.667 
#    4.800    0.000    0.000    0.000    0.000    0.000 
#    0.000    0.000    0.000    0.000    0.000    0.000 
#
# Total GULP energy -371858.592098 kJ/mol
# GULP energy per Si atom -12395.286403 kJ/mol
# Density = 2.018000 g / cm^3
# Si number density = 20.226035 Si / 1000 Ang^3
#
#
#
# Elastic Constant Matrix: (Units=GPa)
#
#
# Indices 1 2 3 4 5 6 
#
# 1 73.7183 43.5488 22.4932 0.0000 0.0000 0.0000
# 2 43.5488 92.5100 48.1663 0.0000 0.0000 0.0000
# 3 22.4932 48.1663 88.4441 0.0000 0.0000 0.0000
# 4 0.0000 0.0000 0.0000 37.6649 0.0000 0.0000
# 5 0.0000 0.0000 0.0000 0.0000 38.3634 0.0000
# 6 0.0000 0.0000 0.0000 0.0000 0.0000 45.1536
#
#
#
# Elastic Compliance Matrix: (Units=1/GPa)
#
#
# Indices 1 2 3 4 5 6 
#
# 1 0.018791 -0.008874 0.000054 0.000000 0.000000 0.000000
# 2 -0.008874 0.019278 -0.008242 0.000000 0.000000 0.000000
# 3 0.000054 -0.008242 0.015782 0.000000 0.000000 0.000000
# 4 0.000000 0.000000 0.000000 0.026550 0.000000 0.000000
# 5 0.000000 0.000000 0.000000 0.000000 0.026067 0.000000
# 6 0.000000 0.000000 0.000000 0.000000 0.000000 0.022147
#
#
# Mechanical properties :
#
#
# Convention : Reuss Voigt Hill
#
# Bulk Modulus (GPa) = 50.69341 53.67653 52.18497
# Shear Modulus (GPa) = 29.53104 33.60065 31.56585
#
# Velocity S-wave (km/s) = 3.82521 4.08027 3.95480
# Velocity P-wave (km/s) = 6.68038 6.98528 6.83453
#
# Compressibility (1/GPa) = 0.01972643
#
# Stress axis : x y z
#
# Youngs Moduli (GPa) = 53.21733 51.87199 63.36519
#
# Poissons Ratio (x) = 0.46030 -0.00340
# Poissons Ratio (y) = 0.47223 0.52226
# Poissons Ratio (z) = -0.00286 0.42753
#
# Static dielectric constant tensor:
#      x y z
#    x 3.788290 0.000000 0.000000 
#    y 0.000000 3.635190 0.000000 
#    z 0.000000 0.000000 3.753570 
# 
# 
# High freq. dielectric constant tensor:
#      x y z
#    x 1.794450 0.000000 0.000000 
#    y 0.000000 1.786590 0.000000 
#    z 0.000000 0.000000 1.785560 
# 
# From -- ./inp_files/14245.got.cif
#   From: 2010.03.12/outbox.cif.g09.slc.cpg/sg40_8_cif.got.tgz:14245.got - 2010.04.14 01:38:03.
