data_PCOD8184346
_publ_section_title
;
Structure prediction by ZEFSAII (Michael W. Deem and Ramdas Pophale) SiO2 
 PCOD8184346
Probable space group: A M A 2
;
_chemical_formula_sum "Si O2"
_cell_formula_units_Z 36
_cell_length_a 9.306617
_cell_length_b 11.902910
_cell_length_c 15.114607
_cell_angle_alpha 90.000000
_cell_angle_beta 90.000000
_cell_angle_gamma 90.000000
_cell_volume 1674.333053
_symmetry_space_group_name_H-M "A M A 2"
_symmetry_group_IT_number 40
_symmetry_cell_setting 'orthorhombic'
loop_
_space_group_symop_operation_xyz
x,y,z
-x,-y,z
1/2-x,y,z
1/2+x,-y,z
x,1/2+y,1/2+z
-x,1/2-y,1/2+z
1/2-x,1/2+y,1/2+z
1/2+x,1/2-y,1/2+z
loop_
_atom_site_type_symbol
_atom_site_label
_atom_site_fract_x
_atom_site_fract_y
_atom_site_fract_z
Si Si1 0.922493 0.109493 0.465750
Si Si2 0.409232 0.652184 0.791889
Si Si3 0.588975 0.178155 0.005535
Si Si4 0.500000 0.000000 0.142927
Si Si5 0.912492 0.102847 0.811539
O O1 0.750000 0.101161 0.471335
O O2 0.971474 0.114193 0.362718
O O3 0.977553 0.218970 0.519512
O O4 0.000000 0.000000 0.508103
O O5 0.250000 0.652300 0.836948
O O6 0.398489 0.573261 0.706429
O O7 0.446082 0.779873 0.761333
O O8 0.750000 0.227434 0.999574
O O9 0.588007 0.087016 0.083514
O O10 0.546248 0.117410 0.914526
O O11 0.750000 0.065896 0.799621
O O12 0.000000 0.000000 0.769246
#
# Coordination Sequence:
#
# PCOD8184346 Si02
#       5
#     8   8   8   4   8
#     4  11  22  39  64  90 120 164 212 259 310 376
#     4  10  22  38  59  90 127 163 205 258 310 369
#     4  10  22  38  59  90 127 163 207 261 313 372
#     4  12  22  38  66  94 128 168 206 256 316 374
#     4   9  18  36  58  84 117 157 203 251 296 358
#
# _framework density 21.501099
#
# number of rings (size 3 to 8) (size 9 to 14) (size 15 to 20)
#    0.000    1.778    2.222    4.000    0.000    6.222 
#    0.000    1.111    0.000    2.667    0.000    0.000 
#    0.000    0.000    0.000    0.000    0.000    0.000 
#
# Total GULP energy -223072.038764 kJ/mol
# GULP energy per Si atom -12392.891042 kJ/mol
# Density = 2.145216 g / cm^3
# Si number density = 21.501099 Si / 1000 Ang^3
#
#
#
# Elastic Constant Matrix: (Units=GPa)
#
#
# Indices 1 2 3 4 5 6 
#
# 1 137.2754 75.6131 13.2951 0.0000 0.0000 0.0000
# 2 75.6131 183.8040 46.0146 0.0000 0.0000 0.0000
# 3 13.2951 46.0146 69.4466 0.0000 0.0000 0.0000
# 4 0.0000 0.0000 0.0000 48.5010 0.0000 0.0000
# 5 0.0000 0.0000 0.0000 0.0000 8.2327 0.0000
# 6 0.0000 0.0000 0.0000 0.0000 0.0000 37.2911
#
#
#
# Elastic Compliance Matrix: (Units=1/GPa)
#
#
# Indices 1 2 3 4 5 6 
#
# 1 0.009468 -0.004125 0.000921 0.000000 0.000000 0.000000
# 2 -0.004125 0.008320 -0.004723 0.000000 0.000000 0.000000
# 3 0.000921 -0.004723 0.017353 0.000000 0.000000 0.000000
# 4 0.000000 0.000000 0.000000 0.020618 0.000000 0.000000
# 5 0.000000 0.000000 0.000000 0.000000 0.121467 0.000000
# 6 0.000000 0.000000 0.000000 0.000000 0.000000 0.026816
#
#
# Mechanical properties :
#
#
# Convention : Reuss Voigt Hill
#
# Bulk Modulus (GPa) = 51.85243 73.37460 62.61352
# Shear Modulus (GPa) = 22.09210 35.84518 28.96864
#
# Velocity S-wave (km/s) = 3.20892 4.08748 3.67455
# Velocity P-wave (km/s) = 6.15614 7.51510 6.86931
#
# Compressibility (1/GPa) = 0.01928550
#
# Stress axis : x y z
#
# Youngs Moduli (GPa) = 105.62174 120.19147 57.62802
#
# Poissons Ratio (x) = 0.49583 -0.05307
# Poissons Ratio (y) = 0.43573 0.27218
# Poissons Ratio (z) = -0.09727 0.56767
#
# Static dielectric constant tensor:
#      x y z
#    x 3.633930 0.000000 0.000000 
#    y 0.000000 4.238730 0.000000 
#    z 0.000000 0.000000 3.486620 
# 
# 
# High freq. dielectric constant tensor:
#      x y z
#    x 1.836260 0.000000 0.000000 
#    y 0.000000 1.868690 0.000000 
#    z 0.000000 0.000000 1.803490 
# 
# From -- ./inp_files/14751.got.cif
#   From: 2010.03.12/outbox.cif.g09.slc.cpg/sg40_8_cif.got.tgz:14751.got - 2010.04.14 01:38:03.
