data_PCOD8184878
_publ_section_title
;
Structure prediction by ZEFSAII (Michael W. Deem and Ramdas Pophale) SiO2 
 PCOD8184878
Probable space group: A B A 2
;
_chemical_formula_sum "Si O2"
_cell_formula_units_Z 56
_cell_length_a 14.114588
_cell_length_b 15.727509
_cell_length_c 10.423623
_cell_angle_alpha 90.000000
_cell_angle_beta 90.000000
_cell_angle_gamma 90.000000
_cell_volume 2313.912028
_symmetry_space_group_name_H-M "A B A 2"
_symmetry_group_IT_number 41
_symmetry_cell_setting 'orthorhombic'
loop_
_space_group_symop_operation_xyz
x,y,z
-x,-y,z
1/2-x,y,1/2+z
1/2+x,-y,1/2+z
x,1/2+y,1/2+z
-x,1/2-y,1/2+z
1/2-x,1/2+y,z
1/2+x,1/2-y,z
loop_
_atom_site_type_symbol
_atom_site_label
_atom_site_fract_x
_atom_site_fract_y
_atom_site_fract_z
Si Si1 0.906581 0.747266 0.479200
Si Si2 0.420340 0.561131 0.418969
Si Si3 0.626910 0.822408 0.226500
Si Si4 0.888646 0.794255 0.006786
Si Si5 0.401086 0.534654 0.125468
Si Si6 0.799648 0.997527 0.633269
Si Si7 0.399274 0.835897 0.220210
O O1 0.943792 0.842737 0.454893
O O2 0.842187 0.757767 0.609082
O O3 0.857791 0.705288 0.353799
O O4 0.998248 0.691873 0.511008
O O5 0.500000 0.500000 0.477559
O O6 0.423203 0.562132 0.268035
O O7 0.326165 0.523985 0.485516
O O8 0.651857 0.777986 0.362920
O O9 0.513271 0.836935 0.220593
O O10 0.682405 0.911623 0.216668
O O11 0.853713 0.886337 0.051519
O O12 0.857208 0.719859 0.102826
O O13 0.500000 0.500000 0.063323
O O14 0.310761 0.470772 0.129961
O O15 0.860938 0.069463 0.703208
#
# Coordination Sequence:
#
# PCOD8184878 Si02
#       7
#     8   8   8   8   8   8   8
#     4   9  18  37  68 102 133 175 221 279 348 404
#     4  10  20  42  72  97 136 186 229 278 350 425
#     4   9  20  37  70 104 135 178 220 278 352 406
#     4  10  20  38  68  99 139 174 224 286 344 402
#     4  11  26  44  67  94 141 186 232 287 349 413
#     4  11  23  41  70  98 133 182 237 276 337 419
#     4  10  19  39  70 104 137 171 226 286 339 411
#
# _framework density 24.201438
#
# number of rings (size 3 to 8) (size 9 to 14) (size 15 to 20)
#    0.000    2.000    1.429    3.000    2.000    2.286 
#    0.000    4.286   12.571    0.000    0.000    0.000 
#    0.000    0.000    0.000    0.000    0.000    0.000 
#
# Total GULP energy -346878.474850 kJ/mol
# GULP energy per Si atom -12388.516959 kJ/mol
# Density = 2.414635 g / cm^3
# Si number density = 24.201438 Si / 1000 Ang^3
#
#
#
# Elastic Constant Matrix: (Units=GPa)
#
#
# Indices 1 2 3 4 5 6 
#
# 1 92.8266 14.5501 6.1064 0.0000 0.0000 0.0000
# 2 14.5501 84.6470 42.5548 0.0000 0.0000 0.0000
# 3 6.1064 42.5548 167.9410 0.0000 0.0000 0.0000
# 4 0.0000 0.0000 0.0000 21.1620 0.0000 0.0000
# 5 0.0000 0.0000 0.0000 0.0000 6.2929 0.0000
# 6 0.0000 0.0000 0.0000 0.0000 0.0000 2.1232
#
#
#
# Elastic Compliance Matrix: (Units=1/GPa)
#
#
# Indices 1 2 3 4 5 6 
#
# 1 0.011072 -0.001949 0.000091 0.000000 0.000000 0.000000
# 2 -0.001949 0.013882 -0.003447 0.000000 0.000000 0.000000
# 3 0.000091 -0.003447 0.006824 0.000000 0.000000 0.000000
# 4 0.000000 0.000000 0.000000 0.047255 0.000000 0.000000
# 5 0.000000 0.000000 0.000000 0.000000 0.158908 0.000000
# 6 0.000000 0.000000 0.000000 0.000000 0.000000 0.470996
#
#
# Mechanical properties :
#
#
# Convention : Reuss Voigt Hill
#
# Bulk Modulus (GPa) = 47.23788 52.42635 49.83212
# Shear Modulus (GPa) = 6.88134 24.72916 15.80525
#
# Velocity S-wave (km/s) = 1.68806 3.20004 2.55830
# Velocity P-wave (km/s) = 4.83326 5.94669 5.41865
#
# Compressibility (1/GPa) = 0.02116945
#
# Stress axis : x y z
#
# Youngs Moduli (GPa) = 90.31559 72.03822 146.53111
#
# Poissons Ratio (x) = 0.14041 -0.01338
# Poissons Ratio (y) = 0.17604 0.50503
# Poissons Ratio (z) = -0.00825 0.24829
#
# Static dielectric constant tensor:
#      x y z
#    x 4.376400 0.000000 0.000000 
#    y 0.000000 4.244950 0.000000 
#    z 0.000000 0.000000 4.897370 
# 
# 
# High freq. dielectric constant tensor:
#      x y z
#    x 1.943390 0.000000 0.000000 
#    y 0.000000 1.944390 0.000000 
#    z 0.000000 0.000000 1.975180 
# 
# From -- ./inp_files/5589.got.cif
#   From: 2010.03.12/outbox.cif.g09.slc.cpg/sg41_3_cif.got.tgz:5589.got - 2010.04.14 01:55:53.
