data_PCOD8184009
_publ_section_title
;
Structure prediction by ZEFSAII (Michael W. Deem and Ramdas Pophale) SiO2 
 PCOD8184009
Probable space group: A M A 2
;
_chemical_formula_sum "Si O2"
_cell_formula_units_Z 44
_cell_length_a 22.886264
_cell_length_b 11.883675
_cell_length_c 8.140797
_cell_angle_alpha 90.000000
_cell_angle_beta 90.000000
_cell_angle_gamma 90.000000
_cell_volume 2214.076358
_symmetry_space_group_name_H-M "A M A 2"
_symmetry_group_IT_number 40
_symmetry_cell_setting 'orthorhombic'
loop_
_space_group_symop_operation_xyz
x,y,z
-x,-y,z
1/2-x,y,z
1/2+x,-y,z
x,1/2+y,1/2+z
-x,1/2-y,1/2+z
1/2-x,1/2+y,1/2+z
1/2+x,1/2-y,1/2+z
loop_
_atom_site_type_symbol
_atom_site_label
_atom_site_fract_x
_atom_site_fract_y
_atom_site_fract_z
Si Si1 0.065874 0.705084 0.922340
Si Si2 0.750000 0.325984 0.243500
Si Si3 0.750000 0.497329 0.547249
Si Si4 0.620770 0.025003 0.410627
Si Si5 0.845150 0.669700 0.643720
Si Si6 0.030898 0.888601 0.659171
Si Si7 0.250000 0.544335 0.912242
O O1 0.093783 0.592526 0.845660
O O2 0.045413 0.796958 0.793684
O O3 0.119674 0.754279 0.020901
O O4 0.010162 0.671905 0.028310
O O5 0.750000 0.423309 0.381021
O O6 0.806977 0.249257 0.263948
O O7 0.750000 0.358880 0.048874
O O8 0.806763 0.577567 0.545334
O O9 0.750000 0.421144 0.716214
O O10 0.607811 0.109121 0.260802
O O11 0.590499 0.069015 0.575525
O O12 0.690676 0.025949 0.442684
O O13 0.000000 0.000000 0.736139
#
# Coordination Sequence:
#
# PCOD8184009 Si02
#       7
#     8   4   4   8   8   8   4
#     4  11  22  40  62  87 122 160 206 260 312 374
#     4  11  21  41  63  88 137 166 205 269 311 378
#     4   9  23  37  59  94 123 170 215 253 329 380
#     4  10  22  41  60  89 126 157 205 261 308 366
#     4  10  22  39  59  91 123 160 216 259 307 391
#     4  10  24  40  61  91 119 163 209 253 319 371
#     4  10  20  40  62  90 130 162 208 260 304 376
#
# _framework density 19.872848000000001
#
# number of rings (size 3 to 8) (size 9 to 14) (size 15 to 20)
#    0.000    1.818    1.818    1.636    2.545    4.364 
#    0.000    2.727    0.000    0.000    0.000    0.000 
#    0.000    0.000    0.000    0.000    0.000    0.000 
#
# Total GULP energy -272635.021405 kJ/mol
# GULP energy per Si atom -12392.500973 kJ/mol
# Density = 1.982762 g / cm^3
# Si number density = 19.872848 Si / 1000 Ang^3
#
#
#
# Elastic Constant Matrix: (Units=GPa)
#
#
# Indices 1 2 3 4 5 6 
#
# 1 105.6814 36.4504 31.9203 0.0000 0.0000 0.0000
# 2 36.4504 122.7064 51.6893 0.0000 0.0000 0.0000
# 3 31.9203 51.6893 67.3741 0.0000 0.0000 0.0000
# 4 0.0000 0.0000 0.0000 44.0177 0.0000 0.0000
# 5 0.0000 0.0000 0.0000 0.0000 14.2436 0.0000
# 6 0.0000 0.0000 0.0000 0.0000 0.0000 33.8765
#
#
#
# Elastic Compliance Matrix: (Units=1/GPa)
#
#
# Indices 1 2 3 4 5 6 
#
# 1 0.011257 -0.001621 -0.004089 0.000000 0.000000 0.000000
# 2 -0.001621 0.012274 -0.008649 0.000000 0.000000 0.000000
# 3 -0.004089 -0.008649 0.023415 0.000000 0.000000 0.000000
# 4 0.000000 0.000000 0.000000 0.022718 0.000000 0.000000
# 5 0.000000 0.000000 0.000000 0.000000 0.070207 0.000000
# 6 0.000000 0.000000 0.000000 0.000000 0.000000 0.029519
#
#
# Mechanical properties :
#
#
# Convention : Reuss Voigt Hill
#
# Bulk Modulus (GPa) = 54.86181 59.54246 57.20213
# Shear Modulus (GPa) = 24.48756 30.14102 27.31429
#
# Velocity S-wave (km/s) = 3.51410 3.89870 3.71138
# Velocity P-wave (km/s) = 6.64315 7.09177 6.87113
#
# Compressibility (1/GPa) = 0.01822762
#
# Stress axis : x y z
#
# Youngs Moduli (GPa) = 88.83561 81.47047 42.70709
#
# Poissons Ratio (x) = 0.13208 0.17465
# Poissons Ratio (y) = 0.14402 0.36936
# Poissons Ratio (z) = 0.36328 0.70462
#
# Static dielectric constant tensor:
#      x y z
#    x 3.663170 0.000000 0.000000 
#    y 0.000000 3.759010 0.000000 
#    z 0.000000 0.000000 3.494400 
# 
# 
# High freq. dielectric constant tensor:
#      x y z
#    x 1.791190 0.000000 0.000000 
#    y 0.000000 1.786940 0.000000 
#    z 0.000000 0.000000 1.754210 
# 
# From -- ./inp_files/8689.got.cif
#   From: 2010.03.12/outbox.cif.g09.slc.cpg/sg40_5_cif.got.tgz:8689.got - 2010.04.14 01:38:03.
