data_PCOD8184086
_publ_section_title
;
Structure prediction by ZEFSAII (Michael W. Deem and Ramdas Pophale) SiO2 
 PCOD8184086
Probable space group: A M A 2
;
_chemical_formula_sum "Si O2"
_cell_formula_units_Z 48
_cell_length_a 24.270452
_cell_length_b 9.737159
_cell_length_c 10.052781
_cell_angle_alpha 90.000000
_cell_angle_beta 90.000000
_cell_angle_gamma 90.000000
_cell_volume 2375.725984
_symmetry_space_group_name_H-M "A M A 2"
_symmetry_group_IT_number 40
_symmetry_cell_setting 'orthorhombic'
loop_
_space_group_symop_operation_xyz
x,y,z
-x,-y,z
1/2-x,y,z
1/2+x,-y,z
x,1/2+y,1/2+z
-x,1/2-y,1/2+z
1/2-x,1/2+y,1/2+z
1/2+x,1/2-y,1/2+z
loop_
_atom_site_type_symbol
_atom_site_label
_atom_site_fract_x
_atom_site_fract_y
_atom_site_fract_z
Si Si1 0.515543 0.344482 0.142260
Si Si2 0.848660 0.450652 0.912574
Si Si3 0.188081 0.018220 0.132219
Si Si4 0.029075 0.635960 0.845529
Si Si5 0.357528 0.227221 0.653401
Si Si6 0.185752 0.751989 0.434920
O O1 0.500000 0.500000 0.177415
O O2 0.476647 0.251788 0.234019
O O3 0.579175 0.313904 0.174748
O O4 0.502793 0.315335 0.986484
O O5 0.809006 0.432195 0.785659
O O6 0.907895 0.398952 0.868242
O O7 0.849749 0.610029 0.957851
O O8 0.828460 0.359746 0.036505
O O9 0.250000 0.977731 0.088046
O O10 0.147366 0.888615 0.117569
O O11 0.164780 0.139637 0.040207
O O12 0.000000 0.500000 0.790449
O O13 0.324170 0.193568 0.787282
O O14 0.250000 0.785825 0.455249
#
# Coordination Sequence:
#
# PCOD8184086 Si02
#       6
#     8   8   8   8   8   8
#     4  10  23  39  57  85 116 148 191 237 285 341
#     4  10  21  36  58  84 113 149 188 232 283 338
#     4  10  22  38  57  84 115 149 191 234 282 343
#     4  10  21  38  58  83 113 148 188 233 282 335
#     4  10  21  38  59  84 115 152 191 236 285 339
#     4  10  22  39  59  86 119 152 189 236 287 340
#
# _framework density 20.204349000000001
#
# number of rings (size 3 to 8) (size 9 to 14) (size 15 to 20)
#    0.000    2.000    0.000    4.000    0.000   12.667 
#    0.000    3.333    0.000    0.000    0.000    0.000 
#    0.000    0.000    0.000    0.000    0.000    0.000 
#
# Total GULP energy -297611.126001 kJ/mol
# GULP energy per Si atom -12400.463583 kJ/mol
# Density = 2.015836 g / cm^3
# Si number density = 20.204349 Si / 1000 Ang^3
#
#
#
# Elastic Constant Matrix: (Units=GPa)
#
#
# Indices 1 2 3 4 5 6 
#
# 1 70.7145 48.9938 18.1087 0.0000 0.0000 0.0000
# 2 48.9938 153.3297 98.2259 0.0000 0.0000 0.0000
# 3 18.1087 98.2259 119.0642 0.0000 0.0000 0.0000
# 4 0.0000 0.0000 0.0000 43.8546 0.0000 0.0000
# 5 0.0000 0.0000 0.0000 0.0000 15.0924 0.0000
# 6 0.0000 0.0000 0.0000 0.0000 0.0000 35.2119
#
#
#
# Elastic Compliance Matrix: (Units=1/GPa)
#
#
# Indices 1 2 3 4 5 6 
#
# 1 0.019261 -0.009073 0.004555 0.000000 0.000000 0.000000
# 2 -0.009073 0.018106 -0.013557 0.000000 0.000000 0.000000
# 3 0.004555 -0.013557 0.018890 0.000000 0.000000 0.000000
# 4 0.000000 0.000000 0.000000 0.022803 0.000000 0.000000
# 5 0.000000 0.000000 0.000000 0.000000 0.066258 0.000000
# 6 0.000000 0.000000 0.000000 0.000000 0.000000 0.028399
#
#
# Mechanical properties :
#
#
# Convention : Reuss Voigt Hill
#
# Bulk Modulus (GPa) = 49.73105 74.86280 62.29692
# Shear Modulus (GPa) = 23.08730 30.68379 26.88554
#
# Velocity S-wave (km/s) = 3.38404 3.90124 3.65181
# Velocity P-wave (km/s) = 6.31953 7.57801 6.97720
#
# Compressibility (1/GPa) = 0.02010816
#
# Stress axis : x y z
#
# Youngs Moduli (GPa) = 51.91902 55.23056 52.93688
#
# Poissons Ratio (x) = 0.50109 -0.24115
# Poissons Ratio (y) = 0.47105 0.71767
# Poissons Ratio (z) = -0.23652 0.74877
#
# Static dielectric constant tensor:
#      x y z
#    x 3.546810 0.000000 0.000000 
#    y 0.000000 3.710150 0.000000 
#    z 0.000000 0.000000 4.005570 
# 
# 
# High freq. dielectric constant tensor:
#      x y z
#    x 1.785030 0.000000 0.000000 
#    y 0.000000 1.787730 0.000000 
#    z 0.000000 0.000000 1.796240 
# 
# From -- ./inp_files/13928.got.cif
#   From: 2010.03.12/outbox.cif.g09.slc.cpg/sg40_7_cif.got.tgz:13928.got - 2010.04.14 01:38:03.
