data_PCOD8184638
_publ_section_title
;
Structure prediction by ZEFSAII (Michael W. Deem and Ramdas Pophale) SiO2 
 PCOD8184638
Probable space group: A M A 2
;
_chemical_formula_sum "Si O2"
_cell_formula_units_Z 64
_cell_length_a 29.455553
_cell_length_b 8.971868
_cell_length_c 11.291699
_cell_angle_alpha 90.000000
_cell_angle_beta 90.000000
_cell_angle_gamma 90.000000
_cell_volume 2984.072351
_symmetry_space_group_name_H-M "A M A 2"
_symmetry_group_IT_number 40
_symmetry_cell_setting 'orthorhombic'
loop_
_space_group_symop_operation_xyz
x,y,z
-x,-y,z
1/2-x,y,z
1/2+x,-y,z
x,1/2+y,1/2+z
-x,1/2-y,1/2+z
1/2-x,1/2+y,1/2+z
1/2+x,1/2-y,1/2+z
loop_
_atom_site_type_symbol
_atom_site_label
_atom_site_fract_x
_atom_site_fract_y
_atom_site_fract_z
Si Si1 0.889237 0.284710 0.891430
Si Si2 0.126762 0.377149 0.634900
Si Si3 0.587431 0.334592 0.540302
Si Si4 0.522095 0.338918 0.749138
Si Si5 0.847572 0.075644 0.481771
Si Si6 0.357627 0.973946 0.732138
Si Si7 0.802405 0.755591 0.789731
Si Si8 0.932802 0.824819 0.777314
O O1 0.940788 0.307825 0.850037
O O2 0.863560 0.442031 0.897029
O O3 0.861382 0.184509 0.796878
O O4 0.889959 0.211929 0.020203
O O5 0.121966 0.551786 0.606838
O O6 0.177790 0.334265 0.675241
O O7 0.094529 0.329114 0.746402
O O8 0.542201 0.326970 0.618057
O O9 0.610013 0.174298 0.526899
O O10 0.573179 0.386461 0.410453
O O11 0.500000 0.500000 0.772668
O O12 0.485439 0.204696 0.753342
O O13 0.828408 0.025243 0.609822
O O14 0.808923 0.163116 0.410729
O O15 0.329916 0.090904 0.813793
O O16 0.408406 0.041686 0.703552
O O17 0.750000 0.786730 0.766638
#
# Coordination Sequence:
#
# PCOD8184638 Si02
#       8
#     8   8   8   8   8   8   8   8
#     4  12  24  44  72  99 144 194 236 289 354 422
#     4  11  22  46  70  98 144 188 227 285 372 420
#     4  12  23  43  72  95 142 197 235 284 357 418
#     4  12  26  39  64 108 144 186 251 300 329 401
#     4  12  23  44  74  99 139 187 227 283 360 430
#     4  11  24  46  73 100 139 193 228 286 363 433
#     4  11  25  49  78 108 140 174 232 300 360 441
#     4  11  23  42  64 101 138 191 239 290 338 405
#
# _framework density 21.447202999999998
#
# number of rings (size 3 to 8) (size 9 to 14) (size 15 to 20)
#    0.000    0.500    8.750    1.500    1.750    1.000 
#    0.000    3.125    0.000    0.000    0.000    0.000 
#    0.000    0.000    0.000    0.000    0.000    0.000 
#
# Total GULP energy -396673.575083 kJ/mol
# GULP energy per Si atom -12396.049221 kJ/mol
# Density = 2.139839 g / cm^3
# Si number density = 21.447203 Si / 1000 Ang^3
#
#
#
# Elastic Constant Matrix: (Units=GPa)
#
#
# Indices 1 2 3 4 5 6 
#
# 1 113.0816 43.1897 39.3687 0.0000 0.0000 0.0000
# 2 43.1897 132.0570 40.4632 0.0000 0.0000 0.0000
# 3 39.3687 40.4632 118.5092 0.0000 0.0000 0.0000
# 4 0.0000 0.0000 0.0000 44.6500 0.0000 0.0000
# 5 0.0000 0.0000 0.0000 0.0000 27.7971 0.0000
# 6 0.0000 0.0000 0.0000 0.0000 0.0000 17.7018
#
#
#
# Elastic Compliance Matrix: (Units=1/GPa)
#
#
# Indices 1 2 3 4 5 6 
#
# 1 0.010809 -0.002719 -0.002662 0.000000 0.000000 0.000000
# 2 -0.002719 0.009141 -0.002218 0.000000 0.000000 0.000000
# 3 -0.002662 -0.002218 0.010080 0.000000 0.000000 0.000000
# 4 0.000000 0.000000 0.000000 0.022396 0.000000 0.000000
# 5 0.000000 0.000000 0.000000 0.000000 0.035975 0.000000
# 6 0.000000 0.000000 0.000000 0.000000 0.000000 0.056491
#
#
# Mechanical properties :
#
#
# Convention : Reuss Voigt Hill
#
# Bulk Modulus (GPa) = 67.42545 67.74346 67.58445
# Shear Modulus (GPa) = 30.29663 34.07152 32.18408
#
# Velocity S-wave (km/s) = 3.76255 3.99008 3.87798
# Velocity P-wave (km/s) = 7.09802 7.27202 7.18555
#
# Compressibility (1/GPa) = 0.01483120
#
# Stress axis : x y z
#
# Youngs Moduli (GPa) = 92.51921 109.39239 99.20853
#
# Poissons Ratio (x) = 0.29747 0.26411
# Poissons Ratio (y) = 0.25159 0.22003
# Poissons Ratio (z) = 0.24630 0.24262
#
# Static dielectric constant tensor:
#      x y z
#    x 3.519350 0.000000 0.000000 
#    y 0.000000 4.078920 0.000000 
#    z 0.000000 0.000000 4.302910 
# 
# 
# High freq. dielectric constant tensor:
#      x y z
#    x 1.798250 0.000000 0.000000 
#    y 0.000000 1.855870 0.000000 
#    z 0.000000 0.000000 1.860380 
# 
# From -- ./inp_files/14407.got.cif
#   From: 2010.03.12/outbox.cif.g09.slc.cpg/sg40_8_cif.got.tgz:14407.got - 2010.04.14 01:38:03.
