data_PCOD8184930
_publ_section_title
;
Structure prediction by ZEFSAII (Michael W. Deem and Ramdas Pophale) SiO2 
 PCOD8184930
Probable space group: A B A 2
;
_chemical_formula_sum "Si O2"
_cell_formula_units_Z 64
_cell_length_a 20.396293
_cell_length_b 9.612770
_cell_length_c 16.446839
_cell_angle_alpha 90.000000
_cell_angle_beta 90.000000
_cell_angle_gamma 90.000000
_cell_volume 3224.647407
_symmetry_space_group_name_H-M "A B A 2"
_symmetry_group_IT_number 41
_symmetry_cell_setting 'orthorhombic'
loop_
_space_group_symop_operation_xyz
x,y,z
-x,-y,z
1/2-x,y,1/2+z
1/2+x,-y,1/2+z
x,1/2+y,1/2+z
-x,1/2-y,1/2+z
1/2-x,1/2+y,z
1/2+x,1/2-y,z
loop_
_atom_site_type_symbol
_atom_site_label
_atom_site_fract_x
_atom_site_fract_y
_atom_site_fract_z
Si Si1 0.074274 0.016169 0.322120
Si Si2 0.427042 0.784602 0.421237
Si Si3 0.569232 0.235731 0.924260
Si Si4 0.312094 0.398750 0.218933
Si Si5 0.308967 0.840233 0.534727
Si Si6 0.205446 0.101602 0.779471
Si Si7 0.432063 0.535401 0.801235
Si Si8 0.200580 0.635153 0.466768
O O1 0.085640 0.924121 0.403616
O O2 0.120453 0.968850 0.248213
O O3 0.090246 0.172924 0.350640
O O4 0.000000 0.000000 0.290434
O O5 0.497192 0.751401 0.464827
O O6 0.374485 0.784494 0.492635
O O7 0.426991 0.935016 0.379377
O O8 0.563021 0.308675 0.835789
O O9 0.627330 0.301676 0.977172
O O10 0.318621 0.328954 0.130918
O O11 0.290407 0.268253 0.273438
O O12 0.258373 0.520774 0.225977
O O13 0.249678 0.749853 0.500337
O O14 0.293389 0.001374 0.522480
O O15 0.135197 0.035067 0.749554
O O16 0.215820 0.080284 0.875821
O O17 0.500000 0.500000 0.751882
#
# Coordination Sequence:
#
# PCOD8184930 Si02
#       8
#     8   8   8   8   8   8   8   8
#     4  10  21  39  63  91 117 156 203 255 292 352
#     4  10  20  36  64  91 113 154 206 245 292 351
#     4   9  18  37  63  88 115 148 209 252 280 338
#     4  12  25  41  57  91 129 157 192 249 312 351
#     4  12  25  39  59  91 125 158 191 252 305 355
#     4  11  22  40  65  85 118 162 207 246 286 361
#     4   9  17  34  62  89 112 146 205 251 283 334
#     4  11  22  40  63  88 113 161 209 240 286 352
#
# _framework density 19.847131999999998
#
# number of rings (size 3 to 8) (size 9 to 14) (size 15 to 20)
#    0.000    1.500    5.000    2.250    3.500    0.000 
#    2.250    0.000    2.750    0.000    0.000    0.000 
#    0.000    0.000    0.000    0.000    0.000    0.000 
#
# Total GULP energy -396625.869055 kJ/mol
# GULP energy per Si atom -12394.558408 kJ/mol
# Density = 1.980196 g / cm^3
# Si number density = 19.847132 Si / 1000 Ang^3
#
#
#
# Elastic Constant Matrix: (Units=GPa)
#
#
# Indices 1 2 3 4 5 6 
#
# 1 170.0282 51.4278 40.2395 0.0000 0.0000 0.0000
# 2 51.4278 74.6825 8.6035 0.0000 0.0000 0.0000
# 3 40.2395 8.6035 52.3629 0.0000 0.0000 0.0000
# 4 0.0000 0.0000 0.0000 20.7768 0.0000 0.0000
# 5 0.0000 0.0000 0.0000 0.0000 6.0022 0.0000
# 6 0.0000 0.0000 0.0000 0.0000 0.0000 35.9728
#
#
#
# Elastic Compliance Matrix: (Units=1/GPa)
#
#
# Indices 1 2 3 4 5 6 
#
# 1 0.008953 -0.005476 -0.005980 0.000000 0.000000 0.000000
# 2 -0.005476 0.016998 0.001416 0.000000 0.000000 0.000000
# 3 -0.005980 0.001416 0.023461 0.000000 0.000000 0.000000
# 4 0.000000 0.000000 0.000000 0.048131 0.000000 0.000000
# 5 0.000000 0.000000 0.000000 0.000000 0.166605 0.000000
# 6 0.000000 0.000000 0.000000 0.000000 0.000000 0.027799
#
#
# Mechanical properties :
#
#
# Convention : Reuss Voigt Hill
#
# Bulk Modulus (GPa) = 34.09542 55.29057 44.69300
# Shear Modulus (GPa) = 15.53733 25.67056 20.60394
#
# Velocity S-wave (km/s) = 2.80098 3.60031 3.22550
# Velocity P-wave (km/s) = 5.26089 6.72322 6.03650
#
# Compressibility (1/GPa) = 0.02932945
#
# Stress axis : x y z
#
# Youngs Moduli (GPa) = 111.69257 58.83023 42.62442
#
# Poissons Ratio (x) = 0.32218 0.25491
# Poissons Ratio (y) = 0.61167 -0.06034
# Poissons Ratio (z) = 0.66797 -0.08328
#
# Static dielectric constant tensor:
#      x y z
#    x 4.057190 0.000000 0.000000 
#    y 0.000000 3.733550 0.000000 
#    z 0.000000 0.000000 3.034680 
# 
# 
# High freq. dielectric constant tensor:
#      x y z
#    x 1.795940 0.000000 0.000000 
#    y 0.000000 1.796290 0.000000 
#    z 0.000000 0.000000 1.711350 
# 
# From -- ./inp_files/10686.got.cif
#   From: 2010.03.12/outbox.cif.g09.slc.cpg/sg41_6_cif.got.tgz:10686.got - 2010.04.14 01:55:53.
