data_PCOD8184915
_publ_section_title
;
Structure prediction by ZEFSAII (Michael W. Deem and Ramdas Pophale) SiO2 
 PCOD8184915
Probable space group: A B A 2
;
_chemical_formula_sum "Si O2"
_cell_formula_units_Z 60
_cell_length_a 22.255563
_cell_length_b 22.011983
_cell_length_c 5.541474
_cell_angle_alpha 90.000000
_cell_angle_beta 90.000000
_cell_angle_gamma 90.000000
_cell_volume 2714.707569
_symmetry_space_group_name_H-M "A B A 2"
_symmetry_group_IT_number 41
_symmetry_cell_setting 'orthorhombic'
loop_
_space_group_symop_operation_xyz
x,y,z
-x,-y,z
1/2-x,y,1/2+z
1/2+x,-y,1/2+z
x,1/2+y,1/2+z
-x,1/2-y,1/2+z
1/2-x,1/2+y,z
1/2+x,1/2-y,z
loop_
_atom_site_type_symbol
_atom_site_label
_atom_site_fract_x
_atom_site_fract_y
_atom_site_fract_z
Si Si1 0.215281 0.896580 0.316250
Si Si2 0.609485 0.300564 0.593564
Si Si3 0.411944 0.926896 0.694282
Si Si4 0.501167 0.885069 0.090050
Si Si5 0.904972 0.183168 0.843897
Si Si6 0.732242 0.338467 0.474602
Si Si7 0.000000 0.500000 0.428619
Si Si8 0.183667 0.768828 0.469955
O O1 0.250835 0.914456 0.564390
O O2 0.151065 0.934086 0.339262
O O3 0.203812 0.823742 0.292620
O O4 0.567616 0.358936 0.583101
O O5 0.575179 0.242290 0.490482
O O6 0.663124 0.324131 0.421229
O O7 0.635840 0.278443 0.850961
O O8 0.393218 0.876339 0.500803
O O9 0.437512 0.989733 0.579309
O O10 0.471004 0.906002 0.841803
O O11 0.460663 0.829133 0.172929
O O12 0.507334 0.940508 0.271130
O O13 0.844021 0.196341 0.698950
O O14 0.759400 0.373237 0.237366
O O15 0.760971 0.273038 0.551631
#
# Coordination Sequence:
#
# PCOD8184915 Si02
#       8
#     8   8   8   8   8   8   4   8
#     4  12  24  37  68 106 146 184 226 290 361 427
#     4  11  23  35  58  97 136 178 220 277 345 418
#     4  11  24  44  67 100 133 180 237 293 352 424
#     4  11  25  42  69  95 132 181 235 296 346 416
#     4  11  21  36  58  97 140 175 217 275 343 427
#     4  10  20  36  56  84 136 187 226 254 322 425
#     4  10  26  50  74  88 124 188 252 300 354 420
#     4  11  21  36  57  94 145 192 214 261 344 446
#
# _framework density 22.101828000000001
#
# number of rings (size 3 to 8) (size 9 to 14) (size 15 to 20)
#    0.000    1.067    4.000    2.800    5.600    1.067 
#    0.000    0.000    0.000    3.200    0.000    0.000 
#    0.000    0.000    0.000    0.000    0.000    0.000 
#
# Total GULP energy -371642.124415 kJ/mol
# GULP energy per Si atom -12388.070814 kJ/mol
# Density = 2.205152 g / cm^3
# Si number density = 22.101828 Si / 1000 Ang^3
#
#
#
# Elastic Constant Matrix: (Units=GPa)
#
#
# Indices 1 2 3 4 5 6 
#
# 1 125.7106 34.6583 28.1621 0.0000 0.0000 0.0000
# 2 34.6583 40.6138 9.6824 0.0000 0.0000 0.0000
# 3 28.1621 9.6824 107.0771 0.0000 0.0000 0.0000
# 4 0.0000 0.0000 0.0000 10.5175 0.0000 0.0000
# 5 0.0000 0.0000 0.0000 0.0000 39.0571 0.0000
# 6 0.0000 0.0000 0.0000 0.0000 0.0000 21.1839
#
#
#
# Elastic Compliance Matrix: (Units=1/GPa)
#
#
# Indices 1 2 3 4 5 6 
#
# 1 0.010828 -0.008750 -0.002057 0.000000 0.000000 0.000000
# 2 -0.008750 0.032235 -0.000614 0.000000 0.000000 0.000000
# 3 -0.002057 -0.000614 0.009935 0.000000 0.000000 0.000000
# 4 0.000000 0.000000 0.000000 0.095080 0.000000 0.000000
# 5 0.000000 0.000000 0.000000 0.000000 0.025604 0.000000
# 6 0.000000 0.000000 0.000000 0.000000 0.000000 0.047206
#
#
# Mechanical properties :
#
#
# Convention : Reuss Voigt Hill
#
# Bulk Modulus (GPa) = 33.15816 46.48970 39.82393
# Shear Modulus (GPa) = 19.70209 27.54494 23.62351
#
# Velocity S-wave (km/s) = 2.98891 3.53409 3.27287
# Velocity P-wave (km/s) = 5.19100 6.14272 5.68681
#
# Compressibility (1/GPa) = 0.03015849
#
# Stress axis : x y z
#
# Youngs Moduli (GPa) = 92.35486 31.02205 100.64969
#
# Poissons Ratio (x) = 0.27143 0.20700
# Poissons Ratio (y) = 0.80808 0.06176
# Poissons Ratio (z) = 0.18994 0.01904
#
# Static dielectric constant tensor:
#      x y z
#    x 4.299890 0.000000 0.000000 
#    y 0.000000 3.587560 0.000000 
#    z 0.000000 0.000000 4.242080 
# 
# 
# High freq. dielectric constant tensor:
#      x y z
#    x 1.878210 0.000000 0.000000 
#    y 0.000000 1.816230 0.000000 
#    z 0.000000 0.000000 1.885810 
# 
# From -- ./inp_files/1000.got.cif
#   From: 2010.03.12/outbox.cif.g09.slc.cpg/sg41_1_cif.got.tgz:1000.got - 2010.04.14 01:55:53.
