data_PCOD8184184
_publ_section_title
;
Structure prediction by ZEFSAII (Michael W. Deem and Ramdas Pophale) SiO2 
 PCOD8184184
Probable space group: A M A 2
;
_chemical_formula_sum "Si O2"
_cell_formula_units_Z 64
_cell_length_a 30.193180
_cell_length_b 11.324940
_cell_length_c 8.762218
_cell_angle_alpha 90.000000
_cell_angle_beta 90.000000
_cell_angle_gamma 90.000000
_cell_volume 2996.117353
_symmetry_space_group_name_H-M "A M A 2"
_symmetry_group_IT_number 40
_symmetry_cell_setting 'orthorhombic'
loop_
_space_group_symop_operation_xyz
x,y,z
-x,-y,z
1/2-x,y,z
1/2+x,-y,z
x,1/2+y,1/2+z
-x,1/2-y,1/2+z
1/2-x,1/2+y,1/2+z
1/2+x,1/2-y,1/2+z
loop_
_atom_site_type_symbol
_atom_site_label
_atom_site_fract_x
_atom_site_fract_y
_atom_site_fract_z
Si Si1 0.452029 0.949719 0.370550
Si Si2 0.411933 0.246500 0.017654
Si Si3 0.162974 0.703371 0.282860
Si Si4 0.124603 0.115284 0.464372
Si Si5 0.201874 0.459010 0.259009
Si Si6 0.050151 0.001562 0.032321
Si Si7 0.699714 0.554863 0.901522
Si Si8 0.112585 0.354382 0.318712
O O1 0.448480 0.813318 0.416855
O O2 0.500000 0.000000 0.410338
O O3 0.415061 0.021412 0.465917
O O4 0.443543 0.934451 0.190672
O O5 0.436537 0.133211 0.082578
O O6 0.396607 0.345992 0.139083
O O7 0.370527 0.197369 0.922921
O O8 0.136356 0.671611 0.128280
O O9 0.199615 0.599987 0.291137
O O10 0.185716 0.833149 0.294954
O O11 0.105272 0.221772 0.368998
O O12 0.166684 0.056066 0.375912
O O13 0.250000 0.416901 0.319302
O O14 0.162905 0.395635 0.352486
O O15 0.197017 0.420015 0.082477
O O16 0.000000 0.000000 0.971898
O O17 0.079776 0.945764 0.899293
O O18 0.750000 0.519387 0.855999
#
# Coordination Sequence:
#
# PCOD8184184 Si02
#       8
#     8   8   8   8   8   8   8   8
#     4  11  25  47  67  98 135 174 225 278 332 398
#     4  12  23  43  69  95 133 178 219 267 339 394
#     4  11  20  41  67  91 126 174 218 272 336 390
#     4  11  24  40  65  96 132 171 216 283 331 391
#     4  10  21  38  63  95 128 171 224 272 326 397
#     4  11  27  45  67 100 134 173 224 280 334 399
#     4  10  21  40  65  94 127 172 225 270 328 403
#     4  12  24  42  66  97 137 171 220 276 333 398
#
# _framework density 21.360979
#
# number of rings (size 3 to 8) (size 9 to 14) (size 15 to 20)
#    0.000    1.000    5.000    1.875    1.750    1.500 
#    0.000    0.000    0.000    0.000    0.000    0.000 
#    0.000    0.000    0.000    0.000    0.000    0.000 
#
# Total GULP energy -396529.209919 kJ/mol
# GULP energy per Si atom -12391.537810 kJ/mol
# Density = 2.131236 g / cm^3
# Si number density = 21.360979 Si / 1000 Ang^3
#
#
#
# Elastic Constant Matrix: (Units=GPa)
#
#
# Indices 1 2 3 4 5 6 
#
# 1 151.0053 37.1435 41.0329 0.0000 0.0000 0.0000
# 2 37.1435 92.0858 31.2062 0.0000 0.0000 0.0000
# 3 41.0329 31.2062 81.5385 0.0000 0.0000 0.0000
# 4 0.0000 0.0000 0.0000 41.2491 0.0000 0.0000
# 5 0.0000 0.0000 0.0000 0.0000 26.4123 0.0000
# 6 0.0000 0.0000 0.0000 0.0000 0.0000 26.2040
#
#
#
# Elastic Compliance Matrix: (Units=1/GPa)
#
#
# Indices 1 2 3 4 5 6 
#
# 1 0.008024 -0.002147 -0.003217 0.000000 0.000000 0.000000
# 2 -0.002147 0.013052 -0.003915 0.000000 0.000000 0.000000
# 3 -0.003217 -0.003915 0.015381 0.000000 0.000000 0.000000
# 4 0.000000 0.000000 0.000000 0.024243 0.000000 0.000000
# 5 0.000000 0.000000 0.000000 0.000000 0.037861 0.000000
# 6 0.000000 0.000000 0.000000 0.000000 0.000000 0.038162
#
#
# Mechanical properties :
#
#
# Convention : Reuss Voigt Hill
#
# Bulk Modulus (GPa) = 55.86229 60.37720 58.11975
# Shear Modulus (GPa) = 31.00830 33.12288 32.06559
#
# Velocity S-wave (km/s) = 3.81416 3.94207 3.87864
# Velocity P-wave (km/s) = 6.75318 7.00332 6.87939
#
# Compressibility (1/GPa) = 0.01790116
#
# Stress axis : x y z
#
# Youngs Moduli (GPa) = 124.62076 76.61651 65.01469
#
# Poissons Ratio (x) = 0.16447 0.20912
# Poissons Ratio (y) = 0.26752 0.25453
# Poissons Ratio (z) = 0.40085 0.29995
#
# Static dielectric constant tensor:
#      x y z
#    x 4.024070 0.000000 0.000000 
#    y 0.000000 3.962160 0.000000 
#    z 0.000000 0.000000 3.742600 
# 
# 
# High freq. dielectric constant tensor:
#      x y z
#    x 1.844840 0.000000 0.000000 
#    y 0.000000 1.847040 0.000000 
#    z 0.000000 0.000000 1.826090 
# 
# From -- ./inp_files/9432.got.cif
#   From: 2010.03.12/outbox.cif.g09.slc.cpg/sg40_5_cif.got.tgz:9432.got - 2010.04.14 01:38:03.
