data_PCOD8184355
_publ_section_title
;
Structure prediction by ZEFSAII (Michael W. Deem and Ramdas Pophale) SiO2 
 PCOD8184355
Probable space group: A M A 2
;
_chemical_formula_sum "Si O2"
_cell_formula_units_Z 48
_cell_length_a 8.957122
_cell_length_b 30.911353
_cell_length_c 9.103898
_cell_angle_alpha 90.000000
_cell_angle_beta 90.000000
_cell_angle_gamma 90.000000
_cell_volume 2520.657782
_symmetry_space_group_name_H-M "A M A 2"
_symmetry_group_IT_number 40
_symmetry_cell_setting 'orthorhombic'
loop_
_space_group_symop_operation_xyz
x,y,z
-x,-y,z
1/2-x,y,z
1/2+x,-y,z
x,1/2+y,1/2+z
-x,1/2-y,1/2+z
1/2-x,1/2+y,1/2+z
1/2+x,1/2-y,1/2+z
loop_
_atom_site_type_symbol
_atom_site_label
_atom_site_fract_x
_atom_site_fract_y
_atom_site_fract_z
Si Si1 0.921577 0.717105 0.833460
Si Si2 0.416779 0.958328 0.826843
Si Si3 0.926991 0.869609 0.838146
Si Si4 0.925785 0.134352 0.145289
Si Si5 0.422977 0.294136 0.174375
Si Si6 0.913240 0.040632 0.174800
O O1 0.750000 0.729706 0.799971
O O2 0.960505 0.670567 0.765002
O O3 0.031189 0.752229 0.766106
O O4 0.953265 0.715356 0.005045
O O5 0.250000 0.954920 0.760106
O O6 0.508971 0.915590 0.786441
O O7 0.500000 0.000000 0.757832
O O8 0.406651 0.964109 0.000482
O O9 0.750000 0.872479 0.846845
O O10 0.976407 0.834695 0.718482
O O11 0.989049 0.854254 0.995618
O O12 0.750000 0.130393 0.107774
O O13 0.983675 0.088003 0.209812
O O14 0.250000 0.304571 0.205478
O O15 0.750000 0.038085 0.245475
O O16 0.000000 0.000000 0.245091
#
# Coordination Sequence:
#
# PCOD8184355 Si02
#       6
#     8   8   8   8   8   8
#     4  10  22  39  58  79 103 135 174 216 266 322
#     4   9  16  28  47  74 107 141 177 219 264 307
#     4  11  21  33  52  79 109 142 180 219 261 311
#     4   9  18  34  54  77 107 140 175 218 266 313
#     4  11  23  38  56  78 104 135 172 216 266 319
#     4   8  14  24  42  69 101 135 168 206 251 296
#
# _framework density 19.042648
#
# number of rings (size 3 to 8) (size 9 to 14) (size 15 to 20)
#    0.000    2.333    0.000    4.500    0.000    8.667 
#    0.000    0.000    0.000    1.000    0.000    2.333 
#    0.000    0.000    0.000    0.000    0.000    0.000 
#
# Total GULP energy -297572.929896 kJ/mol
# GULP energy per Si atom -12398.872079 kJ/mol
# Density = 1.899931 g / cm^3
# Si number density = 19.042648 Si / 1000 Ang^3
#
#
#
# Elastic Constant Matrix: (Units=GPa)
#
#
# Indices 1 2 3 4 5 6 
#
# 1 112.0347 59.1262 36.6076 0.0000 0.0000 0.0000
# 2 59.1262 143.0274 44.7273 0.0000 0.0000 0.0000
# 3 36.6076 44.7273 59.7144 0.0000 0.0000 0.0000
# 4 0.0000 0.0000 0.0000 22.2328 0.0000 0.0000
# 5 0.0000 0.0000 0.0000 0.0000 14.4098 0.0000
# 6 0.0000 0.0000 0.0000 0.0000 0.0000 38.6410
#
#
#
# Elastic Compliance Matrix: (Units=1/GPa)
#
#
# Indices 1 2 3 4 5 6 
#
# 1 0.012436 -0.003600 -0.004927 0.000000 0.000000 0.000000
# 2 -0.003600 0.010172 -0.005412 0.000000 0.000000 0.000000
# 3 -0.004927 -0.005412 0.023821 0.000000 0.000000 0.000000
# 4 0.000000 0.000000 0.000000 0.044979 0.000000 0.000000
# 5 0.000000 0.000000 0.000000 0.000000 0.069397 0.000000
# 6 0.000000 0.000000 0.000000 0.000000 0.000000 0.025879
#
#
# Mechanical properties :
#
#
# Convention : Reuss Voigt Hill
#
# Bulk Modulus (GPa) = 53.90851 66.18874 60.04863
# Shear Modulus (GPa) = 22.65041 26.67773 24.66407
#
# Velocity S-wave (km/s) = 3.45259 3.74698 3.60280
# Velocity P-wave (km/s) = 6.65317 7.31802 6.99350
#
# Compressibility (1/GPa) = 0.01854995
#
# Stress axis : x y z
#
# Youngs Moduli (GPa) = 80.41391 98.30505 41.97987
#
# Poissons Ratio (x) = 0.35390 0.20684
# Poissons Ratio (y) = 0.28949 0.22721
# Poissons Ratio (z) = 0.39621 0.53207
#
# Static dielectric constant tensor:
#      x y z
#    x 3.612210 0.000000 0.000000 
#    y 0.000000 3.825800 0.000000 
#    z 0.000000 0.000000 3.058480 
# 
# 
# High freq. dielectric constant tensor:
#      x y z
#    x 1.742230 0.000000 0.000000 
#    y 0.000000 1.762250 0.000000 
#    z 0.000000 0.000000 1.693730 
# 
# From -- ./inp_files/4623.got.cif
#   From: 2010.03.12/outbox.cif.g09.slc.cpg/sg40_3_cif.got.tgz:4623.got - 2010.04.14 01:38:03.
