data_PCOD8184352
_publ_section_title
;
Structure prediction by ZEFSAII (Michael W. Deem and Ramdas Pophale) SiO2 
 PCOD8184352
Probable space group: A M A 2
;
_chemical_formula_sum "Si O2"
_cell_formula_units_Z 48
_cell_length_a 16.388956
_cell_length_b 5.199237
_cell_length_c 24.030238
_cell_angle_alpha 90.000000
_cell_angle_beta 90.000000
_cell_angle_gamma 90.000000
_cell_volume 2047.618176
_symmetry_space_group_name_H-M "A M A 2"
_symmetry_group_IT_number 40
_symmetry_cell_setting 'orthorhombic'
loop_
_space_group_symop_operation_xyz
x,y,z
-x,-y,z
1/2-x,y,z
1/2+x,-y,z
x,1/2+y,1/2+z
-x,1/2-y,1/2+z
1/2-x,1/2+y,1/2+z
1/2+x,1/2-y,1/2+z
loop_
_atom_site_type_symbol
_atom_site_label
_atom_site_fract_x
_atom_site_fract_y
_atom_site_fract_z
Si Si1 0.919745 0.672598 0.929930
Si Si2 0.049528 0.242090 0.048576
Si Si3 0.154871 0.397617 0.149795
Si Si4 0.750000 0.505367 0.900793
Si Si5 0.250000 0.483735 0.330202
Si Si6 0.153192 0.903192 0.215967
Si Si7 0.415904 0.119648 0.808501
O O1 0.834118 0.519232 0.935664
O O2 0.917879 0.849003 0.874994
O O3 0.000000 0.500000 0.922781
O O4 0.921248 0.842598 0.986455
O O5 0.120814 0.327114 0.089465
O O6 0.000000 0.500000 0.038652
O O7 0.000000 0.000000 0.073924
O O8 0.250000 0.394862 0.141096
O O9 0.125936 0.673743 0.173361
O O10 0.126252 0.174925 0.191602
O O11 0.750000 0.723742 0.853285
O O12 0.750000 0.218322 0.878831
O O13 0.333884 0.446473 0.294205
O O14 0.250000 0.885918 0.228552
O O15 0.100836 0.879069 0.273206
O O16 0.500000 0.000000 0.787015
#
# Coordination Sequence:
#
# PCOD8184352 Si02
#       7
#     8   8   8   4   4   8   8
#     4  10  23  42  65  99 137 170 218 272 327 387
#     4  11  24  43  68  95 133 172 213 278 329 384
#     4  10  23  43  69  93 130 170 222 269 331 382
#     4  10  22  38  64  88 124 176 214 254 319 382
#     4  10  22  40  58  90 128 168 218 264 305 382
#     4  10  22  42  63  96 131 171 214 282 322 384
#     4  11  22  39  66  95 135 176 217 263 331 392
#
# _framework density 23.441872
#
# number of rings (size 3 to 8) (size 9 to 14) (size 15 to 20)
#    0.000    1.667    0.833    2.500    1.167   10.000 
#    0.000    0.000    1.833    0.000    0.000    0.000 
#    0.000    0.000    0.000    0.000    0.000    0.000 
#
# Total GULP energy -297384.312896 kJ/mol
# GULP energy per Si atom -12391.013037 kJ/mol
# Density = 2.338852 g / cm^3
# Si number density = 23.441872 Si / 1000 Ang^3
#
#
#
# Elastic Constant Matrix: (Units=GPa)
#
#
# Indices 1 2 3 4 5 6 
#
# 1 150.0397 19.2476 10.6671 0.0000 0.0000 0.0000
# 2 19.2476 71.8796 2.4262 0.0000 0.0000 0.0000
# 3 10.6671 2.4262 92.4569 0.0000 0.0000 0.0000
# 4 0.0000 0.0000 0.0000 26.7219 0.0000 0.0000
# 5 0.0000 0.0000 0.0000 0.0000 90.2051 0.0000
# 6 0.0000 0.0000 0.0000 0.0000 0.0000 20.6326
#
#
#
# Elastic Compliance Matrix: (Units=1/GPa)
#
#
# Indices 1 2 3 4 5 6 
#
# 1 0.006954 -0.001837 -0.000754 0.000000 0.000000 0.000000
# 2 -0.001837 0.014410 -0.000166 0.000000 0.000000 0.000000
# 3 -0.000754 -0.000166 0.010907 0.000000 0.000000 0.000000
# 4 0.000000 0.000000 0.000000 0.037423 0.000000 0.000000
# 5 0.000000 0.000000 0.000000 0.000000 0.011086 0.000000
# 6 0.000000 0.000000 0.000000 0.000000 0.000000 0.048467
#
#
# Mechanical properties :
#
#
# Convention : Reuss Voigt Hill
#
# Bulk Modulus (GPa) = 37.37360 42.11756 39.74558
# Shear Modulus (GPa) = 34.79972 46.31426 40.55699
#
# Velocity S-wave (km/s) = 3.85712 4.44971 4.16397
# Velocity P-wave (km/s) = 5.98449 6.66376 6.33324
#
# Compressibility (1/GPa) = 0.02675685
#
# Stress axis : x y z
#
# Youngs Moduli (GPa) = 143.79932 69.39823 91.68239
#
# Poissons Ratio (x) = 0.12746 0.06914
# Poissons Ratio (y) = 0.26412 0.01524
# Poissons Ratio (z) = 0.10844 0.01154
#
# Static dielectric constant tensor:
#      x y z
#    x 4.749600 0.000000 0.000000 
#    y 0.000000 4.022990 0.000000 
#    z 0.000000 0.000000 4.482900 
# 
# 
# High freq. dielectric constant tensor:
#      x y z
#    x 1.940000 0.000000 0.000000 
#    y 0.000000 1.917170 0.000000 
#    z 0.000000 0.000000 1.925690 
# 
# From -- ./inp_files/24897.got.cif
#   From: 2010.03.12/outbox.cif.g09.slc.cpg/sg40_13_cif.got.tgz:24897.got - 2010.04.14 01:38:03.
