data_PCOD8184205
_publ_section_title
;
Structure prediction by ZEFSAII (Michael W. Deem and Ramdas Pophale) SiO2 
 PCOD8184205
Probable space group: A M A 2
;
_chemical_formula_sum "Si O2"
_cell_formula_units_Z 48
_cell_length_a 10.045416
_cell_length_b 7.642925
_cell_length_c 30.296892
_cell_angle_alpha 90.000000
_cell_angle_beta 90.000000
_cell_angle_gamma 90.000000
_cell_volume 2326.085120
_symmetry_space_group_name_H-M "A M A 2"
_symmetry_group_IT_number 40
_symmetry_cell_setting 'orthorhombic'
loop_
_space_group_symop_operation_xyz
x,y,z
-x,-y,z
1/2-x,y,z
1/2+x,-y,z
x,1/2+y,1/2+z
-x,1/2-y,1/2+z
1/2-x,1/2+y,1/2+z
1/2+x,1/2-y,1/2+z
loop_
_atom_site_type_symbol
_atom_site_label
_atom_site_fract_x
_atom_site_fract_y
_atom_site_fract_z
Si Si1 0.598706 0.354106 0.387710
Si Si2 0.500000 0.000000 0.608934
Si Si3 0.750000 0.946074 0.669813
Si Si4 0.095740 0.160046 0.057204
Si Si5 0.750000 0.741280 0.245633
Si Si6 0.396907 0.355483 0.972253
Si Si7 0.487421 0.801833 0.296660
Si Si8 0.250000 0.856629 0.232753
O O1 0.500000 0.500000 0.405960
O O2 0.750000 0.423846 0.388355
O O3 0.581755 0.193038 0.421125
O O4 0.558451 0.308024 0.338267
O O5 0.378230 0.041083 0.640209
O O6 0.461351 0.834598 0.579397
O O7 0.750000 0.093798 0.708158
O O8 0.750000 0.747703 0.687413
O O9 0.250000 0.124414 0.071718
O O10 0.088493 0.187400 0.004279
O O11 0.000000 0.000000 0.070994
O O12 0.622809 0.720138 0.277425
O O13 0.750000 0.934912 0.223516
O O14 0.500000 0.500000 0.987386
O O15 0.250000 0.436987 0.978487
O O16 0.379564 0.793465 0.258451
O O17 0.500000 0.000000 0.313261
#
# Coordination Sequence:
#
# PCOD8184205 Si02
#       8
#     8   4   4   8   4   8   8   4
#     4  11  24  38  58  93 131 170 221 274 321 390
#     4  12  26  46  68 104 140 172 234 288 346 418
#     4  12  26  42  70  96 132 174 228 286 342 412
#     4  11  25  45  74 104 139 185 227 280 347 413
#     4  10  24  40  64  95 125 175 226 270 345 408
#     4  10  22  42  67  97 136 176 224 273 334 399
#     4  10  21  39  61  88 128 169 221 270 332 395
#     4  10  22  42  64  89 129 175 218 282 333 400
#
# _framework density 20.635531
#
# number of rings (size 3 to 8) (size 9 to 14) (size 15 to 20)
#    0.000    1.333    2.500    2.000    4.667    2.667 
#    0.000    0.000    0.000    0.000    0.000    0.000 
#    0.000    0.000    0.000    0.000    0.000    0.000 
#
# Total GULP energy -297600.876335 kJ/mol
# GULP energy per Si atom -12400.036514 kJ/mol
# Density = 2.058856 g / cm^3
# Si number density = 20.635531 Si / 1000 Ang^3
#
#
#
# Elastic Constant Matrix: (Units=GPa)
#
#
# Indices 1 2 3 4 5 6 
#
# 1 173.6496 60.2191 41.3430 0.0000 0.0000 0.0000
# 2 60.2191 100.6683 35.2185 0.0000 0.0000 0.0000
# 3 41.3430 35.2185 82.4149 0.0000 0.0000 0.0000
# 4 0.0000 0.0000 0.0000 16.4368 0.0000 0.0000
# 5 0.0000 0.0000 0.0000 0.0000 10.7854 0.0000
# 6 0.0000 0.0000 0.0000 0.0000 0.0000 49.2138
#
#
#
# Elastic Compliance Matrix: (Units=1/GPa)
#
#
# Indices 1 2 3 4 5 6 
#
# 1 0.007589 -0.003772 -0.002195 0.000000 0.000000 0.000000
# 2 -0.003772 0.013554 -0.003900 0.000000 0.000000 0.000000
# 3 -0.002195 -0.003900 0.014902 0.000000 0.000000 0.000000
# 4 0.000000 0.000000 0.000000 0.060839 0.000000 0.000000
# 5 0.000000 0.000000 0.000000 0.000000 0.092718 0.000000
# 6 0.000000 0.000000 0.000000 0.000000 0.000000 0.020320
#
#
# Mechanical properties :
#
#
# Convention : Reuss Voigt Hill
#
# Bulk Modulus (GPa) = 61.30900 70.03267 65.67084
# Shear Modulus (GPa) = 21.26812 29.95068 25.60940
#
# Velocity S-wave (km/s) = 3.21387 3.81387 3.52665
# Velocity P-wave (km/s) = 6.59900 7.30793 6.96249
#
# Compressibility (1/GPa) = 0.01631082
#
# Stress axis : x y z
#
# Youngs Moduli (GPa) = 131.76199 73.77698 67.10674
#
# Poissons Ratio (x) = 0.27828 0.14732
# Poissons Ratio (y) = 0.49700 0.26172
# Poissons Ratio (z) = 0.28926 0.28773
#
# Static dielectric constant tensor:
#      x y z
#    x 4.018900 0.000000 0.000000 
#    y 0.000000 3.734380 0.000000 
#    z 0.000000 0.000000 3.699640 
# 
# 
# High freq. dielectric constant tensor:
#      x y z
#    x 1.829750 0.000000 0.000000 
#    y 0.000000 1.799260 0.000000 
#    z 0.000000 0.000000 1.812360 
# 
# From -- ./inp_files/26232.got.cif
#   From: 2010.03.12/outbox.cif.g09.slc.cpg/sg40_14_cif.got.tgz:26232.got - 2010.04.14 01:38:03.
