data_PCOD8184640
_publ_section_title
;
Structure prediction by ZEFSAII (Michael W. Deem and Ramdas Pophale) SiO2 
 PCOD8184640
Probable space group: A M A 2
;
_chemical_formula_sum "Si O2"
_cell_formula_units_Z 64
_cell_length_a 16.765798
_cell_length_b 8.972091
_cell_length_c 23.174310
_cell_angle_alpha 90.000000
_cell_angle_beta 90.000000
_cell_angle_gamma 90.000000
_cell_volume 3485.978557
_symmetry_space_group_name_H-M "A M A 2"
_symmetry_group_IT_number 40
_symmetry_cell_setting 'orthorhombic'
loop_
_space_group_symop_operation_xyz
x,y,z
-x,-y,z
1/2-x,y,z
1/2+x,-y,z
x,1/2+y,1/2+z
-x,1/2-y,1/2+z
1/2-x,1/2+y,1/2+z
1/2+x,1/2-y,1/2+z
loop_
_atom_site_type_symbol
_atom_site_label
_atom_site_fract_x
_atom_site_fract_y
_atom_site_fract_z
Si Si1 0.488932 0.671650 0.205080
Si Si2 0.341024 0.674444 0.034134
Si Si3 0.925532 0.603679 0.313881
Si Si4 0.512426 0.674426 0.587973
Si Si5 0.158603 0.173352 0.781138
Si Si6 0.926854 0.106906 0.504922
Si Si7 0.340577 0.858428 0.391766
Si Si8 0.661380 0.296657 0.901084
O O1 0.500000 0.500000 0.184234
O O2 0.550585 0.701789 0.257701
O O3 0.508860 0.783526 0.153583
O O4 0.398404 0.703416 0.226384
O O5 0.250000 0.696574 0.054290
O O6 0.396844 0.774993 0.074892
O O7 0.361905 0.497929 0.037368
O O8 0.354540 0.726587 0.968542
O O9 0.849758 0.499404 0.299606
O O10 0.905856 0.706778 0.367558
O O11 0.000000 0.500000 0.330651
O O12 0.500000 0.500000 0.578483
O O13 0.451393 0.760269 0.546788
O O14 0.250000 0.208111 0.764033
O O15 0.128940 0.275515 0.834561
O O16 0.893056 0.185427 0.447401
O O17 0.000000 0.000000 0.487479
O O18 0.250000 0.809777 0.405022
O O19 0.347085 0.033792 0.381555
O O20 0.750000 0.239230 0.885486
#
# Coordination Sequence:
#
# PCOD8184640 Si02
#       8
#     8   8   8   8   8   8   8   8
#     4   9  20  37  52  69  98 137 179 213 248 305
#     4   9  19  36  57  79 105 142 181 212 253 314
#     4   9  19  32  50  75 103 131 168 209 249 302
#     4  11  23  37  54  78 107 136 174 226 274 310
#     4   9  18  32  52  77 102 131 166 206 255 305
#     4   9  18  33  55  77 102 138 177 210 252 312
#     4   9  18  32  51  78 107 133 166 207 251 303
#     4   9  17  31  52  77 105 134 164 203 252 305
#
# _framework density 18.359264
#
# number of rings (size 3 to 8) (size 9 to 14) (size 15 to 20)
#    0.000    3.000    0.000    2.625    0.000    9.000 
#    0.000    3.125    0.000    6.000    0.000    0.000 
#    0.000    0.000    0.000    0.000    0.000    0.000 
#
# Total GULP energy -396697.428651 kJ/mol
# GULP energy per Si atom -12396.794645 kJ/mol
# Density = 1.831748 g / cm^3
# Si number density = 18.359264 Si / 1000 Ang^3
#
#
#
# Elastic Constant Matrix: (Units=GPa)
#
#
# Indices 1 2 3 4 5 6 
#
# 1 80.5452 39.6369 52.8541 0.0000 0.0000 0.0000
# 2 39.6369 77.1609 56.5145 0.0000 0.0000 0.0000
# 3 52.8541 56.5145 97.7801 0.0000 0.0000 0.0000
# 4 0.0000 0.0000 0.0000 32.1162 0.0000 0.0000
# 5 0.0000 0.0000 0.0000 0.0000 22.4930 0.0000
# 6 0.0000 0.0000 0.0000 0.0000 0.0000 22.0618
#
#
#
# Elastic Compliance Matrix: (Units=1/GPa)
#
#
# Indices 1 2 3 4 5 6 
#
# 1 0.019952 -0.004075 -0.008430 0.000000 0.000000 0.000000
# 2 -0.004075 0.023306 -0.011267 0.000000 0.000000 0.000000
# 3 -0.008430 -0.011267 0.021296 0.000000 0.000000 0.000000
# 4 0.000000 0.000000 0.000000 0.031137 0.000000 0.000000
# 5 0.000000 0.000000 0.000000 0.000000 0.044458 0.000000
# 6 0.000000 0.000000 0.000000 0.000000 0.000000 0.045327
#
#
# Mechanical properties :
#
#
# Convention : Reuss Voigt Hill
#
# Bulk Modulus (GPa) = 58.79064 61.49971 60.14517
# Shear Modulus (GPa) = 20.94758 22.43293 21.69025
#
# Velocity S-wave (km/s) = 3.38151 3.49934 3.44093
# Velocity P-wave (km/s) = 6.88026 7.06384 6.97265
#
# Compressibility (1/GPa) = 0.01700951
#
# Stress axis : x y z
#
# Youngs Moduli (GPa) = 50.11904 42.90770 46.95745
#
# Poissons Ratio (x) = 0.17486 0.39584
# Poissons Ratio (y) = 0.20425 0.52909
# Poissons Ratio (z) = 0.42249 0.48346
#
# Static dielectric constant tensor:
#      x y z
#    x 3.510610 0.000000 0.000000 
#    y 0.000000 3.241320 0.000000 
#    z 0.000000 0.000000 3.252230 
# 
# 
# High freq. dielectric constant tensor:
#      x y z
#    x 1.715970 0.000000 0.000000 
#    y 0.000000 1.692620 0.000000 
#    z 0.000000 0.000000 1.703950 
# 
# From -- ./inp_files/24938.got.cif
#   From: 2010.03.12/outbox.cif.g09.slc.cpg/sg40_13_cif.got.tgz:24938.got - 2010.04.14 01:38:03.
