data_PCOD8184112
_publ_section_title
;
Structure prediction by ZEFSAII (Michael W. Deem and Ramdas Pophale) SiO2 
 PCOD8184112
Probable space group: A M A 2
;
_chemical_formula_sum "Si O2"
_cell_formula_units_Z 56
_cell_length_a 9.020739
_cell_length_b 23.876978
_cell_length_c 13.791629
_cell_angle_alpha 90.000000
_cell_angle_beta 90.000000
_cell_angle_gamma 90.000000
_cell_volume 2970.551203
_symmetry_space_group_name_H-M "A M A 2"
_symmetry_group_IT_number 40
_symmetry_cell_setting 'orthorhombic'
loop_
_space_group_symop_operation_xyz
x,y,z
-x,-y,z
1/2-x,y,z
1/2+x,-y,z
x,1/2+y,1/2+z
-x,1/2-y,1/2+z
1/2-x,1/2+y,1/2+z
1/2+x,1/2-y,1/2+z
loop_
_atom_site_type_symbol
_atom_site_label
_atom_site_fract_x
_atom_site_fract_y
_atom_site_fract_z
Si Si1 0.926776 0.941333 0.417390
Si Si2 0.424970 0.442924 0.338111
Si Si3 0.923961 0.668993 0.239790
Si Si4 0.923710 0.159430 0.521248
Si Si5 0.422208 0.883694 0.244128
Si Si6 0.920468 0.230356 0.338655
Si Si7 0.078467 0.444649 0.555908
O O1 0.750000 0.946101 0.420612
O O2 0.981671 0.895032 0.493988
O O3 0.978771 0.924642 0.309499
O O4 0.000000 0.000000 0.447491
O O5 0.500000 0.500000 0.301038
O O6 0.250000 0.450857 0.330294
O O7 0.482390 0.392151 0.271568
O O8 0.476394 0.428684 0.448229
O O9 0.750000 0.671520 0.253669
O O10 0.970412 0.679571 0.128467
O O11 0.987356 0.715368 0.311565
O O12 0.750000 0.143372 0.515694
O O13 0.959332 0.210324 0.447782
O O14 0.250000 0.895079 0.270456
O O15 0.462758 0.819373 0.264540
O O16 0.456584 0.894617 0.130960
O O17 0.750000 0.246832 0.329407
O O18 0.250000 0.458875 0.553350
O O19 0.000000 0.500000 0.595358
#
# Coordination Sequence:
#
# PCOD8184112 Si02
#       7
#     8   8   8   8   8   8   8
#     4  11  21  33  52  78 107 141 179 221 267 317
#     4   9  19  35  53  76 104 134 170 214 258 305
#     4  10  21  37  58  80 104 135 172 214 260 308
#     4   9  20  39  56  75 106 140 175 220 265 308
#     4   9  18  33  51  74 107 144 178 216 260 309
#     4   9  19  35  54  76 105 137 170 211 260 310
#     4   9  17  30  49  73 103 137 172 210 256 305
#
# _framework density 18.851721000000001
#
# number of rings (size 3 to 8) (size 9 to 14) (size 15 to 20)
#    0.000    2.571    0.000    2.571    0.000    6.857 
#    0.000    2.857    0.000    0.000    0.000    0.000 
#    0.000    0.000    0.000    0.000    0.000    0.000 
#
# Total GULP energy -347186.833860 kJ/mol
# GULP energy per Si atom -12399.529781 kJ/mol
# Density = 1.880881 g / cm^3
# Si number density = 18.851721 Si / 1000 Ang^3
#
#
#
# Elastic Constant Matrix: (Units=GPa)
#
#
# Indices 1 2 3 4 5 6 
#
# 1 63.1824 48.0334 34.0462 0.0000 0.0000 0.0000
# 2 48.0334 137.5025 72.8318 0.0000 0.0000 0.0000
# 3 34.0462 72.8318 116.4890 0.0000 0.0000 0.0000
# 4 0.0000 0.0000 0.0000 26.2593 0.0000 0.0000
# 5 0.0000 0.0000 0.0000 0.0000 8.7775 0.0000
# 6 0.0000 0.0000 0.0000 0.0000 0.0000 34.8598
#
#
#
# Elastic Compliance Matrix: (Units=1/GPa)
#
#
# Indices 1 2 3 4 5 6 
#
# 1 0.022001 -0.006399 -0.002430 0.000000 0.000000 0.000000
# 2 -0.006399 0.012734 -0.006092 0.000000 0.000000 0.000000
# 3 -0.002430 -0.006092 0.013103 0.000000 0.000000 0.000000
# 4 0.000000 0.000000 0.000000 0.038082 0.000000 0.000000
# 5 0.000000 0.000000 0.000000 0.000000 0.113928 0.000000
# 6 0.000000 0.000000 0.000000 0.000000 0.000000 0.028686
#
#
# Mechanical properties :
#
#
# Convention : Reuss Voigt Hill
#
# Bulk Modulus (GPa) = 55.55973 69.66630 62.61301
# Shear Modulus (GPa) = 18.91261 24.79682 21.85472
#
# Velocity S-wave (km/s) = 3.17082 3.63073 3.40854
# Velocity P-wave (km/s) = 6.55297 7.38995 6.98401
#
# Compressibility (1/GPa) = 0.01799865
#
# Stress axis : x y z
#
# Youngs Moduli (GPa) = 45.45285 78.52702 76.31638
#
# Poissons Ratio (x) = 0.50246 0.18542
# Poissons Ratio (y) = 0.29083 0.46490
# Poissons Ratio (z) = 0.11043 0.47837
#
# Static dielectric constant tensor:
#      x y z
#    x 3.333180 0.000000 0.000000 
#    y 0.000000 3.399300 0.000000 
#    z 0.000000 0.000000 3.617910 
# 
# 
# High freq. dielectric constant tensor:
#      x y z
#    x 1.721630 0.000000 0.000000 
#    y 0.000000 1.726450 0.000000 
#    z 0.000000 0.000000 1.734460 
# 
# From -- ./inp_files/15293.got.cif
#   From: 2010.03.12/outbox.cif.g09.slc.cpg/sg40_8_cif.got.tgz:15293.got - 2010.04.14 01:38:03.
