data_PCOD8184520
_publ_section_title
;
Structure prediction by ZEFSAII (Michael W. Deem and Ramdas Pophale) SiO2 
 PCOD8184520
Probable space group: A M A 2
;
_chemical_formula_sum "Si O2"
_cell_formula_units_Z 64
_cell_length_a 16.606577
_cell_length_b 15.346110
_cell_length_c 11.814890
_cell_angle_alpha 90.000000
_cell_angle_beta 90.000000
_cell_angle_gamma 90.000000
_cell_volume 3010.981679
_symmetry_space_group_name_H-M "A M A 2"
_symmetry_group_IT_number 40
_symmetry_cell_setting 'orthorhombic'
loop_
_space_group_symop_operation_xyz
x,y,z
-x,-y,z
1/2-x,y,z
1/2+x,-y,z
x,1/2+y,1/2+z
-x,1/2-y,1/2+z
1/2-x,1/2+y,1/2+z
1/2+x,1/2-y,1/2+z
loop_
_atom_site_type_symbol
_atom_site_label
_atom_site_fract_x
_atom_site_fract_y
_atom_site_fract_z
Si Si1 0.584418 0.179089 0.955340
Si Si2 0.340727 0.167349 0.836667
Si Si3 0.653170 0.825734 0.288314
Si Si4 0.844062 0.173679 0.195772
Si Si5 0.658695 0.593786 0.082875
Si Si6 0.587648 0.014186 0.794459
Si Si7 0.656764 0.516579 0.844203
Si Si8 0.910790 0.271533 0.553997
O O1 0.617382 0.253171 0.871934
O O2 0.585086 0.086795 0.892155
O O3 0.643113 0.168890 0.062203
O O4 0.496960 0.202591 0.003475
O O5 0.250000 0.146064 0.801266
O O6 0.380526 0.235805 0.746748
O O7 0.388519 0.077840 0.847774
O O8 0.343020 0.211934 0.959556
O O9 0.750000 0.814587 0.282493
O O10 0.611881 0.823516 0.166064
O O11 0.622567 0.919880 0.329014
O O12 0.750000 0.175735 0.224198
O O13 0.882867 0.089910 0.261266
O O14 0.750000 0.630381 0.079993
O O15 0.649714 0.536545 0.195360
O O16 0.593150 0.670236 0.087542
O O17 0.639783 0.536081 0.974458
O O18 0.500000 0.000000 0.740487
O O19 0.750000 0.513783 0.813936
#
# Coordination Sequence:
#
# PCOD8184520 Si02
#       8
#     8   8   8   8   8   8   8   8
#     4  12  28  44  67 100 145 178 223 290 351 413
#     4  11  24  44  71  98 132 181 233 279 341 415
#     4  11  25  46  72 102 137 184 235 282 344 421
#     4  10  23  43  70 100 134 177 226 283 345 414
#     4  11  23  44  73 100 134 183 237 287 337 411
#     4  12  27  45  64 101 142 181 227 286 351 416
#     4   9  21  42  69 102 131 165 224 283 332 398
#     4  12  25  43  70  99 137 184 227 284 346 412
#
# _framework density 21.255524999999999
#
# number of rings (size 3 to 8) (size 9 to 14) (size 15 to 20)
#    0.000    1.000    3.750    1.875    7.000    1.500 
#    0.000    1.250    0.000    0.000    0.000    0.000 
#    0.000    0.000    0.000    0.000    0.000    0.000 
#
# Total GULP energy -396767.544150 kJ/mol
# GULP energy per Si atom -12398.985755 kJ/mol
# Density = 2.120715 g / cm^3
# Si number density = 21.255525 Si / 1000 Ang^3
#
#
#
# Elastic Constant Matrix: (Units=GPa)
#
#
# Indices 1 2 3 4 5 6 
#
# 1 67.9242 28.8478 25.3449 0.0000 0.0000 0.0000
# 2 28.8478 143.8155 43.1630 0.0000 0.0000 0.0000
# 3 25.3449 43.1630 135.4111 0.0000 0.0000 0.0000
# 4 0.0000 0.0000 0.0000 32.3016 0.0000 0.0000
# 5 0.0000 0.0000 0.0000 0.0000 33.9510 0.0000
# 6 0.0000 0.0000 0.0000 0.0000 0.0000 22.5632
#
#
#
# Elastic Compliance Matrix: (Units=1/GPa)
#
#
# Indices 1 2 3 4 5 6 
#
# 1 0.016705 -0.002668 -0.002276 0.000000 0.000000 0.000000
# 2 -0.002668 0.008115 -0.002087 0.000000 0.000000 0.000000
# 3 -0.002276 -0.002087 0.008476 0.000000 0.000000 0.000000
# 4 0.000000 0.000000 0.000000 0.030958 0.000000 0.000000
# 5 0.000000 0.000000 0.000000 0.000000 0.029454 0.000000
# 6 0.000000 0.000000 0.000000 0.000000 0.000000 0.044320
#
#
# Mechanical properties :
#
#
# Convention : Reuss Voigt Hill
#
# Bulk Modulus (GPa) = 51.99305 60.20691 56.09998
# Shear Modulus (GPa) = 31.54535 34.41615 32.98075
#
# Velocity S-wave (km/s) = 3.85658 4.02825 3.94335
# Velocity P-wave (km/s) = 6.65921 7.07266 6.86904
#
# Compressibility (1/GPa) = 0.01923334
#
# Stress axis : x y z
#
# Youngs Moduli (GPa) = 59.86374 123.22973 117.97540
#
# Poissons Ratio (x) = 0.32872 0.26855
# Poissons Ratio (y) = 0.15969 0.24626
# Poissons Ratio (z) = 0.13627 0.25723
#
# Static dielectric constant tensor:
#      x y z
#    x 3.685610 0.000000 0.000000 
#    y 0.000000 4.094040 0.000000 
#    z 0.000000 0.000000 3.885060 
# 
# 
# High freq. dielectric constant tensor:
#      x y z
#    x 1.820240 0.000000 0.000000 
#    y 0.000000 1.850140 0.000000 
#    z 0.000000 0.000000 1.844980 
# 
# From -- ./inp_files/13113.got.cif
#   From: 2010.03.12/outbox.cif.g09.slc.cpg/sg40_7_cif.got.tgz:13113.got - 2010.04.14 01:38:03.
