data_PCOD8184273
_publ_section_title
;
Structure prediction by ZEFSAII (Michael W. Deem and Ramdas Pophale) SiO2 
 PCOD8184273
Probable space group: A M A 2
;
_chemical_formula_sum "Si O2"
_cell_formula_units_Z 56
_cell_length_a 18.739817
_cell_length_b 15.626048
_cell_length_c 8.779495
_cell_angle_alpha 90.000000
_cell_angle_beta 90.000000
_cell_angle_gamma 90.000000
_cell_volume 2570.893199
_symmetry_space_group_name_H-M "A M A 2"
_symmetry_group_IT_number 40
_symmetry_cell_setting 'orthorhombic'
loop_
_space_group_symop_operation_xyz
x,y,z
-x,-y,z
1/2-x,y,z
1/2+x,-y,z
x,1/2+y,1/2+z
-x,1/2-y,1/2+z
1/2-x,1/2+y,1/2+z
1/2+x,1/2-y,1/2+z
loop_
_atom_site_type_symbol
_atom_site_label
_atom_site_fract_x
_atom_site_fract_y
_atom_site_fract_z
Si Si1 0.335354 0.795586 0.361900
Si Si2 0.670494 0.038136 0.182626
Si Si3 0.108398 0.501235 0.368205
Si Si4 0.668510 0.867100 0.339539
Si Si5 0.567059 0.762336 0.116285
Si Si6 0.169384 0.132793 0.675468
Si Si7 0.007977 0.857753 0.853827
O O1 0.250000 0.799180 0.394996
O O2 0.359897 0.872964 0.250962
O O3 0.381102 0.799796 0.517403
O O4 0.361482 0.705036 0.289796
O O5 0.750000 0.056420 0.120986
O O6 0.669661 0.969081 0.316322
O O7 0.627513 0.993568 0.045802
O O8 0.168797 0.537374 0.253035
O O9 0.086629 0.402179 0.348978
O O10 0.046660 0.566899 0.318070
O O11 0.750000 0.831702 0.323353
O O12 0.617961 0.820419 0.220027
O O13 0.634036 0.858076 0.508432
O O14 0.511239 0.710945 0.219935
O O15 0.512619 0.817908 0.015644
O O16 0.250000 0.157845 0.644255
#
# Coordination Sequence:
#
# PCOD8184273 Si02
#       7
#     8   8   8   8   8   8   8
#     4  10  22  41  68  99 130 168 215 276 338 393
#     4  10  21  40  69 100 128 164 211 267 333 392
#     4  11  23  45  62  91 130 173 215 265 319 396
#     4  10  22  41  69  99 128 168 214 272 334 389
#     4  12  25  45  64  91 130 176 224 275 324 398
#     4  10  21  40  68  99 132 168 212 268 335 395
#     4  11  28  42  64  90 125 176 226 263 323 389
#
# _framework density 21.782312999999998
#
# number of rings (size 3 to 8) (size 9 to 14) (size 15 to 20)
#    0.000    1.429    2.857    0.857    8.000    2.286 
#    0.000    1.429    0.000    0.000    0.000    0.000 
#    0.000    0.000    0.000    0.000    0.000    0.000 
#
# Total GULP energy -346943.950724 kJ/mol
# GULP energy per Si atom -12390.855383 kJ/mol
# Density = 2.173274 g / cm^3
# Si number density = 21.782313 Si / 1000 Ang^3
#
#
#
# Elastic Constant Matrix: (Units=GPa)
#
#
# Indices 1 2 3 4 5 6 
#
# 1 52.7936 39.1438 41.4312 0.0000 0.0000 0.0000
# 2 39.1438 105.0632 60.1798 0.0000 0.0000 0.0000
# 3 41.4312 60.1798 146.8268 0.0000 0.0000 0.0000
# 4 0.0000 0.0000 0.0000 44.4824 0.0000 0.0000
# 5 0.0000 0.0000 0.0000 0.0000 38.8677 0.0000
# 6 0.0000 0.0000 0.0000 0.0000 0.0000 36.3890
#
#
#
# Elastic Compliance Matrix: (Units=1/GPa)
#
#
# Indices 1 2 3 4 5 6 
#
# 1 0.028577 -0.007878 -0.004835 0.000000 0.000000 0.000000
# 2 -0.007878 0.014610 -0.003765 0.000000 0.000000 0.000000
# 3 -0.004835 -0.003765 0.009718 0.000000 0.000000 0.000000
# 4 0.000000 0.000000 0.000000 0.022481 0.000000 0.000000
# 5 0.000000 0.000000 0.000000 0.000000 0.025728 0.000000
# 6 0.000000 0.000000 0.000000 0.000000 0.000000 0.027481
#
#
# Mechanical properties :
#
#
# Convention : Reuss Voigt Hill
#
# Bulk Modulus (GPa) = 50.12669 65.13257 57.62963
# Shear Modulus (GPa) = 29.72649 34.87640 32.30145
#
# Velocity S-wave (km/s) = 3.69820 4.00576 3.85505
# Velocity P-wave (km/s) = 6.42636 7.16668 6.80659
#
# Compressibility (1/GPa) = 0.01994945
#
# Stress axis : x y z
#
# Youngs Moduli (GPa) = 34.99334 68.44755 102.89847
#
# Poissons Ratio (x) = 0.53920 0.49751
# Poissons Ratio (y) = 0.27566 0.38744
# Poissons Ratio (z) = 0.16919 0.25772
#
# Static dielectric constant tensor:
#      x y z
#    x 4.074150 0.000000 0.000000 
#    y 0.000000 4.180880 0.000000 
#    z 0.000000 0.000000 3.965970 
# 
# 
# High freq. dielectric constant tensor:
#      x y z
#    x 1.852760 0.000000 0.000000 
#    y 0.000000 1.855420 0.000000 
#    z 0.000000 0.000000 1.858450 
# 
# From -- ./inp_files/8286.got.cif
#   From: 2010.03.12/outbox.cif.g09.slc.cpg/sg40_5_cif.got.tgz:8286.got - 2010.04.14 01:38:03.
