data_PCOD8184099
_publ_section_title
;
Structure prediction by ZEFSAII (Michael W. Deem and Ramdas Pophale) SiO2 
 PCOD8184099
Probable space group: A M A 2
;
_chemical_formula_sum "Si O2"
_cell_formula_units_Z 40
_cell_length_a 8.802263
_cell_length_b 13.439471
_cell_length_c 18.547050
_cell_angle_alpha 90.000000
_cell_angle_beta 90.000000
_cell_angle_gamma 90.000000
_cell_volume 2194.074439
_symmetry_space_group_name_H-M "A M A 2"
_symmetry_group_IT_number 40
_symmetry_cell_setting 'orthorhombic'
loop_
_space_group_symop_operation_xyz
x,y,z
-x,-y,z
1/2-x,y,z
1/2+x,-y,z
x,1/2+y,1/2+z
-x,1/2-y,1/2+z
1/2-x,1/2+y,1/2+z
1/2+x,1/2-y,1/2+z
loop_
_atom_site_type_symbol
_atom_site_label
_atom_site_fract_x
_atom_site_fract_y
_atom_site_fract_z
Si Si1 0.928290 0.805325 0.279970
Si Si2 0.571604 0.712505 0.070090
Si Si3 0.430167 0.896110 0.139602
Si Si4 0.071394 0.892056 0.421040
Si Si5 0.074949 0.398650 0.209944
O O1 0.750000 0.829404 0.278667
O O2 0.960646 0.688720 0.266788
O O3 0.006579 0.871204 0.218716
O O4 0.998728 0.831155 0.356328
O O5 0.750000 0.734823 0.080259
O O6 0.480790 0.814808 0.080682
O O7 0.515885 0.634258 0.130859
O O8 0.531444 0.668498 0.992789
O O9 0.250000 0.902821 0.142874
O O10 0.500000 0.000000 0.113584
O O11 0.250000 0.902768 0.409053
O O12 0.000000 0.000000 0.426916
O O13 0.250000 0.422372 0.205252
O O14 0.000000 0.500000 0.236905
#
# Coordination Sequence:
#
# PCOD8184099 Si02
#       5
#     8   8   8   8   8
#     4  10  21  37  54  77 110 143 180 222 265 315
#     4   9  20  37  54  78 110 140 174 217 264 316
#     4  11  21  35  57  81 106 139 179 222 268 316
#     4  11  22  36  56  81 110 142 176 218 267 317
#     4   9  18  33  54  77 103 136 172 215 262 310
#
# _framework density 18.230920999999999
#
# number of rings (size 3 to 8) (size 9 to 14) (size 15 to 20)
#    0.000    2.000    0.000    5.400    0.000    5.600 
#    0.000    1.000    0.000    2.400    0.000    0.000 
#    0.000    0.000    0.000    0.000    0.000    0.000 
#
# Total GULP energy -248050.619385 kJ/mol
# GULP energy per Si atom -12402.530969 kJ/mol
# Density = 1.818943 g / cm^3
# Si number density = 18.230921 Si / 1000 Ang^3
#
#
#
# Elastic Constant Matrix: (Units=GPa)
#
#
# Indices 1 2 3 4 5 6 
#
# 1 114.1504 77.6497 66.0559 0.0000 0.0000 0.0000
# 2 77.6497 155.4008 67.4045 0.0000 0.0000 0.0000
# 3 66.0559 67.4045 125.4825 0.0000 0.0000 0.0000
# 4 0.0000 0.0000 0.0000 17.4473 0.0000 0.0000
# 5 0.0000 0.0000 0.0000 0.0000 394.3855 0.0000
# 6 0.0000 0.0000 0.0000 0.0000 0.0000 36.4609
#
#
#
# Elastic Compliance Matrix: (Units=1/GPa)
#
#
# Indices 1 2 3 4 5 6 
#
# 1 0.015513 -0.005488 -0.005218 0.000000 0.000000 0.000000
# 2 -0.005488 0.010331 -0.002661 0.000000 0.000000 0.000000
# 3 -0.005218 -0.002661 0.012145 0.000000 0.000000 0.000000
# 4 0.000000 0.000000 0.000000 0.057315 0.000000 0.000000
# 5 0.000000 0.000000 0.000000 0.000000 0.002536 0.000000
# 6 0.000000 0.000000 0.000000 0.000000 0.000000 0.027427
#
#
# Mechanical properties :
#
#
# Convention : Reuss Voigt Hill
#
# Bulk Modulus (GPa) = 88.84271 90.80598 89.82434
# Shear Modulus (GPa) = 32.10188 101.92030 67.01109
#
# Velocity S-wave (km/s) = 4.20080 7.48509 6.06932
# Velocity P-wave (km/s) = 8.50686 11.16329 9.92435
#
# Compressibility (1/GPa) = 0.01125585
#
# Stress axis : x y z
#
# Youngs Moduli (GPa) = 64.46022 96.79372 82.33539
#
# Poissons Ratio (x) = 0.53122 0.42966
# Poissons Ratio (y) = 0.35377 0.21905
# Poissons Ratio (z) = 0.33638 0.25752
#
# Static dielectric constant tensor:
#      x y z
#    x 3.185490 0.000000 0.000000 
#    y 0.000000 3.467580 0.000000 
#    z 0.000000 0.000000 3.321380 
# 
# 
# High freq. dielectric constant tensor:
#      x y z
#    x 1.715700 0.000000 0.000000 
#    y 0.000000 1.715960 0.000000 
#    z 0.000000 0.000000 1.696510 
# 
# From -- ./inp_files/14797.got.cif
#   From: 2010.03.12/outbox.cif.g09.slc.cpg/sg40_8_cif.got.tgz:14797.got - 2010.04.14 01:38:03.
