data_PCOD8184911
_publ_section_title
;
Structure prediction by ZEFSAII (Michael W. Deem and Ramdas Pophale) SiO2 
 PCOD8184911
Probable space group: A B A 2
;
_chemical_formula_sum "Si O2"
_cell_formula_units_Z 64
_cell_length_a 5.046651
_cell_length_b 30.542174
_cell_length_c 19.246984
_cell_angle_alpha 90.000000
_cell_angle_beta 90.000000
_cell_angle_gamma 90.000000
_cell_volume 2966.647216
_symmetry_space_group_name_H-M "A B A 2"
_symmetry_group_IT_number 41
_symmetry_cell_setting 'orthorhombic'
loop_
_space_group_symop_operation_xyz
x,y,z
-x,-y,z
1/2-x,y,1/2+z
1/2+x,-y,1/2+z
x,1/2+y,1/2+z
-x,1/2-y,1/2+z
1/2-x,1/2+y,z
1/2+x,1/2-y,z
loop_
_atom_site_type_symbol
_atom_site_label
_atom_site_fract_x
_atom_site_fract_y
_atom_site_fract_z
Si Si1 0.632002 0.274219 0.449090
Si Si2 0.093230 0.953161 0.585894
Si Si3 0.618120 0.276010 0.613440
Si Si4 0.787158 0.871602 0.122093
Si Si5 0.354728 0.957401 0.243153
Si Si6 0.394911 0.129800 0.913947
Si Si7 0.366806 0.093298 0.766282
Si Si8 0.915856 0.605730 0.496463
O O1 0.349285 0.259485 0.419277
O O2 0.624991 0.273298 0.531329
O O3 0.715335 0.321783 0.423316
O O4 0.880914 0.913389 0.593179
O O5 0.208601 0.963132 0.661901
O O6 0.324472 0.939561 0.532302
O O7 0.000000 0.000000 0.555713
O O8 0.362778 0.251641 0.644772
O O9 0.618675 0.327465 0.634968
O O10 0.940794 0.882644 0.193844
O O11 0.003271 0.861975 0.060944
O O12 0.556886 0.918178 0.260366
O O13 0.066594 0.948155 0.276551
O O14 0.500000 0.000000 0.274437
O O15 0.421013 0.123435 0.832033
O O16 0.676676 0.125903 0.952075
O O17 0.172309 0.097360 0.947072
#
# Coordination Sequence:
#
# PCOD8184911 Si02
#       8
#     8   8   8   8   8   8   8   8
#     4  10  20  35  59  89 120 160 212 259 311 383
#     4  10  22  40  69 103 128 165 220 279 327 385
#     4  10  22  35  61  95 125 159 211 268 322 380
#     4  11  23  42  69  96 128 170 219 271 326 386
#     4  10  21  40  67  93 121 163 221 264 311 383
#     4  12  25  41  63  93 129 173 211 261 328 395
#     4  11  24  42  64  92 127 172 210 261 326 390
#     4  12  22  41  66  91 128 168 210 267 321 382
#
# _framework density 21.573174999999999
#
# number of rings (size 3 to 8) (size 9 to 14) (size 15 to 20)
#    0.000    1.250    3.750    1.875    5.250    0.500 
#    0.000    3.750    0.000    0.000    0.000    0.000 
#    0.000    0.000    0.000    0.000    0.000    0.000 
#
# Total GULP energy -396612.470688 kJ/mol
# GULP energy per Si atom -12394.139709 kJ/mol
# Density = 2.152407 g / cm^3
# Si number density = 21.573175 Si / 1000 Ang^3
#
#
#
# Elastic Constant Matrix: (Units=GPa)
#
#
# Indices 1 2 3 4 5 6 
#
# 1 107.5946 34.5675 40.0189 0.0000 0.0000 0.0000
# 2 34.5675 102.8452 5.5729 0.0000 0.0000 0.0000
# 3 40.0189 5.5729 87.5683 0.0000 0.0000 0.0000
# 4 0.0000 0.0000 0.0000 20.4706 0.0000 0.0000
# 5 0.0000 0.0000 0.0000 0.0000 19.6590 0.0000
# 6 0.0000 0.0000 0.0000 0.0000 0.0000 34.7847
#
#
#
# Elastic Compliance Matrix: (Units=1/GPa)
#
#
# Indices 1 2 3 4 5 6 
#
# 1 0.012610 -0.003940 -0.005512 0.000000 0.000000 0.000000
# 2 -0.003940 0.010988 0.001101 0.000000 0.000000 0.000000
# 3 -0.005512 0.001101 0.013869 0.000000 0.000000 0.000000
# 4 0.000000 0.000000 0.000000 0.048851 0.000000 0.000000
# 5 0.000000 0.000000 0.000000 0.000000 0.050867 0.000000
# 6 0.000000 0.000000 0.000000 0.000000 0.000000 0.028748
#
#
# Mechanical properties :
#
#
# Convention : Reuss Voigt Hill
#
# Bulk Modulus (GPa) = 48.15727 50.92518 49.54123
# Shear Modulus (GPa) = 26.37747 29.50611 27.94179
#
# Velocity S-wave (km/s) = 3.50050 3.70228 3.60281
# Velocity P-wave (km/s) = 6.22168 6.47556 6.34989
#
# Compressibility (1/GPa) = 0.02076530
#
# Stress axis : x y z
#
# Youngs Moduli (GPa) = 79.30172 91.00943 72.10524
#
# Poissons Ratio (x) = 0.35855 0.39745
# Poissons Ratio (y) = 0.31243 -0.07940
# Poissons Ratio (z) = 0.43712 -0.10022
#
# Static dielectric constant tensor:
#      x y z
#    x 4.150440 0.000000 0.000000 
#    y 0.000000 3.899040 0.000000 
#    z 0.000000 0.000000 3.704840 
# 
# 
# High freq. dielectric constant tensor:
#      x y z
#    x 1.859540 0.000000 0.000000 
#    y 0.000000 1.837050 0.000000 
#    z 0.000000 0.000000 1.812520 
# 
# From -- ./inp_files/11043.got.cif
#   From: 2010.03.12/outbox.cif.g09.slc.cpg/sg41_6_cif.got.tgz:11043.got - 2010.04.14 01:55:53.
