data_PCOD8184218
_publ_section_title
;
Structure prediction by ZEFSAII (Michael W. Deem and Ramdas Pophale) SiO2 
 PCOD8184218
Probable space group: A M A 2
;
_chemical_formula_sum "Si O2"
_cell_formula_units_Z 48
_cell_length_a 16.675980
_cell_length_b 4.934177
_cell_length_c 27.232214
_cell_angle_alpha 90.000000
_cell_angle_beta 90.000000
_cell_angle_gamma 90.000000
_cell_volume 2240.727486
_symmetry_space_group_name_H-M "A M A 2"
_symmetry_group_IT_number 40
_symmetry_cell_setting 'orthorhombic'
loop_
_space_group_symop_operation_xyz
x,y,z
-x,-y,z
1/2-x,y,z
1/2+x,-y,z
x,1/2+y,1/2+z
-x,1/2-y,1/2+z
1/2-x,1/2+y,1/2+z
1/2+x,1/2-y,1/2+z
loop_
_atom_site_type_symbol
_atom_site_label
_atom_site_fract_x
_atom_site_fract_y
_atom_site_fract_z
Si Si1 0.054225 0.250296 0.041440
Si Si2 0.588118 0.557145 0.680642
Si Si3 0.412324 0.575313 0.794641
Si Si4 0.555776 0.262244 0.432810
Si Si5 0.659479 0.399854 0.343639
Si Si6 0.841233 0.578463 0.131445
O O1 0.120963 0.364366 0.078222
O O2 0.000000 0.500000 0.028685
O O3 0.090948 0.179959 0.987834
O O4 0.000000 0.000000 0.062162
O O5 0.500000 0.500000 0.657792
O O6 0.585442 0.463611 0.736550
O O7 0.656099 0.368492 0.657306
O O8 0.610617 0.865367 0.665956
O O9 0.500000 0.500000 0.816558
O O10 0.343701 0.367632 0.810615
O O11 0.392556 0.873493 0.815048
O O12 0.500000 0.500000 0.415193
O O13 0.630787 0.288300 0.396444
O O14 0.500000 0.000000 0.426815
O O15 0.750000 0.506096 0.348594
O O16 0.750000 0.481093 0.124683
#
# Coordination Sequence:
#
# PCOD8184218 Si02
#       6
#     8   8   8   8   8   8
#     4  10  21  39  63  88 118 161 208 250 296 359
#     4  11  24  42  63  86 117 161 208 249 294 359
#     4  11  24  42  63  86 117 161 208 249 294 359
#     4  10  21  39  63  88 118 161 208 250 296 359
#     4  12  24  38  61  92 125 157 194 251 312 361
#     4  12  24  38  61  92 125 157 194 251 312 361
#
# _framework density 21.421614999999999
#
# number of rings (size 3 to 8) (size 9 to 14) (size 15 to 20)
#    0.000    1.000    0.000    8.000    0.000    7.333 
#    0.000    0.000    0.000   10.000    0.000    0.000 
#    0.000    0.000    0.000    0.000    0.000    0.000 
#
# Total GULP energy -297343.446940 kJ/mol
# GULP energy per Si atom -12389.310289 kJ/mol
# Density = 2.137286 g / cm^3
# Si number density = 21.421615 Si / 1000 Ang^3
#
#
#
# Elastic Constant Matrix: (Units=GPa)
#
#
# Indices 1 2 3 4 5 6 
#
# 1 115.0793 18.5745 44.9270 0.0000 0.0000 0.0000
# 2 18.5745 110.2559 27.5718 0.0000 0.0000 0.0000
# 3 44.9270 27.5718 120.2420 0.0000 0.0000 0.0000
# 4 0.0000 0.0000 0.0000 36.0432 0.0000 0.0000
# 5 0.0000 0.0000 0.0000 0.0000 -2.8011 0.0000
# 6 0.0000 0.0000 0.0000 0.0000 0.0000 30.6421
#
#
#
# Elastic Compliance Matrix: (Units=1/GPa)
#
#
# Indices 1 2 3 4 5 6 
#
# 1 0.010242 -0.000815 -0.003640 0.000000 0.000000 0.000000
# 2 -0.000815 0.009686 -0.001917 0.000000 0.000000 0.000000
# 3 -0.003640 -0.001917 0.010116 0.000000 0.000000 0.000000
# 4 0.000000 0.000000 0.000000 0.027744 0.000000 0.000000
# 5 0.000000 0.000000 0.000000 0.000000 -0.357006 0.000000
# 6 0.000000 0.000000 0.000000 0.000000 0.000000 0.032635
#
#
# Mechanical properties :
#
#
# Convention : Reuss Voigt Hill
#
# Bulk Modulus (GPa) = 57.79908 58.63595 58.21751
# Shear Modulus (GPa) = -20.15549 29.74378 4.79414
#
# Velocity S-wave (km/s) = -3.07073 3.73029 1.49762
# Velocity P-wave (km/s) = 3.80365 6.78124 5.49786
#
# Compressibility (1/GPa) = 0.01730131
#
# Stress axis : x y z
#
# Youngs Moduli (GPa) = 97.63436 103.23739 98.85278
#
# Poissons Ratio (x) = 0.08416 0.35982
# Poissons Ratio (y) = 0.07959 0.18945
# Poissons Ratio (z) = 0.35539 0.19786
#
# Static dielectric constant tensor:
#      x y z
#    x 3.686720 0.000000 0.000000 
#    y 0.000000 3.948840 0.000000 
#    z 0.000000 0.000000 4.066990 
# 
# 
# High freq. dielectric constant tensor:
#      x y z
#    x 1.818330 0.000000 0.000000 
#    y 0.000000 1.856580 0.000000 
#    z 0.000000 0.000000 1.859880 
# 
# From -- ./inp_files/25705.got.cif
#   From: 2010.03.12/outbox.cif.g09.slc.cpg/sg40_13_cif.got.tgz:25705.got - 2010.04.14 01:38:03.
