data_PCOD8184799
_publ_section_title
;
Structure prediction by ZEFSAII (Michael W. Deem and Ramdas Pophale) SiO2 
 PCOD8184799
Probable space group: A B A 2
;
_chemical_formula_sum "Si O2"
_cell_formula_units_Z 44
_cell_length_a 13.687716
_cell_length_b 8.785283
_cell_length_c 16.022259
_cell_angle_alpha 90.000000
_cell_angle_beta 90.000000
_cell_angle_gamma 90.000000
_cell_volume 1926.683994
_symmetry_space_group_name_H-M "A B A 2"
_symmetry_group_IT_number 41
_symmetry_cell_setting 'orthorhombic'
loop_
_space_group_symop_operation_xyz
x,y,z
-x,-y,z
1/2-x,y,1/2+z
1/2+x,-y,1/2+z
x,1/2+y,1/2+z
-x,1/2-y,1/2+z
1/2-x,1/2+y,z
1/2+x,1/2-y,z
loop_
_atom_site_type_symbol
_atom_site_label
_atom_site_fract_x
_atom_site_fract_y
_atom_site_fract_z
Si Si1 0.871473 0.438954 0.890290
Si Si2 0.252877 0.900459 0.592812
Si Si3 0.885815 0.344410 0.165184
Si Si4 0.680260 0.855133 0.474840
Si Si5 0.944019 0.238866 0.338995
Si Si6 0.000000 0.500000 0.040054
O O1 0.767478 0.361829 0.905231
O O2 0.872804 0.589382 0.831719
O O3 0.943882 0.313268 0.851174
O O4 0.905690 0.509389 0.980080
O O5 0.181697 0.006596 0.648393
O O6 0.322353 0.993041 0.529598
O O7 0.324911 0.809476 0.653745
O O8 0.189872 0.784601 0.538013
O O9 0.930796 0.343310 0.257708
O O10 0.977806 0.354882 0.100745
O O11 0.582343 0.839166 0.420509
#
# Coordination Sequence:
#
# PCOD8184799 Si02
#       6
#     8   8   8   8   8   4
#     4  10  21  44  68  91 131 183 219 266 336 411
#     4  10  21  39  69  94 123 172 228 258 334 395
#     4  11  23  41  64  99 131 171 215 288 333 392
#     4  11  19  43  70  95 125 176 224 272 325 411
#     4  10  23  40  64  98 135 171 216 277 337 389
#     4  10  18  42  66  82 130 170 218 264 324 392
#
# _framework density 22.837166
#
# number of rings (size 3 to 8) (size 9 to 14) (size 15 to 20)
#    0.000    1.818    5.455    1.091    2.545    0.000 
#    6.545    9.091    4.000    0.000    0.000    0.000 
#    0.000    0.000    0.000    0.000    0.000    0.000 
#
# Total GULP energy -272590.195083 kJ/mol
# GULP energy per Si atom -12390.463413 kJ/mol
# Density = 2.278519 g / cm^3
# Si number density = 22.837166 Si / 1000 Ang^3
#
#
#
# Elastic Constant Matrix: (Units=GPa)
#
#
# Indices 1 2 3 4 5 6 
#
# 1 44.8092 20.9200 8.0547 0.0000 0.0000 0.0000
# 2 20.9200 81.5806 33.3307 0.0000 0.0000 0.0000
# 3 8.0547 33.3307 114.1410 0.0000 0.0000 0.0000
# 4 0.0000 0.0000 0.0000 36.3093 0.0000 0.0000
# 5 0.0000 0.0000 0.0000 0.0000 27.4024 0.0000
# 6 0.0000 0.0000 0.0000 0.0000 0.0000 40.7947
#
#
#
# Elastic Compliance Matrix: (Units=1/GPa)
#
#
# Indices 1 2 3 4 5 6 
#
# 1 0.025354 -0.006552 0.000124 0.000000 0.000000 0.000000
# 2 -0.006552 0.015612 -0.004096 0.000000 0.000000 0.000000
# 3 0.000124 -0.004096 0.009949 0.000000 0.000000 0.000000
# 4 0.000000 0.000000 0.000000 0.027541 0.000000 0.000000
# 5 0.000000 0.000000 0.000000 0.000000 0.036493 0.000000
# 6 0.000000 0.000000 0.000000 0.000000 0.000000 0.024513
#
#
# Mechanical properties :
#
#
# Convention : Reuss Voigt Hill
#
# Bulk Modulus (GPa) = 33.48421 40.57127 37.02774
# Shear Modulus (GPa) = 29.33154 32.78299 31.05726
#
# Velocity S-wave (km/s) = 3.58771 3.79292 3.69174
# Velocity P-wave (km/s) = 5.64413 6.08159 5.86694
#
# Compressibility (1/GPa) = 0.02986483
#
# Stress axis : x y z
#
# Youngs Moduli (GPa) = 39.44215 64.05455 100.51720
#
# Poissons Ratio (x) = 0.41970 -0.01248
# Poissons Ratio (y) = 0.25844 0.41176
# Poissons Ratio (z) = -0.00490 0.26240
#
# Static dielectric constant tensor:
#      x y z
#    x 4.060710 0.000000 0.000000 
#    y 0.000000 4.314570 0.000000 
#    z 0.000000 0.000000 4.052140 
# 
# 
# High freq. dielectric constant tensor:
#      x y z
#    x 1.886830 0.000000 0.000000 
#    y 0.000000 1.898500 0.000000 
#    z 0.000000 0.000000 1.895090 
# 
# From -- ./inp_files/10271.got.cif
#   From: 2010.03.12/outbox.cif.g09.slc.cpg/sg41_6_cif.got.tgz:10271.got - 2010.04.14 01:55:53.
