data_PCOD8184222
_publ_section_title
;
Structure prediction by ZEFSAII (Michael W. Deem and Ramdas Pophale) SiO2 
 PCOD8184222
Probable space group: A M A 2
;
_chemical_formula_sum "Si O2"
_cell_formula_units_Z 64
_cell_length_a 13.465588
_cell_length_b 19.127662
_cell_length_c 12.075724
_cell_angle_alpha 90.000000
_cell_angle_beta 90.000000
_cell_angle_gamma 90.000000
_cell_volume 3110.286459
_symmetry_space_group_name_H-M "A M A 2"
_symmetry_group_IT_number 40
_symmetry_cell_setting 'orthorhombic'
loop_
_space_group_symop_operation_xyz
x,y,z
-x,-y,z
1/2-x,y,z
1/2+x,-y,z
x,1/2+y,1/2+z
-x,1/2-y,1/2+z
1/2-x,1/2+y,1/2+z
1/2+x,1/2-y,1/2+z
loop_
_atom_site_type_symbol
_atom_site_label
_atom_site_fract_x
_atom_site_fract_y
_atom_site_fract_z
Si Si1 0.367462 0.424365 0.231500
Si Si2 0.367129 0.937317 0.980739
Si Si3 0.359471 0.499840 0.838802
Si Si4 0.978932 0.666777 0.066154
Si Si5 0.528274 0.178954 0.119518
Si Si6 0.632693 0.952676 0.569963
Si Si7 0.862717 0.658234 0.836998
Si Si8 0.631629 0.431315 0.623817
O O1 0.250000 0.415101 0.228914
O O2 0.409470 0.429730 0.356242
O O3 0.411941 0.355934 0.170990
O O4 0.399346 0.495647 0.168855
O O5 0.250000 0.939313 0.977355
O O6 0.396019 0.869578 0.051899
O O7 0.403586 0.011194 0.033304
O O8 0.250000 0.531515 0.849109
O O9 0.355172 0.421163 0.797577
O O10 0.412753 0.543960 0.742802
O O11 0.407965 0.508867 0.958991
O O12 0.015771 0.745819 0.066151
O O13 0.078772 0.621268 0.073498
O O14 0.914337 0.659332 0.955752
O O15 0.569192 0.194426 0.243574
O O16 0.420008 0.143132 0.107272
O O17 0.750000 0.939056 0.573336
O O18 0.750000 0.690029 0.843156
O O19 0.750000 0.421750 0.621584
#
# Coordination Sequence:
#
# PCOD8184222 Si02
#       8
#     8   8   8   8   8   8   8   8
#     4  10  22  42  66  89 120 166 217 265 314 371
#     4  10  22  42  66  89 120 166 217 265 314 371
#     4   9  17  35  65  92 113 145 200 254 310 358
#     4  12  26  39  63  93 131 167 211 251 318 388
#     4  12  26  39  63  93 131 167 211 251 318 388
#     4  10  21  39  63  93 123 158 207 265 313 364
#     4  11  23  43  68  94 126 165 211 263 322 381
#     4  10  21  39  63  93 123 158 207 265 313 364
#
# _framework density 20.576882000000001
#
# number of rings (size 3 to 8) (size 9 to 14) (size 15 to 20)
#    0.000    1.500    2.500    2.250    1.750    5.000 
#    0.000    0.000    0.000    0.000    0.000    0.000 
#    0.000    0.000    0.000    0.000    0.000    0.000 
#
# Total GULP energy -396639.851518 kJ/mol
# GULP energy per Si atom -12394.995360 kJ/mol
# Density = 2.053005 g / cm^3
# Si number density = 20.576882 Si / 1000 Ang^3
#
#
#
# Elastic Constant Matrix: (Units=GPa)
#
#
# Indices 1 2 3 4 5 6 
#
# 1 76.5070 23.4141 27.9093 0.0000 0.0000 0.0000
# 2 23.4141 101.0168 22.0170 0.0000 0.0000 0.0000
# 3 27.9093 22.0170 134.3378 0.0000 0.0000 0.0000
# 4 0.0000 0.0000 0.0000 14.2734 0.0000 0.0000
# 5 0.0000 0.0000 0.0000 0.0000 21.6517 0.0000
# 6 0.0000 0.0000 0.0000 0.0000 0.0000 22.1124
#
#
#
# Elastic Compliance Matrix: (Units=1/GPa)
#
#
# Indices 1 2 3 4 5 6 
#
# 1 0.014911 -0.002884 -0.002625 0.000000 0.000000 0.000000
# 2 -0.002884 0.010824 -0.001175 0.000000 0.000000 0.000000
# 3 -0.002625 -0.001175 0.008182 0.000000 0.000000 0.000000
# 4 0.000000 0.000000 0.000000 0.070060 0.000000 0.000000
# 5 0.000000 0.000000 0.000000 0.000000 0.046186 0.000000
# 6 0.000000 0.000000 0.000000 0.000000 0.000000 0.045223
#
#
# Mechanical properties :
#
#
# Convention : Reuss Voigt Hill
#
# Bulk Modulus (GPa) = 48.66458 50.94915 49.80686
# Shear Modulus (GPa) = 23.19070 27.50892 25.34981
#
# Velocity S-wave (km/s) = 3.36076 3.66031 3.51373
# Velocity P-wave (km/s) = 6.22584 6.53284 6.38119
#
# Compressibility (1/GPa) = 0.02054883
#
# Stress axis : x y z
#
# Youngs Moduli (GPa) = 67.06484 92.38861 122.22180
#
# Poissons Ratio (x) = 0.26644 0.32085
# Poissons Ratio (y) = 0.19341 0.14359
# Poissons Ratio (z) = 0.17606 0.10854
#
# Static dielectric constant tensor:
#      x y z
#    x 3.851050 0.000000 0.000000 
#    y 0.000000 3.429510 0.000000 
#    z 0.000000 0.000000 4.084780 
# 
# 
# High freq. dielectric constant tensor:
#      x y z
#    x 1.822360 0.000000 0.000000 
#    y 0.000000 1.775740 0.000000 
#    z 0.000000 0.000000 1.816710 
# 
# From -- ./inp_files/12480.got.cif
#   From: 2010.03.12/outbox.cif.g09.slc.cpg/sg40_7_cif.got.tgz:12480.got - 2010.04.14 01:38:03.
