data_PCOD8184363
_publ_section_title
;
Structure prediction by ZEFSAII (Michael W. Deem and Ramdas Pophale) SiO2 
 PCOD8184363
Probable space group: A M A 2
;
_chemical_formula_sum "Si O2"
_cell_formula_units_Z 64
_cell_length_a 20.435224
_cell_length_b 18.105116
_cell_length_c 8.375607
_cell_angle_alpha 90.000000
_cell_angle_beta 90.000000
_cell_angle_gamma 90.000000
_cell_volume 3098.824675
_symmetry_space_group_name_H-M "A M A 2"
_symmetry_group_IT_number 40
_symmetry_cell_setting 'orthorhombic'
loop_
_space_group_symop_operation_xyz
x,y,z
-x,-y,z
1/2-x,y,z
1/2+x,-y,z
x,1/2+y,1/2+z
-x,1/2-y,1/2+z
1/2-x,1/2+y,1/2+z
1/2+x,1/2-y,1/2+z
loop_
_atom_site_type_symbol
_atom_site_label
_atom_site_fract_x
_atom_site_fract_y
_atom_site_fract_z
Si Si1 0.321896 0.478831 0.200020
Si Si2 0.824864 0.675273 0.362155
Si Si3 0.938639 0.702022 0.612631
Si Si4 0.057663 0.541244 0.348906
Si Si5 0.824864 0.824727 0.170291
Si Si6 0.561361 0.797978 0.919815
Si Si7 0.678104 0.478832 0.832425
Si Si8 0.057663 0.458756 0.683538
O O1 0.250000 0.493523 0.272639
O O2 0.342314 0.394255 0.245380
O O3 0.371487 0.537819 0.271146
O O4 0.321206 0.499999 0.016222
O O5 0.750000 0.668315 0.424810
O O6 0.874276 0.682192 0.510034
O O7 0.834221 0.750000 0.266223
O O8 0.918434 0.750000 0.766223
O O9 0.966510 0.624749 0.674772
O O10 0.000000 0.739227 0.516223
O O11 0.033490 0.624749 0.357674
O O12 0.063630 0.499999 0.516221
O O13 0.000000 0.500000 0.248424
O O14 0.750000 0.831685 0.107636
O O15 0.842314 0.894254 0.287066
O O16 0.874276 0.817809 0.022412
O O17 0.750000 0.493523 0.759805
O O18 0.628513 0.537819 0.761298
O O19 0.000000 0.500000 0.784019
#
# Coordination Sequence:
#
# PCOD8184363 Si02
#       8
#     8   8   8   8   8   8   8   8
#     4  10  22  39  63  93 124 164 212 260 317 385
#     4  10  22  41  62  89 129 167 204 260 322 385
#     4  12  25  42  64  92 124 167 215 268 329 394
#     4  11  21  42  64  87 123 161 208 267 326 377
#     4  10  22  41  62  89 129 167 204 260 322 385
#     4  12  25  42  64  92 124 167 215 268 329 394
#     4  10  22  39  63  93 124 164 212 260 317 385
#     4  11  21  42  64  87 123 161 208 267 326 377
#
# _framework density 20.652991
#
# number of rings (size 3 to 8) (size 9 to 14) (size 15 to 20)
#    0.000    1.250    5.000    0.750    3.500    2.500 
#    0.000    0.000    0.000    0.000    0.000    0.000 
#    0.000    0.000    0.000    0.000    0.000    0.000 
#
# Total GULP energy -396475.763935 kJ/mol
# GULP energy per Si atom -12389.867623 kJ/mol
# Density = 2.060598 g / cm^3
# Si number density = 20.652991 Si / 1000 Ang^3
#
#
#
# Elastic Constant Matrix: (Units=GPa)
#
#
# Indices 1 2 3 4 5 6 
#
# 1 133.4718 28.5685 57.4688 0.0000 0.0000 0.0000
# 2 28.5685 99.4681 47.2943 0.0000 0.0000 0.0000
# 3 57.4688 47.2943 89.9244 0.0000 0.0000 0.0000
# 4 0.0000 0.0000 0.0000 35.9543 0.0000 0.0000
# 5 0.0000 0.0000 0.0000 0.0000 36.1949 0.0000
# 6 0.0000 0.0000 0.0000 0.0000 0.0000 23.7752
#
#
#
# Elastic Compliance Matrix: (Units=1/GPa)
#
#
# Indices 1 2 3 4 5 6 
#
# 1 0.010340 0.000230 -0.006729 0.000000 0.000000 0.000000
# 2 0.000230 0.013411 -0.007200 0.000000 0.000000 0.000000
# 3 -0.006729 -0.007200 0.019208 0.000000 0.000000 0.000000
# 4 0.000000 0.000000 0.000000 0.027813 0.000000 0.000000
# 5 0.000000 0.000000 0.000000 0.000000 0.027628 0.000000
# 6 0.000000 0.000000 0.000000 0.000000 0.000000 0.042061
#
#
# Mechanical properties :
#
#
# Convention : Reuss Voigt Hill
#
# Bulk Modulus (GPa) = 64.26753 65.50306 64.88529
# Shear Modulus (GPa) = 28.89396 31.82039 30.35717
#
# Velocity S-wave (km/s) = 3.74441 3.92945 3.83805
# Velocity P-wave (km/s) = 7.06254 7.23687 7.15024
#
# Compressibility (1/GPa) = 0.01555996
#
# Stress axis : x y z
#
# Youngs Moduli (GPa) = 96.70788 74.56611 52.06271
#
# Poissons Ratio (x) = -0.01712 0.35034
# Poissons Ratio (y) = -0.02220 0.37485
# Poissons Ratio (z) = 0.65076 0.53688
#
# Static dielectric constant tensor:
#      x y z
#    x 5.643040 0.000000 0.000000 
#    y 0.000000 3.899140 0.000000 
#    z 0.000000 0.000000 3.630870 
# 
# 
# High freq. dielectric constant tensor:
#      x y z
#    x 1.833420 0.000000 0.000000 
#    y 0.000000 1.813220 0.000000 
#    z 0.000000 0.000000 1.782290 
# 
# From -- ./inp_files/8448.got.cif
#   From: 2010.03.12/outbox.cif.g09.slc.cpg/sg40_5_cif.got.tgz:8448.got - 2010.04.14 01:38:03.
