data_PCOD8184629
_publ_section_title
;
Structure prediction by ZEFSAII (Michael W. Deem and Ramdas Pophale) SiO2 
 PCOD8184629
Probable space group: A M A 2
;
_chemical_formula_sum "Si O2"
_cell_formula_units_Z 64
_cell_length_a 31.515220
_cell_length_b 11.283277
_cell_length_c 8.469449
_cell_angle_alpha 90.000000
_cell_angle_beta 90.000000
_cell_angle_gamma 90.000000
_cell_volume 3011.693353
_symmetry_space_group_name_H-M "A M A 2"
_symmetry_group_IT_number 40
_symmetry_cell_setting 'orthorhombic'
loop_
_space_group_symop_operation_xyz
x,y,z
-x,-y,z
1/2-x,y,z
1/2+x,-y,z
x,1/2+y,1/2+z
-x,1/2-y,1/2+z
1/2-x,1/2+y,1/2+z
1/2+x,1/2-y,1/2+z
loop_
_atom_site_type_symbol
_atom_site_label
_atom_site_fract_x
_atom_site_fract_y
_atom_site_fract_z
Si Si1 0.297915 0.374805 0.850780
Si Si2 0.344613 0.199135 0.655234
Si Si3 0.152769 0.093001 0.308572
Si Si4 0.007462 0.874193 0.226251
Si Si5 0.129676 0.804601 0.587670
Si Si6 0.901143 0.086097 0.152268
Si Si7 0.609408 0.494807 0.323022
Si Si8 0.550174 0.309569 0.440054
O O1 0.250000 0.368655 0.914420
O O2 0.303673 0.273237 0.715898
O O3 0.306970 0.505822 0.777840
O O4 0.331061 0.362253 0.994802
O O5 0.342084 0.157076 0.475875
O O6 0.385021 0.282363 0.685251
O O7 0.351509 0.086281 0.766945
O O8 0.149960 0.193763 0.177836
O O9 0.110927 0.006474 0.294114
O O10 0.049189 0.898322 0.121758
O O11 0.014799 0.768402 0.350080
O O12 0.000000 0.000000 0.316567
O O13 0.968523 0.846135 0.110000
O O14 0.093155 0.764646 0.466966
O O15 0.105979 0.895272 0.704554
O O16 0.877735 0.038976 0.996032
O O17 0.564049 0.424674 0.336523
#
# Coordination Sequence:
#
# PCOD8184629 Si02
#       8
#     8   8   8   8   8   8   8   8
#     4  11  25  44  68 101 138 170 214 278 336 406
#     4  11  22  41  70 100 128 171 228 270 333 402
#     4  11  22  41  71  98 126 171 220 271 334 405
#     4  12  26  41  62  91 136 176 225 289 338 388
#     4  12  24  44  72  96 132 181 225 269 338 412
#     4  11  22  41  66  93 129 174 226 280 335 394
#     4  12  22  41  70  96 129 180 225 273 333 398
#     4  12  27  44  62  97 135 178 233 281 338 397
#
# _framework density 21.250503999999999
#
# number of rings (size 3 to 8) (size 9 to 14) (size 15 to 20)
#    0.000    0.500    7.500    0.750    1.750    3.000 
#    0.000    0.000    0.000    0.000    0.000    0.000 
#    0.000    0.000    0.000    0.000    0.000    0.000 
#
# Total GULP energy -396596.461784 kJ/mol
# GULP energy per Si atom -12393.639431 kJ/mol
# Density = 2.120214 g / cm^3
# Si number density = 21.250504 Si / 1000 Ang^3
#
#
#
# Elastic Constant Matrix: (Units=GPa)
#
#
# Indices 1 2 3 4 5 6 
#
# 1 93.4172 17.5958 12.9823 0.0000 0.0000 0.0000
# 2 17.5958 110.7590 31.8931 0.0000 0.0000 0.0000
# 3 12.9823 31.8931 77.4331 0.0000 0.0000 0.0000
# 4 0.0000 0.0000 0.0000 35.6879 0.0000 0.0000
# 5 0.0000 0.0000 0.0000 0.0000 25.5056 0.0000
# 6 0.0000 0.0000 0.0000 0.0000 0.0000 20.7867
#
#
#
# Elastic Compliance Matrix: (Units=1/GPa)
#
#
# Indices 1 2 3 4 5 6 
#
# 1 0.011148 -0.001399 -0.001293 0.000000 0.000000 0.000000
# 2 -0.001399 0.010419 -0.004057 0.000000 0.000000 0.000000
# 3 -0.001293 -0.004057 0.014802 0.000000 0.000000 0.000000
# 4 0.000000 0.000000 0.000000 0.028021 0.000000 0.000000
# 5 0.000000 0.000000 0.000000 0.000000 0.039207 0.000000
# 6 0.000000 0.000000 0.000000 0.000000 0.000000 0.048108
#
#
# Mechanical properties :
#
#
# Convention : Reuss Voigt Hill
#
# Bulk Modulus (GPa) = 43.72180 45.17241 44.44711
# Shear Modulus (GPa) = 28.93095 31.00524 29.96810
#
# Velocity S-wave (km/s) = 3.69375 3.82388 3.75938
# Velocity P-wave (km/s) = 6.22984 6.38743 6.30913
#
# Compressibility (1/GPa) = 0.02287189
#
# Stress axis : x y z
#
# Youngs Moduli (GPa) = 89.70380 95.97855 67.55806
#
# Poissons Ratio (x) = 0.13425 0.08735
# Poissons Ratio (y) = 0.12547 0.27407
# Poissons Ratio (z) = 0.11598 0.38937
#
# Static dielectric constant tensor:
#      x y z
#    x 3.522430 0.000000 0.000000 
#    y 0.000000 4.358190 0.000000 
#    z 0.000000 0.000000 3.831040 
# 
# 
# High freq. dielectric constant tensor:
#      x y z
#    x 1.797120 0.000000 0.000000 
#    y 0.000000 1.864420 0.000000 
#    z 0.000000 0.000000 1.831820 
# 
# From -- ./inp_files/9436.got.cif
#   From: 2010.03.12/outbox.cif.g09.slc.cpg/sg40_5_cif.got.tgz:9436.got - 2010.04.14 01:38:03.
