data_PCOD8184876
_publ_section_title
;
Structure prediction by ZEFSAII (Michael W. Deem and Ramdas Pophale) SiO2 
 PCOD8184876
Probable space group: A B A 2
;
_chemical_formula_sum "Si O2"
_cell_formula_units_Z 64
_cell_length_a 8.482632
_cell_length_b 18.249573
_cell_length_c 18.888014
_cell_angle_alpha 90.000000
_cell_angle_beta 90.000000
_cell_angle_gamma 90.000000
_cell_volume 2923.947900
_symmetry_space_group_name_H-M "A B A 2"
_symmetry_group_IT_number 41
_symmetry_cell_setting 'orthorhombic'
loop_
_space_group_symop_operation_xyz
x,y,z
-x,-y,z
1/2-x,y,1/2+z
1/2+x,-y,1/2+z
x,1/2+y,1/2+z
-x,1/2-y,1/2+z
1/2-x,1/2+y,z
1/2+x,1/2-y,z
loop_
_atom_site_type_symbol
_atom_site_label
_atom_site_fract_x
_atom_site_fract_y
_atom_site_fract_z
Si Si1 0.084879 0.753843 0.196160
Si Si2 0.250953 0.475808 0.661840
Si Si3 0.554565 0.304666 0.541540
Si Si4 0.087751 0.426834 0.398771
Si Si5 0.635424 0.144510 0.254244
Si Si6 0.113014 0.159582 0.002048
Si Si7 0.569160 0.391668 0.154431
Si Si8 0.365025 0.447137 0.511395
O O1 0.120719 0.715327 0.120138
O O2 0.230052 0.799421 0.227357
O O3 0.028870 0.689238 0.248601
O O4 0.934744 0.809575 0.186077
O O5 0.379298 0.430440 0.707198
O O6 0.213035 0.559624 0.687244
O O7 0.299285 0.486577 0.580824
O O8 0.094436 0.429280 0.672766
O O9 0.475731 0.235940 0.505562
O O10 0.700879 0.328260 0.493173
O O11 0.425175 0.368648 0.539432
O O12 0.163544 0.381288 0.334189
O O13 0.229041 0.440330 0.453470
O O14 0.000000 0.500000 0.371928
O O15 0.947610 0.380635 0.432846
O O16 0.079107 0.109259 0.069700
O O17 0.500000 0.500000 0.479113
#
# Coordination Sequence:
#
# PCOD8184876 Si02
#       8
#     8   8   8   8   8   8   8   8
#     4  10  21  43  67 105 135 176 228 295 344 407
#     4  10  19  39  65 100 127 178 227 286 349 407
#     4  11  22  39  71 108 130 167 234 298 348 403
#     4  12  27  49  64  94 146 189 228 283 357 427
#     4  11  25  44  69  95 147 185 225 284 347 424
#     4  11  22  39  69  96 134 176 217 292 348 411
#     4   9  18  34  68  97 129 169 227 283 349 398
#     4  12  24  41  69 101 134 174 238 295 344 417
#
# _framework density 21.888216
#
# number of rings (size 3 to 8) (size 9 to 14) (size 15 to 20)
#    0.000    1.250    2.500    4.500    1.750    2.500 
#    9.000    0.000    0.000    0.000    0.000    0.000 
#    0.000    0.000    0.000    0.000    0.000    0.000 
#
# Total GULP energy -396662.659134 kJ/mol
# GULP energy per Si atom -12395.708098 kJ/mol
# Density = 2.183840 g / cm^3
# Si number density = 21.888216 Si / 1000 Ang^3
#
#
#
# Elastic Constant Matrix: (Units=GPa)
#
#
# Indices 1 2 3 4 5 6 
#
# 1 74.5471 39.9712 32.4642 0.0000 0.0000 0.0000
# 2 39.9712 115.7795 36.9224 0.0000 0.0000 0.0000
# 3 32.4642 36.9224 91.2982 0.0000 0.0000 0.0000
# 4 0.0000 0.0000 0.0000 24.5644 0.0000 0.0000
# 5 0.0000 0.0000 0.0000 0.0000 10.4663 0.0000
# 6 0.0000 0.0000 0.0000 0.0000 0.0000 53.7117
#
#
#
# Elastic Compliance Matrix: (Units=1/GPa)
#
#
# Indices 1 2 3 4 5 6 
#
# 1 0.017902 -0.004765 -0.004439 0.000000 0.000000 0.000000
# 2 -0.004765 0.011184 -0.002829 0.000000 0.000000 0.000000
# 3 -0.004439 -0.002829 0.013675 0.000000 0.000000 0.000000
# 4 0.000000 0.000000 0.000000 0.040709 0.000000 0.000000
# 5 0.000000 0.000000 0.000000 0.000000 0.095545 0.000000
# 6 0.000000 0.000000 0.000000 0.000000 0.000000 0.018618
#
#
# Mechanical properties :
#
#
# Convention : Reuss Voigt Hill
#
# Bulk Modulus (GPa) = 53.48431 55.59338 54.53884
# Shear Modulus (GPa) = 21.93641 29.23295 25.58468
#
# Velocity S-wave (km/s) = 3.16919 3.65849 3.42260
# Velocity P-wave (km/s) = 6.15467 6.58027 6.37103
#
# Compressibility (1/GPa) = 0.01869707
#
# Stress axis : x y z
#
# Youngs Moduli (GPa) = 55.85885 89.41151 73.12379
#
# Poissons Ratio (x) = 0.42604 0.32458
# Poissons Ratio (y) = 0.26617 0.20685
# Poissons Ratio (z) = 0.24794 0.25292
#
# Static dielectric constant tensor:
#      x y z
#    x 4.016030 0.000000 0.000000 
#    y 0.000000 4.401960 0.000000 
#    z 0.000000 0.000000 3.555420 
# 
# 
# High freq. dielectric constant tensor:
#      x y z
#    x 1.867620 0.000000 0.000000 
#    y 0.000000 1.891480 0.000000 
#    z 0.000000 0.000000 1.814120 
# 
# From -- ./inp_files/9840.got.cif
#   From: 2010.03.12/outbox.cif.g09.slc.cpg/sg41_5_cif.got.tgz:9840.got - 2010.04.14 01:55:53.
