data_PCOD8184737
_publ_section_title
;
Structure prediction by ZEFSAII (Michael W. Deem and Ramdas Pophale) SiO2 
 PCOD8184737
Probable space group: A B A 2
;
_chemical_formula_sum "Si O2"
_cell_formula_units_Z 52
_cell_length_a 17.832497
_cell_length_b 15.071670
_cell_length_c 8.743673
_cell_angle_alpha 90.000000
_cell_angle_beta 90.000000
_cell_angle_gamma 90.000000
_cell_volume 2349.997734
_symmetry_space_group_name_H-M "A B A 2"
_symmetry_group_IT_number 41
_symmetry_cell_setting 'orthorhombic'
loop_
_space_group_symop_operation_xyz
x,y,z
-x,-y,z
1/2-x,y,1/2+z
1/2+x,-y,1/2+z
x,1/2+y,1/2+z
-x,1/2-y,1/2+z
1/2-x,1/2+y,z
1/2+x,1/2-y,z
loop_
_atom_site_type_symbol
_atom_site_label
_atom_site_fract_x
_atom_site_fract_y
_atom_site_fract_z
Si Si1 0.720523 0.895260 0.140040
Si Si2 0.523024 0.173524 0.741849
Si Si3 0.000000 0.000000 0.060645
Si Si4 0.399401 0.719080 0.473547
Si Si5 0.288032 0.284155 0.758655
Si Si6 0.652280 0.710233 0.442873
Si Si7 0.348940 0.576527 0.935712
O O1 0.767937 0.817614 0.220755
O O2 0.679201 0.954142 0.268383
O O3 0.653710 0.860445 0.030187
O O4 0.782756 0.954159 0.051499
O O5 0.548877 0.245651 0.613352
O O6 0.442330 0.193040 0.815821
O O7 0.526574 0.078560 0.667148
O O8 0.573711 0.170346 0.893159
O O9 0.929296 0.969231 0.959690
O O10 0.343117 0.793635 0.405952
O O11 0.323923 0.328679 0.608081
O O12 0.209925 0.326436 0.814203
O O13 0.643555 0.816811 0.444189
#
# Coordination Sequence:
#
# PCOD8184737 Si02
#       7
#     8   8   4   8   8   8   8
#     4  10  18  36  72  97 121 173 241 276 332 407
#     4  12  25  40  63 100 139 180 224 286 349 407
#     4  12  28  44  62  96 158 182 212 284 374 410
#     4  12  21  39  71 100 128 175 242 286 329 407
#     4  10  16  33  64 102 124 153 223 302 323 376
#     4  10  18  37  65  98 124 174 231 278 331 399
#     4  10  20  41  67  94 129 179 227 280 341 417
#
# _framework density 22.127680000000002
#
# number of rings (size 3 to 8) (size 9 to 14) (size 15 to 20)
#    0.000    1.231    7.692    3.692    0.000    0.000 
#    0.000    3.846    0.000    0.000    0.000    0.000 
#    0.000    0.000    0.000    0.000    0.000    0.000 
#
# Total GULP energy -322089.318847 kJ/mol
# GULP energy per Si atom -12388.050725 kJ/mol
# Density = 2.207732 g / cm^3
# Si number density = 22.127680 Si / 1000 Ang^3
#
#
#
# Elastic Constant Matrix: (Units=GPa)
#
#
# Indices 1 2 3 4 5 6 
#
# 1 144.0711 32.1085 65.9561 0.0000 0.0000 0.0000
# 2 32.1085 26.6582 20.8992 0.0000 0.0000 0.0000
# 3 65.9561 20.8992 133.0314 0.0000 0.0000 0.0000
# 4 0.0000 0.0000 0.0000 -80.0701 0.0000 0.0000
# 5 0.0000 0.0000 0.0000 0.0000 58.3215 0.0000
# 6 0.0000 0.0000 0.0000 0.0000 0.0000 22.7407
#
#
#
# Elastic Compliance Matrix: (Units=1/GPa)
#
#
# Indices 1 2 3 4 5 6 
#
# 1 0.010972 -0.010208 -0.003836 0.000000 0.000000 0.000000
# 2 -0.010208 0.052278 -0.003152 0.000000 0.000000 0.000000
# 3 -0.003836 -0.003152 0.009914 0.000000 0.000000 0.000000
# 4 0.000000 0.000000 0.000000 -0.012489 0.000000 0.000000
# 5 0.000000 0.000000 0.000000 0.000000 0.017146 0.000000
# 6 0.000000 0.000000 0.000000 0.000000 0.000000 0.043974
#
#
# Mechanical properties :
#
#
# Convention : Reuss Voigt Hill
#
# Bulk Modulus (GPa) = 25.79177 60.18760 42.98968
# Shear Modulus (GPa) = 29.56621 12.51819 21.04220
#
# Velocity S-wave (km/s) = 3.65932 2.38108 3.08708
# Velocity P-wave (km/s) = 5.43465 5.90073 5.67248
#
# Compressibility (1/GPa) = 0.03877206
#
# Stress axis : x y z
#
# Youngs Moduli (GPa) = 91.13844 19.12858 100.86557
#
# Poissons Ratio (x) = 0.19527 0.38695
# Poissons Ratio (y) = 0.93035 0.31790
# Poissons Ratio (z) = 0.34964 0.06029
#
# Static dielectric constant tensor:
#      x y z
#    x 4.464410 0.000000 0.000000 
#    y 0.000000 3.307850 0.000000 
#    z 0.000000 0.000000 4.545860 
# 
# 
# High freq. dielectric constant tensor:
#      x y z
#    x 1.896340 0.000000 0.000000 
#    y 0.000000 1.790810 0.000000 
#    z 0.000000 0.000000 1.896000 
# 
# From -- ./inp_files/3141.got.cif
#   From: 2010.03.12/outbox.cif.g09.slc.cpg/sg41_2_cif.got.tgz:3141.got - 2010.04.14 01:55:53.
