data_PCOD8184278
_publ_section_title
;
Structure prediction by ZEFSAII (Michael W. Deem and Ramdas Pophale) SiO2 
 PCOD8184278
Probable space group: A M A 2
;
_chemical_formula_sum "Si O2"
_cell_formula_units_Z 48
_cell_length_a 15.158749
_cell_length_b 17.493333
_cell_length_c 8.708340
_cell_angle_alpha 90.000000
_cell_angle_beta 90.000000
_cell_angle_gamma 90.000000
_cell_volume 2309.251860
_symmetry_space_group_name_H-M "A M A 2"
_symmetry_group_IT_number 40
_symmetry_cell_setting 'orthorhombic'
loop_
_space_group_symop_operation_xyz
x,y,z
-x,-y,z
1/2-x,y,z
1/2+x,-y,z
x,1/2+y,1/2+z
-x,1/2-y,1/2+z
1/2-x,1/2+y,1/2+z
1/2+x,1/2-y,1/2+z
loop_
_atom_site_type_symbol
_atom_site_label
_atom_site_fract_x
_atom_site_fract_y
_atom_site_fract_z
Si Si1 0.750000 0.779080 0.462661
Si Si2 0.750000 0.949944 0.532513
Si Si3 0.912422 0.700947 0.937920
Si Si4 0.250000 0.276192 0.139444
Si Si5 0.571461 0.223290 0.089030
Si Si6 0.904263 0.527709 0.861680
Si Si7 0.750000 0.061328 0.806602
Si Si8 0.421990 0.945854 0.017001
O O1 0.750000 0.859026 0.550403
O O2 0.750000 0.785680 0.277293
O O3 0.666104 0.729921 0.511083
O O4 0.836313 0.971194 0.438866
O O5 0.750000 0.987201 0.699377
O O6 0.919396 0.737940 0.770124
O O7 0.888609 0.612180 0.925899
O O8 0.835253 0.740537 0.035282
O O9 0.004773 0.713349 0.024497
O O10 0.250000 0.361793 0.206904
O O11 0.536829 0.138357 0.047527
O O12 0.889192 0.521477 0.679747
O O13 0.000000 0.500000 0.911053
O O14 0.661089 0.056852 0.905157
O O15 0.500000 0.000000 0.949587
#
# Coordination Sequence:
#
# PCOD8184278 Si02
#       8
#     4   4   8   4   8   8   4   8
#     4  12  25  43  65  97 135 174 223 278 347 405
#     4  12  25  39  65  95 127 170 225 276 329 407
#     4  11  23  40  67  92 128 176 223 272 342 413
#     4  12  23  43  65  91 130 182 220 275 354 409
#     4  11  23  41  66  98 133 175 223 281 341 412
#     4  10  21  41  63  92 128 170 216 271 335 401
#     4  12  23  43  67  99 134 176 224 283 342 399
#     4  10  23  42  68  95 130 177 222 273 341 412
#
# _framework density 20.785952999999999
#
# number of rings (size 3 to 8) (size 9 to 14) (size 15 to 20)
#    0.000    1.000    3.333    3.000    0.000    7.333 
#    0.000    2.500    0.000    0.000    0.000    0.000 
#    0.000    0.000    0.000    0.000    0.000    0.000 
#
# Total GULP energy -297727.334702 kJ/mol
# GULP energy per Si atom -12405.305613 kJ/mol
# Density = 2.073864 g / cm^3
# Si number density = 20.785953 Si / 1000 Ang^3
#
#
#
# Elastic Constant Matrix: (Units=GPa)
#
#
# Indices 1 2 3 4 5 6 
#
# 1 137.9440 15.8974 54.9572 0.0000 0.0000 0.0000
# 2 15.8974 68.6272 24.3266 0.0000 0.0000 0.0000
# 3 54.9572 24.3266 122.8649 0.0000 0.0000 0.0000
# 4 0.0000 0.0000 0.0000 31.4765 0.0000 0.0000
# 5 0.0000 0.0000 0.0000 0.0000 42.2256 0.0000
# 6 0.0000 0.0000 0.0000 0.0000 0.0000 -8.2900
#
#
#
# Elastic Compliance Matrix: (Units=1/GPa)
#
#
# Indices 1 2 3 4 5 6 
#
# 1 0.008852 -0.000696 -0.003822 0.000000 0.000000 0.000000
# 2 -0.000696 0.015726 -0.002802 0.000000 0.000000 0.000000
# 3 -0.003822 -0.002802 0.010403 0.000000 0.000000 0.000000
# 4 0.000000 0.000000 0.000000 0.031770 0.000000 0.000000
# 5 0.000000 0.000000 0.000000 0.000000 0.023682 0.000000
# 6 0.000000 0.000000 0.000000 0.000000 0.000000 -0.120628
#
#
# Mechanical properties :
#
#
# Convention : Reuss Voigt Hill
#
# Bulk Modulus (GPa) = 49.16070 57.75538 53.45804
# Shear Modulus (GPa) = -569.88548 28.69943 -270.59303
#
# Velocity S-wave (km/s) = -16.57600 3.71983 -11.42205
# Velocity P-wave (km/s) = 18.51079 6.80408 12.17279
#
# Compressibility (1/GPa) = 0.02034145
#
# Stress axis : x y z
#
# Youngs Moduli (GPa) = 112.96749 63.58870 96.12296
#
# Poissons Ratio (x) = 0.04425 0.36736
# Poissons Ratio (y) = 0.07861 0.26938
# Poissons Ratio (z) = 0.43173 0.17820
#
# Static dielectric constant tensor:
#      x y z
#    x 3.765600 0.000000 0.000000 
#    y 0.000000 3.660880 0.000000 
#    z 0.000000 0.000000 3.904080 
# 
# 
# High freq. dielectric constant tensor:
#      x y z
#    x 1.824490 0.000000 0.000000 
#    y 0.000000 1.806940 0.000000 
#    z 0.000000 0.000000 1.824510 
# 
# From -- ./inp_files/6511.got.cif
#   From: 2010.03.12/outbox.cif.g09.slc.cpg/sg40_4_cif.got.tgz:6511.got - 2010.04.14 01:38:03.
