data_PCOD8184719
_publ_section_title
;
Structure prediction by ZEFSAII (Michael W. Deem and Ramdas Pophale) SiO2 
 PCOD8184719
Probable space group: A M A 2
;
_chemical_formula_sum "Si O2"
_cell_formula_units_Z 32
_cell_length_a 9.000000
_cell_length_b 18.000000
_cell_length_c 21.000000
_cell_angle_alpha 90.000000
_cell_angle_beta 90.000000
_cell_angle_gamma 90.000000
_cell_volume 3402.000000
_symmetry_space_group_name_H-M "A M A 2"
_symmetry_group_IT_number 40
_symmetry_cell_setting 'orthorhombic'
loop_
_space_group_symop_operation_xyz
x,y,z
-x,-y,z
1/2-x,y,z
1/2+x,-y,z
x,1/2+y,1/2+z
-x,1/2-y,1/2+z
1/2-x,1/2+y,1/2+z
1/2+x,1/2-y,1/2+z
loop_
_atom_site_type_symbol
_atom_site_label
_atom_site_fract_x
_atom_site_fract_y
_atom_site_fract_z
Si Si1 0.923559 0.317183 0.265380
Si Si2 0.419568 0.708956 0.842022
Si Si3 0.579024 0.630705 0.031794
Si Si4 0.915370 0.068761 0.841636
Si Si5 0.088157 0.931825 0.990729
Si Si6 0.575502 0.425649 0.154571
Si Si7 0.919570 0.572497 0.893578
Si Si8 0.422303 0.769376 0.980411
O O1 0.750000 0.301752 0.269971
O O2 0.968606 0.356926 0.199822
O O3 0.015164 0.241786 0.275907
O O4 0.977740 0.363117 0.326618
O O5 0.250000 0.688184 0.830812
O O6 0.513722 0.636539 0.851720
O O7 0.438495 0.761487 0.904236
O O8 0.750000 0.632686 0.053135
O O9 0.481106 0.590676 0.084312
O O10 0.553955 0.583892 0.968317
O O11 0.523148 0.713910 0.020475
O O12 0.750000 0.079508 0.811663
O O13 0.898024 0.055021 0.915858
O O14 0.000000 0.000000 0.808867
O O15 0.250000 0.933460 0.022309
O O16 0.017745 0.850515 0.001686
O O17 0.000000 0.000000 0.022766
O O18 0.500000 0.500000 0.181335
O O19 0.750000 0.438545 0.152990
O O20 0.750000 0.565622 0.876156
O O21 0.000000 0.500000 0.870014
O O22 0.250000 0.757823 0.999206
#
# Coordination Sequence:
#
# PCOD8184719 Si02
#       8
#     8   8   8   8   8   8   8   8
#     4  11  22  34  49  71 100 136 175 214 255 302
#     4  10  19  33  52  74 102 136 171 211 259 312
#     4  10  21  35  54  78 102 134 176 220 264 310
#     4  10  18  29  43  64  93 130 170 205 246 292
#     4   9  17  28  42  66  97 131 166 203 247 298
#     4  11  24  39  54  74 103 141 181 221 260 302
#     4  10  20  34  53  80 108 135 169 212 264 317
#     4   9  17  32  50  71 101 135 171 212 261 313
#
# _framework density 9.4062319999999993
#
# number of rings (size 3 to 8) (size 9 to 14) (size 15 to 20)
#    0.000    2.000    1.250    3.000    0.000    7.000 
#    0.000    0.000    0.000    0.000    0.000    0.875 
#    0.000    4.000    0.000    0.000    0.000    0.125 
#
# Total GULP energy -396565.016374 kJ/mol
# GULP energy per Si atom -12392.656762 kJ/mol
# Density = 0.938482 g / cm^3
# Si number density = 9.406232 Si / 1000 Ang^3
#
#
#
# Elastic Constant Matrix: (Units=GPa)
#
#
# Indices 1 2 3 4 5 6 
#
# 1 7.9419 63.0485 38.4126 0.0000 0.0000 0.0000
# 2 63.0485 65.3974 18.9924 0.0000 0.0000 0.0000
# 3 38.4126 18.9924 42.7062 0.0000 0.0000 0.0000
# 4 0.0000 0.0000 0.0000 43.0256 0.0000 0.0000
# 5 0.0000 0.0000 0.0000 0.0000 27.4976 0.0000
# 6 0.0000 0.0000 0.0000 0.0000 0.0000 31.9685
#
#
#
# Elastic Compliance Matrix: (Units=1/GPa)
#
#
# Indices 1 2 3 4 5 6 
#
# 1 -0.015697 0.012669 0.008484 0.000000 0.000000 0.000000
# 2 0.012669 0.007334 -0.014657 0.000000 0.000000 0.000000
# 3 0.008484 -0.014657 0.022302 0.000000 0.000000 0.000000
# 4 0.000000 0.000000 0.000000 0.023242 0.000000 0.000000
# 5 0.000000 0.000000 0.000000 0.000000 0.036367 0.000000
# 6 0.000000 0.000000 0.000000 0.000000 0.000000 0.031281
#
#
# Mechanical properties :
#
#
# Convention : Reuss Voigt Hill
#
# Bulk Modulus (GPa) = 37.12928 39.66139 38.39533
# Shear Modulus (GPa) = 49.59651 20.20449 34.90050
#
# Velocity S-wave (km/s) = 5.14012 3.28074 4.31185
# Velocity P-wave (km/s) = 7.41668 5.95645 6.72631
#
# Compressibility (1/GPa) = 0.02693292
#
# Stress axis : x y z
#
# Youngs Moduli (GPa) = -63.70779 136.35483 44.83804
#
# Poissons Ratio (x) = -1.72746 -0.38043
# Poissons Ratio (y) = 0.80711 0.65718
# Poissons Ratio (z) = 0.54053 1.99851
#
# Static dielectric constant tensor:
#      x y z
#    x 3.655730 0.000000 0.000000 
#    y 0.000000 0.859620 0.000000 
#    z 0.000000 0.000000 2.987110 
# 
# 
# High freq. dielectric constant tensor:
#      x y z
#    x 1.736110 0.000000 0.000000 
#    y 0.000000 1.724850 0.000000 
#    z 0.000000 0.000000 1.671890 
# 
# From -- ./inp_files/22394.got.cif
#   From: 2010.03.12/outbox.ucp.g09.slc.cvg/sg40_12_cif.got.tgz:22394.got - 2010.05.04 21:16:09.
