data_PCOD8184217
_publ_section_title
;
Structure prediction by ZEFSAII (Michael W. Deem and Ramdas Pophale) SiO2 
 PCOD8184217
Probable space group: A M A 2
;
_chemical_formula_sum "Si O2"
_cell_formula_units_Z 48
_cell_length_a 8.779889
_cell_length_b 18.507575
_cell_length_c 14.787281
_cell_angle_alpha 90.000000
_cell_angle_beta 90.000000
_cell_angle_gamma 90.000000
_cell_volume 2402.851155
_symmetry_space_group_name_H-M "A M A 2"
_symmetry_group_IT_number 40
_symmetry_cell_setting 'orthorhombic'
loop_
_space_group_symop_operation_xyz
x,y,z
-x,-y,z
1/2-x,y,z
1/2+x,-y,z
x,1/2+y,1/2+z
-x,1/2-y,1/2+z
1/2-x,1/2+y,1/2+z
1/2+x,1/2-y,1/2+z
loop_
_atom_site_type_symbol
_atom_site_label
_atom_site_fract_x
_atom_site_fract_y
_atom_site_fract_z
Si Si1 0.073954 0.695612 0.425840
Si Si2 0.576027 0.314019 0.633471
Si Si3 0.071178 0.650802 0.930344
Si Si4 0.424945 0.348922 0.116859
Si Si5 0.427191 0.423575 0.301250
Si Si6 0.071241 0.924924 0.264791
O O1 0.250000 0.711297 0.405237
O O2 0.050985 0.668493 0.528111
O O3 0.982498 0.768653 0.406954
O O4 0.012477 0.634821 0.360535
O O5 0.750000 0.328986 0.662996
O O6 0.531179 0.230800 0.652654
O O7 0.465521 0.363517 0.691687
O O8 0.250000 0.646144 0.917411
O O9 0.994323 0.594417 0.862827
O O10 0.027833 0.628188 0.032235
O O11 0.250000 0.346978 0.083730
O O12 0.452574 0.406335 0.195783
O O13 0.500000 0.500000 0.323974
O O14 0.250000 0.423887 0.326650
O O15 0.250000 0.934028 0.272502
O O16 0.000000 0.000000 0.230915
#
# Coordination Sequence:
#
# PCOD8184217 Si02
#       6
#     8   8   8   8   8   8
#     4  10  21  39  63  88 116 151 194 241 286 338
#     4   9  19  38  62  87 114 146 189 241 290 338
#     4  11  22  38  62  89 117 150 191 238 288 343
#     4   9  20  39  61  85 115 152 194 239 285 337
#     4  11  23  38  58  85 120 158 195 238 288 343
#     4  12  25  40  59  84 117 155 194 237 288 345
#
# _framework density 19.976267
#
# number of rings (size 3 to 8) (size 9 to 14) (size 15 to 20)
#    0.000    1.667    0.000    6.000    0.000    7.333 
#    0.000    1.667    0.000    0.000    0.000    0.000 
#    0.000    0.000    0.000    0.000    0.000    0.000 
#
# Total GULP energy -297741.695333 kJ/mol
# GULP energy per Si atom -12405.903972 kJ/mol
# Density = 1.993080 g / cm^3
# Si number density = 19.976267 Si / 1000 Ang^3
#
#
#
# Elastic Constant Matrix: (Units=GPa)
#
#
# Indices 1 2 3 4 5 6 
#
# 1 131.5419 18.8631 30.8558 0.0000 0.0000 0.0000
# 2 18.8631 35.6086 6.6539 0.0000 0.0000 0.0000
# 3 30.8558 6.6539 50.0244 0.0000 0.0000 0.0000
# 4 0.0000 0.0000 0.0000 11.8096 0.0000 0.0000
# 5 0.0000 0.0000 0.0000 0.0000 36.2949 0.0000
# 6 0.0000 0.0000 0.0000 0.0000 0.0000 33.4982
#
#
#
# Elastic Compliance Matrix: (Units=1/GPa)
#
#
# Indices 1 2 3 4 5 6 
#
# 1 0.009413 -0.004001 -0.005274 0.000000 0.000000 0.000000
# 2 -0.004001 0.030499 -0.001589 0.000000 0.000000 0.000000
# 3 -0.005274 -0.001589 0.023455 0.000000 0.000000 0.000000
# 4 0.000000 0.000000 0.000000 0.084677 0.000000 0.000000
# 5 0.000000 0.000000 0.000000 0.000000 0.027552 0.000000
# 6 0.000000 0.000000 0.000000 0.000000 0.000000 0.029852
#
#
# Mechanical properties :
#
#
# Convention : Reuss Voigt Hill
#
# Bulk Modulus (GPa) = 24.01570 36.65782 30.33676
# Shear Modulus (GPa) = 20.74207 27.04068 23.89138
#
# Velocity S-wave (km/s) = 3.22582 3.68318 3.46206
# Velocity P-wave (km/s) = 5.09144 6.03972 5.58574
#
# Compressibility (1/GPa) = 0.04163943
#
# Stress axis : x y z
#
# Youngs Moduli (GPa) = 106.23649 32.78752 42.63555
#
# Poissons Ratio (x) = 0.13118 0.22485
# Poissons Ratio (y) = 0.42504 0.06775
# Poissons Ratio (z) = 0.56028 0.05210
#
# Static dielectric constant tensor:
#      x y z
#    x 3.718390 0.000000 0.000000 
#    y 0.000000 3.610560 0.000000 
#    z 0.000000 0.000000 3.658660 
# 
# 
# High freq. dielectric constant tensor:
#      x y z
#    x 1.787180 0.000000 0.000000 
#    y 0.000000 1.777720 0.000000 
#    z 0.000000 0.000000 1.786300 
# 
# From -- ./inp_files/15052.got.cif
#   From: 2010.03.12/outbox.cif.g09.slc.cpg/sg40_8_cif.got.tgz:15052.got - 2010.04.14 01:38:03.
