data_PCOD8184863
_publ_section_title
;
Structure prediction by ZEFSAII (Michael W. Deem and Ramdas Pophale) SiO2 
 PCOD8184863
Probable space group: A B A 2
;
_chemical_formula_sum "Si O2"
_cell_formula_units_Z 64
_cell_length_a 7.892018
_cell_length_b 15.188495
_cell_length_c 22.954378
_cell_angle_alpha 90.000000
_cell_angle_beta 90.000000
_cell_angle_gamma 90.000000
_cell_volume 2751.492534
_symmetry_space_group_name_H-M "A B A 2"
_symmetry_group_IT_number 41
_symmetry_cell_setting 'orthorhombic'
loop_
_space_group_symop_operation_xyz
x,y,z
-x,-y,z
1/2-x,y,1/2+z
1/2+x,-y,1/2+z
x,1/2+y,1/2+z
-x,1/2-y,1/2+z
1/2-x,1/2+y,z
1/2+x,1/2-y,z
loop_
_atom_site_type_symbol
_atom_site_label
_atom_site_fract_x
_atom_site_fract_y
_atom_site_fract_z
Si Si1 0.299573 0.868995 0.746640
Si Si2 0.314621 0.677530 0.246083
Si Si3 0.443735 0.309457 0.071093
Si Si4 0.502124 0.606529 0.948592
Si Si5 0.785059 0.354866 0.123194
Si Si6 0.319983 0.408623 0.375457
Si Si7 0.809971 0.037379 0.133035
Si Si8 0.310868 0.610127 0.372632
O O1 0.186710 0.782207 0.751130
O O2 0.495129 0.850744 0.732009
O O3 0.273780 0.915796 0.807727
O O4 0.235850 0.934456 0.695898
O O5 0.186159 0.652240 0.193171
O O6 0.254381 0.631690 0.306427
O O7 0.593617 0.323557 0.115892
O O8 0.394962 0.207016 0.080376
O O9 0.295160 0.377686 0.090566
O O10 0.497985 0.334506 0.006281
O O11 0.500000 0.500000 0.960227
O O12 0.669241 0.635139 0.912534
O O13 0.337714 0.644268 0.914746
O O14 0.806789 0.458312 0.106493
O O15 0.332887 0.509758 0.391437
O O16 0.496630 0.353269 0.384509
O O17 0.000000 0.000000 0.138015
#
# Coordination Sequence:
#
# PCOD8184863 Si02
#       8
#     8   8   8   8   8   8   8   8
#     4  11  21  35  62  94 136 172 221 279 347 421
#     4  11  20  36  60  94 137 167 219 283 340 411
#     4  11  23  43  66  93 131 173 230 277 341 416
#     4  10  21  43  66  92 133 180 233 285 335 413
#     4  11  21  41  66  95 127 170 222 280 341 413
#     4   9  20  38  63  96 130 174 234 276 340 416
#     4  10  19  37  69  93 123 178 217 268 354 413
#     4   9  20  38  66  95 129 181 223 282 345 407
#
# _framework density 23.260104999999999
#
# number of rings (size 3 to 8) (size 9 to 14) (size 15 to 20)
#    0.000    1.750    3.750    1.875    3.500    0.000 
#    4.500    0.625    2.750    0.000    0.000    0.000 
#    0.000    0.000    0.000    0.000    0.000    0.000 
#
# Total GULP energy -396430.240021 kJ/mol
# GULP energy per Si atom -12388.445001 kJ/mol
# Density = 2.320716 g / cm^3
# Si number density = 23.260105 Si / 1000 Ang^3
#
#
#
# Elastic Constant Matrix: (Units=GPa)
#
#
# Indices 1 2 3 4 5 6 
#
# 1 61.1454 39.6923 56.9536 0.0000 0.0000 0.0000
# 2 39.6923 82.7249 25.8570 0.0000 0.0000 0.0000
# 3 56.9536 25.8570 146.4111 0.0000 0.0000 0.0000
# 4 0.0000 0.0000 0.0000 34.7287 0.0000 0.0000
# 5 0.0000 0.0000 0.0000 0.0000 19.1871 0.0000
# 6 0.0000 0.0000 0.0000 0.0000 0.0000 24.8921
#
#
#
# Elastic Compliance Matrix: (Units=1/GPa)
#
#
# Indices 1 2 3 4 5 6 
#
# 1 0.036030 -0.013661 -0.011603 0.000000 0.000000 0.000000
# 2 -0.013661 0.017974 0.002140 0.000000 0.000000 0.000000
# 3 -0.011603 0.002140 0.010966 0.000000 0.000000 0.000000
# 4 0.000000 0.000000 0.000000 0.028795 0.000000 0.000000
# 5 0.000000 0.000000 0.000000 0.000000 0.052118 0.000000
# 6 0.000000 0.000000 0.000000 0.000000 0.000000 0.040173
#
#
# Mechanical properties :
#
#
# Convention : Reuss Voigt Hill
#
# Bulk Modulus (GPa) = 53.41451 59.47636 56.44543
# Shear Modulus (GPa) = 20.96044 26.94682 23.95363
#
# Velocity S-wave (km/s) = 3.00514 3.40737 3.21256
# Velocity P-wave (km/s) = 5.92073 6.41138 6.17093
#
# Compressibility (1/GPa) = 0.01872150
#
# Stress axis : x y z
#
# Youngs Moduli (GPa) = 27.75480 55.63577 91.19328
#
# Poissons Ratio (x) = 0.76003 1.05811
# Poissons Ratio (y) = 0.37915 -0.19513
# Poissons Ratio (z) = 0.32204 -0.11904
#
# Static dielectric constant tensor:
#      x y z
#    x 4.261930 0.000000 0.000000 
#    y 0.000000 4.481900 0.000000 
#    z 0.000000 0.000000 4.026070 
# 
# 
# High freq. dielectric constant tensor:
#      x y z
#    x 1.898690 0.000000 0.000000 
#    y 0.000000 1.918370 0.000000 
#    z 0.000000 0.000000 1.911680 
# 
# From -- ./inp_files/12032.got.cif
#   From: 2010.03.12/outbox.cif.g09.slc.cpg/sg41_7_cif.got.tgz:12032.got - 2010.04.14 01:55:53.
