data_PCOD8184715
_publ_section_title
;
Structure prediction by ZEFSAII (Michael W. Deem and Ramdas Pophale) SiO2 
 PCOD8184715
Probable space group: A M A 2
;
_chemical_formula_sum "Si O2"
_cell_formula_units_Z 64
_cell_length_a 9.702694
_cell_length_b 27.868201
_cell_length_c 14.554539
_cell_angle_alpha 90.000000
_cell_angle_beta 90.000000
_cell_angle_gamma 90.000000
_cell_volume 3935.498248
_symmetry_space_group_name_H-M "A M A 2"
_symmetry_group_IT_number 40
_symmetry_cell_setting 'orthorhombic'
loop_
_space_group_symop_operation_xyz
x,y,z
-x,-y,z
1/2-x,y,z
1/2+x,-y,z
x,1/2+y,1/2+z
-x,1/2-y,1/2+z
1/2-x,1/2+y,1/2+z
1/2+x,1/2-y,1/2+z
loop_
_atom_site_type_symbol
_atom_site_label
_atom_site_fract_x
_atom_site_fract_y
_atom_site_fract_z
Si Si1 0.090510 0.180200 0.469050
Si Si2 0.589027 0.857114 0.665500
Si Si3 0.411444 0.673208 0.771264
Si Si4 0.589191 0.454381 0.471768
Si Si5 0.597828 0.725186 0.219106
Si Si6 0.591456 0.955126 0.759423
Si Si7 0.901698 0.262218 0.515092
Si Si8 0.413793 0.136829 0.082326
O O1 0.250000 0.194390 0.474943
O O2 0.049259 0.148263 0.557329
O O3 0.059420 0.151296 0.373203
O O4 0.008931 0.230145 0.458994
O O5 0.750000 0.847378 0.682525
O O6 0.505947 0.819641 0.729012
O O7 0.547812 0.910420 0.696174
O O8 0.250000 0.677445 0.750801
O O9 0.466818 0.728248 0.770018
O O10 0.472826 0.640838 0.687761
O O11 0.500000 0.500000 0.501405
O O12 0.750000 0.464811 0.491133
O O13 0.564661 0.441437 0.365330
O O14 0.529811 0.410721 0.533040
O O15 0.750000 0.710924 0.257520
O O16 0.612797 0.738742 0.113781
O O17 0.750000 0.969165 0.743401
O O18 0.500000 0.000000 0.728128
O O19 0.750000 0.261996 0.467686
O O20 0.959886 0.316477 0.523951
O O21 0.250000 0.134658 0.082967
#
# Coordination Sequence:
#
# PCOD8184715 Si02
#       8
#     8   8   8   8   8   8   8   8
#     4   9  16  26  41  61  86 113 137 164 198 234
#     4   9  17  28  42  62  86 108 133 167 205 242
#     4   8  14  25  41  61  84 111 142 168 190 229
#     4   9  17  30  47  64  81 102 131 169 211 249
#     4   8  14  25  40  58  81 109 140 168 191 224
#     4   9  18  31  45  62  82 103 131 168 208 249
#     4   8  14  25  40  58  81 109 140 168 192 226
#     4   8  14  26  44  62  80 107 141 170 197 237
#
# _framework density 16.262236000000001
#
# number of rings (size 3 to 8) (size 9 to 14) (size 15 to 20)
#    0.000    3.500    0.000    1.500    0.000    1.500 
#    0.000    2.500    0.000    3.000    0.000    0.000 
#    0.000    0.000    0.000    0.000    0.000    0.000 
#
# Total GULP energy -396450.014197 kJ/mol
# GULP energy per Si atom -12389.062944 kJ/mol
# Density = 1.622522 g / cm^3
# Si number density = 16.262236 Si / 1000 Ang^3
#
#
#
# Elastic Constant Matrix: (Units=GPa)
#
#
# Indices 1 2 3 4 5 6 
#
# 1 40.8058 43.4251 25.5512 0.0000 0.0000 0.0000
# 2 43.4251 125.7940 57.5880 0.0000 0.0000 0.0000
# 3 25.5512 57.5880 82.1274 0.0000 0.0000 0.0000
# 4 0.0000 0.0000 0.0000 22.9379 0.0000 0.0000
# 5 0.0000 0.0000 0.0000 0.0000 12.9740 0.0000
# 6 0.0000 0.0000 0.0000 0.0000 0.0000 23.1699
#
#
#
# Elastic Compliance Matrix: (Units=1/GPa)
#
#
# Indices 1 2 3 4 5 6 
#
# 1 0.039622 -0.011833 -0.004030 0.000000 0.000000 0.000000
# 2 -0.011833 0.015242 -0.007006 0.000000 0.000000 0.000000
# 3 -0.004030 -0.007006 0.018343 0.000000 0.000000 0.000000
# 4 0.000000 0.000000 0.000000 0.043596 0.000000 0.000000
# 5 0.000000 0.000000 0.000000 0.000000 0.077077 0.000000
# 6 0.000000 0.000000 0.000000 0.000000 0.000000 0.043159
#
#
# Mechanical properties :
#
#
# Convention : Reuss Voigt Hill
#
# Bulk Modulus (GPa) = 36.40501 55.76175 46.08338
# Shear Modulus (GPa) = 17.12721 19.96057 18.54389
#
# Velocity S-wave (km/s) = 3.24881 3.50725 3.38050
# Velocity P-wave (km/s) = 6.04217 7.12493 6.60577
#
# Compressibility (1/GPa) = 0.02746875
#
# Stress axis : x y z
#
# Youngs Moduli (GPa) = 25.23833 65.60930 54.51796
#
# Poissons Ratio (x) = 0.77636 0.21969
# Poissons Ratio (y) = 0.29865 0.38196
# Poissons Ratio (z) = 0.10170 0.45966
#
# Static dielectric constant tensor:
#      x y z
#    x 3.110330 0.000000 0.000000 
#    y 0.000000 3.063480 0.000000 
#    z 0.000000 0.000000 3.176100 
# 
# 
# High freq. dielectric constant tensor:
#      x y z
#    x 1.602140 0.000000 0.000000 
#    y 0.000000 1.602650 0.000000 
#    z 0.000000 0.000000 1.621110 
# 
# From -- ./inp_files/15876.got.cif
#   From: 2010.03.12/outbox.cif.g09.slc.cpg/sg40_8_cif.got.tgz:15876.got - 2010.04.14 01:38:03.
