data_PCOD8184262
_publ_section_title
;
Structure prediction by ZEFSAII (Michael W. Deem and Ramdas Pophale) SiO2 
 PCOD8184262
Probable space group: A M A 2
;
_chemical_formula_sum "Si O2"
_cell_formula_units_Z 48
_cell_length_a 16.312826
_cell_length_b 10.003782
_cell_length_c 14.273269
_cell_angle_alpha 90.000000
_cell_angle_beta 90.000000
_cell_angle_gamma 90.000000
_cell_volume 2329.254127
_symmetry_space_group_name_H-M "A M A 2"
_symmetry_group_IT_number 40
_symmetry_cell_setting 'orthorhombic'
loop_
_space_group_symop_operation_xyz
x,y,z
-x,-y,z
1/2-x,y,z
1/2+x,-y,z
x,1/2+y,1/2+z
-x,1/2-y,1/2+z
1/2-x,1/2+y,1/2+z
1/2+x,1/2-y,1/2+z
loop_
_atom_site_type_symbol
_atom_site_label
_atom_site_fract_x
_atom_site_fract_y
_atom_site_fract_z
Si Si1 0.999677 0.343005 0.100150
Si Si2 0.088362 0.732829 0.290194
Si Si3 0.096335 0.520760 0.765269
Si Si4 0.342522 0.508262 0.403033
Si Si5 0.155423 0.670099 0.586784
Si Si6 0.564014 0.262271 0.910063
O O1 0.093658 0.295081 0.089417
O O2 0.000000 0.500000 0.090998
O O3 0.965317 0.296241 0.199042
O O4 0.937852 0.285411 0.021462
O O5 0.148231 0.610388 0.315236
O O6 0.029302 0.752045 0.378438
O O7 0.136557 0.873864 0.280919
O O8 0.145140 0.584152 0.679998
O O9 0.108192 0.614148 0.856858
O O10 0.000000 0.500000 0.740944
O O11 0.250000 0.459481 0.408526
O O12 0.369332 0.577404 0.499491
O O13 0.394697 0.377106 0.383547
O O14 0.250000 0.720123 0.578405
#
# Coordination Sequence:
#
# PCOD8184262 Si02
#       6
#     8   8   8   8   8   8
#     4  12  23  40  66  99 128 169 224 269 321 390
#     4  11  22  39  67  95 124 168 220 260 320 384
#     4  10  21  40  65  97 120 168 215 260 318 386
#     4  11  25  42  62  94 130 170 211 268 334 386
#     4  11  24  41  65  94 129 167 214 272 332 382
#     4  11  22  39  66  92 128 165 217 268 314 393
#
# _framework density 20.607455000000002
#
# number of rings (size 3 to 8) (size 9 to 14) (size 15 to 20)
#    0.000    1.000    5.000    4.000    0.000    1.333 
#    0.000    1.667    0.000    0.000    0.000    0.000 
#    0.000    0.000    0.000    0.000    0.000    0.000 
#
# Total GULP energy -297606.132096 kJ/mol
# GULP energy per Si atom -12400.255504 kJ/mol
# Density = 2.056055 g / cm^3
# Si number density = 20.607455 Si / 1000 Ang^3
#
#
#
# Elastic Constant Matrix: (Units=GPa)
#
#
# Indices 1 2 3 4 5 6 
#
# 1 47.8239 43.8146 28.0623 0.0000 0.0000 0.0000
# 2 43.8146 169.5833 33.4442 0.0000 0.0000 0.0000
# 3 28.0623 33.4442 96.8344 0.0000 0.0000 0.0000
# 4 0.0000 0.0000 0.0000 25.8669 0.0000 0.0000
# 5 0.0000 0.0000 0.0000 0.0000 22.3902 0.0000
# 6 0.0000 0.0000 0.0000 0.0000 0.0000 17.2249
#
#
#
# Elastic Compliance Matrix: (Units=1/GPa)
#
#
# Indices 1 2 3 4 5 6 
#
# 1 0.030937 -0.006680 -0.006658 0.000000 0.000000 0.000000
# 2 -0.006680 0.007770 -0.000748 0.000000 0.000000 0.000000
# 3 -0.006658 -0.000748 0.012515 0.000000 0.000000 0.000000
# 4 0.000000 0.000000 0.000000 0.038659 0.000000 0.000000
# 5 0.000000 0.000000 0.000000 0.000000 0.044662 0.000000
# 6 0.000000 0.000000 0.000000 0.000000 0.000000 0.058055
#
#
# Mechanical properties :
#
#
# Convention : Reuss Voigt Hill
#
# Bulk Modulus (GPa) = 43.38452 58.32044 50.85248
# Shear Modulus (GPa) = 21.88618 27.02444 24.45531
#
# Velocity S-wave (km/s) = 3.26245 3.62524 3.44862
# Velocity P-wave (km/s) = 5.94054 6.77387 6.37084
#
# Compressibility (1/GPa) = 0.02304969
#
# Stress axis : x y z
#
# Youngs Moduli (GPa) = 32.32376 128.69751 79.90578
#
# Poissons Ratio (x) = 0.85969 0.53204
# Poissons Ratio (y) = 0.21592 0.05975
# Poissons Ratio (z) = 0.21522 0.09624
#
# Static dielectric constant tensor:
#      x y z
#    x 3.461780 0.000000 0.000000 
#    y 0.000000 4.012540 0.000000 
#    z 0.000000 0.000000 3.951000 
# 
# 
# High freq. dielectric constant tensor:
#      x y z
#    x 1.775490 0.000000 0.000000 
#    y 0.000000 1.821110 0.000000 
#    z 0.000000 0.000000 1.819330 
# 
# From -- ./inp_files/17639.got.cif
#   From: 2010.03.12/outbox.cif.g09.slc.cpg/sg40_9_cif.got.tgz:17639.got - 2010.04.14 01:38:03.
