data_PCOD8184229
_publ_section_title
;
Structure prediction by ZEFSAII (Michael W. Deem and Ramdas Pophale) SiO2 
 PCOD8184229
Probable space group: A M A 2
;
_chemical_formula_sum "Si O2"
_cell_formula_units_Z 48
_cell_length_a 17.255206
_cell_length_b 10.689107
_cell_length_c 11.603190
_cell_angle_alpha 90.000000
_cell_angle_beta 90.000000
_cell_angle_gamma 90.000000
_cell_volume 2140.124194
_symmetry_space_group_name_H-M "A M A 2"
_symmetry_group_IT_number 40
_symmetry_cell_setting 'orthorhombic'
loop_
_space_group_symop_operation_xyz
x,y,z
-x,-y,z
1/2-x,y,z
1/2+x,-y,z
x,1/2+y,1/2+z
-x,1/2-y,1/2+z
1/2-x,1/2+y,1/2+z
1/2+x,1/2-y,1/2+z
loop_
_atom_site_type_symbol
_atom_site_label
_atom_site_fract_x
_atom_site_fract_y
_atom_site_fract_z
Si Si1 0.660486 0.115183 0.655940
Si Si2 0.341113 0.658138 0.084563
Si Si3 0.410411 0.247303 0.811047
Si Si4 0.660101 0.859495 0.025172
Si Si5 0.908725 0.492593 0.721695
Si Si6 0.410078 0.251794 0.352148
O O1 0.750000 0.129291 0.685826
O O2 0.629444 0.229011 0.578444
O O3 0.617352 0.124527 0.781038
O O4 0.645508 0.991484 0.579242
O O5 0.250000 0.688498 0.108471
O O6 0.401219 0.694678 0.183692
O O7 0.370254 0.739079 0.976371
O O8 0.360239 0.154604 0.890781
O O9 0.377642 0.389369 0.795809
O O10 0.497336 0.246466 0.860007
O O11 0.750000 0.879101 0.039824
O O12 0.621563 0.979702 0.089104
O O13 0.878389 0.369826 0.785666
O O14 0.000000 0.500000 0.714265
#
# Coordination Sequence:
#
# PCOD8184229 Si02
#       6
#     8   8   8   8   8   8
#     4   9  20  40  64  92 124 163 215 264 315 385
#     4  11  24  41  63  94 131 170 212 264 328 389
#     4  11  24  39  61  94 131 164 214 263 322 389
#     4  10  21  39  65  90 123 167 211 261 319 382
#     4   9  21  41  63  91 124 163 214 267 317 382
#     4  10  22  40  65  93 123 169 214 267 322 382
#
# _framework density 22.428604
#
# number of rings (size 3 to 8) (size 9 to 14) (size 15 to 20)
#    0.000    2.000    0.000    2.000    7.000    4.000 
#    0.000    0.000    0.000    0.000    0.000    0.000 
#    0.000    0.000    0.000    0.000    0.000    0.000 
#
# Total GULP energy -297396.227650 kJ/mol
# GULP energy per Si atom -12391.509485 kJ/mol
# Density = 2.237756 g / cm^3
# Si number density = 22.428604 Si / 1000 Ang^3
#
#
#
# Elastic Constant Matrix: (Units=GPa)
#
#
# Indices 1 2 3 4 5 6 
#
# 1 57.9327 23.3967 26.9329 0.0000 0.0000 0.0000
# 2 23.3967 37.1992 5.0032 0.0000 0.0000 0.0000
# 3 26.9329 5.0032 117.4653 0.0000 0.0000 0.0000
# 4 0.0000 0.0000 0.0000 37.8440 0.0000 0.0000
# 5 0.0000 0.0000 0.0000 0.0000 38.5685 0.0000
# 6 0.0000 0.0000 0.0000 0.0000 0.0000 25.2207
#
#
#
# Elastic Compliance Matrix: (Units=1/GPa)
#
#
# Indices 1 2 3 4 5 6 
#
# 1 0.026060 -0.015677 -0.005307 0.000000 0.000000 0.000000
# 2 -0.015677 0.036468 0.002041 0.000000 0.000000 0.000000
# 3 -0.005307 0.002041 0.009643 0.000000 0.000000 0.000000
# 4 0.000000 0.000000 0.000000 0.026424 0.000000 0.000000
# 5 0.000000 0.000000 0.000000 0.000000 0.025928 0.000000
# 6 0.000000 0.000000 0.000000 0.000000 0.000000 0.039650
#
#
# Mechanical properties :
#
#
# Convention : Reuss Voigt Hill
#
# Bulk Modulus (GPa) = 29.16743 35.91810 32.54277
# Shear Modulus (GPa) = 23.42057 30.81092 27.11575
#
# Velocity S-wave (km/s) = 3.23496 3.71041 3.48081
# Velocity P-wave (km/s) = 5.19481 5.86561 5.54037
#
# Compressibility (1/GPa) = 0.03428482
#
# Stress axis : x y z
#
# Youngs Moduli (GPa) = 38.37293 27.42148 103.70084
#
# Poissons Ratio (x) = 0.42988 0.55039
# Poissons Ratio (y) = 0.60156 -0.21167
# Poissons Ratio (z) = 0.20366 -0.05597
#
# Static dielectric constant tensor:
#      x y z
#    x 3.773920 0.000000 0.000000 
#    y 0.000000 4.380660 0.000000 
#    z 0.000000 0.000000 4.208240 
# 
# 
# High freq. dielectric constant tensor:
#      x y z
#    x 1.872900 0.000000 0.000000 
#    y 0.000000 1.883620 0.000000 
#    z 0.000000 0.000000 1.886680 
# 
# From -- ./inp_files/12912.got.cif
#   From: 2010.03.12/outbox.cif.g09.slc.cpg/sg40_7_cif.got.tgz:12912.got - 2010.04.14 01:38:03.
