data_PCOD8184809
_publ_section_title
;
Structure prediction by ZEFSAII (Michael W. Deem and Ramdas Pophale) SiO2 
 PCOD8184809
Probable space group: A B A 2
;
_chemical_formula_sum "Si O2"
_cell_formula_units_Z 64
_cell_length_a 26.352503
_cell_length_b 24.576317
_cell_length_c 5.221212
_cell_angle_alpha 90.000000
_cell_angle_beta 90.000000
_cell_angle_gamma 90.000000
_cell_volume 3381.504729
_symmetry_space_group_name_H-M "A B A 2"
_symmetry_group_IT_number 41
_symmetry_cell_setting 'orthorhombic'
loop_
_space_group_symop_operation_xyz
x,y,z
-x,-y,z
1/2-x,y,1/2+z
1/2+x,-y,1/2+z
x,1/2+y,1/2+z
-x,1/2-y,1/2+z
1/2-x,1/2+y,z
1/2+x,1/2-y,z
loop_
_atom_site_type_symbol
_atom_site_label
_atom_site_fract_x
_atom_site_fract_y
_atom_site_fract_z
Si Si1 0.269287 0.895280 0.141960
Si Si2 0.883566 0.582649 0.116648
Si Si3 0.274518 0.774300 0.650391
Si Si4 0.968143 0.916119 0.104523
Si Si5 0.893343 0.744858 0.655146
Si Si6 0.454119 0.153448 0.105884
Si Si7 0.438197 0.807787 0.154597
Si Si8 0.422650 0.466728 0.115477
O O1 0.252426 0.928018 0.396823
O O2 0.329404 0.887621 0.128950
O O3 0.239755 0.837897 0.162369
O O4 0.925818 0.628915 0.118484
O O5 0.890901 0.542759 0.357044
O O6 0.887930 0.548168 0.857464
O O7 0.247378 0.746083 0.406734
O O8 0.334217 0.766929 0.629345
O O9 0.954113 0.875423 0.331644
O O10 0.027559 0.929270 0.113176
O O11 0.935617 0.970261 0.137714
O O12 0.954089 0.890498 0.831770
O O13 0.903932 0.809084 0.621331
O O14 0.921828 0.710751 0.436513
O O15 0.911684 0.727813 0.936828
O O16 0.501057 0.195637 0.131212
#
# Coordination Sequence:
#
# PCOD8184809 Si02
#       8
#     8   8   8   8   8   8   8   8
#     4  10  19  33  51  81 116 147 181 233 288 345
#     4  12  21  35  60  88 119 155 197 232 305 361
#     4  10  20  37  54  79 108 150 189 240 284 332
#     4  11  22  41  59  82 121 150 204 247 285 331
#     4  12  24  37  58  83 122 161 200 232 293 347
#     4  12  23  39  56  86 118 166 197 244 281 342
#     4  12  21  36  53  86 124 161 193 236 275 362
#     4  11  22  38  60  87 113 158 193 247 294 351
#
# _framework density 18.926486000000001
#
# number of rings (size 3 to 8) (size 9 to 14) (size 15 to 20)
#    0.000    0.750    2.500    8.250    0.000    2.000 
#    0.000    0.000    0.000    0.000    0.000   17.500 
#    0.000    0.000    0.000    0.000    0.000    0.000 
#
# Total GULP energy -396844.588694 kJ/mol
# GULP energy per Si atom -12401.393397 kJ/mol
# Density = 1.888341 g / cm^3
# Si number density = 18.926486 Si / 1000 Ang^3
#
#
#
# Elastic Constant Matrix: (Units=GPa)
#
#
# Indices 1 2 3 4 5 6 
#
# 1 96.0843 33.5227 17.4937 0.0000 0.0000 0.0000
# 2 33.5227 56.2816 11.4207 0.0000 0.0000 0.0000
# 3 17.4937 11.4207 126.0247 0.0000 0.0000 0.0000
# 4 0.0000 0.0000 0.0000 17.3757 0.0000 0.0000
# 5 0.0000 0.0000 0.0000 0.0000 26.7264 0.0000
# 6 0.0000 0.0000 0.0000 0.0000 0.0000 21.8951
#
#
#
# Elastic Compliance Matrix: (Units=1/GPa)
#
#
# Indices 1 2 3 4 5 6 
#
# 1 0.013299 -0.007688 -0.001149 0.000000 0.000000 0.000000
# 2 -0.007688 0.022545 -0.000976 0.000000 0.000000 0.000000
# 3 -0.001149 -0.000976 0.008183 0.000000 0.000000 0.000000
# 4 0.000000 0.000000 0.000000 0.057552 0.000000 0.000000
# 5 0.000000 0.000000 0.000000 0.000000 0.037416 0.000000
# 6 0.000000 0.000000 0.000000 0.000000 0.000000 0.045672
#
#
# Mechanical properties :
#
#
# Convention : Reuss Voigt Hill
#
# Bulk Modulus (GPa) = 40.98286 44.80720 42.89503
# Shear Modulus (GPa) = 23.53748 27.59633 25.56691
#
# Velocity S-wave (km/s) = 3.53033 3.82262 3.67938
# Velocity P-wave (km/s) = 6.19019 6.57336 6.38465
#
# Compressibility (1/GPa) = 0.02440045
#
# Stress axis : x y z
#
# Youngs Moduli (GPa) = 75.19338 44.35572 122.20550
#
# Poissons Ratio (x) = 0.34101 0.14046
# Poissons Ratio (y) = 0.57809 0.11926
# Poissons Ratio (z) = 0.08642 0.04329
#
# Static dielectric constant tensor:
#      x y z
#    x 3.396500 0.000000 0.000000 
#    y 0.000000 3.171770 0.000000 
#    z 0.000000 0.000000 5.020370 
# 
# 
# High freq. dielectric constant tensor:
#      x y z
#    x 1.727600 0.000000 0.000000 
#    y 0.000000 1.695970 0.000000 
#    z 0.000000 0.000000 1.773190 
# 
# From -- ./inp_files/1029.got.cif
#   From: 2010.03.12/outbox.cif.g09.slc.cpg/sg41_1_cif.got.tgz:1029.got - 2010.04.14 01:55:53.
