data_PCOD8184064
_publ_section_title
;
Structure prediction by ZEFSAII (Michael W. Deem and Ramdas Pophale) SiO2 
 PCOD8184064
Probable space group: A M A 2
;
_chemical_formula_sum "Si O2"
_cell_formula_units_Z 64
_cell_length_a 20.990266
_cell_length_b 15.264164
_cell_length_c 9.929375
_cell_angle_alpha 90.000000
_cell_angle_beta 90.000000
_cell_angle_gamma 90.000000
_cell_volume 3181.360457
_symmetry_space_group_name_H-M "A M A 2"
_symmetry_group_IT_number 40
_symmetry_cell_setting 'orthorhombic'
loop_
_space_group_symop_operation_xyz
x,y,z
-x,-y,z
1/2-x,y,z
1/2+x,-y,z
x,1/2+y,1/2+z
-x,1/2-y,1/2+z
1/2-x,1/2+y,1/2+z
1/2+x,1/2-y,1/2+z
loop_
_atom_site_type_symbol
_atom_site_label
_atom_site_fract_x
_atom_site_fract_y
_atom_site_fract_z
Si Si1 0.319597 0.245374 0.342530
Si Si2 0.926330 0.517305 0.054855
Si Si3 0.174743 0.605716 0.365804
Si Si4 0.114986 0.916800 0.827461
Si Si5 0.623166 0.327238 0.096972
Si Si6 0.962650 0.168394 0.056283
Si Si7 0.571862 0.032494 0.258904
Si Si8 0.608223 0.859764 0.128485
O O1 0.250000 0.221434 0.286050
O O2 0.326477 0.350500 0.347126
O O3 0.324022 0.209094 0.494410
O O4 0.374577 0.207387 0.246877
O O5 0.904870 0.583923 0.170800
O O6 0.889829 0.426348 0.059155
O O7 0.000000 0.500000 0.073942
O O8 0.907605 0.558082 0.910214
O O9 0.250000 0.589253 0.350146
O O10 0.136005 0.514288 0.367822
O O11 0.150220 0.671914 0.249243
O O12 0.158635 0.651302 0.507727
O O13 0.055474 0.879810 0.915761
O O14 0.559297 0.269200 0.071529
O O15 0.922404 0.119900 0.172194
O O16 0.038050 0.162115 0.073640
O O17 0.500000 0.000000 0.261084
O O18 0.614491 0.956744 0.191810
#
# Coordination Sequence:
#
# PCOD8184064 Si02
#       8
#     8   8   8   8   8   8   8   8
#     4  11  23  42  61  84 120 165 209 246 297 365
#     4  10  21  35  59  89 125 148 192 245 309 362
#     4  11  23  41  62  87 120 165 211 248 297 364
#     4  10  23  38  63  91 119 157 201 256 306 358
#     4  10  23  39  60  91 116 159 199 258 302 359
#     4  10  22  38  61  91 123 154 199 249 325 362
#     4   9  18  37  56  84 120 154 185 240 300 367
#     4  11  22  37  62  89 124 159 197 253 308 372
#
# _framework density 20.117179
#
# number of rings (size 3 to 8) (size 9 to 14) (size 15 to 20)
#    0.000    1.750    2.500    1.125    5.250    2.000 
#    0.000    0.000    0.000    0.000    0.000    0.000 
#    0.000    0.000    0.000    0.000    0.000    0.000 
#
# Total GULP energy -396744.244257 kJ/mol
# GULP energy per Si atom -12398.257633 kJ/mol
# Density = 2.007139 g / cm^3
# Si number density = 20.117179 Si / 1000 Ang^3
#
#
#
# Elastic Constant Matrix: (Units=GPa)
#
#
# Indices 1 2 3 4 5 6 
#
# 1 87.4074 15.3363 29.1793 0.0000 0.0000 0.0000
# 2 15.3363 69.7437 39.8151 0.0000 0.0000 0.0000
# 3 29.1793 39.8151 155.5279 0.0000 0.0000 0.0000
# 4 0.0000 0.0000 0.0000 29.9062 0.0000 0.0000
# 5 0.0000 0.0000 0.0000 0.0000 23.7499 0.0000
# 6 0.0000 0.0000 0.0000 0.0000 0.0000 13.4851
#
#
#
# Elastic Compliance Matrix: (Units=1/GPa)
#
#
# Indices 1 2 3 4 5 6 
#
# 1 0.012362 -0.001633 -0.001901 0.000000 0.000000 0.000000
# 2 -0.001633 0.017008 -0.004048 0.000000 0.000000 0.000000
# 3 -0.001901 -0.004048 0.007823 0.000000 0.000000 0.000000
# 4 0.000000 0.000000 0.000000 0.033438 0.000000 0.000000
# 5 0.000000 0.000000 0.000000 0.000000 0.042105 0.000000
# 6 0.000000 0.000000 0.000000 0.000000 0.000000 0.074156
#
#
# Mechanical properties :
#
#
# Convention : Reuss Voigt Hill
#
# Bulk Modulus (GPa) = 45.39510 53.48224 49.43867
# Shear Modulus (GPa) = 23.87791 28.65146 26.26468
#
# Velocity S-wave (km/s) = 3.44894 3.77799 3.61721
# Velocity P-wave (km/s) = 6.20279 6.75825 6.48647
#
# Compressibility (1/GPa) = 0.02202881
#
# Stress axis : x y z
#
# Youngs Moduli (GPa) = 80.89379 58.79574 127.83438
#
# Poissons Ratio (x) = 0.09601 0.24304
# Poissons Ratio (y) = 0.13209 0.51743
# Poissons Ratio (z) = 0.15380 0.23799
#
# Static dielectric constant tensor:
#      x y z
#    x 3.336730 0.000000 0.000000 
#    y 0.000000 3.576240 0.000000 
#    z 0.000000 0.000000 4.000490 
# 
# 
# High freq. dielectric constant tensor:
#      x y z
#    x 1.762360 0.000000 0.000000 
#    y 0.000000 1.781270 0.000000 
#    z 0.000000 0.000000 1.804400 
# 
# From -- ./inp_files/8912.got.cif
#   From: 2010.03.12/outbox.cif.g09.slc.cpg/sg40_5_cif.got.tgz:8912.got - 2010.04.14 01:38:03.
