data_PCOD8184037
_publ_section_title
;
Structure prediction by ZEFSAII (Michael W. Deem and Ramdas Pophale) SiO2 
 PCOD8184037
Probable space group: A M A 2
;
_chemical_formula_sum "Si O2"
_cell_formula_units_Z 64
_cell_length_a 17.040985
_cell_length_b 11.897573
_cell_length_c 15.163782
_cell_angle_alpha 90.000000
_cell_angle_beta 90.000000
_cell_angle_gamma 90.000000
_cell_volume 3074.401650
_symmetry_space_group_name_H-M "A M A 2"
_symmetry_group_IT_number 40
_symmetry_cell_setting 'orthorhombic'
loop_
_space_group_symop_operation_xyz
x,y,z
-x,-y,z
1/2-x,y,z
1/2+x,-y,z
x,1/2+y,1/2+z
-x,1/2-y,1/2+z
1/2-x,1/2+y,1/2+z
1/2+x,1/2-y,1/2+z
loop_
_atom_site_type_symbol
_atom_site_label
_atom_site_fract_x
_atom_site_fract_y
_atom_site_fract_z
Si Si1 0.591376 0.626121 0.997950
Si Si2 0.658770 0.603166 0.678148
Si Si3 0.908302 0.499504 0.329804
Si Si4 0.339831 0.851115 0.682785
Si Si5 0.158336 0.351013 0.485546
Si Si6 0.660827 0.883553 0.275110
Si Si7 0.658745 0.754146 0.837679
Si Si8 0.585274 0.879366 0.451772
O O1 0.648404 0.681601 0.926352
O O2 0.605070 0.492184 0.005107
O O3 0.503095 0.659433 0.971103
O O4 0.609454 0.670624 0.095415
O O5 0.750000 0.631291 0.672209
O O6 0.621934 0.622238 0.581697
O O7 0.643271 0.472713 0.698543
O O8 0.623227 0.685260 0.753776
O O9 0.867810 0.542896 0.240242
O O10 0.887431 0.577404 0.412897
O O11 0.883741 0.372410 0.348390
O O12 0.000000 0.500000 0.313788
O O13 0.250000 0.870651 0.655072
O O14 0.350541 0.741770 0.741946
O O15 0.250000 0.380828 0.477020
O O16 0.146802 0.218211 0.473411
O O17 0.750000 0.901201 0.310650
O O18 0.596162 0.908511 0.349133
O O19 0.750000 0.777080 0.824323
#
# Coordination Sequence:
#
# PCOD8184037 Si02
#       8
#     8   8   8   8   8   8   8   8
#     4  11  26  42  64  98 137 172 215 275 336 393
#     4   9  21  39  64  97 126 159 213 275 328 378
#     4  12  27  44  65  94 136 176 214 275 337 395
#     4  11  25  44  69  97 129 179 229 269 322 396
#     4  11  23  43  68  94 127 174 229 274 323 402
#     4  10  20  42  70  95 126 170 222 274 326 391
#     4  11  23  42  65  94 129 171 217 270 332 391
#     4  11  23  43  64  95 131 172 221 270 332 390
#
# _framework density 20.817060000000001
#
# number of rings (size 3 to 8) (size 9 to 14) (size 15 to 20)
#    0.000    1.250    2.500    2.625    5.250    1.500 
#    0.000    0.000    0.000    0.000    0.000    0.000 
#    0.000    0.000    0.000    0.000    0.000    0.000 
#
# Total GULP energy -396881.310885 kJ/mol
# GULP energy per Si atom -12402.540965 kJ/mol
# Density = 2.076968 g / cm^3
# Si number density = 20.817060 Si / 1000 Ang^3
#
#
#
# Elastic Constant Matrix: (Units=GPa)
#
#
# Indices 1 2 3 4 5 6 
#
# 1 75.4028 24.3399 27.5083 0.0000 0.0000 0.0000
# 2 24.3399 88.8635 11.6406 0.0000 0.0000 0.0000
# 3 27.5083 11.6406 124.5484 0.0000 0.0000 0.0000
# 4 0.0000 0.0000 0.0000 22.8803 0.0000 0.0000
# 5 0.0000 0.0000 0.0000 0.0000 24.0699 0.0000
# 6 0.0000 0.0000 0.0000 0.0000 0.0000 27.9296
#
#
#
# Elastic Compliance Matrix: (Units=1/GPa)
#
#
# Indices 1 2 3 4 5 6 
#
# 1 0.015643 -0.003879 -0.003092 0.000000 0.000000 0.000000
# 2 -0.003879 0.012355 -0.000298 0.000000 0.000000 0.000000
# 3 -0.003092 -0.000298 0.008740 0.000000 0.000000 0.000000
# 4 0.000000 0.000000 0.000000 0.043706 0.000000 0.000000
# 5 0.000000 0.000000 0.000000 0.000000 0.041546 0.000000
# 6 0.000000 0.000000 0.000000 0.000000 0.000000 0.035804
#
#
# Mechanical properties :
#
#
# Convention : Reuss Voigt Hill
#
# Bulk Modulus (GPa) = 45.04926 46.19915 45.62421
# Shear Modulus (GPa) = 27.81931 29.99770 28.90850
#
# Velocity S-wave (km/s) = 3.65961 3.80019 3.73056
# Velocity P-wave (km/s) = 6.28844 6.44177 6.36557
#
# Compressibility (1/GPa) = 0.02219792
#
# Stress axis : x y z
#
# Youngs Moduli (GPa) = 63.92833 80.94008 114.41875
#
# Poissons Ratio (x) = 0.31400 0.35382
# Poissons Ratio (y) = 0.24801 0.03408
# Poissons Ratio (z) = 0.19769 0.02411
#
# Static dielectric constant tensor:
#      x y z
#    x 3.635030 0.000000 0.000000 
#    y 0.000000 3.835140 0.000000 
#    z 0.000000 0.000000 3.893150 
# 
# 
# High freq. dielectric constant tensor:
#      x y z
#    x 1.803210 0.000000 0.000000 
#    y 0.000000 1.826960 0.000000 
#    z 0.000000 0.000000 1.822270 
# 
# From -- ./inp_files/17845.got.cif
#   From: 2010.03.12/outbox.cif.g09.slc.cpg/sg40_9_cif.got.tgz:17845.got - 2010.04.14 01:38:03.
