data_PCOD8184953
_publ_section_title
;
Structure prediction by ZEFSAII (Michael W. Deem and Ramdas Pophale) SiO2 
 PCOD8184953
Probable space group: A B A 2
;
_chemical_formula_sum "Si O2"
_cell_formula_units_Z 64
_cell_length_a 14.954540
_cell_length_b 24.190981
_cell_length_c 8.422597
_cell_angle_alpha 90.000000
_cell_angle_beta 90.000000
_cell_angle_gamma 90.000000
_cell_volume 3047.000745
_symmetry_space_group_name_H-M "A B A 2"
_symmetry_group_IT_number 41
_symmetry_cell_setting 'orthorhombic'
loop_
_space_group_symop_operation_xyz
x,y,z
-x,-y,z
1/2-x,y,1/2+z
1/2+x,-y,1/2+z
x,1/2+y,1/2+z
-x,1/2-y,1/2+z
1/2-x,1/2+y,z
1/2+x,1/2-y,z
loop_
_atom_site_type_symbol
_atom_site_label
_atom_site_fract_x
_atom_site_fract_y
_atom_site_fract_z
Si Si1 0.809046 0.228736 0.539440
Si Si2 0.183373 0.106734 0.208901
Si Si3 0.995832 0.266791 0.079918
Si Si4 0.496763 0.668050 0.268973
Si Si5 0.665793 0.614908 0.401406
Si Si6 0.209389 0.533968 0.432126
Si Si7 0.179277 0.703668 0.237315
Si Si8 0.203190 0.955163 0.680888
O O1 0.786198 0.172820 0.443882
O O2 0.823181 0.281615 0.423067
O O3 0.727733 0.243901 0.654149
O O4 0.902095 0.219834 0.636843
O O5 0.097585 0.138581 0.268178
O O6 0.205745 0.058965 0.336316
O O7 0.269156 0.146911 0.201806
O O8 0.160486 0.082569 0.031826
O O9 0.921523 0.303117 0.171907
O O10 0.979316 0.200748 0.106491
O O11 0.991506 0.281525 0.894563
O O12 0.572188 0.623599 0.311202
O O13 0.731406 0.582255 0.286621
O O14 0.641809 0.582931 0.567559
O O15 0.151437 0.498439 0.300690
O O16 0.238384 0.490760 0.562482
#
# Coordination Sequence:
#
# PCOD8184953 Si02
#       8
#     8   8   8   8   8   8   8   8
#     4  11  23  36  57  92 124 169 206 248 303 387
#     4  11  21  38  63  93 119 171 207 257 323 380
#     4  11  22  40  52  89 135 169 205 258 302 374
#     4  11  23  39  58  88 132 167 211 261 308 388
#     4  10  20  38  61  87 120 167 201 259 322 365
#     4   9  20  38  65  88 115 151 210 267 313 376
#     4  12  22  37  62  89 128 170 208 247 313 379
#     4   9  19  40  63  88 116 151 214 267 314 378
#
# _framework density 21.004259999999999
#
# number of rings (size 3 to 8) (size 9 to 14) (size 15 to 20)
#    0.000    1.500    3.750    3.000    0.000    0.000 
#    0.000    5.625    0.000    7.500    0.000    0.000 
#    0.000    0.000    0.000    0.000    0.000    0.000 
#
# Total GULP energy -396427.437822 kJ/mol
# GULP energy per Si atom -12388.357432 kJ/mol
# Density = 2.095645 g / cm^3
# Si number density = 21.004260 Si / 1000 Ang^3
#
#
#
# Elastic Constant Matrix: (Units=GPa)
#
#
# Indices 1 2 3 4 5 6 
#
# 1 88.5702 27.5906 28.0439 0.0000 0.0000 0.0000
# 2 27.5906 102.9569 34.5291 0.0000 0.0000 0.0000
# 3 28.0439 34.5291 70.9770 0.0000 0.0000 0.0000
# 4 0.0000 0.0000 0.0000 56.5070 0.0000 0.0000
# 5 0.0000 0.0000 0.0000 0.0000 28.1275 0.0000
# 6 0.0000 0.0000 0.0000 0.0000 0.0000 16.5026
#
#
#
# Elastic Compliance Matrix: (Units=1/GPa)
#
#
# Indices 1 2 3 4 5 6 
#
# 1 0.013292 -0.002152 -0.004205 0.000000 0.000000 0.000000
# 2 -0.002152 0.011955 -0.004966 0.000000 0.000000 0.000000
# 3 -0.004205 -0.004966 0.018166 0.000000 0.000000 0.000000
# 4 0.000000 0.000000 0.000000 0.017697 0.000000 0.000000
# 5 0.000000 0.000000 0.000000 0.000000 0.035552 0.000000
# 6 0.000000 0.000000 0.000000 0.000000 0.000000 0.060597
#
#
# Mechanical properties :
#
#
# Convention : Reuss Voigt Hill
#
# Bulk Modulus (GPa) = 48.15042 49.20347 48.67695
# Shear Modulus (GPa) = 26.76272 31.71677 29.23974
#
# Velocity S-wave (km/s) = 3.57341 3.89011 3.73512
# Velocity P-wave (km/s) = 6.32452 6.60709 6.46735
#
# Compressibility (1/GPa) = 0.02076825
#
# Stress axis : x y z
#
# Youngs Moduli (GPa) = 75.23172 83.64856 55.04711
#
# Poissons Ratio (x) = 0.17999 0.23148
# Poissons Ratio (y) = 0.16188 0.27334
# Poissons Ratio (z) = 0.31636 0.41536
#
# Static dielectric constant tensor:
#      x y z
#    x 3.518910 0.000000 0.000000 
#    y 0.000000 4.258880 0.000000 
#    z 0.000000 0.000000 4.323840 
# 
# 
# High freq. dielectric constant tensor:
#      x y z
#    x 1.782110 0.000000 0.000000 
#    y 0.000000 1.832270 0.000000 
#    z 0.000000 0.000000 1.840100 
# 
# From -- ./inp_files/2801.got.cif
#   From: 2010.03.12/outbox.cif.g09.slc.cpg/sg41_2_cif.got.tgz:2801.got - 2010.04.14 01:55:53.
