data_PCOD8184883
_publ_section_title
;
Structure prediction by ZEFSAII (Michael W. Deem and Ramdas Pophale) SiO2 
 PCOD8184883
Probable space group: A B A 2
;
_chemical_formula_sum "Si O2"
_cell_formula_units_Z 44
_cell_length_a 10.622387
_cell_length_b 14.851516
_cell_length_c 13.107994
_cell_angle_alpha 90.000000
_cell_angle_beta 90.000000
_cell_angle_gamma 90.000000
_cell_volume 2067.898133
_symmetry_space_group_name_H-M "A B A 2"
_symmetry_group_IT_number 41
_symmetry_cell_setting 'orthorhombic'
loop_
_space_group_symop_operation_xyz
x,y,z
-x,-y,z
1/2-x,y,1/2+z
1/2+x,-y,1/2+z
x,1/2+y,1/2+z
-x,1/2-y,1/2+z
1/2-x,1/2+y,z
1/2+x,1/2-y,z
loop_
_atom_site_type_symbol
_atom_site_label
_atom_site_fract_x
_atom_site_fract_y
_atom_site_fract_z
Si Si1 0.865077 0.923187 0.712370
Si Si2 0.868209 0.593249 0.108729
Si Si3 0.665097 0.695186 0.420491
Si Si4 0.061265 0.315664 0.491877
Si Si5 0.000000 0.000000 0.898810
Si Si6 0.822659 0.223165 0.195114
O O1 0.791899 0.829077 0.713420
O O2 0.993297 0.905899 0.651999
O O3 0.795504 0.002180 0.646678
O O4 0.890741 0.957489 0.827134
O O5 0.805812 0.682817 0.152983
O O6 0.865694 0.604356 0.985661
O O7 0.810876 0.725415 0.440378
O O8 0.566245 0.773062 0.449546
O O9 0.642872 0.675056 0.301522
O O10 0.066966 0.296913 0.613398
O O11 0.059709 0.422611 0.469525
#
# Coordination Sequence:
#
# PCOD8184883 Si02
#       6
#     8   8   8   8   4   8
#     4  10  19  40  70  84 127 184 218 252 342 411
#     4   9  21  39  60  97 128 169 224 266 322 409
#     4  11  22  42  67  97 133 174 220 277 329 392
#     4  11  24  42  68  99 135 175 225 275 334 401
#     4  10  20  42  64  92 130 182 220 260 338 408
#     4  11  22  40  68  97 129 171 228 275 327 396
#
# _framework density 21.277643999999999
#
# number of rings (size 3 to 8) (size 9 to 14) (size 15 to 20)
#    0.000    1.818    3.636    2.182    0.000    0.000 
#   13.091    1.818    0.000    0.000    0.000    0.000 
#    0.000    0.000    0.000    0.000    0.000    0.000 
#
# Total GULP energy -272598.407029 kJ/mol
# GULP energy per Si atom -12390.836683 kJ/mol
# Density = 2.122922 g / cm^3
# Si number density = 21.277644 Si / 1000 Ang^3
#
#
#
# Elastic Constant Matrix: (Units=GPa)
#
#
# Indices 1 2 3 4 5 6 
#
# 1 86.6675 27.9680 9.0814 0.0000 0.0000 0.0000
# 2 27.9680 139.1547 38.8746 0.0000 0.0000 0.0000
# 3 9.0814 38.8746 141.7451 0.0000 0.0000 0.0000
# 4 0.0000 0.0000 0.0000 37.7935 0.0000 0.0000
# 5 0.0000 0.0000 0.0000 0.0000 13.9427 0.0000
# 6 0.0000 0.0000 0.0000 0.0000 0.0000 36.8572
#
#
#
# Elastic Compliance Matrix: (Units=1/GPa)
#
#
# Indices 1 2 3 4 5 6 
#
# 1 0.012340 -0.002447 -0.000120 0.000000 0.000000 0.000000
# 2 -0.002447 0.008268 -0.002111 0.000000 0.000000 0.000000
# 3 -0.000120 -0.002111 0.007641 0.000000 0.000000 0.000000
# 4 0.000000 0.000000 0.000000 0.026460 0.000000 0.000000
# 5 0.000000 0.000000 0.000000 0.000000 0.071722 0.000000
# 6 0.000000 0.000000 0.000000 0.000000 0.000000 0.027132
#
#
# Mechanical properties :
#
#
# Convention : Reuss Voigt Hill
#
# Bulk Modulus (GPa) = 52.92303 57.71283 55.31793
# Shear Modulus (GPa) = 29.54804 37.16156 33.35480
#
# Velocity S-wave (km/s) = 3.73056 4.18366 3.96359
# Velocity P-wave (km/s) = 6.59414 7.10773 6.85575
#
# Compressibility (1/GPa) = 0.01889537
#
# Stress axis : x y z
#
# Youngs Moduli (GPa) = 81.03408 120.95294 130.86515
#
# Poissons Ratio (x) = 0.29595 0.01565
# Poissons Ratio (y) = 0.19828 0.27622
# Poissons Ratio (z) = 0.00969 0.25530
#
# Static dielectric constant tensor:
#      x y z
#    x 3.571850 0.000000 0.000000 
#    y 0.000000 4.708790 0.000000 
#    z 0.000000 0.000000 4.282600 
# 
# 
# High freq. dielectric constant tensor:
#      x y z
#    x 1.805280 0.000000 0.000000 
#    y 0.000000 1.832420 0.000000 
#    z 0.000000 0.000000 1.846220 
# 
# From -- ./inp_files/7823.got.cif
#   From: 2010.03.12/outbox.cif.g09.slc.cpg/sg41_4_cif.got.tgz:7823.got - 2010.04.14 01:55:53.
