data_PCOD8184661
_publ_section_title
;
Structure prediction by ZEFSAII (Michael W. Deem and Ramdas Pophale) SiO2 
 PCOD8184661
Probable space group: A M A 2
;
_chemical_formula_sum "Si O2"
_cell_formula_units_Z 28
_cell_length_a 13.616819
_cell_length_b 9.599347
_cell_length_c 9.698334
_cell_angle_alpha 90.000000
_cell_angle_beta 90.000000
_cell_angle_gamma 90.000000
_cell_volume 1267.694168
_symmetry_space_group_name_H-M "A M A 2"
_symmetry_group_IT_number 40
_symmetry_cell_setting 'orthorhombic'
loop_
_space_group_symop_operation_xyz
x,y,z
-x,-y,z
1/2-x,y,z
1/2+x,-y,z
x,1/2+y,1/2+z
-x,1/2-y,1/2+z
1/2-x,1/2+y,1/2+z
1/2+x,1/2-y,1/2+z
loop_
_atom_site_type_symbol
_atom_site_label
_atom_site_fract_x
_atom_site_fract_y
_atom_site_fract_z
Si Si1 0.250000 0.983185 0.800980
Si Si2 0.909447 0.298057 0.386720
Si Si3 0.250000 0.415392 0.981248
Si Si4 0.750000 0.817739 0.308689
Si Si5 0.041797 0.146714 0.182636
O O1 0.153935 0.070135 0.838236
O O2 0.250000 0.925921 0.645099
O O3 0.250000 0.835133 0.882148
O O4 0.845070 0.163034 0.422977
O O5 0.974949 0.336804 0.519271
O O6 0.983775 0.267295 0.262587
O O7 0.250000 0.574208 0.932836
O O8 0.842527 0.842260 0.209374
O O9 0.000000 0.000000 0.234188
#
# Coordination Sequence:
#
# PCOD8184661 Si02
#       5
#     4   8   4   4   8
#     4  11  26  47  75 104 150 186 244 292 361 437
#     4  11  27  47  72 111 142 192 242 296 358 435
#     4  11  23  49  74 103 145 189 238 297 359 431
#     4  12  25  48  71 103 145 189 230 305 358 420
#     4  12  27  46  74 106 148 186 245 297 362 431
#
# _framework density 22.087346
#
# number of rings (size 3 to 8) (size 9 to 14) (size 15 to 20)
#    0.000    0.571    5.714    0.857    8.000    0.000 
#    0.000    0.000    0.000    0.000    0.000    0.000 
#    0.000    0.000    0.000    0.000    0.000    0.000 
#
# Total GULP energy -173676.122603 kJ/mol
# GULP energy per Si atom -12405.437329 kJ/mol
# Density = 2.203707 g / cm^3
# Si number density = 22.087346 Si / 1000 Ang^3
#
#
#
# Elastic Constant Matrix: (Units=GPa)
#
#
# Indices 1 2 3 4 5 6 
#
# 1 126.0450 57.5065 49.2302 0.0000 0.0000 0.0000
# 2 57.5065 171.8750 39.1371 0.0000 0.0000 0.0000
# 3 49.2302 39.1371 97.9024 0.0000 0.0000 0.0000
# 4 0.0000 0.0000 0.0000 40.5057 0.0000 0.0000
# 5 0.0000 0.0000 0.0000 0.0000 35.3223 0.0000
# 6 0.0000 0.0000 0.0000 0.0000 0.0000 25.0621
#
#
#
# Elastic Compliance Matrix: (Units=1/GPa)
#
#
# Indices 1 2 3 4 5 6 
#
# 1 0.010854 -0.002628 -0.004407 0.000000 0.000000 0.000000
# 2 -0.002628 0.007037 -0.001492 0.000000 0.000000 0.000000
# 3 -0.004407 -0.001492 0.013027 0.000000 0.000000 0.000000
# 4 0.000000 0.000000 0.000000 0.024688 0.000000 0.000000
# 5 0.000000 0.000000 0.000000 0.000000 0.028311 0.000000
# 6 0.000000 0.000000 0.000000 0.000000 0.000000 0.039901
#
#
# Mechanical properties :
#
#
# Convention : Reuss Voigt Hill
#
# Bulk Modulus (GPa) = 72.12975 76.39668 74.26321
# Shear Modulus (GPa) = 34.36591 36.84125 35.60358
#
# Velocity S-wave (km/s) = 3.94878 4.08852 4.01926
# Velocity P-wave (km/s) = 7.31560 7.54662 7.43201
#
# Compressibility (1/GPa) = 0.01386391
#
# Stress axis : x y z
#
# Youngs Moduli (GPa) = 92.13105 142.10354 76.76468
#
# Poissons Ratio (x) = 0.37345 0.33833
# Poissons Ratio (y) = 0.24212 0.11451
# Poissons Ratio (z) = 0.40606 0.21197
#
# Static dielectric constant tensor:
#      x y z
#    x 3.938340 0.000000 0.000000 
#    y 0.000000 4.345780 0.000000 
#    z 0.000000 0.000000 3.863020 
# 
# 
# High freq. dielectric constant tensor:
#      x y z
#    x 1.873460 0.000000 0.000000 
#    y 0.000000 1.888950 0.000000 
#    z 0.000000 0.000000 1.866230 
# 
# From -- ./inp_files/7050.got.cif
#   From: 2010.03.12/outbox.cif.g09.slc.cpg/sg40_4_cif.got.tgz:7050.got - 2010.04.14 01:38:03.
