data_PCOD8184729
_publ_section_title
;
Structure prediction by ZEFSAII (Michael W. Deem and Ramdas Pophale) SiO2 
 PCOD8184729
Probable space group: A B A 2
;
_chemical_formula_sum "Si O2"
_cell_formula_units_Z 48
_cell_length_a 5.220044
_cell_length_b 27.387396
_cell_length_c 14.881956
_cell_angle_alpha 90.000000
_cell_angle_beta 90.000000
_cell_angle_gamma 90.000000
_cell_volume 2127.575209
_symmetry_space_group_name_H-M "A B A 2"
_symmetry_group_IT_number 41
_symmetry_cell_setting 'orthorhombic'
loop_
_space_group_symop_operation_xyz
x,y,z
-x,-y,z
1/2-x,y,1/2+z
1/2+x,-y,1/2+z
x,1/2+y,1/2+z
-x,1/2-y,1/2+z
1/2-x,1/2+y,z
1/2+x,1/2-y,z
loop_
_atom_site_type_symbol
_atom_site_label
_atom_site_fract_x
_atom_site_fract_y
_atom_site_fract_z
Si Si1 0.252617 0.521243 0.139270
Si Si2 0.247382 0.478764 0.340753
Si Si3 0.947441 0.726252 0.386170
Si Si4 0.778064 0.368198 0.682829
Si Si5 0.552525 0.273747 0.093827
Si Si6 0.778063 0.631799 0.297167
O O1 0.500000 0.500000 0.087791
O O2 0.250000 0.500019 0.240022
O O3 0.280444 0.579227 0.136597
O O4 0.000000 0.500000 0.089714
O O5 0.500000 0.500000 0.390321
O O6 0.219557 0.420780 0.343383
O O7 0.000000 0.500000 0.392245
O O8 0.725611 0.761403 0.342220
O O9 0.848913 0.671081 0.373382
O O10 0.999980 0.737535 0.489999
O O11 0.848918 0.328916 0.606616
O O12 0.491287 0.361622 0.720004
O O13 0.991287 0.361622 0.759992
O O14 0.274348 0.261407 0.137777
#
# Coordination Sequence:
#
# PCOD8184729 Si02
#       6
#     8   8   8   8   8   8
#     4  10  16  30  48  77 115 144 166 212 272 336
#     4  10  16  30  48  77 115 144 166 212 272 336
#     4  10  23  42  57  75 112 156 187 227 290 343
#     4  12  21  32  58  89 109 141 191 236 274 329
#     4  10  23  42  57  75 112 156 187 227 290 343
#     4  12  21  32  58  89 109 141 191 236 274 329
#
# _framework density 22.560897000000001
#
# number of rings (size 3 to 8) (size 9 to 14) (size 15 to 20)
#    0.000    1.333    6.667    2.000    0.000    4.000 
#    0.000    0.000    0.000    1.000    0.000    4.667 
#    0.000    0.000    0.000    0.000    0.000    0.000 
#
# Total GULP energy -297342.821679 kJ/mol
# GULP energy per Si atom -12389.284237 kJ/mol
# Density = 2.250955 g / cm^3
# Si number density = 22.560897 Si / 1000 Ang^3
#
#
#
# Elastic Constant Matrix: (Units=GPa)
#
#
# Indices 1 2 3 4 5 6 
#
# 1 222.0054 67.8443 13.1611 0.0000 0.0000 0.0000
# 2 67.8443 176.4864 8.7204 0.0000 0.0000 0.0000
# 3 13.1611 8.7204 7.8941 0.0000 0.0000 0.0000
# 4 0.0000 0.0000 0.0000 13.2339 0.0000 0.0000
# 5 0.0000 0.0000 0.0000 0.0000 11.1961 0.0000
# 6 0.0000 0.0000 0.0000 0.0000 0.0000 46.7961
#
#
#
# Elastic Compliance Matrix: (Units=1/GPa)
#
#
# Indices 1 2 3 4 5 6 
#
# 1 0.005463 -0.001745 -0.007181 0.000000 0.000000 0.000000
# 2 -0.001745 0.006551 -0.004327 0.000000 0.000000 0.000000
# 3 -0.007181 -0.004327 0.143429 0.000000 0.000000 0.000000
# 4 0.000000 0.000000 0.000000 0.075563 0.000000 0.000000
# 5 0.000000 0.000000 0.000000 0.000000 0.089317 0.000000
# 6 0.000000 0.000000 0.000000 0.000000 0.000000 0.021369
#
#
# Mechanical properties :
#
#
# Convention : Reuss Voigt Hill
#
# Bulk Modulus (GPa) = 7.75569 65.09307 36.42438
# Shear Modulus (GPa) = 12.16021 35.35591 23.75806
#
# Velocity S-wave (km/s) = 2.32415 3.96300 3.24861
# Velocity P-wave (km/s) = 3.26303 7.06083 5.50012
#
# Compressibility (1/GPa) = 0.12893764
#
# Stress axis : x y z
#
# Youngs Moduli (GPa) = 183.03325 152.65019 6.97210
#
# Poissons Ratio (x) = 0.26644 0.05006
# Poissons Ratio (y) = 0.31948 0.03017
# Poissons Ratio (z) = 1.31430 0.66047
#
# Static dielectric constant tensor:
#      x y z
#    x 2.386840 0.000000 0.000000 
#    y 0.000000 4.096850 0.000000 
#    z 0.000000 0.000000 3.250880 
# 
# 
# High freq. dielectric constant tensor:
#      x y z
#    x 1.935500 0.000000 0.000000 
#    y 0.000000 1.897090 0.000000 
#    z 0.000000 0.000000 1.819740 
# 
# From -- ./inp_files/9424.got.cif
#   From: 2010.03.12/outbox.cif.g09.slc.cpg/sg41_5_cif.got.tgz:9424.got - 2010.04.14 01:55:53.
