data_PCOD8184503
_publ_section_title
;
Structure prediction by ZEFSAII (Michael W. Deem and Ramdas Pophale) SiO2 
 PCOD8184503
Probable space group: A M A 2
;
_chemical_formula_sum "Si O2"
_cell_formula_units_Z 48
_cell_length_a 24.764937
_cell_length_b 9.737594
_cell_length_c 9.869756
_cell_angle_alpha 90.000000
_cell_angle_beta 90.000000
_cell_angle_gamma 90.000000
_cell_volume 2380.100561
_symmetry_space_group_name_H-M "A M A 2"
_symmetry_group_IT_number 40
_symmetry_cell_setting 'orthorhombic'
loop_
_space_group_symop_operation_xyz
x,y,z
-x,-y,z
1/2-x,y,z
1/2+x,-y,z
x,1/2+y,1/2+z
-x,1/2-y,1/2+z
1/2-x,1/2+y,1/2+z
1/2+x,1/2-y,1/2+z
loop_
_atom_site_type_symbol
_atom_site_label
_atom_site_fract_x
_atom_site_fract_y
_atom_site_fract_z
Si Si1 0.512825 0.156770 0.200560
Si Si2 0.855200 0.496499 0.967586
Si Si3 0.186812 0.029677 0.183434
Si Si4 0.969327 0.631463 0.002638
Si Si5 0.365583 0.250491 0.672142
Si Si6 0.310788 0.727393 0.447715
O O1 0.471188 0.249353 0.114801
O O2 0.502992 0.180146 0.361148
O O3 0.572969 0.200789 0.157353
O O4 0.500000 0.000000 0.161668
O O5 0.847588 0.433531 0.817622
O O6 0.809135 0.611740 0.991968
O O7 0.909017 0.586931 0.970373
O O8 0.853220 0.376182 0.074914
O O9 0.250000 0.043668 0.214823
O O10 0.173897 0.875638 0.132632
O O11 0.167442 0.135802 0.070378
O O12 0.000000 0.500000 0.063850
O O13 0.351628 0.200995 0.823607
O O14 0.250000 0.683576 0.407121
#
# Coordination Sequence:
#
# PCOD8184503 Si02
#       6
#     8   8   8   8   8   8
#     4  11  25  42  63  90 124 164 211 253 308 366
#     4  11  22  40  66  90 127 162 205 253 312 367
#     4  10  23  43  65  93 127 162 206 256 310 374
#     4  11  23  43  61  91 126 159 207 257 303 365
#     4  11  22  41  63  92 123 163 204 254 307 366
#     4  10  23  42  64  92 125 161 205 256 312 372
#
# _framework density 20.167214999999999
#
# number of rings (size 3 to 8) (size 9 to 14) (size 15 to 20)
#    0.000    1.333    5.000    2.000    2.333    4.667 
#    3.000    3.333    0.000    0.000    0.000    0.000 
#    0.000    0.000    0.000    0.000    0.000    0.000 
#
# Total GULP energy -297587.969267 kJ/mol
# GULP energy per Si atom -12399.498719 kJ/mol
# Density = 2.012131 g / cm^3
# Si number density = 20.167215 Si / 1000 Ang^3
#
#
#
# Elastic Constant Matrix: (Units=GPa)
#
#
# Indices 1 2 3 4 5 6 
#
# 1 81.3932 20.0260 41.3303 0.0000 0.0000 0.0000
# 2 20.0260 129.8671 106.8798 0.0000 0.0000 0.0000
# 3 41.3303 106.8798 141.9063 0.0000 0.0000 0.0000
# 4 0.0000 0.0000 0.0000 47.9069 0.0000 0.0000
# 5 0.0000 0.0000 0.0000 0.0000 28.1229 0.0000
# 6 0.0000 0.0000 0.0000 0.0000 0.0000 18.0665
#
#
#
# Elastic Compliance Matrix: (Units=1/GPa)
#
#
# Indices 1 2 3 4 5 6 
#
# 1 0.014957 0.003364 -0.006890 0.000000 0.000000 0.000000
# 2 0.003364 0.021012 -0.016806 0.000000 0.000000 0.000000
# 3 -0.006890 -0.016806 0.021711 0.000000 0.000000 0.000000
# 4 0.000000 0.000000 0.000000 0.020874 0.000000 0.000000
# 5 0.000000 0.000000 0.000000 0.000000 0.035558 0.000000
# 6 0.000000 0.000000 0.000000 0.000000 0.000000 0.055351
#
#
# Mechanical properties :
#
#
# Convention : Reuss Voigt Hill
#
# Bulk Modulus (GPa) = 58.76395 76.62652 67.69523
# Shear Modulus (GPa) = 23.16968 31.14797 27.15883
#
# Velocity S-wave (km/s) = 3.39319 3.93426 3.67370
# Velocity P-wave (km/s) = 6.67482 7.66263 7.18572
#
# Compressibility (1/GPa) = 0.01701724
#
# Stress axis : x y z
#
# Youngs Moduli (GPa) = 66.85870 47.59078 46.05933
#
# Poissons Ratio (x) = -0.16009 0.31734
# Poissons Ratio (y) = -0.22490 0.77406
# Poissons Ratio (z) = 0.46064 0.79980
#
# Static dielectric constant tensor:
#      x y z
#    x 3.781690 0.000000 0.000000 
#    y 0.000000 3.778250 0.000000 
#    z 0.000000 0.000000 3.683290 
# 
# 
# High freq. dielectric constant tensor:
#      x y z
#    x 1.795900 0.000000 0.000000 
#    y 0.000000 1.788070 0.000000 
#    z 0.000000 0.000000 1.782680 
# 
# From -- ./inp_files/13926.got.cif
#   From: 2010.03.12/outbox.cif.g09.slc.cpg/sg40_7_cif.got.tgz:13926.got - 2010.04.14 01:38:03.
