data_PCOD8184078
_publ_section_title
;
Structure prediction by ZEFSAII (Michael W. Deem and Ramdas Pophale) SiO2 
 PCOD8184078
Probable space group: A M A 2
;
_chemical_formula_sum "Si O2"
_cell_formula_units_Z 64
_cell_length_a 17.888555
_cell_length_b 15.571581
_cell_length_c 12.141289
_cell_angle_alpha 90.000000
_cell_angle_beta 90.000000
_cell_angle_gamma 90.000000
_cell_volume 3381.993484
_symmetry_space_group_name_H-M "A M A 2"
_symmetry_group_IT_number 40
_symmetry_cell_setting 'orthorhombic'
loop_
_space_group_symop_operation_xyz
x,y,z
-x,-y,z
1/2-x,y,z
1/2+x,-y,z
x,1/2+y,1/2+z
-x,1/2-y,1/2+z
1/2-x,1/2+y,1/2+z
1/2+x,1/2-y,1/2+z
loop_
_atom_site_type_symbol
_atom_site_label
_atom_site_fract_x
_atom_site_fract_y
_atom_site_fract_z
Si Si1 0.419947 0.859491 0.523120
Si Si2 0.413063 0.487802 0.205243
Si Si3 0.411304 0.507008 0.860924
Si Si4 0.595533 0.863370 0.537696
Si Si5 0.412329 0.480299 0.618444
Si Si6 0.165117 0.241903 0.878796
Si Si7 0.334924 0.545443 0.410929
Si Si8 0.161515 0.802527 0.138036
O O1 0.507946 0.843418 0.528852
O O2 0.381844 0.770437 0.486860
O O3 0.395994 0.898311 0.641503
O O4 0.387490 0.924101 0.430497
O O5 0.500000 0.500000 0.229198
O O6 0.385439 0.568266 0.132963
O O7 0.370849 0.481801 0.321119
O O8 0.500000 0.500000 0.858577
O O9 0.378549 0.505828 0.737762
O O10 0.381933 0.593652 0.920567
O O11 0.642611 0.777643 0.558732
O O12 0.500000 0.500000 0.613780
O O13 0.375021 0.539986 0.527778
O O14 0.389511 0.381384 0.595993
O O15 0.250000 0.268193 0.901285
O O16 0.155942 0.140713 0.864927
O O17 0.137084 0.282533 0.763590
O O18 0.250000 0.517443 0.427054
O O19 0.250000 0.822594 0.128837
#
# Coordination Sequence:
#
# PCOD8184078 Si02
#       8
#     8   8   8   8   8   8   8   8
#     4   9  17  34  59  86 113 144 194 241 288 340
#     4   9  18  35  58  86 113 147 192 240 290 341
#     4   8  16  34  57  85 113 144 185 241 291 338
#     4   9  18  34  61  87 114 144 187 250 287 332
#     4  11  23  39  60  86 115 155 198 237 297 355
#     4  10  21  36  56  83 117 153 193 237 285 346
#     4  11  23  39  55  78 119 157 190 241 293 351
#     4  11  22  39  59  86 118 153 195 239 288 350
#
# _framework density 18.923749999999998
#
# number of rings (size 3 to 8) (size 9 to 14) (size 15 to 20)
#    0.000    2.250    2.500    2.250    1.750    0.500 
#    0.000    4.375    0.000    1.500    0.000    0.000 
#    0.000    0.000    0.000    0.000    0.000    0.000 
#
# Total GULP energy -396642.685625 kJ/mol
# GULP energy per Si atom -12395.083926 kJ/mol
# Density = 1.888068 g / cm^3
# Si number density = 18.923750 Si / 1000 Ang^3
#
#
#
# Elastic Constant Matrix: (Units=GPa)
#
#
# Indices 1 2 3 4 5 6 
#
# 1 65.8379 31.5245 42.9281 0.0000 0.0000 0.0000
# 2 31.5245 62.8964 21.2625 0.0000 0.0000 0.0000
# 3 42.9281 21.2625 109.6162 0.0000 0.0000 0.0000
# 4 0.0000 0.0000 0.0000 59.6933 0.0000 0.0000
# 5 0.0000 0.0000 0.0000 0.0000 21.3557 0.0000
# 6 0.0000 0.0000 0.0000 0.0000 0.0000 28.0550
#
#
#
# Elastic Compliance Matrix: (Units=1/GPa)
#
#
# Indices 1 2 3 4 5 6 
#
# 1 0.025081 -0.009900 -0.007902 0.000000 0.000000 0.000000
# 2 -0.009900 0.020922 -0.000181 0.000000 0.000000 0.000000
# 3 -0.007902 -0.000181 0.012253 0.000000 0.000000 0.000000
# 4 0.000000 0.000000 0.000000 0.016752 0.000000 0.000000
# 5 0.000000 0.000000 0.000000 0.000000 0.046826 0.000000
# 6 0.000000 0.000000 0.000000 0.000000 0.000000 0.035644
#
#
# Mechanical properties :
#
#
# Convention : Reuss Voigt Hill
#
# Bulk Modulus (GPa) = 44.86367 47.75341 46.30854
# Shear Modulus (GPa) = 24.89106 31.32984 28.11045
#
# Velocity S-wave (km/s) = 3.63069 4.07330 3.85835
# Velocity P-wave (km/s) = 6.42922 6.88562 6.66133
#
# Compressibility (1/GPa) = 0.02228975
#
# Stress axis : x y z
#
# Youngs Moduli (GPa) = 39.87015 47.79575 81.61548
#
# Poissons Ratio (x) = 0.47317 0.64494
# Poissons Ratio (y) = 0.39470 0.01481
# Poissons Ratio (z) = 0.31506 0.00867
#
# Static dielectric constant tensor:
#      x y z
#    x 3.250060 0.000000 0.000000 
#    y 0.000000 3.330280 0.000000 
#    z 0.000000 0.000000 3.612350 
# 
# 
# High freq. dielectric constant tensor:
#      x y z
#    x 1.718050 0.000000 0.000000 
#    y 0.000000 1.724220 0.000000 
#    z 0.000000 0.000000 1.737240 
# 
# From -- ./inp_files/12449.got.cif
#   From: 2010.03.12/outbox.cif.g09.slc.cpg/sg40_7_cif.got.tgz:12449.got - 2010.04.14 01:38:03.
