data_PCOD8184880
_publ_section_title
;
Structure prediction by ZEFSAII (Michael W. Deem and Ramdas Pophale) SiO2 
 PCOD8184880
Probable space group: A B A 2
;
_chemical_formula_sum "Si O2"
_cell_formula_units_Z 64
_cell_length_a 15.062131
_cell_length_b 22.978445
_cell_length_c 8.901641
_cell_angle_alpha 90.000000
_cell_angle_beta 90.000000
_cell_angle_gamma 90.000000
_cell_volume 3080.896661
_symmetry_space_group_name_H-M "A B A 2"
_symmetry_group_IT_number 41
_symmetry_cell_setting 'orthorhombic'
loop_
_space_group_symop_operation_xyz
x,y,z
-x,-y,z
1/2-x,y,1/2+z
1/2+x,-y,1/2+z
x,1/2+y,1/2+z
-x,1/2-y,1/2+z
1/2-x,1/2+y,z
1/2+x,1/2-y,z
loop_
_atom_site_type_symbol
_atom_site_label
_atom_site_fract_x
_atom_site_fract_y
_atom_site_fract_z
Si Si1 0.681546 0.085949 0.583370
Si Si2 0.508495 0.935402 0.697269
Si Si3 0.069697 0.052882 0.892082
Si Si4 0.490310 0.826283 0.890253
Si Si5 0.317028 0.460011 0.770733
Si Si6 0.684730 0.207484 0.710333
Si Si7 0.951416 0.133027 0.717650
Si Si8 0.641583 0.235509 0.382487
O O1 0.576832 0.081143 0.597283
O O2 0.707845 0.080965 0.411160
O O3 0.728867 0.033095 0.671903
O O4 0.721248 0.145465 0.651623
O O5 0.585457 0.931247 0.569054
O O6 0.517930 0.890241 0.831988
O O7 0.500000 0.000000 0.768145
O O8 0.041213 0.109286 0.796571
O O9 0.158110 0.025632 0.819056
O O10 0.000000 0.000000 0.888329
O O11 0.400066 0.800784 0.818830
O O12 0.572495 0.786161 0.840735
O O13 0.475412 0.830551 0.068860
O O14 0.392145 0.423973 0.677545
O O15 0.656443 0.242065 0.561027
O O16 0.764048 0.241597 0.795579
O O17 0.903016 0.174132 0.839573
#
# Coordination Sequence:
#
# PCOD8184880 Si02
#       8
#     8   8   8   8   8   8   8   8
#     4  11  19  35  60  97 118 156 212 266 315 371
#     4  10  19  40  66  87 127 166 213 261 322 386
#     4   9  18  38  60  83 120 176 198 247 324 383
#     4  11  26  38  66 102 123 171 222 268 330 393
#     4  11  21  34  61  93 126 158 209 262 323 374
#     4  11  22  40  66  95 124 167 211 272 329 378
#     4  11  20  38  61  90 126 160 214 263 319 391
#     4  12  23  43  67  92 132 167 221 273 326 393
#
# _framework density 20.773174000000001
#
# number of rings (size 3 to 8) (size 9 to 14) (size 15 to 20)
#    0.000    1.250    6.250    2.250    3.500    1.500 
#    0.000    1.250    8.250    0.000    0.000    0.000 
#    0.000    0.000    0.000    0.000    0.000    0.000 
#
# Total GULP energy -396636.406371 kJ/mol
# GULP energy per Si atom -12394.887699 kJ/mol
# Density = 2.072589 g / cm^3
# Si number density = 20.773174 Si / 1000 Ang^3
#
#
#
# Elastic Constant Matrix: (Units=GPa)
#
#
# Indices 1 2 3 4 5 6 
#
# 1 78.3738 42.6464 36.8565 0.0000 0.0000 0.0000
# 2 42.6464 74.3911 33.8624 0.0000 0.0000 0.0000
# 3 36.8565 33.8624 93.5818 0.0000 0.0000 0.0000
# 4 0.0000 0.0000 0.0000 27.2113 0.0000 0.0000
# 5 0.0000 0.0000 0.0000 0.0000 30.0462 0.0000
# 6 0.0000 0.0000 0.0000 0.0000 0.0000 29.8746
#
#
#
# Elastic Compliance Matrix: (Units=1/GPa)
#
#
# Indices 1 2 3 4 5 6 
#
# 1 0.019987 -0.009428 -0.004460 0.000000 0.000000 0.000000
# 2 -0.009428 0.020540 -0.003719 0.000000 0.000000 0.000000
# 3 -0.004460 -0.003719 0.013788 0.000000 0.000000 0.000000
# 4 0.000000 0.000000 0.000000 0.036749 0.000000 0.000000
# 5 0.000000 0.000000 0.000000 0.000000 0.033282 0.000000
# 6 0.000000 0.000000 0.000000 0.000000 0.000000 0.033473
#
#
# Mechanical properties :
#
#
# Convention : Reuss Voigt Hill
#
# Bulk Modulus (GPa) = 52.35417 52.56412 52.45915
# Shear Modulus (GPa) = 25.07503 26.29185 25.68344
#
# Velocity S-wave (km/s) = 3.47808 3.56148 3.52003
# Velocity P-wave (km/s) = 6.43327 6.50161 6.46753
#
# Compressibility (1/GPa) = 0.01910068
#
# Stress axis : x y z
#
# Youngs Moduli (GPa) = 50.03292 48.68526 72.52495
#
# Poissons Ratio (x) = 0.45898 0.32348
# Poissons Ratio (y) = 0.47169 0.26975
# Poissons Ratio (z) = 0.22316 0.18108
#
# Static dielectric constant tensor:
#      x y z
#    x 3.723790 0.000000 0.000000 
#    y 0.000000 3.805870 0.000000 
#    z 0.000000 0.000000 3.785570 
# 
# 
# High freq. dielectric constant tensor:
#      x y z
#    x 1.792340 0.000000 0.000000 
#    y 0.000000 1.790610 0.000000 
#    z 0.000000 0.000000 1.821450 
# 
# From -- ./inp_files/3269.got.cif
#   From: 2010.03.12/outbox.cif.g09.slc.cpg/sg41_2_cif.got.tgz:3269.got - 2010.04.14 01:55:53.
