data_PCOD8184963
_publ_section_title
;
Structure prediction by ZEFSAII (Michael W. Deem and Ramdas Pophale) SiO2 
 PCOD8184963
Probable space group: A B A 2
;
_chemical_formula_sum "Si O2"
_cell_formula_units_Z 48
_cell_length_a 14.267302
_cell_length_b 15.544219
_cell_length_c 8.382044
_cell_angle_alpha 90.000000
_cell_angle_beta 90.000000
_cell_angle_gamma 90.000000
_cell_volume 1858.919986
_symmetry_space_group_name_H-M "A B A 2"
_symmetry_group_IT_number 41
_symmetry_cell_setting 'orthorhombic'
loop_
_space_group_symop_operation_xyz
x,y,z
-x,-y,z
1/2-x,y,1/2+z
1/2+x,-y,1/2+z
x,1/2+y,1/2+z
-x,1/2-y,1/2+z
1/2-x,1/2+y,z
1/2+x,1/2-y,z
loop_
_atom_site_type_symbol
_atom_site_label
_atom_site_fract_x
_atom_site_fract_y
_atom_site_fract_z
Si Si1 0.767796 0.628727 0.088790
Si Si2 0.468031 0.844599 0.997453
Si Si3 0.061438 0.170496 0.180531
Si Si4 0.760661 0.753424 0.336338
Si Si5 0.324610 0.539672 0.993473
Si Si6 0.652428 0.890802 0.169537
O O1 0.873172 0.602127 0.036831
O O2 0.762527 0.653480 0.274339
O O3 0.690147 0.556926 0.054830
O O4 0.746481 0.727524 0.022580
O O5 0.463679 0.745915 0.057246
O O6 0.551708 0.892764 0.088471
O O7 0.477399 0.848158 0.804841
O O8 0.144651 0.196076 0.301164
O O9 0.086680 0.084097 0.081232
O O10 0.669122 0.805792 0.278685
O O11 0.231939 0.597581 0.032653
O O12 0.339626 0.532749 0.801818
#
# Coordination Sequence:
#
# PCOD8184963 Si02
#       6
#     8   8   8   8   8   8
#     4  11  23  39  62  92 126 164 209 263 321 383
#     4  11  22  38  68 101 129 163 220 280 324 376
#     4  10  21  39  66  98 128 169 216 267 321 381
#     4  10  20  38  63  88 121 170 214 250 308 390
#     4  11  23  40  63  91 129 174 210 255 326 398
#     4  11  21  40  66  92 125 169 219 265 316 385
#
# _framework density 25.821445000000001
#
# number of rings (size 3 to 8) (size 9 to 14) (size 15 to 20)
#    0.000    1.333    0.000    9.000    0.000    0.667 
#    0.000    0.000    0.000   32.000    0.000    0.000 
#    0.000    0.000    0.000    0.000    0.000    0.000 
#
# Total GULP energy -297569.998624 kJ/mol
# GULP energy per Si atom -12398.749943 kJ/mol
# Density = 2.576267 g / cm^3
# Si number density = 25.821445 Si / 1000 Ang^3
#
#
#
# Elastic Constant Matrix: (Units=GPa)
#
#
# Indices 1 2 3 4 5 6 
#
# 1 37.3735 -20.5472 7.3136 0.0000 0.0000 0.0000
# 2 -20.5472 61.0342 -13.3600 0.0000 0.0000 0.0000
# 3 7.3136 -13.3600 70.2872 0.0000 0.0000 0.0000
# 4 0.0000 0.0000 0.0000 27.5311 0.0000 0.0000
# 5 0.0000 0.0000 0.0000 0.0000 39.1923 0.0000
# 6 0.0000 0.0000 0.0000 0.0000 0.0000 38.1439
#
#
#
# Elastic Compliance Matrix: (Units=1/GPa)
#
#
# Indices 1 2 3 4 5 6 
#
# 1 0.032961 0.010795 -0.001378 0.000000 0.000000 0.000000
# 2 0.010795 0.020631 0.002798 0.000000 0.000000 0.000000
# 3 -0.001378 0.002798 0.014903 0.000000 0.000000 0.000000
# 4 0.000000 0.000000 0.000000 0.036323 0.000000 0.000000
# 5 0.000000 0.000000 0.000000 0.000000 0.025515 0.000000
# 6 0.000000 0.000000 0.000000 0.000000 0.000000 0.026217
#
#
# Mechanical properties :
#
#
# Convention : Reuss Voigt Hill
#
# Bulk Modulus (GPa) = 10.76136 12.83421 11.79779
# Shear Modulus (GPa) = 30.65719 33.99268 32.32494
#
# Velocity S-wave (km/s) = 3.44943 3.63223 3.54201
# Velocity P-wave (km/s) = 4.47676 4.75100 4.61591
#
# Compressibility (1/GPa) = 0.09292508
#
# Stress axis : x y z
#
# Youngs Moduli (GPa) = 30.33853 48.47114 67.10244
#
# Poissons Ratio (x) = -0.52324 0.09246
# Poissons Ratio (y) = -0.32750 -0.18777
# Poissons Ratio (z) = 0.04180 -0.13563
#
# Static dielectric constant tensor:
#      x y z
#    x 4.452640 0.000000 0.000000 
#    y 0.000000 4.257990 0.000000 
#    z 0.000000 0.000000 4.855030 
# 
# 
# High freq. dielectric constant tensor:
#      x y z
#    x 2.010890 0.000000 0.000000 
#    y 0.000000 2.023050 0.000000 
#    z 0.000000 0.000000 2.061870 
# 
# From -- ./inp_files/2560.got.cif
#   From: 2010.03.12/outbox.cif.g09.slc.cpg/sg41_2_cif.got.tgz:2560.got - 2010.04.14 01:55:53.
