data_PCOD8184289
_publ_section_title
;
Structure prediction by ZEFSAII (Michael W. Deem and Ramdas Pophale) SiO2 
 PCOD8184289
Probable space group: A M A 2
;
_chemical_formula_sum "Si O2"
_cell_formula_units_Z 64
_cell_length_a 8.891027
_cell_length_b 29.504396
_cell_length_c 12.560331
_cell_angle_alpha 90.000000
_cell_angle_beta 90.000000
_cell_angle_gamma 90.000000
_cell_volume 3294.881060
_symmetry_space_group_name_H-M "A M A 2"
_symmetry_group_IT_number 40
_symmetry_cell_setting 'orthorhombic'
loop_
_space_group_symop_operation_xyz
x,y,z
-x,-y,z
1/2-x,y,z
1/2+x,-y,z
x,1/2+y,1/2+z
-x,1/2-y,1/2+z
1/2-x,1/2+y,1/2+z
1/2+x,1/2-y,1/2+z
loop_
_atom_site_type_symbol
_atom_site_label
_atom_site_fract_x
_atom_site_fract_y
_atom_site_fract_z
Si Si1 0.424407 0.740540 0.963310
Si Si2 0.424162 0.373798 0.712399
Si Si3 0.075627 0.353159 0.947589
Si Si4 0.927589 0.048111 0.814518
Si Si5 0.415336 0.299836 0.284051
Si Si6 0.427139 0.622964 0.165122
Si Si7 0.574155 0.547261 0.556467
Si Si8 0.084437 0.216625 0.147910
O O1 0.250000 0.726866 0.961163
O O2 0.520553 0.697653 0.923064
O O3 0.459457 0.789577 0.906255
O O4 0.473929 0.751475 0.081857
O O5 0.250000 0.363556 0.688312
O O6 0.448548 0.382137 0.838977
O O7 0.481372 0.416568 0.643852
O O8 0.520403 0.332116 0.672414
O O9 0.250000 0.351413 0.980685
O O10 0.985075 0.376827 0.043665
O O11 0.750000 0.044810 0.798224
O O12 0.993995 0.083931 0.732361
O O13 0.968867 0.062697 0.935916
O O14 0.000000 0.000000 0.787265
O O15 0.250000 0.323479 0.272664
O O16 0.536978 0.329058 0.221194
O O17 0.401301 0.246703 0.253410
O O18 0.250000 0.615072 0.164668
O O19 0.500000 0.500000 0.586711
O O20 0.750000 0.539787 0.564787
O O21 0.250000 0.210905 0.095218
#
# Coordination Sequence:
#
# PCOD8184289 Si02
#       8
#     8   8   8   8   8   8   8   8
#     4  11  22  37  55  77 112 155 199 246 295 347
#     4  10  22  39  60  87 118 156 199 241 295 353
#     4  11  22  38  59  82 117 159 201 246 293 346
#     4  10  21  41  67  92 122 152 188 239 298 355
#     4  10  22  38  55  79 116 157 198 245 295 344
#     4  12  25  39  60  88 119 157 204 245 294 356
#     4   9  20  40  65  92 119 150 185 234 295 352
#     4  11  22  36  55  83 117 154 198 242 291 347
#
# _framework density 19.42407
#
# number of rings (size 3 to 8) (size 9 to 14) (size 15 to 20)
#    0.000    1.500    2.500    2.625    1.750    3.000 
#    0.000    0.625    0.000    1.500    0.000    0.000 
#    0.000    0.000    0.000    0.000    0.000    0.000 
#
# Total GULP energy -396658.566502 kJ/mol
# GULP energy per Si atom -12395.580203 kJ/mol
# Density = 1.937986 g / cm^3
# Si number density = 19.424070 Si / 1000 Ang^3
#
#
#
# Elastic Constant Matrix: (Units=GPa)
#
#
# Indices 1 2 3 4 5 6 
#
# 1 99.9037 50.3120 48.6092 0.0000 0.0000 0.0000
# 2 50.3120 114.6515 60.5206 0.0000 0.0000 0.0000
# 3 48.6092 60.5206 94.4664 0.0000 0.0000 0.0000
# 4 0.0000 0.0000 0.0000 36.5982 0.0000 0.0000
# 5 0.0000 0.0000 0.0000 0.0000 26.4376 0.0000
# 6 0.0000 0.0000 0.0000 0.0000 0.0000 34.8895
#
#
#
# Elastic Compliance Matrix: (Units=1/GPa)
#
#
# Indices 1 2 3 4 5 6 
#
# 1 0.014276 -0.003607 -0.005035 0.000000 0.000000 0.000000
# 2 -0.003607 0.014090 -0.007171 0.000000 0.000000 0.000000
# 3 -0.005035 -0.007171 0.017771 0.000000 0.000000 0.000000
# 4 0.000000 0.000000 0.000000 0.027324 0.000000 0.000000
# 5 0.000000 0.000000 0.000000 0.000000 0.037825 0.000000
# 6 0.000000 0.000000 0.000000 0.000000 0.000000 0.028662
#
#
# Mechanical properties :
#
#
# Convention : Reuss Voigt Hill
#
# Bulk Modulus (GPa) = 68.91334 69.76725 69.34029
# Shear Modulus (GPa) = 28.34293 29.55703 28.94998
#
# Velocity S-wave (km/s) = 3.82405 3.90509 3.86478
# Velocity P-wave (km/s) = 7.41978 7.50526 7.46264
#
# Compressibility (1/GPa) = 0.01451098
#
# Stress axis : x y z
#
# Youngs Moduli (GPa) = 70.04778 70.97147 56.27157
#
# Poissons Ratio (x) = 0.25597 0.28334
# Poissons Ratio (y) = 0.25264 0.40353
# Poissons Ratio (z) = 0.35271 0.50894
#
# Static dielectric constant tensor:
#      x y z
#    x 3.582050 0.000000 0.000000 
#    y 0.000000 3.463670 0.000000 
#    z 0.000000 0.000000 3.745660 
# 
# 
# High freq. dielectric constant tensor:
#      x y z
#    x 1.763290 0.000000 0.000000 
#    y 0.000000 1.738800 0.000000 
#    z 0.000000 0.000000 1.767920 
# 
# From -- ./inp_files/10680.got.cif
#   From: 2010.03.12/outbox.cif.g09.slc.cpg/sg40_6_cif.got.tgz:10680.got - 2010.04.14 01:38:03.
