data_PCOD8184713
_publ_section_title
;
Structure prediction by ZEFSAII (Michael W. Deem and Ramdas Pophale) SiO2 
 PCOD8184713
Probable space group: A M A 2
;
_chemical_formula_sum "Si O2"
_cell_formula_units_Z 64
_cell_length_a 9.736912
_cell_length_b 26.191945
_cell_length_c 18.288767
_cell_angle_alpha 90.000000
_cell_angle_beta 90.000000
_cell_angle_gamma 90.000000
_cell_volume 4664.159806
_symmetry_space_group_name_H-M "A M A 2"
_symmetry_group_IT_number 40
_symmetry_cell_setting 'orthorhombic'
loop_
_space_group_symop_operation_xyz
x,y,z
-x,-y,z
1/2-x,y,z
1/2+x,-y,z
x,1/2+y,1/2+z
-x,1/2-y,1/2+z
1/2-x,1/2+y,1/2+z
1/2+x,1/2-y,1/2+z
loop_
_atom_site_type_symbol
_atom_site_label
_atom_site_fract_x
_atom_site_fract_y
_atom_site_fract_z
Si Si1 0.908093 0.952625 0.720120
Si Si2 0.087331 0.649714 0.463876
Si Si3 0.596969 0.692730 0.020771
Si Si4 0.409443 0.047518 0.890162
Si Si5 0.910265 0.747043 0.720046
Si Si6 0.597175 0.798572 0.106318
Si Si7 0.413130 0.248347 0.884219
Si Si8 0.590928 0.350588 0.136576
O O1 0.750000 0.966493 0.704809
O O2 0.932381 0.940567 0.805019
O O3 0.953961 0.902618 0.675855
O O4 0.000000 0.000000 0.693518
O O5 0.250000 0.651384 0.454554
O O6 0.032340 0.595541 0.435610
O O7 0.048357 0.657515 0.549402
O O8 0.023352 0.695211 0.414443
O O9 0.750000 0.668588 0.020408
O O10 0.600443 0.746271 0.061933
O O11 0.494195 0.654087 0.061290
O O12 0.545790 0.704443 0.937720
O O13 0.250000 0.036110 0.906936
O O14 0.500000 0.000000 0.916050
O O15 0.750000 0.734051 0.714465
O O16 0.967446 0.742101 0.802449
O O17 0.941266 0.804049 0.691470
O O18 0.991003 0.704718 0.673039
O O19 0.750000 0.810491 0.136717
O O20 0.250000 0.243144 0.882918
O O21 0.750000 0.351129 0.114955
#
# Coordination Sequence:
#
# PCOD8184713 Si02
#       8
#     8   8   8   8   8   8   8   8
#     4   9  17  27  38  53  73  96 123 154 182 209
#     4   8  13  23  39  53  68  97 130 151 171 208
#     4   8  14  24  37  52  70  93 121 151 178 207
#     4   9  16  26  39  54  72  95 124 155 183 208
#     4   9  15  23  37  55  74  96 121 149 179 210
#     4   8  14  24  36  51  71  94 121 150 177 209
#     4   8  13  22  37  55  72  94 126 153 171 204
#     4   9  16  25  37  53  73  97 123 149 179 213
#
# _framework density 13.721657
#
# number of rings (size 3 to 8) (size 9 to 14) (size 15 to 20)
#    0.000    3.500    0.000    2.250    0.000    3.500 
#    0.000    1.250    0.000    3.750    0.000    0.000 
#    0.000    1.000    0.000    4.500    0.000    4.000 
#
# Total GULP energy -396601.043905 kJ/mol
# GULP energy per Si atom -12393.782622 kJ/mol
# Density = 1.369043 g / cm^3
# Si number density = 13.721657 Si / 1000 Ang^3
#
#
#
# Elastic Constant Matrix: (Units=GPa)
#
#
# Indices 1 2 3 4 5 6 
#
# 1 46.3265 37.2068 43.2846 0.0000 0.0000 0.0000
# 2 37.2068 78.1552 52.6572 0.0000 0.0000 0.0000
# 3 43.2846 52.6572 104.7734 0.0000 0.0000 0.0000
# 4 0.0000 0.0000 0.0000 24.5130 0.0000 0.0000
# 5 0.0000 0.0000 0.0000 0.0000 19.6795 0.0000
# 6 0.0000 0.0000 0.0000 0.0000 0.0000 18.0147
#
#
#
# Elastic Compliance Matrix: (Units=1/GPa)
#
#
# Indices 1 2 3 4 5 6 
#
# 1 0.041973 -0.012548 -0.011034 0.000000 0.000000 0.000000
# 2 -0.012548 0.023097 -0.006424 0.000000 0.000000 0.000000
# 3 -0.011034 -0.006424 0.017332 0.000000 0.000000 0.000000
# 4 0.000000 0.000000 0.000000 0.040795 0.000000 0.000000
# 5 0.000000 0.000000 0.000000 0.000000 0.050814 0.000000
# 6 0.000000 0.000000 0.000000 0.000000 0.000000 0.055510
#
#
# Mechanical properties :
#
#
# Convention : Reuss Voigt Hill
#
# Bulk Modulus (GPa) = 44.66353 55.06135 49.86244
# Shear Modulus (GPa) = 16.83529 18.84854 17.84191
#
# Velocity S-wave (km/s) = 3.50653 3.71028 3.60984
# Velocity P-wave (km/s) = 7.00105 7.65306 7.33430
#
# Compressibility (1/GPa) = 0.02238963
#
# Stress axis : x y z
#
# Youngs Moduli (GPa) = 23.82500 43.29582 57.69838
#
# Poissons Ratio (x) = 0.54326 0.63663
# Poissons Ratio (y) = 0.29895 0.37067
# Poissons Ratio (z) = 0.26288 0.27815
#
# Static dielectric constant tensor:
#      x y z
#    x 2.619750 0.000000 0.000000 
#    y 0.000000 2.626380 0.000000 
#    z 0.000000 0.000000 2.880520 
# 
# 
# High freq. dielectric constant tensor:
#      x y z
#    x 1.505430 0.000000 0.000000 
#    y 0.000000 1.492670 0.000000 
#    z 0.000000 0.000000 1.514380 
# 
# From -- ./inp_files/19771.got.cif
#   From: 2010.03.12/outbox.cif.g09.slc.cpg/sg40_10_cif.got.tgz:19771.got - 2010.04.14 01:38:03.
