data_PCOD8184546
_publ_section_title
;
Structure prediction by ZEFSAII (Michael W. Deem and Ramdas Pophale) SiO2 
 PCOD8184546
Probable space group: A M A 2
;
_chemical_formula_sum "Si O2"
_cell_formula_units_Z 64
_cell_length_a 17.448583
_cell_length_b 11.721006
_cell_length_c 14.826474
_cell_angle_alpha 90.000000
_cell_angle_beta 90.000000
_cell_angle_gamma 90.000000
_cell_volume 3032.235530
_symmetry_space_group_name_H-M "A M A 2"
_symmetry_group_IT_number 40
_symmetry_cell_setting 'orthorhombic'
loop_
_space_group_symop_operation_xyz
x,y,z
-x,-y,z
1/2-x,y,z
1/2+x,-y,z
x,1/2+y,1/2+z
-x,1/2-y,1/2+z
1/2-x,1/2+y,1/2+z
1/2+x,1/2-y,1/2+z
loop_
_atom_site_type_symbol
_atom_site_label
_atom_site_fract_x
_atom_site_fract_y
_atom_site_fract_z
Si Si1 0.661102 0.037726 0.311710
Si Si2 0.917927 0.706879 0.686628
Si Si3 0.660110 0.105102 0.844708
Si Si4 0.585308 0.306716 0.763376
Si Si5 0.837489 0.590444 0.013978
Si Si6 0.911958 0.472273 0.181599
Si Si7 0.082136 0.962229 0.023291
Si Si8 0.836232 0.822993 0.090600
O O1 0.750000 0.003859 0.303713
O O2 0.646439 0.147102 0.248397
O O3 0.636783 0.057985 0.414378
O O4 0.606634 0.936517 0.280862
O O5 0.895582 0.837975 0.671969
O O6 0.923774 0.647894 0.588226
O O7 0.996172 0.699320 0.742407
O O8 0.750000 0.132783 0.840241
O O9 0.609538 0.221429 0.843604
O O10 0.638594 0.019198 0.764152
O O11 0.641280 0.051361 0.941640
O O12 0.636186 0.258191 0.680796
O O13 0.750000 0.555095 0.035176
O O14 0.891363 0.529350 0.086264
O O15 0.845483 0.728223 0.013401
O O16 0.000000 0.500000 0.203420
O O17 0.110617 0.067797 0.082204
O O18 0.000000 0.000000 0.983919
O O19 0.750000 0.867166 0.099829
#
# Coordination Sequence:
#
# PCOD8184546 Si02
#       8
#     8   8   8   8   8   8   8   8
#     4  11  25  43  69 104 138 178 229 284 342 405
#     4  12  26  46  69 101 141 180 227 290 353 402
#     4  12  27  46  71 101 137 186 234 280 343 414
#     4  12  23  46  69  97 134 183 234 280 338 410
#     4  10  24  44  67  98 133 175 227 278 333 408
#     4  12  25  46  68  98 137 179 226 282 343 407
#     4  12  26  44  68 104 141 178 226 291 344 412
#     4  11  21  42  71  94 130 181 230 275 334 408
#
# _framework density 21.106539999999999
#
# number of rings (size 3 to 8) (size 9 to 14) (size 15 to 20)
#    0.000    0.500    5.000    2.625    3.500    2.500 
#    0.000    0.000    0.000    0.000    0.000    0.000 
#    0.000    0.000    0.000    0.000    0.000    0.000 
#
# Total GULP energy -396894.073343 kJ/mol
# GULP energy per Si atom -12402.939792 kJ/mol
# Density = 2.105850 g / cm^3
# Si number density = 21.106540 Si / 1000 Ang^3
#
#
#
# Elastic Constant Matrix: (Units=GPa)
#
#
# Indices 1 2 3 4 5 6 
#
# 1 78.0378 7.0753 17.0571 0.0000 0.0000 0.0000
# 2 7.0753 96.1556 19.8555 0.0000 0.0000 0.0000
# 3 17.0571 19.8555 101.8928 0.0000 0.0000 0.0000
# 4 0.0000 0.0000 0.0000 2.2558 0.0000 0.0000
# 5 0.0000 0.0000 0.0000 0.0000 32.5494 0.0000
# 6 0.0000 0.0000 0.0000 0.0000 0.0000 26.8278
#
#
#
# Elastic Compliance Matrix: (Units=1/GPa)
#
#
# Indices 1 2 3 4 5 6 
#
# 1 0.013328 -0.000542 -0.002126 0.000000 0.000000 0.000000
# 2 -0.000542 0.010858 -0.002025 0.000000 0.000000 0.000000
# 3 -0.002126 -0.002025 0.010565 0.000000 0.000000 0.000000
# 4 0.000000 0.000000 0.000000 0.443293 0.000000 0.000000
# 5 0.000000 0.000000 0.000000 0.000000 0.030723 0.000000
# 6 0.000000 0.000000 0.000000 0.000000 0.000000 0.037275
#
#
# Mechanical properties :
#
#
# Convention : Reuss Voigt Hill
#
# Bulk Modulus (GPa) = 39.42347 40.45132 39.93740
# Shear Modulus (GPa) = 8.86712 27.79983 18.33347
#
# Velocity S-wave (km/s) = 2.05189 3.63315 2.95043
# Velocity P-wave (km/s) = 4.93280 6.06685 5.52898
#
# Compressibility (1/GPa) = 0.02536560
#
# Stress axis : x y z
#
# Youngs Moduli (GPa) = 75.02987 92.09926 94.65492
#
# Poissons Ratio (x) = 0.04990 0.20119
# Poissons Ratio (y) = 0.04065 0.19169
# Poissons Ratio (z) = 0.15948 0.18651
#
# Static dielectric constant tensor:
#      x y z
#    x 3.815810 0.000000 0.000000 
#    y 0.000000 3.845660 0.000000 
#    z 0.000000 0.000000 3.805880 
# 
# 
# High freq. dielectric constant tensor:
#      x y z
#    x 1.833160 0.000000 0.000000 
#    y 0.000000 1.837630 0.000000 
#    z 0.000000 0.000000 1.830790 
# 
# From -- ./inp_files/17897.got.cif
#   From: 2010.03.12/outbox.cif.g09.slc.cpg/sg40_9_cif.got.tgz:17897.got - 2010.04.14 01:38:03.
