data_PCOD8184106
_publ_section_title
;
Structure prediction by ZEFSAII (Michael W. Deem and Ramdas Pophale) SiO2 
 PCOD8184106
Probable space group: A M A 2
;
_chemical_formula_sum "Si O2"
_cell_formula_units_Z 64
_cell_length_a 8.752702
_cell_length_b 29.121554
_cell_length_c 12.704143
_cell_angle_alpha 90.000000
_cell_angle_beta 90.000000
_cell_angle_gamma 90.000000
_cell_volume 3238.188025
_symmetry_space_group_name_H-M "A M A 2"
_symmetry_group_IT_number 40
_symmetry_cell_setting 'orthorhombic'
loop_
_space_group_symop_operation_xyz
x,y,z
-x,-y,z
1/2-x,y,z
1/2+x,-y,z
x,1/2+y,1/2+z
-x,1/2-y,1/2+z
1/2-x,1/2+y,1/2+z
1/2+x,1/2-y,1/2+z
loop_
_atom_site_type_symbol
_atom_site_label
_atom_site_fract_x
_atom_site_fract_y
_atom_site_fract_z
Si Si1 0.930493 0.857822 0.434330
Si Si2 0.429124 0.549603 0.553784
Si Si3 0.419356 0.293994 0.293113
Si Si4 0.417813 0.209505 0.156723
Si Si5 0.928498 0.119947 0.217611
Si Si6 0.575007 0.739876 0.950104
Si Si7 0.929332 0.450407 0.313858
Si Si8 0.430994 0.377835 0.155006
O O1 0.750000 0.862454 0.436145
O O2 0.992225 0.884835 0.331717
O O3 0.975511 0.804678 0.424261
O O4 0.996695 0.881551 0.539325
O O5 0.500000 0.500000 0.572474
O O6 0.250000 0.547009 0.575558
O O7 0.505565 0.583477 0.636272
O O8 0.461851 0.566273 0.433691
O O9 0.250000 0.310365 0.328176
O O10 0.414377 0.240883 0.259092
O O11 0.532509 0.288064 0.391521
O O12 0.482780 0.329449 0.206808
O O13 0.250000 0.186701 0.138192
O O14 0.543559 0.170240 0.168021
O O15 0.456707 0.247140 0.069533
O O16 0.750000 0.111722 0.231622
O O17 0.750000 0.726622 0.927790
O O18 0.750000 0.452009 0.290526
O O19 0.000000 0.500000 0.295407
O O20 0.010166 0.417405 0.231074
O O21 0.250000 0.380858 0.142105
#
# Coordination Sequence:
#
# PCOD8184106 Si02
#       8
#     8   8   8   8   8   8   8   8
#     4  12  24  40  61  85 121 164 207 254 307 363
#     4  10  22  43  69  96 127 159 197 248 304 363
#     4  10  21  37  56  82 119 160 202 249 301 356
#     4  10  21  38  56  81 119 161 203 252 302 353
#     4  12  25  40  62  91 122 162 209 252 304 365
#     4  11  22  37  56  80 116 160 206 255 304 356
#     4  10  22  42  68  97 126 160 198 245 304 363
#     4  11  23  41  63  90 124 162 206 255 304 362
#
# _framework density 19.764139
#
# number of rings (size 3 to 8) (size 9 to 14) (size 15 to 20)
#    0.000    1.250    2.500    3.750    1.750    3.500 
#    0.000    0.625    0.000    0.000    0.000    0.000 
#    0.000    0.000    0.000    0.000    0.000    0.000 
#
# Total GULP energy -396692.663476 kJ/mol
# GULP energy per Si atom -12396.645734 kJ/mol
# Density = 1.971916 g / cm^3
# Si number density = 19.764139 Si / 1000 Ang^3
#
#
#
# Elastic Constant Matrix: (Units=GPa)
#
#
# Indices 1 2 3 4 5 6 
#
# 1 132.3130 49.5585 58.7315 0.0000 0.0000 0.0000
# 2 49.5585 88.3192 53.9237 0.0000 0.0000 0.0000
# 3 58.7315 53.9237 95.4148 0.0000 0.0000 0.0000
# 4 0.0000 0.0000 0.0000 39.6436 0.0000 0.0000
# 5 0.0000 0.0000 0.0000 0.0000 32.0890 0.0000
# 6 0.0000 0.0000 0.0000 0.0000 0.0000 31.9953
#
#
#
# Elastic Compliance Matrix: (Units=1/GPa)
#
#
# Indices 1 2 3 4 5 6 
#
# 1 0.010925 -0.003091 -0.004978 0.000000 0.000000 0.000000
# 2 -0.003091 0.018162 -0.008362 0.000000 0.000000 0.000000
# 3 -0.004978 -0.008362 0.018270 0.000000 0.000000 0.000000
# 4 0.000000 0.000000 0.000000 0.025225 0.000000 0.000000
# 5 0.000000 0.000000 0.000000 0.000000 0.031163 0.000000
# 6 0.000000 0.000000 0.000000 0.000000 0.000000 0.031255
#
#
# Mechanical properties :
#
#
# Convention : Reuss Voigt Hill
#
# Bulk Modulus (GPa) = 68.98337 71.16383 70.07360
# Shear Modulus (GPa) = 28.95283 31.00112 29.97698
#
# Velocity S-wave (km/s) = 3.83158 3.96479 3.89875
# Velocity P-wave (km/s) = 7.38605 7.55276 7.46987
#
# Compressibility (1/GPa) = 0.01449625
#
# Stress axis : x y z
#
# Youngs Moduli (GPa) = 91.53077 55.05870 54.73349
#
# Poissons Ratio (x) = 0.17020 0.27246
# Poissons Ratio (y) = 0.28294 0.45767
# Poissons Ratio (z) = 0.45564 0.46039
#
# Static dielectric constant tensor:
#      x y z
#    x 3.751830 0.000000 0.000000 
#    y 0.000000 3.401740 0.000000 
#    z 0.000000 0.000000 4.054720 
# 
# 
# High freq. dielectric constant tensor:
#      x y z
#    x 1.779190 0.000000 0.000000 
#    y 0.000000 1.753610 0.000000 
#    z 0.000000 0.000000 1.785620 
# 
# From -- ./inp_files/10665.got.cif
#   From: 2010.03.12/outbox.cif.g09.slc.cpg/sg40_6_cif.got.tgz:10665.got - 2010.04.14 01:38:03.
