data_PCOD8184484
_publ_section_title
;
Structure prediction by ZEFSAII (Michael W. Deem and Ramdas Pophale) SiO2 
 PCOD8184484
Probable space group: A M A 2
;
_chemical_formula_sum "Si O2"
_cell_formula_units_Z 36
_cell_length_a 17.587972
_cell_length_b 10.282269
_cell_length_c 10.279615
_cell_angle_alpha 90.000000
_cell_angle_beta 90.000000
_cell_angle_gamma 90.000000
_cell_volume 1859.009360
_symmetry_space_group_name_H-M "A M A 2"
_symmetry_group_IT_number 40
_symmetry_cell_setting 'orthorhombic'
loop_
_space_group_symop_operation_xyz
x,y,z
-x,-y,z
1/2-x,y,z
1/2+x,-y,z
x,1/2+y,1/2+z
-x,1/2-y,1/2+z
1/2-x,1/2+y,1/2+z
1/2+x,1/2-y,1/2+z
loop_
_atom_site_type_symbol
_atom_site_label
_atom_site_fract_x
_atom_site_fract_y
_atom_site_fract_z
Si Si1 0.627248 0.657783 0.458950
Si Si2 0.872881 0.863832 0.665174
Si Si3 0.750000 0.974417 0.058646
Si Si4 0.250000 0.235581 0.848771
Si Si5 0.000000 0.500000 0.322848
Si Si6 0.250000 0.989607 0.528804
Si Si7 0.750000 0.794558 0.312682
O O1 0.601172 0.783165 0.539677
O O2 0.675353 0.564587 0.556349
O O3 0.551443 0.587553 0.414954
O O4 0.676019 0.702276 0.331452
O O5 0.824748 0.766769 0.758714
O O6 0.824052 0.991387 0.621003
O O7 0.949195 0.907383 0.734538
O O8 0.750000 0.873405 0.178551
O O9 0.750000 0.897378 0.925711
O O10 0.250000 0.355423 0.949960
O O11 0.250000 0.108670 0.431883
#
# Coordination Sequence:
#
# PCOD8184484 Si02
#       7
#     8   8   4   4   4   4   4
#     4  10  23  41  58  87 121 152 195 241 291 340
#     4  10  23  41  58  85 123 150 193 249 279 348
#     4  11  20  36  66  91 113 149 195 246 293 339
#     4  11  20  36  66  91 111 151 195 244 297 335
#     4  12  24  38  56  88 120 162 192 228 296 350
#     4   9  20  38  62  88 112 148 197 243 294 335
#     4   9  20  38  62  88 114 148 195 249 286 341
#
# _framework density 19.365152999999999
#
# number of rings (size 3 to 8) (size 9 to 14) (size 15 to 20)
#    0.000    1.778    2.222    3.333    3.111    3.556 
#    0.000    0.000    0.000    0.000    0.000    0.000 
#    0.000    0.000    0.000    0.000    0.000    0.000 
#
# Total GULP energy -223127.461802 kJ/mol
# GULP energy per Si atom -12395.970100 kJ/mol
# Density = 1.932108 g / cm^3
# Si number density = 19.365153 Si / 1000 Ang^3
#
#
#
# Elastic Constant Matrix: (Units=GPa)
#
#
# Indices 1 2 3 4 5 6 
#
# 1 153.5072 58.7938 58.5198 0.0000 0.0000 0.0000
# 2 58.7938 98.7376 49.6336 0.0000 0.0000 0.0000
# 3 58.5198 49.6336 98.3765 0.0000 0.0000 0.0000
# 4 0.0000 0.0000 0.0000 55.9189 0.0000 0.0000
# 5 0.0000 0.0000 0.0000 0.0000 27.4678 0.0000
# 6 0.0000 0.0000 0.0000 0.0000 0.0000 36.1999
#
#
#
# Elastic Compliance Matrix: (Units=1/GPa)
#
#
# Indices 1 2 3 4 5 6 
#
# 1 0.009340 -0.003709 -0.003684 0.000000 0.000000 0.000000
# 2 -0.003709 0.015042 -0.005383 0.000000 0.000000 0.000000
# 3 -0.003684 -0.005383 0.015072 0.000000 0.000000 0.000000
# 4 0.000000 0.000000 0.000000 0.017883 0.000000 0.000000
# 5 0.000000 0.000000 0.000000 0.000000 0.036406 0.000000
# 6 0.000000 0.000000 0.000000 0.000000 0.000000 0.027624
#
#
# Mechanical properties :
#
#
# Convention : Reuss Voigt Hill
#
# Bulk Modulus (GPa) = 71.93384 76.05732 73.99558
# Shear Modulus (GPa) = 32.99141 36.16225 34.57683
#
# Velocity S-wave (km/s) = 4.13201 4.32602 4.23012
# Velocity P-wave (km/s) = 7.74540 8.01955 7.88367
#
# Compressibility (1/GPa) = 0.01390166
#
# Stress axis : x y z
#
# Youngs Moduli (GPa) = 107.07196 66.47877 66.34648
#
# Poissons Ratio (x) = 0.24659 0.24444
# Poissons Ratio (y) = 0.39716 0.35713
# Poissons Ratio (z) = 0.39448 0.35784
#
# Static dielectric constant tensor:
#      x y z
#    x 3.390870 0.000000 0.000000 
#    y 0.000000 3.589490 0.000000 
#    z 0.000000 0.000000 3.740670 
# 
# 
# High freq. dielectric constant tensor:
#      x y z
#    x 1.735820 0.000000 0.000000 
#    y 0.000000 1.763460 0.000000 
#    z 0.000000 0.000000 1.763280 
# 
# From -- ./inp_files/8076.got.cif
#   From: 2010.03.12/outbox.cif.g09.slc.cpg/sg40_5_cif.got.tgz:8076.got - 2010.04.14 01:38:03.
