data_PCOD8184193
_publ_section_title
;
Structure prediction by ZEFSAII (Michael W. Deem and Ramdas Pophale) SiO2 
 PCOD8184193
Probable space group: A M A 2
;
_chemical_formula_sum "Si O2"
_cell_formula_units_Z 56
_cell_length_a 8.894697
_cell_length_b 13.889310
_cell_length_c 22.851833
_cell_angle_alpha 90.000000
_cell_angle_beta 90.000000
_cell_angle_gamma 90.000000
_cell_volume 2823.142962
_symmetry_space_group_name_H-M "A M A 2"
_symmetry_group_IT_number 40
_symmetry_cell_setting 'orthorhombic'
loop_
_space_group_symop_operation_xyz
x,y,z
-x,-y,z
1/2-x,y,z
1/2+x,-y,z
x,1/2+y,1/2+z
-x,1/2-y,1/2+z
1/2-x,1/2+y,1/2+z
1/2+x,1/2-y,1/2+z
loop_
_atom_site_type_symbol
_atom_site_label
_atom_site_fract_x
_atom_site_fract_y
_atom_site_fract_z
Si Si1 0.922214 0.656682 0.198470
Si Si2 0.077787 0.343326 0.649065
Si Si3 0.570973 0.304409 0.537189
Si Si4 0.570435 0.105215 0.923767
Si Si5 0.919306 0.092668 0.574384
Si Si6 0.570972 0.804407 0.810347
Si Si7 0.919306 0.092666 0.273152
O O1 0.750000 0.677525 0.215840
O O2 0.930995 0.581122 0.145125
O O3 0.000022 0.749998 0.173770
O O4 0.014308 0.626500 0.256928
O O5 0.250000 0.322501 0.631687
O O6 0.068999 0.418884 0.702411
O O7 0.985671 0.373499 0.590611
O O8 0.750000 0.314693 0.530814
O O9 0.486964 0.336517 0.479371
O O10 0.517437 0.194805 0.550964
O O11 0.750000 0.097699 0.923766
O O12 0.513029 0.163497 0.868169
O O13 0.500000 0.000000 0.923761
O O14 0.750000 0.086887 0.552758
O O15 0.000000 0.000000 0.545946
O O16 0.750000 0.814698 0.816717
O O17 0.517438 0.694804 0.796570
O O18 0.750000 0.086886 0.294777
O O19 0.000000 0.000000 0.301592
#
# Coordination Sequence:
#
# PCOD8184193 Si02
#       7
#     8   8   8   8   8   8   8
#     4   9  17  31  51  79 112 149 189 231 279 330
#     4   9  17  31  51  79 112 149 189 231 279 330
#     4  10  21  39  59  83 115 150 189 239 287 335
#     4  12  26  44  65  86 107 142 187 234 286 342
#     4   9  19  33  54  84 118 152 187 228 278 332
#     4  10  21  39  59  83 115 150 189 239 287 335
#     4   9  19  33  54  84 118 152 187 228 278 332
#
# _framework density 19.836048999999999
#
# number of rings (size 3 to 8) (size 9 to 14) (size 15 to 20)
#    0.000    2.286    0.000    4.714    0.000    8.000 
#    0.000    3.571    0.000    0.000    0.000    0.000 
#    0.000    0.000    0.000    0.000    0.000    0.000 
#
# Total GULP energy -346925.302711 kJ/mol
# GULP energy per Si atom -12390.189383 kJ/mol
# Density = 1.979090 g / cm^3
# Si number density = 19.836049 Si / 1000 Ang^3
#
#
#
# Elastic Constant Matrix: (Units=GPa)
#
#
# Indices 1 2 3 4 5 6 
#
# 1 128.5402 49.7356 54.8456 0.0000 0.0000 0.0000
# 2 49.7356 93.4000 42.0209 0.0000 0.0000 0.0000
# 3 54.8456 42.0209 134.0460 0.0000 0.0000 0.0000
# 4 0.0000 0.0000 0.0000 16.4150 0.0000 0.0000
# 5 0.0000 0.0000 0.0000 0.0000 38.2157 0.0000
# 6 0.0000 0.0000 0.0000 0.0000 0.0000 33.2375
#
#
#
# Elastic Compliance Matrix: (Units=1/GPa)
#
#
# Indices 1 2 3 4 5 6 
#
# 1 0.010764 -0.004366 -0.003036 0.000000 0.000000 0.000000
# 2 -0.004366 0.014236 -0.002676 0.000000 0.000000 0.000000
# 3 -0.003036 -0.002676 0.009541 0.000000 0.000000 0.000000
# 4 0.000000 0.000000 0.000000 0.060920 0.000000 0.000000
# 5 0.000000 0.000000 0.000000 0.000000 0.026167 0.000000
# 6 0.000000 0.000000 0.000000 0.000000 0.000000 0.030087
#
#
# Mechanical properties :
#
#
# Convention : Reuss Voigt Hill
#
# Bulk Modulus (GPa) = 69.51620 72.13227 70.82423
# Shear Modulus (GPa) = 28.30205 31.53257 29.91731
#
# Velocity S-wave (km/s) = 3.78140 3.99138 3.88781
# Velocity P-wave (km/s) = 7.36116 7.59504 7.47902
#
# Compressibility (1/GPa) = 0.01438514
#
# Stress axis : x y z
#
# Youngs Moduli (GPa) = 92.89962 70.24590 104.81034
#
# Poissons Ratio (x) = 0.30672 0.31815
# Poissons Ratio (y) = 0.40563 0.28049
# Poissons Ratio (z) = 0.28200 0.18799
#
# Static dielectric constant tensor:
#      x y z
#    x 1.723120 0.000000 0.000000 
#    y 0.000000 3.500640 0.000000 
#    z 0.000000 0.000000 3.900720 
# 
# 
# High freq. dielectric constant tensor:
#      x y z
#    x 1.783250 0.000000 0.000000 
#    y 0.000000 1.759650 0.000000 
#    z 0.000000 0.000000 1.762840 
# 
# From -- ./inp_files/22167.got.cif
#   From: 2010.03.12/outbox.cif.g09.slc.cpg/sg40_12_cif.got.tgz:22167.got - 2010.04.14 01:38:03.
