data_PCOD8184185
_publ_section_title
;
Structure prediction by ZEFSAII (Michael W. Deem and Ramdas Pophale) SiO2 
 PCOD8184185
Probable space group: A M A 2
;
_chemical_formula_sum "Si O2"
_cell_formula_units_Z 40
_cell_length_a 18.372775
_cell_length_b 8.898805
_cell_length_c 12.001255
_cell_angle_alpha 90.000000
_cell_angle_beta 90.000000
_cell_angle_gamma 90.000000
_cell_volume 1962.154092
_symmetry_space_group_name_H-M "A M A 2"
_symmetry_group_IT_number 40
_symmetry_cell_setting 'orthorhombic'
loop_
_space_group_symop_operation_xyz
x,y,z
-x,-y,z
1/2-x,y,z
1/2+x,-y,z
x,1/2+y,1/2+z
-x,1/2-y,1/2+z
1/2-x,1/2+y,1/2+z
1/2+x,1/2-y,1/2+z
loop_
_atom_site_type_symbol
_atom_site_label
_atom_site_fract_x
_atom_site_fract_y
_atom_site_fract_z
Si Si1 0.417305 0.536205 0.250000
Si Si2 0.332111 0.748285 0.402420
Si Si3 0.534267 0.834197 0.543331
Si Si4 0.890265 0.765414 0.130588
Si Si5 0.581356 0.457208 0.830908
O O1 0.500000 0.500000 0.289214
O O2 0.370586 0.601460 0.350959
O O3 0.415156 0.666534 0.153504
O O4 0.381041 0.387209 0.200444
O O5 0.250000 0.761142 0.357347
O O6 0.328892 0.724103 0.535968
O O7 0.375361 0.900524 0.376763
O O8 0.467728 0.719204 0.563233
O O9 0.577833 0.821856 0.425692
O O10 0.500000 0.000000 0.537467
O O11 0.879811 0.898959 0.219214
O O12 0.500000 0.500000 0.796371
#
# Coordination Sequence:
#
# PCOD8184185 Si02
#       5
#     8   8   8   8   8
#     4   9  19  40  63  88 125 164 212 262 310 369
#     4  12  25  41  61  94 134 165 204 265 324 376
#     4   8  15  33  62  90 115 149 209 253 296 359
#     4  10  21  38  64  89 124 164 208 261 310 374
#     4  11  19  40  69  93 123 164 212 261 315 370
#
# _framework density 20.385759
#
# number of rings (size 3 to 8) (size 9 to 14) (size 15 to 20)
#    0.000    2.400    6.000    2.400    0.000    2.400 
#    3.600    0.000    0.000    0.000    0.000    0.000 
#    0.000    0.000    0.000    0.000    0.000    0.000 
#
# Total GULP energy -247794.654064 kJ/mol
# GULP energy per Si atom -12389.732703 kJ/mol
# Density = 2.033936 g / cm^3
# Si number density = 20.385759 Si / 1000 Ang^3
#
#
#
# Elastic Constant Matrix: (Units=GPa)
#
#
# Indices 1 2 3 4 5 6 
#
# 1 85.3366 28.4799 37.8460 0.0000 0.0000 0.0000
# 2 28.4799 50.9163 46.1242 0.0000 0.0000 0.0000
# 3 37.8460 46.1242 121.5976 0.0000 0.0000 0.0000
# 4 0.0000 0.0000 0.0000 23.5411 0.0000 0.0000
# 5 0.0000 0.0000 0.0000 0.0000 13.8492 0.0000
# 6 0.0000 0.0000 0.0000 0.0000 0.0000 17.0647
#
#
#
# Elastic Compliance Matrix: (Units=1/GPa)
#
#
# Indices 1 2 3 4 5 6 
#
# 1 0.014795 -0.006253 -0.002233 0.000000 0.000000 0.000000
# 2 -0.006253 0.032564 -0.010406 0.000000 0.000000 0.000000
# 3 -0.002233 -0.010406 0.012866 0.000000 0.000000 0.000000
# 4 0.000000 0.000000 0.000000 0.042479 0.000000 0.000000
# 5 0.000000 0.000000 0.000000 0.000000 0.072206 0.000000
# 6 0.000000 0.000000 0.000000 0.000000 0.000000 0.058601
#
#
# Mechanical properties :
#
#
# Convention : Reuss Voigt Hill
#
# Bulk Modulus (GPa) = 44.55984 53.63897 49.09940
# Shear Modulus (GPa) = 17.93550 20.58434 19.25992
#
# Velocity S-wave (km/s) = 2.96937 3.18109 3.07705
# Velocity P-wave (km/s) = 5.80189 6.31360 6.06315
#
# Compressibility (1/GPa) = 0.02244173
#
# Stress axis : x y z
#
# Youngs Moduli (GPa) = 67.58824 30.70841 77.72360
#
# Poissons Ratio (x) = 0.19202 0.17356
# Poissons Ratio (y) = 0.42262 0.80880
# Poissons Ratio (z) = 0.15093 0.31956
#
# Static dielectric constant tensor:
#      x y z
#    x 3.331810 0.000000 0.000000 
#    y 0.000000 3.348800 0.000000 
#    z 0.000000 0.000000 4.610820 
# 
# 
# High freq. dielectric constant tensor:
#      x y z
#    x 1.745940 0.000000 0.000000 
#    y 0.000000 1.766660 0.000000 
#    z 0.000000 0.000000 1.818690 
# 
# From -- ./inp_files/13437.got.cif
#   From: 2010.03.12/outbox.cif.g09.slc.cpg/sg40_7_cif.got.tgz:13437.got - 2010.04.14 01:38:03.
