data_PCOD8184041
_publ_section_title
;
Structure prediction by ZEFSAII (Michael W. Deem and Ramdas Pophale) SiO2 
 PCOD8184041
Probable space group: A M A 2
;
_chemical_formula_sum "Si O2"
_cell_formula_units_Z 64
_cell_length_a 18.101506
_cell_length_b 22.072860
_cell_length_c 8.827213
_cell_angle_alpha 90.000000
_cell_angle_beta 90.000000
_cell_angle_gamma 90.000000
_cell_volume 3526.930677
_symmetry_space_group_name_H-M "A M A 2"
_symmetry_group_IT_number 40
_symmetry_cell_setting 'orthorhombic'
loop_
_space_group_symop_operation_xyz
x,y,z
-x,-y,z
1/2-x,y,z
1/2+x,-y,z
x,1/2+y,1/2+z
-x,1/2-y,1/2+z
1/2-x,1/2+y,1/2+z
1/2+x,1/2-y,1/2+z
loop_
_atom_site_type_symbol
_atom_site_label
_atom_site_fract_x
_atom_site_fract_y
_atom_site_fract_z
Si Si1 0.892361 0.482590 0.504170
Si Si2 0.332900 0.140976 0.682821
Si Si3 0.543894 0.557496 0.002930
Si Si4 0.474785 0.683430 0.039097
Si Si5 0.664898 0.996817 0.674667
Si Si6 0.967689 0.301050 0.687505
Si Si7 0.533925 0.578971 0.649508
Si Si8 0.668233 0.861714 0.035102
O O1 0.881314 0.499636 0.329662
O O2 0.890081 0.547708 0.591192
O O3 0.831546 0.434691 0.565167
O O4 0.969527 0.449043 0.544287
O O5 0.250000 0.165869 0.656103
O O6 0.390227 0.182780 0.594063
O O7 0.353772 0.145578 0.859561
O O8 0.338303 0.072639 0.617724
O O9 0.500000 0.500000 0.070565
O O10 0.515423 0.619991 0.077213
O O11 0.527430 0.561731 0.825156
O O12 0.628732 0.543171 0.051632
O O13 0.473515 0.701664 0.866096
O O14 0.520387 0.734545 0.125412
O O15 0.750000 0.016684 0.699932
O O16 0.886819 0.324704 0.641385
O O17 0.030612 0.348364 0.628355
O O18 0.750000 0.836949 0.069626
#
# Coordination Sequence:
#
# PCOD8184041 Si02
#       8
#     8   8   8   8   8   8   8   8
#     4   9  16  30  53  80 111 143 178 223 274 321
#     4   9  18  33  54  80 111 140 173 225 282 331
#     4  11  20  35  57  83 111 142 186 231 281 329
#     4  11  22  36  57  80 108 147 186 233 271 326
#     4  10  21  33  51  84 118 145 179 226 284 338
#     4  10  22  36  53  80 109 142 190 230 271 325
#     4   9  19  33  53  81 110 142 184 230 275 324
#     4   9  18  33  53  79 112 145 180 223 274 331
#
# _framework density 18.146090000000001
#
# number of rings (size 3 to 8) (size 9 to 14) (size 15 to 20)
#    0.000    2.250    2.500    1.875    1.750    2.500 
#    0.000    3.125    0.000    6.000    0.000    0.000 
#    0.000    0.000    0.000    0.000    0.000    0.000 
#
# Total GULP energy -396471.498938 kJ/mol
# GULP energy per Si atom -12389.734342 kJ/mol
# Density = 1.810479 g / cm^3
# Si number density = 18.146090 Si / 1000 Ang^3
#
#
#
# Elastic Constant Matrix: (Units=GPa)
#
#
# Indices 1 2 3 4 5 6 
#
# 1 82.2439 42.5512 44.9842 0.0000 0.0000 0.0000
# 2 42.5512 113.7078 41.1560 0.0000 0.0000 0.0000
# 3 44.9842 41.1560 63.1420 0.0000 0.0000 0.0000
# 4 0.0000 0.0000 0.0000 28.5484 0.0000 0.0000
# 5 0.0000 0.0000 0.0000 0.0000 21.8894 0.0000
# 6 0.0000 0.0000 0.0000 0.0000 0.0000 20.1538
#
#
#
# Elastic Compliance Matrix: (Units=1/GPa)
#
#
# Indices 1 2 3 4 5 6 
#
# 1 0.020755 -0.003161 -0.012726 0.000000 0.000000 0.000000
# 2 -0.003161 0.011991 -0.005564 0.000000 0.000000 0.000000
# 3 -0.012726 -0.005564 0.028531 0.000000 0.000000 0.000000
# 4 0.000000 0.000000 0.000000 0.035028 0.000000 0.000000
# 5 0.000000 0.000000 0.000000 0.000000 0.045684 0.000000
# 6 0.000000 0.000000 0.000000 0.000000 0.000000 0.049618
#
#
# Mechanical properties :
#
#
# Convention : Reuss Voigt Hill
#
# Bulk Modulus (GPa) = 54.42300 57.38626 55.90463
# Shear Modulus (GPa) = 20.77838 22.81180 21.79509
#
# Velocity S-wave (km/s) = 3.38755 3.54943 3.46943
# Velocity P-wave (km/s) = 6.73478 6.96356 6.85013
#
# Compressibility (1/GPa) = 0.01837459
#
# Stress axis : x y z
#
# Youngs Moduli (GPa) = 48.18113 83.39506 35.05000
#
# Poissons Ratio (x) = 0.26358 0.44606
# Poissons Ratio (y) = 0.15228 0.19502
# Poissons Ratio (z) = 0.61317 0.46402
#
# Static dielectric constant tensor:
#      x y z
#    x 3.447960 0.000000 0.000000 
#    y 0.000000 3.513790 0.000000 
#    z 0.000000 0.000000 3.250560 
# 
# 
# High freq. dielectric constant tensor:
#      x y z
#    x 1.686150 0.000000 0.000000 
#    y 0.000000 1.690630 0.000000 
#    z 0.000000 0.000000 1.701750 
# 
# From -- ./inp_files/7900.got.cif
#   From: 2010.03.12/outbox.cif.g09.slc.cpg/sg40_4_cif.got.tgz:7900.got - 2010.04.14 01:38:03.
