data_PCOD8184206
_publ_section_title
;
Structure prediction by ZEFSAII (Michael W. Deem and Ramdas Pophale) SiO2 
 PCOD8184206
Probable space group: A M A 2
;
_chemical_formula_sum "Si O2"
_cell_formula_units_Z 48
_cell_length_a 9.392908
_cell_length_b 9.036935
_cell_length_c 27.026048
_cell_angle_alpha 90.000000
_cell_angle_beta 90.000000
_cell_angle_gamma 90.000000
_cell_volume 2294.054710
_symmetry_space_group_name_H-M "A M A 2"
_symmetry_group_IT_number 40
_symmetry_cell_setting 'orthorhombic'
loop_
_space_group_symop_operation_xyz
x,y,z
-x,-y,z
1/2-x,y,z
1/2+x,-y,z
x,1/2+y,1/2+z
-x,1/2-y,1/2+z
1/2-x,1/2+y,1/2+z
1/2+x,1/2-y,1/2+z
loop_
_atom_site_type_symbol
_atom_site_label
_atom_site_fract_x
_atom_site_fract_y
_atom_site_fract_z
Si Si1 0.076482 0.150685 0.333160
Si Si2 0.583418 0.351737 0.409544
Si Si3 0.403396 0.728282 0.728055
Si Si4 0.411665 0.356478 0.003026
Si Si5 0.902319 0.768711 0.592067
Si Si6 0.000000 0.500000 0.167847
Si Si7 0.000000 0.000000 0.151062
O O1 0.250000 0.139469 0.339333
O O2 0.010826 0.188503 0.278053
O O3 0.010653 0.277860 0.367027
O O4 0.000000 0.000000 0.350297
O O5 0.500000 0.500000 0.422558
O O6 0.750000 0.375621 0.393912
O O7 0.577240 0.259179 0.459548
O O8 0.250000 0.727837 0.752170
O O9 0.405971 0.603951 0.685900
O O10 0.421020 0.889562 0.704750
O O11 0.500000 0.500000 0.987782
O O12 0.250000 0.403713 0.013663
O O13 0.469878 0.285784 0.053776
O O14 0.750000 0.779376 0.564541
O O15 0.905718 0.607539 0.617336
O O16 0.900757 0.898805 0.633188
#
# Coordination Sequence:
#
# PCOD8184206 Si02
#       7
#     8   8   8   8   8   4   4
#     4  11  23  42  68  98 131 175 217 269 323 384
#     4  11  26  47  70 100 130 167 209 266 329 392
#     4  10  21  39  61  90 131 172 215 263 318 377
#     4  11  25  44  68  95 129 169 213 262 321 386
#     4  11  23  39  64  95 129 172 218 267 320 375
#     4  10  22  38  60  92 130 172 220 262 322 372
#     4  10  22  40  60  92 130 174 218 262 322 372
#
# _framework density 20.923649999999999
#
# number of rings (size 3 to 8) (size 9 to 14) (size 15 to 20)
#    0.000    1.333    1.667    3.000    2.333    7.333 
#    0.000    1.667    0.000    0.000    0.000    0.000 
#    0.000    0.000    0.000    0.000    0.000    0.000 
#
# Total GULP energy -297346.887975 kJ/mol
# GULP energy per Si atom -12389.453666 kJ/mol
# Density = 2.087603 g / cm^3
# Si number density = 20.923650 Si / 1000 Ang^3
#
#
#
# Elastic Constant Matrix: (Units=GPa)
#
#
# Indices 1 2 3 4 5 6 
#
# 1 155.9201 57.6366 47.8706 0.0000 0.0000 0.0000
# 2 57.6366 146.0316 44.5759 0.0000 0.0000 0.0000
# 3 47.8706 44.5759 92.2884 0.0000 0.0000 0.0000
# 4 0.0000 0.0000 0.0000 -160.5974 0.0000 0.0000
# 5 0.0000 0.0000 0.0000 0.0000 30.7722 0.0000
# 6 0.0000 0.0000 0.0000 0.0000 0.0000 21.9501
#
#
#
# Elastic Compliance Matrix: (Units=1/GPa)
#
#
# Indices 1 2 3 4 5 6 
#
# 1 0.008229 -0.002281 -0.003167 0.000000 0.000000 0.000000
# 2 -0.002281 0.008664 -0.003002 0.000000 0.000000 0.000000
# 3 -0.003167 -0.003002 0.013928 0.000000 0.000000 0.000000
# 4 0.000000 0.000000 0.000000 -0.006227 0.000000 0.000000
# 5 0.000000 0.000000 0.000000 0.000000 0.032497 0.000000
# 6 0.000000 0.000000 0.000000 0.000000 0.000000 0.045558
#
#
# Mechanical properties :
#
#
# Convention : Reuss Voigt Hill
#
# Bulk Modulus (GPa) = 71.82682 77.15624 74.49153
# Shear Modulus (GPa) = 40.26112 -5.29788 17.48162
#
# Velocity S-wave (km/s) = 4.39132 -1.59295 2.89363
# Velocity P-wave (km/s) = 7.75333 5.79412 6.84420
#
# Compressibility (1/GPa) = 0.01392238
#
# Stress axis : x y z
#
# Youngs Moduli (GPa) = 121.52089 115.41376 71.79806
#
# Poissons Ratio (x) = 0.26329 0.22735
# Poissons Ratio (y) = 0.27722 0.21551
# Poissons Ratio (z) = 0.38481 0.34643
#
# Static dielectric constant tensor:
#      x y z
#    x 3.801060 0.000000 0.000000 
#    y 0.000000 4.549830 0.000000 
#    z 0.000000 0.000000 3.771600 
# 
# 
# High freq. dielectric constant tensor:
#      x y z
#    x 1.817500 0.000000 0.000000 
#    y 0.000000 1.833760 0.000000 
#    z 0.000000 0.000000 1.828170 
# 
# From -- ./inp_files/26187.got.cif
#   From: 2010.03.12/outbox.cif.g09.slc.cpg/sg40_14_cif.got.tgz:26187.got - 2010.04.14 01:38:03.
