data_PCOD8184246
_publ_section_title
;
Structure prediction by ZEFSAII (Michael W. Deem and Ramdas Pophale) SiO2 
 PCOD8184246
Probable space group: A M A 2
;
_chemical_formula_sum "Si O2"
_cell_formula_units_Z 60
_cell_length_a 30.530587
_cell_length_b 9.165552
_cell_length_c 10.592258
_cell_angle_alpha 90.000000
_cell_angle_beta 90.000000
_cell_angle_gamma 90.000000
_cell_volume 2964.028196
_symmetry_space_group_name_H-M "A M A 2"
_symmetry_group_IT_number 40
_symmetry_cell_setting 'orthorhombic'
loop_
_space_group_symop_operation_xyz
x,y,z
-x,-y,z
1/2-x,y,z
1/2+x,-y,z
x,1/2+y,1/2+z
-x,1/2-y,1/2+z
1/2-x,1/2+y,1/2+z
1/2+x,1/2-y,1/2+z
loop_
_atom_site_type_symbol
_atom_site_label
_atom_site_fract_x
_atom_site_fract_y
_atom_site_fract_z
Si Si1 0.798389 0.666537 0.868890
Si Si2 0.167562 0.529848 0.368400
Si Si3 0.071355 0.168396 0.872851
Si Si4 0.000000 0.500000 0.218541
Si Si5 0.480395 0.199531 0.122480
Si Si6 0.062252 0.440851 0.705749
Si Si7 0.802413 0.684543 0.152558
Si Si8 0.841707 0.000833 0.144208
O O1 0.750000 0.604042 0.848033
O O2 0.797115 0.841378 0.856157
O O3 0.827840 0.603668 0.758418
O O4 0.814161 0.625642 0.011612
O O5 0.120060 0.605716 0.364374
O O6 0.175156 0.419844 0.254452
O O7 0.175484 0.451196 0.504648
O O8 0.070285 0.337245 0.826564
O O9 0.052270 0.160424 0.011368
O O10 0.039796 0.066391 0.794224
O O11 0.977638 0.627779 0.138271
O O12 0.531013 0.147651 0.105534
O O13 0.461460 0.097666 0.238953
O O14 0.106502 0.483481 0.635066
O O15 0.750000 0.696375 0.171340
O O16 0.825253 0.839113 0.175154
#
# Coordination Sequence:
#
# PCOD8184246 Si02
#       8
#     8   8   8   4   8   8   8   8
#     4  10  22  42  65  90 129 171 212 270 333 389
#     4  11  23  39  68  95 128 170 218 271 318 392
#     4  11  22  40  62  90 127 167 214 260 322 378
#     4  10  24  36  62  90 118 168 210 254 318 380
#     4  10  22  41  61  88 128 165 208 267 317 374
#     4  10  21  40  63  90 128 167 213 260 322 378
#     4  10  24  43  64  96 132 170 216 274 334 389
#     4  11  22  41  66  98 127 171 214 269 322 393
#
# _framework density 20.242721
#
# number of rings (size 3 to 8) (size 9 to 14) (size 15 to 20)
#    0.000    1.600    2.667    1.600    1.867    4.800 
#    0.000    1.333    0.000    0.000    0.000    0.000 
#    0.000    0.000    0.000    0.000    0.000    0.000 
#
# Total GULP energy -371656.506802 kJ/mol
# GULP energy per Si atom -12388.550227 kJ/mol
# Density = 2.019665 g / cm^3
# Si number density = 20.242721 Si / 1000 Ang^3
#
#
#
# Elastic Constant Matrix: (Units=GPa)
#
#
# Indices 1 2 3 4 5 6 
#
# 1 95.4871 42.7962 45.4955 0.0000 0.0000 0.0000
# 2 42.7962 108.1593 47.8735 0.0000 0.0000 0.0000
# 3 45.4955 47.8735 108.2074 0.0000 0.0000 0.0000
# 4 0.0000 0.0000 0.0000 31.1957 0.0000 0.0000
# 5 0.0000 0.0000 0.0000 0.0000 29.4922 0.0000
# 6 0.0000 0.0000 0.0000 0.0000 0.0000 30.6110
#
#
#
# Elastic Compliance Matrix: (Units=1/GPa)
#
#
# Indices 1 2 3 4 5 6 
#
# 1 0.014194 -0.003699 -0.004331 0.000000 0.000000 0.000000
# 2 -0.003699 0.012461 -0.003958 0.000000 0.000000 0.000000
# 3 -0.004331 -0.003958 0.012814 0.000000 0.000000 0.000000
# 4 0.000000 0.000000 0.000000 0.032056 0.000000 0.000000
# 5 0.000000 0.000000 0.000000 0.000000 0.033907 0.000000
# 6 0.000000 0.000000 0.000000 0.000000 0.000000 0.032668
#
#
# Mechanical properties :
#
#
# Convention : Reuss Voigt Hill
#
# Bulk Modulus (GPa) = 64.54788 64.90937 64.72862
# Shear Modulus (GPa) = 29.89701 29.97232 29.93466
#
# Velocity S-wave (km/s) = 3.84725 3.85209 3.84967
# Velocity P-wave (km/s) = 7.18966 7.20555 7.19761
#
# Compressibility (1/GPa) = 0.01549238
#
# Stress axis : x y z
#
# Youngs Moduli (GPa) = 70.45104 80.24964 78.04195
#
# Poissons Ratio (x) = 0.29686 0.33802
# Poissons Ratio (y) = 0.26061 0.30887
# Poissons Ratio (z) = 0.30515 0.31761
#
# Static dielectric constant tensor:
#      x y z
#    x 3.875130 0.000000 0.000000 
#    y 0.000000 3.794620 0.000000 
#    z 0.000000 0.000000 3.665140 
# 
# 
# High freq. dielectric constant tensor:
#      x y z
#    x 1.809750 0.000000 0.000000 
#    y 0.000000 1.789920 0.000000 
#    z 0.000000 0.000000 1.778890 
# 
# From -- ./inp_files/14243.got.cif
#   From: 2010.03.12/outbox.cif.g09.slc.cpg/sg40_8_cif.got.tgz:14243.got - 2010.04.14 01:38:03.
