data_PCOD8184701
_publ_section_title
;
Structure prediction by ZEFSAII (Michael W. Deem and Ramdas Pophale) SiO2 
 PCOD8184701
Probable space group: A M A 2
;
_chemical_formula_sum "Si O2"
_cell_formula_units_Z 40
_cell_length_a 24.721699
_cell_length_b 14.506264
_cell_length_c 5.027090
_cell_angle_alpha 90.000000
_cell_angle_beta 90.000000
_cell_angle_gamma 90.000000
_cell_volume 1802.812463
_symmetry_space_group_name_H-M "A M A 2"
_symmetry_group_IT_number 40
_symmetry_cell_setting 'orthorhombic'
loop_
_space_group_symop_operation_xyz
x,y,z
-x,-y,z
1/2-x,y,z
1/2+x,-y,z
x,1/2+y,1/2+z
-x,1/2-y,1/2+z
1/2-x,1/2+y,1/2+z
1/2+x,1/2-y,1/2+z
loop_
_atom_site_type_symbol
_atom_site_label
_atom_site_fract_x
_atom_site_fract_y
_atom_site_fract_z
Si Si1 0.464816 0.237789 0.731660
Si Si2 0.312470 0.191968 0.212510
Si Si3 0.350625 0.801108 0.214783
Si Si4 0.439858 0.031499 0.764993
Si Si5 0.372020 0.498895 0.754384
O O1 0.487007 0.237510 0.431669
O O2 0.415281 0.307903 0.768350
O O3 0.438232 0.140515 0.795763
O O4 0.250000 0.182484 0.287592
O O5 0.341690 0.256281 0.427399
O O6 0.337317 0.090110 0.200348
O O7 0.318387 0.240831 0.928182
O O8 0.332895 0.908875 0.225956
O O9 0.397271 0.999275 0.546168
O O10 0.500000 0.000000 0.691657
O O11 0.420937 0.989377 0.044019
#
# Coordination Sequence:
#
# PCOD8184701 Si02
#       5
#     8   8   8   8   8
#     4  12  22  38  64 100 139 181 224 272 337 411
#     4  12  26  47  71  99 134 181 234 292 346 400
#     4  12  25  46  70 101 141 177 230 289 344 411
#     4  12  23  41  66 101 143 182 227 278 338 416
#     4  12  24  46  69  99 139 179 227 288 341 410
#
# _framework density 22.187553000000001
#
# number of rings (size 3 to 8) (size 9 to 14) (size 15 to 20)
#    0.000    0.000    4.000    7.200    0.000    1.600 
#    0.000    0.000    0.000    0.000    0.000    0.000 
#    0.000    0.000    0.000    0.000    0.000    0.000 
#
# Total GULP energy -248135.561332 kJ/mol
# GULP energy per Si atom -12406.778067 kJ/mol
# Density = 2.213705 g / cm^3
# Si number density = 22.187553 Si / 1000 Ang^3
#
#
#
# Elastic Constant Matrix: (Units=GPa)
#
#
# Indices 1 2 3 4 5 6 
#
# 1 88.3314 27.4957 10.3361 0.0000 0.0000 0.0000
# 2 27.4957 163.0649 24.9836 0.0000 0.0000 0.0000
# 3 10.3361 24.9836 93.2613 0.0000 0.0000 0.0000
# 4 0.0000 0.0000 0.0000 29.3668 0.0000 0.0000
# 5 0.0000 0.0000 0.0000 0.0000 27.2076 0.0000
# 6 0.0000 0.0000 0.0000 0.0000 0.0000 18.0808
#
#
#
# Elastic Compliance Matrix: (Units=1/GPa)
#
#
# Indices 1 2 3 4 5 6 
#
# 1 0.012008 -0.001899 -0.000822 0.000000 0.000000 0.000000
# 2 -0.001899 0.006695 -0.001583 0.000000 0.000000 0.000000
# 3 -0.000822 -0.001583 0.011238 0.000000 0.000000 0.000000
# 4 0.000000 0.000000 0.000000 0.034052 0.000000 0.000000
# 5 0.000000 0.000000 0.000000 0.000000 0.036754 0.000000
# 6 0.000000 0.000000 0.000000 0.000000 0.000000 0.055307
#
#
# Mechanical properties :
#
#
# Convention : Reuss Voigt Hill
#
# Bulk Modulus (GPa) = 46.87574 52.25426 49.56500
# Shear Modulus (GPa) = 29.10791 33.72051 31.41421
#
# Velocity S-wave (km/s) = 3.62595 3.90268 3.76686
# Velocity P-wave (km/s) = 6.22117 6.62648 6.42702
#
# Compressibility (1/GPa) = 0.02133300
#
# Stress axis : x y z
#
# Youngs Moduli (GPa) = 83.27589 149.35935 88.98547
#
# Poissons Ratio (x) = 0.28361 0.07316
# Poissons Ratio (y) = 0.15813 0.14088
# Poissons Ratio (z) = 0.06847 0.23646
#
# Static dielectric constant tensor:
#      x y z
#    x 3.835480 0.000000 0.000000 
#    y 0.000000 4.294530 0.000000 
#    z 0.000000 0.000000 4.099140 
# 
# 
# High freq. dielectric constant tensor:
#      x y z
#    x 1.859600 0.000000 0.000000 
#    y 0.000000 1.893460 0.000000 
#    z 0.000000 0.000000 1.886410 
# 
# From -- ./inp_files/2646.got.cif
#   From: 2010.03.12/outbox.cif.g09.slc.cpg/sg40_2_cif.got.tgz:2646.got - 2010.04.14 01:38:03.
