data_PCOD8184396
_publ_section_title
;
Structure prediction by ZEFSAII (Michael W. Deem and Ramdas Pophale) SiO2 
 PCOD8184396
Probable space group: A M A 2
;
_chemical_formula_sum "Si O2"
_cell_formula_units_Z 40
_cell_length_a 10.122005
_cell_length_b 16.947737
_cell_length_c 10.363110
_cell_angle_alpha 90.000000
_cell_angle_beta 90.000000
_cell_angle_gamma 90.000000
_cell_volume 1777.740520
_symmetry_space_group_name_H-M "A M A 2"
_symmetry_group_IT_number 40
_symmetry_cell_setting 'orthorhombic'
loop_
_space_group_symop_operation_xyz
x,y,z
-x,-y,z
1/2-x,y,z
1/2+x,-y,z
x,1/2+y,1/2+z
-x,1/2-y,1/2+z
1/2-x,1/2+y,1/2+z
1/2+x,1/2-y,1/2+z
loop_
_atom_site_type_symbol
_atom_site_label
_atom_site_fract_x
_atom_site_fract_y
_atom_site_fract_z
Si Si1 0.250000 0.316946 0.678140
Si Si2 0.989304 0.093791 0.543579
Si Si3 0.406959 0.424495 0.316335
Si Si4 0.750000 0.816679 0.466806
Si Si5 0.250000 0.816946 0.454529
Si Si6 0.750000 0.316679 0.665864
Si Si7 0.510696 0.093791 0.089091
O O1 0.250000 0.259816 0.556105
O O2 0.250000 0.270801 0.816335
O O3 0.376431 0.373887 0.681660
O O4 0.947129 0.123133 0.687758
O O5 0.876431 0.126113 0.451010
O O6 0.125732 0.130337 0.500128
O O7 0.000000 0.000000 0.533802
O O8 0.500000 0.500000 0.316334
O O9 0.250000 0.446039 0.316335
O O10 0.447129 0.376867 0.444912
O O11 0.750000 0.790415 0.316335
O O12 0.250000 0.759816 0.576564
O O13 0.625732 0.369663 0.632541
O O14 0.500000 0.000000 0.098868
#
# Coordination Sequence:
#
# PCOD8184396 Si02
#       7
#     4   8   8   4   4   4   8
#     4  12  27  47  72 104 146 193 238 297 371 439
#     4  11  25  45  75 106 143 186 244 302 360 425
#     4  10  22  40  72 112 146 182 229 296 364 422
#     4  12  29  47  72 104 146 195 238 297 369 435
#     4  12  27  47  72 104 146 193 238 297 371 439
#     4  12  29  47  72 104 146 195 238 297 369 435
#     4  11  25  45  75 106 143 186 244 302 360 425
#
# _framework density 22.500471000000001
#
# number of rings (size 3 to 8) (size 9 to 14) (size 15 to 20)
#    0.000    0.800    2.000    3.600   14.000    4.800 
#    0.000    0.000    0.000    0.000    0.000    0.000 
#    0.000    0.000    0.000    0.000    0.000    0.000 
#
# Total GULP energy -247927.160715 kJ/mol
# GULP energy per Si atom -12396.358036 kJ/mol
# Density = 2.244926 g / cm^3
# Si number density = 22.500471 Si / 1000 Ang^3
#
#
#
# Elastic Constant Matrix: (Units=GPa)
#
#
# Indices 1 2 3 4 5 6 
#
# 1 213.9382 54.2354 66.7321 0.0000 0.0000 0.0000
# 2 54.2354 113.8332 56.9546 0.0000 0.0000 0.0000
# 3 66.7321 56.9546 201.2504 0.0000 0.0000 0.0000
# 4 0.0000 0.0000 0.0000 -199.9729 0.0000 0.0000
# 5 0.0000 0.0000 0.0000 0.0000 51.4698 0.0000
# 6 0.0000 0.0000 0.0000 0.0000 0.0000 30.0003
#
#
#
# Elastic Compliance Matrix: (Units=1/GPa)
#
#
# Indices 1 2 3 4 5 6 
#
# 1 0.005586 -0.002021 -0.001280 0.000000 0.000000 0.000000
# 2 -0.002021 0.010965 -0.002433 0.000000 0.000000 0.000000
# 3 -0.001280 -0.002433 0.006082 0.000000 0.000000 0.000000
# 4 0.000000 0.000000 0.000000 -0.005001 0.000000 0.000000
# 5 0.000000 0.000000 0.000000 0.000000 0.019429 0.000000
# 6 0.000000 0.000000 0.000000 0.000000 0.000000 0.033333
#
#
# Mechanical properties :
#
#
# Convention : Reuss Voigt Hill
#
# Bulk Modulus (GPa) = 89.56936 98.31846 93.94391
# Shear Modulus (GPa) = 58.42220 -0.29391 29.06414
#
# Velocity S-wave (km/s) = 5.10110 -0.36181 3.59794
# Velocity P-wave (km/s) = 8.63650 6.60428 7.68784
#
# Compressibility (1/GPa) = 0.01116453
#
# Stress axis : x y z
#
# Youngs Moduli (GPa) = 179.02223 91.19996 164.41865
#
# Poissons Ratio (x) = 0.18430 0.21051
# Poissons Ratio (y) = 0.36177 0.40004
# Poissons Ratio (z) = 0.22921 0.22189
#
# Static dielectric constant tensor:
#      x y z
#    x 4.198950 0.000000 0.000000 
#    y 0.000000 3.867670 0.000000 
#    z 0.000000 0.000000 4.945590 
# 
# 
# High freq. dielectric constant tensor:
#      x y z
#    x 1.912730 0.000000 0.000000 
#    y 0.000000 1.869150 0.000000 
#    z 0.000000 0.000000 1.912440 
# 
# From -- ./inp_files/10048.got.cif
#   From: 2010.03.12/outbox.cif.g09.slc.cpg/sg40_6_cif.got.tgz:10048.got - 2010.04.14 01:38:03.
