data_PCOD8184684
_publ_section_title
;
Structure prediction by ZEFSAII (Michael W. Deem and Ramdas Pophale) SiO2 
 PCOD8184684
Probable space group: A M A 2
;
_chemical_formula_sum "Si O2"
_cell_formula_units_Z 40
_cell_length_a 13.367218
_cell_length_b 8.911885
_cell_length_c 15.233123
_cell_angle_alpha 90.000000
_cell_angle_beta 90.000000
_cell_angle_gamma 90.000000
_cell_volume 1814.677913
_symmetry_space_group_name_H-M "A M A 2"
_symmetry_group_IT_number 40
_symmetry_cell_setting 'orthorhombic'
loop_
_space_group_symop_operation_xyz
x,y,z
-x,-y,z
1/2-x,y,z
1/2+x,-y,z
x,1/2+y,1/2+z
-x,1/2-y,1/2+z
1/2-x,1/2+y,1/2+z
1/2+x,1/2-y,1/2+z
loop_
_atom_site_type_symbol
_atom_site_label
_atom_site_fract_x
_atom_site_fract_y
_atom_site_fract_z
Si Si1 0.750000 0.209516 0.342340
Si Si2 0.413240 0.228430 0.143160
Si Si3 0.750000 0.513983 0.684020
Si Si4 0.034120 0.171519 0.808588
Si Si5 0.541090 0.663680 0.483123
Si Si6 0.250000 0.260797 0.536939
Si Si7 0.250000 0.904848 0.545210
O O1 0.750000 0.050729 0.288410
O O2 0.845868 0.305835 0.309254
O O3 0.750000 0.176864 0.448510
O O4 0.472873 0.249413 0.232131
O O5 0.344545 0.362077 0.105900
O O6 0.348418 0.077220 0.153868
O O7 0.502109 0.223529 0.074251
O O8 0.750000 0.674807 0.635671
O O9 0.997598 0.254371 0.898053
O O10 0.000000 0.000000 0.802683
O O11 0.500000 0.500000 0.466556
O O12 0.659606 0.670449 0.482110
O O13 0.250000 0.082121 0.534738
#
# Coordination Sequence:
#
# PCOD8184684 Si02
#       7
#     4   8   4   8   8   4   4
#     4  12  26  51  71 113 143 201 241 315 368 444
#     4  11  25  49  70 110 144 201 240 304 363 442
#     4  11  26  45  81 100 155 192 251 295 369 448
#     4  11  28  45  77 107 150 193 248 310 367 443
#     4  11  24  46  73 102 142 195 248 295 361 444
#     4  12  26  43  75 111 141 195 241 306 368 440
#     4  11  28  47  77 104 159 184 253 302 379 432
#
# _framework density 22.042479
#
# number of rings (size 3 to 8) (size 9 to 14) (size 15 to 20)
#    0.000    0.800    4.000    1.200    8.400    4.800 
#    0.000    0.000    0.000    0.000    0.000    0.000 
#    0.000    0.000    0.000    0.000    0.000    0.000 
#
# Total GULP energy -247808.115630 kJ/mol
# GULP energy per Si atom -12390.405781 kJ/mol
# Density = 2.199231 g / cm^3
# Si number density = 22.042479 Si / 1000 Ang^3
#
#
#
# Elastic Constant Matrix: (Units=GPa)
#
#
# Indices 1 2 3 4 5 6 
#
# 1 201.5222 56.0768 64.7317 0.0000 0.0000 0.0000
# 2 56.0768 100.2119 37.4064 0.0000 0.0000 0.0000
# 3 64.7317 37.4064 146.6601 0.0000 0.0000 0.0000
# 4 0.0000 0.0000 0.0000 28.9688 0.0000 0.0000
# 5 0.0000 0.0000 0.0000 0.0000 42.0895 0.0000
# 6 0.0000 0.0000 0.0000 0.0000 0.0000 20.4678
#
#
#
# Elastic Compliance Matrix: (Units=1/GPa)
#
#
# Indices 1 2 3 4 5 6 
#
# 1 0.006423 -0.002803 -0.002120 0.000000 0.000000 0.000000
# 2 -0.002803 0.012252 -0.001888 0.000000 0.000000 0.000000
# 3 -0.002120 -0.001888 0.008236 0.000000 0.000000 0.000000
# 4 0.000000 0.000000 0.000000 0.034520 0.000000 0.000000
# 5 0.000000 0.000000 0.000000 0.000000 0.023759 0.000000
# 6 0.000000 0.000000 0.000000 0.000000 0.000000 0.048857
#
#
# Mechanical properties :
#
#
# Convention : Reuss Voigt Hill
#
# Bulk Modulus (GPa) = 75.24882 84.98042 80.11462
# Shear Modulus (GPa) = 32.87344 37.65049 35.26197
#
# Velocity S-wave (km/s) = 3.86601 4.13739 4.00400
# Velocity P-wave (km/s) = 7.35801 7.83969 7.60266
#
# Compressibility (1/GPa) = 0.01328924
#
# Stress axis : x y z
#
# Youngs Moduli (GPa) = 155.68549 81.61944 121.42193
#
# Poissons Ratio (x) = 0.22877 0.25743
# Poissons Ratio (y) = 0.43637 0.22922
# Poissons Ratio (z) = 0.33007 0.15408
#
# Static dielectric constant tensor:
#      x y z
#    x 4.278600 0.000000 0.000000 
#    y 0.000000 3.731880 0.000000 
#    z 0.000000 0.000000 4.773260 
# 
# 
# High freq. dielectric constant tensor:
#      x y z
#    x 1.889140 0.000000 0.000000 
#    y 0.000000 1.846360 0.000000 
#    z 0.000000 0.000000 1.892440 
# 
# From -- ./inp_files/19910.got.cif
#   From: 2010.03.12/outbox.cif.g09.slc.cpg/sg40_10_cif.got.tgz:19910.got - 2010.04.14 01:38:03.
