data_PCOD8184867
_publ_section_title
;
Structure prediction by ZEFSAII (Michael W. Deem and Ramdas Pophale) SiO2 
 PCOD8184867
Probable space group: A B A 2
;
_chemical_formula_sum "Si O2"
_cell_formula_units_Z 64
_cell_length_a 17.927850
_cell_length_b 14.349106
_cell_length_c 11.833185
_cell_angle_alpha 90.000000
_cell_angle_beta 90.000000
_cell_angle_gamma 90.000000
_cell_volume 3044.070511
_symmetry_space_group_name_H-M "A B A 2"
_symmetry_group_IT_number 41
_symmetry_cell_setting 'orthorhombic'
loop_
_space_group_symop_operation_xyz
x,y,z
-x,-y,z
1/2-x,y,1/2+z
1/2+x,-y,1/2+z
x,1/2+y,1/2+z
-x,1/2-y,1/2+z
1/2-x,1/2+y,z
1/2+x,1/2-y,z
loop_
_atom_site_type_symbol
_atom_site_label
_atom_site_fract_x
_atom_site_fract_y
_atom_site_fract_z
Si Si1 0.195485 0.864951 0.587650
Si Si2 0.676340 0.518189 0.372630
Si Si3 0.341341 0.028264 0.334011
Si Si4 0.072540 0.652230 0.170923
Si Si5 0.619747 0.330896 0.431258
Si Si6 0.786627 0.796428 0.936306
Si Si7 0.329403 0.815966 0.730478
Si Si8 0.083979 0.853373 0.792631
O O1 0.170633 0.771399 0.521590
O O2 0.281694 0.853764 0.624780
O O3 0.144568 0.871546 0.696275
O O4 0.186614 0.953737 0.504857
O O5 0.757327 0.507538 0.313656
O O6 0.626868 0.425057 0.357052
O O7 0.635568 0.598787 0.302064
O O8 0.370448 0.074345 0.217133
O O9 0.336267 0.109239 0.429832
O O10 0.396456 0.943027 0.373185
O O11 0.100018 0.757494 0.189700
O O12 0.996035 0.636825 0.236756
O O13 0.064052 0.645163 0.035086
O O14 0.702813 0.313832 0.480943
O O15 0.590218 0.244256 0.357828
O O16 0.778066 0.748218 0.812895
#
# Coordination Sequence:
#
# PCOD8184867 Si02
#       8
#     8   8   8   8   8   8   8   8
#     4  11  19  38  66  94 128 165 215 265 331 380
#     4  10  22  37  67 101 120 162 217 280 320 375
#     4  10  21  40  61  95 127 160 217 266 320 386
#     4  11  25  40  65  92 132 178 212 264 338 399
#     4  11  22  40  62  95 125 165 225 268 323 391
#     4   9  19  35  63  96 124 159 210 275 314 375
#     4  10  19  38  62  93 128 163 210 269 323 382
#     4  12  24  42  64  93 134 177 211 271 330 398
#
# _framework density 21.024480000000001
#
# number of rings (size 3 to 8) (size 9 to 14) (size 15 to 20)
#    0.000    1.500    3.750    1.875    0.000    3.000 
#    2.250    1.875    0.000    0.000    0.000    0.000 
#    0.000    0.000    0.000    0.000    0.000    0.000 
#
# Total GULP energy -396597.964968 kJ/mol
# GULP energy per Si atom -12393.686405 kJ/mol
# Density = 2.097663 g / cm^3
# Si number density = 21.024480 Si / 1000 Ang^3
#
#
#
# Elastic Constant Matrix: (Units=GPa)
#
#
# Indices 1 2 3 4 5 6 
#
# 1 67.2171 24.0414 29.4424 0.0000 0.0000 0.0000
# 2 24.0414 134.7900 35.3685 0.0000 0.0000 0.0000
# 3 29.4424 35.3685 67.3173 0.0000 0.0000 0.0000
# 4 0.0000 0.0000 0.0000 31.7480 0.0000 0.0000
# 5 0.0000 0.0000 0.0000 0.0000 19.6995 0.0000
# 6 0.0000 0.0000 0.0000 0.0000 0.0000 22.9790
#
#
#
# Elastic Compliance Matrix: (Units=1/GPa)
#
#
# Indices 1 2 3 4 5 6 
#
# 1 0.018619 -0.001374 -0.007422 0.000000 0.000000 0.000000
# 2 -0.001374 0.008707 -0.003974 0.000000 0.000000 0.000000
# 3 -0.007422 -0.003974 0.020189 0.000000 0.000000 0.000000
# 4 0.000000 0.000000 0.000000 0.031498 0.000000 0.000000
# 5 0.000000 0.000000 0.000000 0.000000 0.050763 0.000000
# 6 0.000000 0.000000 0.000000 0.000000 0.000000 0.043518
#
#
# Mechanical properties :
#
#
# Convention : Reuss Voigt Hill
#
# Bulk Modulus (GPa) = 45.50278 49.66988 47.58633
# Shear Modulus (GPa) = 24.25333 26.91678 25.58506
#
# Velocity S-wave (km/s) = 3.40012 3.58195 3.49222
# Velocity P-wave (km/s) = 6.09132 6.38618 6.24049
#
# Compressibility (1/GPa) = 0.02197668
#
# Stress axis : x y z
#
# Youngs Moduli (GPa) = 53.70751 114.85506 49.53215
#
# Poissons Ratio (x) = 0.15775 0.36762
# Poissons Ratio (y) = 0.07377 0.19683
# Poissons Ratio (z) = 0.39861 0.45640
#
# Static dielectric constant tensor:
#      x y z
#    x 3.466790 0.000000 0.000000 
#    y 0.000000 4.222480 0.000000 
#    z 0.000000 0.000000 3.680460 
# 
# 
# High freq. dielectric constant tensor:
#      x y z
#    x 1.782680 0.000000 0.000000 
#    y 0.000000 1.852130 0.000000 
#    z 0.000000 0.000000 1.808060 
# 
# From -- ./inp_files/6044.got.cif
#   From: 2010.03.12/outbox.cif.g09.slc.cpg/sg41_4_cif.got.tgz:6044.got - 2010.04.14 01:55:53.
