data_PCOD8184604
_publ_section_title
;
Structure prediction by ZEFSAII (Michael W. Deem and Ramdas Pophale) SiO2 
 PCOD8184604
Probable space group: A M A 2
;
_chemical_formula_sum "Si O2"
_cell_formula_units_Z 56
_cell_length_a 21.462191
_cell_length_b 9.522474
_cell_length_c 12.385707
_cell_angle_alpha 90.000000
_cell_angle_beta 90.000000
_cell_angle_gamma 90.000000
_cell_volume 2531.306026
_symmetry_space_group_name_H-M "A M A 2"
_symmetry_group_IT_number 40
_symmetry_cell_setting 'orthorhombic'
loop_
_space_group_symop_operation_xyz
x,y,z
-x,-y,z
1/2-x,y,z
1/2+x,-y,z
x,1/2+y,1/2+z
-x,1/2-y,1/2+z
1/2-x,1/2+y,1/2+z
1/2+x,1/2-y,1/2+z
loop_
_atom_site_type_symbol
_atom_site_label
_atom_site_fract_x
_atom_site_fract_y
_atom_site_fract_z
Si Si1 0.991846 0.653113 0.010940
Si Si2 0.176708 0.957275 0.216454
Si Si3 0.358106 0.249315 0.304228
Si Si4 0.821321 0.453944 0.228639
Si Si5 0.370559 0.742215 0.045813
Si Si6 0.014003 0.848287 0.748406
Si Si7 0.101317 0.252942 0.842586
O O1 0.961925 0.625123 0.127848
O O2 0.000000 0.500000 0.953834
O O3 0.055794 0.738726 0.020964
O O4 0.938142 0.743365 0.952287
O O5 0.250000 0.929105 0.218648
O O6 0.162065 0.121226 0.227362
O O7 0.148498 0.886204 0.107942
O O8 0.144506 0.887778 0.322033
O O9 0.328461 0.380240 0.240600
O O10 0.334983 0.236353 0.428956
O O11 0.433003 0.263705 0.312326
O O12 0.750000 0.408284 0.230119
O O13 0.850773 0.393053 0.117579
O O14 0.855460 0.385324 0.333178
O O15 0.951017 0.755738 0.747606
O O16 0.000000 0.000000 0.803756
#
# Coordination Sequence:
#
# PCOD8184604 Si02
#       7
#     8   8   8   8   8   8   8
#     4  11  21  38  68 102 140 179 231 291 359 426
#     4  11  26  46  67 104 147 183 238 293 343 430
#     4  12  25  44  73 105 139 187 237 294 356 411
#     4  11  24  45  72 100 140 191 236 282 346 426
#     4  11  23  46  72  99 139 192 233 285 357 419
#     4  11  21  41  66 100 143 173 234 297 347 423
#     4  11  21  40  69 102 135 181 232 289 355 414
#
# _framework density 22.122966999999999
#
# number of rings (size 3 to 8) (size 9 to 14) (size 15 to 20)
#    0.000    0.857    5.714    3.857    0.000    3.429 
#    0.000    2.857    0.000    8.571    0.000    0.000 
#    0.000    0.000    0.000    0.000    0.000    0.000 
#
# Total GULP energy -347028.076992 kJ/mol
# GULP energy per Si atom -12393.859893 kJ/mol
# Density = 2.207261 g / cm^3
# Si number density = 22.122967 Si / 1000 Ang^3
#
#
#
# Elastic Constant Matrix: (Units=GPa)
#
#
# Indices 1 2 3 4 5 6 
#
# 1 160.7127 46.5271 37.4865 0.0000 0.0000 0.0000
# 2 46.5271 150.8109 62.9904 0.0000 0.0000 0.0000
# 3 37.4865 62.9904 115.2362 0.0000 0.0000 0.0000
# 4 0.0000 0.0000 0.0000 25.2035 0.0000 0.0000
# 5 0.0000 0.0000 0.0000 0.0000 28.6966 0.0000
# 6 0.0000 0.0000 0.0000 0.0000 0.0000 28.5594
#
#
#
# Elastic Compliance Matrix: (Units=1/GPa)
#
#
# Indices 1 2 3 4 5 6 
#
# 1 0.007008 -0.001568 -0.001423 0.000000 0.000000 0.000000
# 2 -0.001568 0.008943 -0.004379 0.000000 0.000000 0.000000
# 3 -0.001423 -0.004379 0.011534 0.000000 0.000000 0.000000
# 4 0.000000 0.000000 0.000000 0.039677 0.000000 0.000000
# 5 0.000000 0.000000 0.000000 0.000000 0.034847 0.000000
# 6 0.000000 0.000000 0.000000 0.000000 0.000000 0.035015
#
#
# Mechanical properties :
#
#
# Convention : Reuss Voigt Hill
#
# Bulk Modulus (GPa) = 78.44880 80.08530 79.26705
# Shear Modulus (GPa) = 32.04882 35.14228 33.59555
#
# Velocity S-wave (km/s) = 3.81027 3.98992 3.90113
# Velocity P-wave (km/s) = 7.40910 7.58318 7.49665
#
# Compressibility (1/GPa) = 0.01274717
#
# Stress axis : x y z
#
# Youngs Moduli (GPa) = 142.69342 111.81483 86.69971
#
# Poissons Ratio (x) = 0.17531 0.12335
# Poissons Ratio (y) = 0.22372 0.37962
# Poissons Ratio (z) = 0.20301 0.48959
#
# Static dielectric constant tensor:
#      x y z
#    x 4.048830 0.000000 0.000000 
#    y 0.000000 3.954130 0.000000 
#    z 0.000000 0.000000 4.016720 
# 
# 
# High freq. dielectric constant tensor:
#      x y z
#    x 1.879480 0.000000 0.000000 
#    y 0.000000 1.867470 0.000000 
#    z 0.000000 0.000000 1.857940 
# 
# From -- ./inp_files/18240.got.cif
#   From: 2010.03.12/outbox.cif.g09.slc.cpg/sg40_10_cif.got.tgz:18240.got - 2010.04.14 01:38:03.
