data_PCOD8184358
_publ_section_title
;
Structure prediction by ZEFSAII (Michael W. Deem and Ramdas Pophale) SiO2 
 PCOD8184358
Probable space group: A M A 2
;
_chemical_formula_sum "Si O2"
_cell_formula_units_Z 56
_cell_length_a 14.692356
_cell_length_b 21.036390
_cell_length_c 8.920096
_cell_angle_alpha 90.000000
_cell_angle_beta 90.000000
_cell_angle_gamma 90.000000
_cell_volume 2756.970918
_symmetry_space_group_name_H-M "A M A 2"
_symmetry_group_IT_number 40
_symmetry_cell_setting 'orthorhombic'
loop_
_space_group_symop_operation_xyz
x,y,z
-x,-y,z
1/2-x,y,z
1/2+x,-y,z
x,1/2+y,1/2+z
-x,1/2-y,1/2+z
1/2-x,1/2+y,1/2+z
1/2+x,1/2-y,1/2+z
loop_
_atom_site_type_symbol
_atom_site_label
_atom_site_fract_x
_atom_site_fract_y
_atom_site_fract_z
Si Si1 0.645048 0.901701 0.552330
Si Si2 0.852331 0.276316 0.222873
Si Si3 0.351045 0.456340 0.088947
Si Si4 0.648090 0.268729 0.571337
Si Si5 0.647803 0.155331 0.799913
Si Si6 0.532900 0.168073 0.089768
Si Si7 0.489014 0.927514 0.339620
O O1 0.750000 0.896009 0.500148
O O2 0.622704 0.849455 0.680624
O O3 0.582426 0.895591 0.402936
O O4 0.622854 0.970550 0.625388
O O5 0.750000 0.262369 0.167730
O O6 0.861887 0.256084 0.394888
O O7 0.921387 0.234040 0.131634
O O8 0.250000 0.453442 0.019157
O O9 0.355919 0.416461 0.240684
O O10 0.417140 0.423532 0.972134
O O11 0.750000 0.293560 0.607893
O O12 0.626317 0.205295 0.666544
O O13 0.575920 0.324012 0.604090
O O14 0.750000 0.168894 0.864358
O O15 0.568863 0.155895 0.923072
O O16 0.554834 0.110329 0.200667
O O17 0.500000 0.000000 0.285245
#
# Coordination Sequence:
#
# PCOD8184358 Si02
#       7
#     8   8   8   8   8   8   8
#     4   9  20  39  65  91 118 156 203 249 302 364
#     4  10  22  39  62  91 119 151 197 248 302 366
#     4   9  19  39  65  88 118 158 200 250 301 357
#     4  10  23  40  58  86 121 158 199 244 301 364
#     4  10  22  39  60  90 121 156 202 250 300 357
#     4  12  24  37  61  87 124 159 201 246 308 350
#     4  10  23  41  60  89 120 160 207 249 300 360
#
# _framework density 20.312147
#
# number of rings (size 3 to 8) (size 9 to 14) (size 15 to 20)
#    0.000    2.000    0.000    2.143    8.000    2.857 
#    2.571    0.000    0.000    0.000    0.000    0.000 
#    0.000    0.000    0.000    0.000    0.000    0.000 
#
# Total GULP energy -347066.314726 kJ/mol
# GULP energy per Si atom -12395.225526 kJ/mol
# Density = 2.026592 g / cm^3
# Si number density = 20.312147 Si / 1000 Ang^3
#
#
#
# Elastic Constant Matrix: (Units=GPa)
#
#
# Indices 1 2 3 4 5 6 
#
# 1 97.8298 51.3749 50.5645 0.0000 0.0000 0.0000
# 2 51.3749 101.3716 65.0430 0.0000 0.0000 0.0000
# 3 50.5645 65.0430 111.1693 0.0000 0.0000 0.0000
# 4 0.0000 0.0000 0.0000 30.2325 0.0000 0.0000
# 5 0.0000 0.0000 0.0000 0.0000 24.7273 0.0000
# 6 0.0000 0.0000 0.0000 0.0000 0.0000 26.3120
#
#
#
# Elastic Compliance Matrix: (Units=1/GPa)
#
#
# Indices 1 2 3 4 5 6 
#
# 1 0.014852 -0.005111 -0.003765 0.000000 0.000000 0.000000
# 2 -0.005111 0.017553 -0.007945 0.000000 0.000000 0.000000
# 3 -0.003765 -0.007945 0.015356 0.000000 0.000000 0.000000
# 4 0.000000 0.000000 0.000000 0.033077 0.000000 0.000000
# 5 0.000000 0.000000 0.000000 0.000000 0.040441 0.000000
# 6 0.000000 0.000000 0.000000 0.000000 0.000000 0.038005
#
#
# Mechanical properties :
#
#
# Convention : Reuss Voigt Hill
#
# Bulk Modulus (GPa) = 70.82781 71.59283 71.21032
# Shear Modulus (GPa) = 25.29946 25.81359 25.55653
#
# Velocity S-wave (km/s) = 3.53304 3.56876 3.55094
# Velocity P-wave (km/s) = 7.18252 7.23217 7.20738
#
# Compressibility (1/GPa) = 0.01411875
#
# Stress axis : x y z
#
# Youngs Moduli (GPa) = 67.33161 56.97082 65.12071
#
# Poissons Ratio (x) = 0.29120 0.24516
# Poissons Ratio (y) = 0.34415 0.51738
# Poissons Ratio (z) = 0.25348 0.45263
#
# Static dielectric constant tensor:
#      x y z
#    x 4.089450 0.000000 0.000000 
#    y 0.000000 3.668330 0.000000 
#    z 0.000000 0.000000 3.477790 
# 
# 
# High freq. dielectric constant tensor:
#      x y z
#    x 1.813640 0.000000 0.000000 
#    y 0.000000 1.791570 0.000000 
#    z 0.000000 0.000000 1.772140 
# 
# From -- ./inp_files/6713.got.cif
#   From: 2010.03.12/outbox.cif.g09.slc.cpg/sg40_4_cif.got.tgz:6713.got - 2010.04.14 01:38:03.
