data_PCOD8184504
_publ_section_title
;
Structure prediction by ZEFSAII (Michael W. Deem and Ramdas Pophale) SiO2 
 PCOD8184504
Probable space group: A M A 2
;
_chemical_formula_sum "Si O2"
_cell_formula_units_Z 64
_cell_length_a 17.764795
_cell_length_b 11.880187
_cell_length_c 14.975140
_cell_angle_alpha 90.000000
_cell_angle_beta 90.000000
_cell_angle_gamma 90.000000
_cell_volume 3160.489619
_symmetry_space_group_name_H-M "A M A 2"
_symmetry_group_IT_number 40
_symmetry_cell_setting 'orthorhombic'
loop_
_space_group_symop_operation_xyz
x,y,z
-x,-y,z
1/2-x,y,z
1/2+x,-y,z
x,1/2+y,1/2+z
-x,1/2-y,1/2+z
1/2-x,1/2+y,1/2+z
1/2+x,1/2-y,1/2+z
loop_
_atom_site_type_symbol
_atom_site_label
_atom_site_fract_x
_atom_site_fract_y
_atom_site_fract_z
Si Si1 0.664952 0.199592 0.165740
Si Si2 0.427433 0.691983 0.783656
Si Si3 0.416783 0.022113 0.118696
Si Si4 0.913610 0.488713 0.929712
Si Si5 0.838747 0.435875 0.109843
Si Si6 0.404105 0.780091 0.340483
Si Si7 0.662035 0.416352 0.439986
Si Si8 0.661716 0.077768 0.777590
O O1 0.750000 0.164459 0.141553
O O2 0.636493 0.304508 0.105798
O O3 0.659566 0.246388 0.266719
O O4 0.609716 0.094784 0.160891
O O5 0.418510 0.617776 0.694334
O O6 0.399426 0.621435 0.869561
O O7 0.513124 0.730338 0.797841
O O8 0.376756 0.801318 0.774973
O O9 0.500000 0.000000 0.080046
O O10 0.359296 0.049867 0.040038
O O11 0.887633 0.595476 0.874242
O O12 0.000000 0.500000 0.957820
O O13 0.865468 0.491341 0.019061
O O14 0.750000 0.441520 0.117188
O O15 0.871355 0.502678 0.195881
O O16 0.390824 0.690202 0.418572
O O17 0.750000 0.384517 0.436976
O O18 0.643645 0.517465 0.371605
O O19 0.750000 0.098323 0.766333
#
# Coordination Sequence:
#
# PCOD8184504 Si02
#       8
#     8   8   8   8   8   8   8   8
#     4  11  22  42  69  91 125 175 219 263 321 387
#     4  11  24  44  65  95 134 169 217 274 335 389
#     4  12  25  44  67  99 134 171 216 276 329 393
#     4  10  23  42  64  92 127 165 211 266 322 385
#     4  10  23  42  64  94 127 167 215 261 316 383
#     4  11  22  44  68  92 128 173 218 273 320 387
#     4  11  26  45  66  98 135 176 225 270 326 397
#     4  10  24  44  62  90 135 173 213 271 327 391
#
# _framework density 20.250026999999999
#
# number of rings (size 3 to 8) (size 9 to 14) (size 15 to 20)
#    0.000    1.250    3.750    1.125    5.250    4.500 
#    0.000    0.000    0.000    0.000    0.000    0.000 
#    0.000    0.000    0.000    0.000    0.000    0.000 
#
# Total GULP energy -396834.860742 kJ/mol
# GULP energy per Si atom -12401.089398 kJ/mol
# Density = 2.020394 g / cm^3
# Si number density = 20.250027 Si / 1000 Ang^3
#
#
#
# Elastic Constant Matrix: (Units=GPa)
#
#
# Indices 1 2 3 4 5 6 
#
# 1 63.1807 60.4770 34.5545 0.0000 0.0000 0.0000
# 2 60.4770 117.1500 29.9277 0.0000 0.0000 0.0000
# 3 34.5545 29.9277 108.8308 0.0000 0.0000 0.0000
# 4 0.0000 0.0000 0.0000 21.8881 0.0000 0.0000
# 5 0.0000 0.0000 0.0000 0.0000 37.7220 0.0000
# 6 0.0000 0.0000 0.0000 0.0000 0.0000 34.6321
#
#
#
# Elastic Compliance Matrix: (Units=1/GPa)
#
#
# Indices 1 2 3 4 5 6 
#
# 1 0.035269 -0.016506 -0.006659 0.000000 0.000000 0.000000
# 2 -0.016506 0.016906 0.000592 0.000000 0.000000 0.000000
# 3 -0.006659 0.000592 0.011140 0.000000 0.000000 0.000000
# 4 0.000000 0.000000 0.000000 0.045687 0.000000 0.000000
# 5 0.000000 0.000000 0.000000 0.000000 0.026510 0.000000
# 6 0.000000 0.000000 0.000000 0.000000 0.000000 0.028875
#
#
# Mechanical properties :
#
#
# Convention : Reuss Voigt Hill
#
# Bulk Modulus (GPa) = 55.04049 59.89778 57.46913
# Shear Modulus (GPa) = 23.19213 29.79527 26.49370
#
# Velocity S-wave (km/s) = 3.38788 3.84000 3.62101
# Velocity P-wave (km/s) = 6.52251 7.02169 6.77670
#
# Compressibility (1/GPa) = 0.01816844
#
# Stress axis : x y z
#
# Youngs Moduli (GPa) = 28.35315 59.15078 89.76522
#
# Poissons Ratio (x) = 0.97635 0.59776
# Poissons Ratio (y) = 0.46800 -0.05312
# Poissons Ratio (z) = 0.18881 -0.03501
#
# Static dielectric constant tensor:
#      x y z
#    x 3.574180 0.000000 0.000000 
#    y 0.000000 3.517060 0.000000 
#    z 0.000000 0.000000 3.648470 
# 
# 
# High freq. dielectric constant tensor:
#      x y z
#    x 1.787210 0.000000 0.000000 
#    y 0.000000 1.803520 0.000000 
#    z 0.000000 0.000000 1.797520 
# 
# From -- ./inp_files/17838.got.cif
#   From: 2010.03.12/outbox.cif.g09.slc.cpg/sg40_9_cif.got.tgz:17838.got - 2010.04.14 01:38:03.
