data_PCOD8184524
_publ_section_title
;
Structure prediction by ZEFSAII (Michael W. Deem and Ramdas Pophale) SiO2 
 PCOD8184524
Probable space group: A M A 2
;
_chemical_formula_sum "Si O2"
_cell_formula_units_Z 64
_cell_length_a 17.048569
_cell_length_b 15.133735
_cell_length_c 11.862213
_cell_angle_alpha 90.000000
_cell_angle_beta 90.000000
_cell_angle_gamma 90.000000
_cell_volume 3060.552084
_symmetry_space_group_name_H-M "A M A 2"
_symmetry_group_IT_number 40
_symmetry_cell_setting 'orthorhombic'
loop_
_space_group_symop_operation_xyz
x,y,z
-x,-y,z
1/2-x,y,z
1/2+x,-y,z
x,1/2+y,1/2+z
-x,1/2-y,1/2+z
1/2-x,1/2+y,1/2+z
1/2+x,1/2-y,1/2+z
loop_
_atom_site_type_symbol
_atom_site_label
_atom_site_fract_x
_atom_site_fract_y
_atom_site_fract_z
Si Si1 0.592991 0.183705 0.957920
Si Si2 0.340333 0.168558 0.844295
Si Si3 0.655528 0.812110 0.272467
Si Si4 0.658900 0.175288 0.197631
Si Si5 0.920831 0.554135 0.052623
Si Si6 0.589846 0.018260 0.797193
Si Si7 0.658416 0.508658 0.828614
Si Si8 0.925601 0.257540 0.544525
O O1 0.624250 0.266034 0.885983
O O2 0.604568 0.095440 0.885740
O O3 0.649101 0.174240 0.064647
O O4 0.504348 0.192168 0.004356
O O5 0.250000 0.159498 0.819633
O O6 0.379224 0.235053 0.751301
O O7 0.373302 0.070907 0.842023
O O8 0.354364 0.210253 0.966694
O O9 0.750000 0.797472 0.257390
O O10 0.602622 0.774969 0.171282
O O11 0.631527 0.914542 0.280487
O O12 0.750000 0.176104 0.228846
O O13 0.619691 0.087999 0.254617
O O14 0.877070 0.544293 0.173584
O O15 0.942422 0.654963 0.029008
O O16 0.000000 0.500000 0.044670
O O17 0.862009 0.517353 0.959447
O O18 0.500000 0.000000 0.778896
O O19 0.750000 0.515291 0.816173
#
# Coordination Sequence:
#
# PCOD8184524 Si02
#       8
#     8   8   8   8   8   8   8   8
#     4  12  26  43  71  98 138 177 226 286 344 411
#     4  11  25  45  70  99 136 182 230 280 345 420
#     4  11  26  46  68 102 141 181 229 287 351 416
#     4  10  24  43  67  98 133 177 224 280 342 407
#     4  11  24  43  68  97 134 173 226 282 340 407
#     4  11  25  45  64  98 137 176 225 282 342 408
#     4  10  23  44  68  96 131 171 223 278 336 405
#     4  12  25  44  72  99 136 183 228 288 346 416
#
# _framework density 20.911259999999999
#
# number of rings (size 3 to 8) (size 9 to 14) (size 15 to 20)
#    0.000    1.000    3.750    1.500    8.750    3.000 
#    0.000    0.000    0.000    0.000    0.000    0.000 
#    0.000    0.000    0.000    0.000    0.000    0.000 
#
# Total GULP energy -396784.123384 kJ/mol
# GULP energy per Si atom -12399.503856 kJ/mol
# Density = 2.086367 g / cm^3
# Si number density = 20.911260 Si / 1000 Ang^3
#
#
#
# Elastic Constant Matrix: (Units=GPa)
#
#
# Indices 1 2 3 4 5 6 
#
# 1 40.9306 48.8980 28.6183 0.0000 0.0000 0.0000
# 2 48.8980 147.6477 32.7293 0.0000 0.0000 0.0000
# 3 28.6183 32.7293 106.5625 0.0000 0.0000 0.0000
# 4 0.0000 0.0000 0.0000 36.5839 0.0000 0.0000
# 5 0.0000 0.0000 0.0000 0.0000 42.0120 0.0000
# 6 0.0000 0.0000 0.0000 0.0000 0.0000 15.9230
#
#
#
# Elastic Compliance Matrix: (Units=1/GPa)
#
#
# Indices 1 2 3 4 5 6 
#
# 1 0.046396 -0.013524 -0.008306 0.000000 0.000000 0.000000
# 2 -0.013524 0.011210 0.000189 0.000000 0.000000 0.000000
# 3 -0.008306 0.000189 0.011557 0.000000 0.000000 0.000000
# 4 0.000000 0.000000 0.000000 0.027334 0.000000 0.000000
# 5 0.000000 0.000000 0.000000 0.000000 0.023803 0.000000
# 6 0.000000 0.000000 0.000000 0.000000 0.000000 0.062802
#
#
# Mechanical properties :
#
#
# Convention : Reuss Voigt Hill
#
# Bulk Modulus (GPa) = 38.63996 57.29247 47.96621
# Shear Modulus (GPa) = 21.27554 31.23013 26.25283
#
# Velocity S-wave (km/s) = 3.19316 3.86872 3.54706
# Velocity P-wave (km/s) = 5.66685 6.88574 6.30582
#
# Compressibility (1/GPa) = 0.02587994
#
# Stress axis : x y z
#
# Youngs Moduli (GPa) = 21.55355 89.20665 86.52895
#
# Poissons Ratio (x) = 1.20645 0.71873
# Poissons Ratio (y) = 0.29149 -0.01636
# Poissons Ratio (z) = 0.17903 -0.01687
#
# Static dielectric constant tensor:
#      x y z
#    x 3.557190 0.000000 0.000000 
#    y 0.000000 4.068020 0.000000 
#    z 0.000000 0.000000 3.994030 
# 
# 
# High freq. dielectric constant tensor:
#      x y z
#    x 1.805900 0.000000 0.000000 
#    y 0.000000 1.840610 0.000000 
#    z 0.000000 0.000000 1.832640 
# 
# From -- ./inp_files/13111.got.cif
#   From: 2010.03.12/outbox.cif.g09.slc.cpg/sg40_7_cif.got.tgz:13111.got - 2010.04.14 01:38:03.
