data_PCOD8184675
_publ_section_title
;
Structure prediction by ZEFSAII (Michael W. Deem and Ramdas Pophale) SiO2 
 PCOD8184675
Probable space group: A M A 2
;
_chemical_formula_sum "Si O2"
_cell_formula_units_Z 40
_cell_length_a 13.878676
_cell_length_b 22.424891
_cell_length_c 5.663848
_cell_angle_alpha 90.000000
_cell_angle_beta 90.000000
_cell_angle_gamma 90.000000
_cell_volume 1762.746933
_symmetry_space_group_name_H-M "A M A 2"
_symmetry_group_IT_number 40
_symmetry_cell_setting 'orthorhombic'
loop_
_space_group_symop_operation_xyz
x,y,z
-x,-y,z
1/2-x,y,z
1/2+x,-y,z
x,1/2+y,1/2+z
-x,1/2-y,1/2+z
1/2-x,1/2+y,1/2+z
1/2+x,1/2-y,1/2+z
loop_
_atom_site_type_symbol
_atom_site_label
_atom_site_fract_x
_atom_site_fract_y
_atom_site_fract_z
Si Si1 0.976204 0.819436 0.571440
Si Si2 0.414673 0.379919 0.440747
Si Si3 0.044389 0.059172 0.290113
Si Si4 0.750000 0.057427 0.720382
Si Si5 0.643821 0.721120 0.756474
Si Si6 0.750000 0.987777 0.219595
O O1 0.953816 0.881386 0.443580
O O2 0.883527 0.776254 0.582453
O O3 0.004893 0.835738 0.837833
O O4 0.064169 0.782538 0.459346
O O5 0.470871 0.433560 0.570270
O O6 0.347828 0.403659 0.225094
O O7 0.350361 0.341905 0.621206
O O8 0.154347 0.051805 0.207652
O O9 0.000000 0.000000 0.422295
O O10 0.750000 0.021255 0.476006
O O11 0.750000 0.026437 0.980599
O O12 0.750000 0.733250 0.863254
#
# Coordination Sequence:
#
# PCOD8184675 Si02
#       6
#     8   8   8   4   8   4
#     4  11  25  45  69 103 142 191 242 311 373 450
#     4  11  24  43  73 100 144 187 243 303 368 441
#     4  11  25  46  70 104 147 188 241 308 375 445
#     4  12  26  46  77 106 143 200 256 302 368 448
#     4  11  24  44  68 102 141 186 248 304 378 446
#     4  12  28  48  73 110 151 194 256 304 376 454
#
# _framework density 22.691853999999999
#
# number of rings (size 3 to 8) (size 9 to 14) (size 15 to 20)
#    0.000    0.800    5.000    1.200    8.400    0.800 
#    1.800    0.000    0.000    0.000    0.000    0.000 
#    0.000    0.000    0.000    0.000    0.000    0.000 
#
# Total GULP energy -247872.953516 kJ/mol
# GULP energy per Si atom -12393.647676 kJ/mol
# Density = 2.264021 g / cm^3
# Si number density = 22.691854 Si / 1000 Ang^3
#
#
#
# Elastic Constant Matrix: (Units=GPa)
#
#
# Indices 1 2 3 4 5 6 
#
# 1 130.5726 54.8131 4.8032 0.0000 0.0000 0.0000
# 2 54.8131 122.3605 21.9419 0.0000 0.0000 0.0000
# 3 4.8032 21.9419 74.9698 0.0000 0.0000 0.0000
# 4 0.0000 0.0000 0.0000 25.0765 0.0000 0.0000
# 5 0.0000 0.0000 0.0000 0.0000 28.1976 0.0000
# 6 0.0000 0.0000 0.0000 0.0000 0.0000 33.2255
#
#
#
# Elastic Compliance Matrix: (Units=1/GPa)
#
#
# Indices 1 2 3 4 5 6 
#
# 1 0.009464 -0.004360 0.000670 0.000000 0.000000 0.000000
# 2 -0.004360 0.010634 -0.002833 0.000000 0.000000 0.000000
# 3 0.000670 -0.002833 0.014125 0.000000 0.000000 0.000000
# 4 0.000000 0.000000 0.000000 0.039878 0.000000 0.000000
# 5 0.000000 0.000000 0.000000 0.000000 0.035464 0.000000
# 6 0.000000 0.000000 0.000000 0.000000 0.000000 0.030097
#
#
# Mechanical properties :
#
#
# Convention : Reuss Voigt Hill
#
# Bulk Modulus (GPa) = 47.22164 54.55770 50.88967
# Shear Modulus (GPa) = 31.29565 33.72290 32.50927
#
# Velocity S-wave (km/s) = 3.71773 3.85921 3.78913
# Velocity P-wave (km/s) = 6.26768 6.62971 6.45124
#
# Compressibility (1/GPa) = 0.02117673
#
# Stress axis : x y z
#
# Youngs Moduli (GPa) = 105.66265 94.04208 70.79686
#
# Poissons Ratio (x) = 0.40999 -0.04741
# Poissons Ratio (y) = 0.46065 0.20056
# Poissons Ratio (z) = -0.07075 0.26641
#
# Static dielectric constant tensor:
#      x y z
#    x 4.238770 0.000000 0.000000 
#    y 0.000000 4.236730 0.000000 
#    z 0.000000 0.000000 3.894810 
# 
# 
# High freq. dielectric constant tensor:
#      x y z
#    x 1.904450 0.000000 0.000000 
#    y 0.000000 1.905000 0.000000 
#    z 0.000000 0.000000 1.880450 
# 
# From -- ./inp_files/817.got.cif
#   From: 2010.03.12/outbox.cif.g09.slc.cpg/sg40_1_cif.got.tgz:817.got - 2010.04.14 01:38:03.
