data_PCOD8184089
_publ_section_title
;
Structure prediction by ZEFSAII (Michael W. Deem and Ramdas Pophale) SiO2 
 PCOD8184089
Probable space group: A M A 2
;
_chemical_formula_sum "Si O2"
_cell_formula_units_Z 44
_cell_length_a 15.832650
_cell_length_b 12.184952
_cell_length_c 12.334155
_cell_angle_alpha 90.000000
_cell_angle_beta 90.000000
_cell_angle_gamma 90.000000
_cell_volume 2379.506173
_symmetry_space_group_name_H-M "A M A 2"
_symmetry_group_IT_number 40
_symmetry_cell_setting 'orthorhombic'
loop_
_space_group_symop_operation_xyz
x,y,z
-x,-y,z
1/2-x,y,z
1/2+x,-y,z
x,1/2+y,1/2+z
-x,1/2-y,1/2+z
1/2-x,1/2+y,1/2+z
1/2+x,1/2-y,1/2+z
loop_
_atom_site_type_symbol
_atom_site_label
_atom_site_fract_x
_atom_site_fract_y
_atom_site_fract_z
Si Si1 0.847230 0.762263 0.402580
Si Si2 0.500000 0.000000 0.661444
Si Si3 0.019006 0.231739 0.575030
Si Si4 0.450361 0.104235 0.233948
Si Si5 0.843848 0.521596 0.312708
Si Si6 0.423419 0.080898 0.001778
O O1 0.750000 0.792127 0.418438
O O2 0.887845 0.762905 0.522610
O O3 0.860069 0.647093 0.343115
O O4 0.889452 0.854402 0.327676
O O5 0.511962 0.107184 0.587838
O O6 0.584867 0.980760 0.730357
O O7 0.014182 0.299296 0.689389
O O8 0.955399 0.292482 0.489460
O O9 0.396808 0.062116 0.128105
O O10 0.500000 0.000000 0.282616
O O11 0.750000 0.507174 0.262375
O O12 0.847140 0.445617 0.420741
O O13 0.500000 0.000000 0.969596
#
# Coordination Sequence:
#
# PCOD8184089 Si02
#       6
#     8   4   8   8   8   8
#     4  11  21  36  57  89 120 149 195 248 298 354
#     4  12  22  38  58  84 124 156 194 242 300 360
#     4  10  21  36  59  81 111 162 190 237 290 361
#     4   9  19  36  59  82 113 153 197 228 288 355
#     4  11  20  35  63  89 115 150 198 252 295 347
#     4   9  16  34  58  82 105 142 197 236 276 347
#
# _framework density 18.491232
#
# number of rings (size 3 to 8) (size 9 to 14) (size 15 to 20)
#    1.091    0.727    4.545    0.000    1.273    1.455 
#    0.000    1.818    0.000    2.182    0.000    0.000 
#    0.000    0.000    0.000    0.000    0.000    0.000 
#
# Total GULP energy -272570.000842 kJ/mol
# GULP energy per Si atom -12389.545493 kJ/mol
# Density = 1.844914 g / cm^3
# Si number density = 18.491232 Si / 1000 Ang^3
#
#
#
# Elastic Constant Matrix: (Units=GPa)
#
#
# Indices 1 2 3 4 5 6 
#
# 1 98.1791 35.9269 38.2455 0.0000 0.0000 0.0000
# 2 35.9269 128.3383 21.0841 0.0000 0.0000 0.0000
# 3 38.2455 21.0841 44.7532 0.0000 0.0000 0.0000
# 4 0.0000 0.0000 0.0000 21.0105 0.0000 0.0000
# 5 0.0000 0.0000 0.0000 0.0000 16.4309 0.0000
# 6 0.0000 0.0000 0.0000 0.0000 0.0000 22.2324
#
#
#
# Elastic Compliance Matrix: (Units=1/GPa)
#
#
# Indices 1 2 3 4 5 6 
#
# 1 0.015927 -0.002409 -0.012476 0.000000 0.000000 0.000000
# 2 -0.002409 0.008810 -0.002092 0.000000 0.000000 0.000000
# 3 -0.012476 -0.002092 0.033992 0.000000 0.000000 0.000000
# 4 0.000000 0.000000 0.000000 0.047595 0.000000 0.000000
# 5 0.000000 0.000000 0.000000 0.000000 0.060861 0.000000
# 6 0.000000 0.000000 0.000000 0.000000 0.000000 0.044979
#
#
# Mechanical properties :
#
#
# Convention : Reuss Voigt Hill
#
# Bulk Modulus (GPa) = 40.36278 51.30930 45.83604
# Shear Modulus (GPa) = 19.65585 23.66902 21.66243
#
# Velocity S-wave (km/s) = 3.26388 3.58161 3.42643
# Velocity P-wave (km/s) = 6.00661 6.70164 6.36362
#
# Compressibility (1/GPa) = 0.02477530
#
# Stress axis : x y z
#
# Youngs Moduli (GPa) = 62.78638 113.50830 29.41849
#
# Poissons Ratio (x) = 0.27344 0.36703
# Poissons Ratio (y) = 0.15125 0.06154
# Poissons Ratio (z) = 0.78333 0.23744
#
# Static dielectric constant tensor:
#      x y z
#    x 3.161510 0.000000 0.000000 
#    y 0.000000 3.437420 0.000000 
#    z 0.000000 0.000000 3.238940 
# 
# 
# High freq. dielectric constant tensor:
#      x y z
#    x 1.685900 0.000000 0.000000 
#    y 0.000000 1.721890 0.000000 
#    z 0.000000 0.000000 1.701890 
# 
# From -- ./inp_files/16915.got.cif
#   From: 2010.03.12/outbox.cif.g09.slc.cpg/sg40_9_cif.got.tgz:16915.got - 2010.04.14 01:38:03.
