data_PCOD8184881
_publ_section_title
;
Structure prediction by ZEFSAII (Michael W. Deem and Ramdas Pophale) SiO2 
 PCOD8184881
Probable space group: A B A 2
;
_chemical_formula_sum "Si O2"
_cell_formula_units_Z 48
_cell_length_a 14.997831
_cell_length_b 9.775134
_cell_length_c 17.044491
_cell_angle_alpha 90.000000
_cell_angle_beta 90.000000
_cell_angle_gamma 90.000000
_cell_volume 2498.821370
_symmetry_space_group_name_H-M "A B A 2"
_symmetry_group_IT_number 41
_symmetry_cell_setting 'orthorhombic'
loop_
_space_group_symop_operation_xyz
x,y,z
-x,-y,z
1/2-x,y,1/2+z
1/2+x,-y,1/2+z
x,1/2+y,1/2+z
-x,1/2-y,1/2+z
1/2-x,1/2+y,z
1/2+x,1/2-y,z
loop_
_atom_site_type_symbol
_atom_site_label
_atom_site_fract_x
_atom_site_fract_y
_atom_site_fract_z
Si Si1 0.097146 0.361945 0.755720
Si Si2 0.584525 0.096767 0.935052
Si Si3 0.253350 0.485948 0.544645
Si Si4 0.419877 0.648841 0.182719
Si Si5 0.766059 0.265798 0.151674
Si Si6 0.430740 0.611245 0.005748
O O1 0.113975 0.403607 0.844724
O O2 0.110164 0.495133 0.702147
O O3 0.167786 0.251373 0.725060
O O4 0.996999 0.301897 0.742556
O O5 0.500000 0.000000 0.949709
O O6 0.559793 0.251887 0.955367
O O7 0.666747 0.038802 0.984494
O O8 0.285453 0.586496 0.613988
O O9 0.221855 0.343959 0.582580
O O10 0.169794 0.553352 0.499447
O O11 0.333841 0.746309 0.187459
O O12 0.457692 0.649751 0.094467
O O13 0.500000 0.500000 0.971740
#
# Coordination Sequence:
#
# PCOD8184881 Si02
#       6
#     8   8   8   8   8   8
#     4  11  22  44  65  92 131 173 208 270 332 378
#     4  12  27  41  65 102 133 168 221 272 332 384
#     4  11  23  41  64 102 126 170 220 269 320 390
#     4  10  19  40  66  90 120 172 216 248 319 390
#     4  11  21  41  71  94 123 169 228 261 318 392
#     4  11  22  43  69  92 131 178 218 265 323 392
#
# _framework density 19.209056
#
# number of rings (size 3 to 8) (size 9 to 14) (size 15 to 20)
#    0.000    1.000   10.000    0.000    4.667    1.333 
#    3.000    0.000    0.000    0.000    0.000    0.000 
#    0.000    0.000    0.000    0.000    0.000    0.000 
#
# Total GULP energy -297609.104648 kJ/mol
# GULP energy per Si atom -12400.379360 kJ/mol
# Density = 1.916534 g / cm^3
# Si number density = 19.209056 Si / 1000 Ang^3
#
#
#
# Elastic Constant Matrix: (Units=GPa)
#
#
# Indices 1 2 3 4 5 6 
#
# 1 134.8058 47.1165 42.4924 0.0000 0.0000 0.0000
# 2 47.1165 79.0111 6.7903 0.0000 0.0000 0.0000
# 3 42.4924 6.7903 62.8030 0.0000 0.0000 0.0000
# 4 0.0000 0.0000 0.0000 25.3195 0.0000 0.0000
# 5 0.0000 0.0000 0.0000 0.0000 29.5450 0.0000
# 6 0.0000 0.0000 0.0000 0.0000 0.0000 39.8568
#
#
#
# Elastic Compliance Matrix: (Units=1/GPa)
#
#
# Indices 1 2 3 4 5 6 
#
# 1 0.012055 -0.006548 -0.007448 0.000000 0.000000 0.000000
# 2 -0.006548 0.016332 0.002665 0.000000 0.000000 0.000000
# 3 -0.007448 0.002665 0.020674 0.000000 0.000000 0.000000
# 4 0.000000 0.000000 0.000000 0.039495 0.000000 0.000000
# 5 0.000000 0.000000 0.000000 0.000000 0.033847 0.000000
# 6 0.000000 0.000000 0.000000 0.000000 0.000000 0.025090
#
#
# Mechanical properties :
#
#
# Convention : Reuss Voigt Hill
#
# Bulk Modulus (GPa) = 37.88223 52.15759 45.01991
# Shear Modulus (GPa) = 27.93995 30.95899 29.44947
#
# Velocity S-wave (km/s) = 3.81795 4.01894 3.91973
# Velocity P-wave (km/s) = 6.26095 6.98193 6.63125
#
# Compressibility (1/GPa) = 0.02639760
#
# Stress axis : x y z
#
# Youngs Moduli (GPa) = 82.95629 61.22798 48.36982
#
# Poissons Ratio (x) = 0.40094 0.36026
# Poissons Ratio (y) = 0.54323 -0.12889
# Poissons Ratio (z) = 0.61786 -0.16316
#
# Static dielectric constant tensor:
#      x y z
#    x 3.666660 0.000000 0.000000 
#    y 0.000000 3.528930 0.000000 
#    z 0.000000 0.000000 3.344290 
# 
# 
# High freq. dielectric constant tensor:
#      x y z
#    x 1.758200 0.000000 0.000000 
#    y 0.000000 1.742400 0.000000 
#    z 0.000000 0.000000 1.732490 
# 
# From -- ./inp_files/10304.got.cif
#   From: 2010.03.12/outbox.cif.g09.slc.cpg/sg41_6_cif.got.tgz:10304.got - 2010.04.14 01:55:53.
