data_PCOD8184488
_publ_section_title
;
Structure prediction by ZEFSAII (Michael W. Deem and Ramdas Pophale) SiO2 
 PCOD8184488
Probable space group: A M A 2
;
_chemical_formula_sum "Si O2"
_cell_formula_units_Z 40
_cell_length_a 26.301940
_cell_length_b 5.201802
_cell_length_c 12.413721
_cell_angle_alpha 90.000000
_cell_angle_beta 90.000000
_cell_angle_gamma 90.000000
_cell_volume 1698.414075
_symmetry_space_group_name_H-M "A M A 2"
_symmetry_group_IT_number 40
_symmetry_cell_setting 'orthorhombic'
loop_
_space_group_symop_operation_xyz
x,y,z
-x,-y,z
1/2-x,y,z
1/2+x,-y,z
x,1/2+y,1/2+z
-x,1/2-y,1/2+z
1/2-x,1/2+y,1/2+z
1/2+x,1/2-y,1/2+z
loop_
_atom_site_type_symbol
_atom_site_label
_atom_site_fract_x
_atom_site_fract_y
_atom_site_fract_z
Si Si1 0.967106 0.242103 0.391010
Si Si2 0.354015 0.407506 0.270840
Si Si3 0.555493 0.894389 0.663244
Si Si4 0.808089 0.071865 0.182839
Si Si5 0.109782 0.469625 0.506481
O O1 0.944005 0.211021 0.270487
O O2 0.922217 0.266937 0.481657
O O3 0.000000 0.500000 0.389697
O O4 0.000000 0.000000 0.424535
O O5 0.402600 0.381611 0.188968
O O6 0.328099 0.683252 0.248753
O O7 0.374036 0.364594 0.390518
O O8 0.313210 0.181775 0.255445
O O9 0.571008 0.728275 0.560781
O O10 0.500000 0.000000 0.638192
O O11 0.750000 0.117575 0.149640
O O12 0.839281 0.002344 0.075269
#
# Coordination Sequence:
#
# PCOD8184488 Si02
#       5
#     8   8   8   8   8
#     4  10  23  41  63  96 137 177 216 262 320 387
#     4  10  24  45  68 100 137 172 220 280 335 397
#     4   9  21  42  68  98 137 179 221 271 326 395
#     4  11  25  46  71  99 132 173 224 283 343 398
#     4  10  24  44  70  99 134 179 227 274 331 397
#
# _framework density 23.551382
#
# number of rings (size 3 to 8) (size 9 to 14) (size 15 to 20)
#    0.000    2.000    0.000    0.600    0.000   25.600 
#    0.000   11.000    0.000    0.000    0.000    0.000 
#    0.000    0.000    0.000    0.000    0.000    0.000 
#
# Total GULP energy -247963.124396 kJ/mol
# GULP energy per Si atom -12398.156220 kJ/mol
# Density = 2.349778 g / cm^3
# Si number density = 23.551382 Si / 1000 Ang^3
#
#
#
# Elastic Constant Matrix: (Units=GPa)
#
#
# Indices 1 2 3 4 5 6 
#
# 1 186.4254 61.3281 69.7998 0.0000 0.0000 0.0000
# 2 61.3281 131.2068 55.6612 0.0000 0.0000 0.0000
# 3 69.7998 55.6612 161.2942 0.0000 0.0000 0.0000
# 4 0.0000 0.0000 0.0000 16.2601 0.0000 0.0000
# 5 0.0000 0.0000 0.0000 0.0000 36.1590 0.0000
# 6 0.0000 0.0000 0.0000 0.0000 0.0000 38.7357
#
#
#
# Elastic Compliance Matrix: (Units=1/GPa)
#
#
# Indices 1 2 3 4 5 6 
#
# 1 0.006952 -0.002312 -0.002211 0.000000 0.000000 0.000000
# 2 -0.002312 0.009697 -0.002346 0.000000 0.000000 0.000000
# 3 -0.002211 -0.002346 0.007966 0.000000 0.000000 0.000000
# 4 0.000000 0.000000 0.000000 0.061500 0.000000 0.000000
# 5 0.000000 0.000000 0.000000 0.000000 0.027656 0.000000
# 6 0.000000 0.000000 0.000000 0.000000 0.000000 0.025816
#
#
# Mechanical properties :
#
#
# Convention : Reuss Voigt Hill
#
# Bulk Modulus (GPa) = 91.92377 94.72274 93.32325
# Shear Modulus (GPa) = 31.85704 37.70677 34.78191
#
# Velocity S-wave (km/s) = 3.68184 4.00564 3.84715
# Velocity P-wave (km/s) = 7.56244 7.85497 7.71009
#
# Compressibility (1/GPa) = 0.01087858
#
# Stress axis : x y z
#
# Youngs Moduli (GPa) = 143.83670 103.12084 125.53026
#
# Poissons Ratio (x) = 0.23839 0.27753
# Poissons Ratio (y) = 0.33251 0.29450
# Poissons Ratio (z) = 0.31800 0.24193
#
# Static dielectric constant tensor:
#      x y z
#    x 4.401070 0.000000 0.000000 
#    y 0.000000 4.055170 0.000000 
#    z 0.000000 0.000000 4.502880 
# 
# 
# High freq. dielectric constant tensor:
#      x y z
#    x 1.932080 0.000000 0.000000 
#    y 0.000000 1.923350 0.000000 
#    z 0.000000 0.000000 1.951660 
# 
# From -- ./inp_files/14104.got.cif
#   From: 2010.03.12/outbox.cif.g09.slc.cpg/sg40_8_cif.got.tgz:14104.got - 2010.04.14 01:38:03.
