data_PCOD8184884
_publ_section_title
;
Structure prediction by ZEFSAII (Michael W. Deem and Ramdas Pophale) SiO2 
 PCOD8184884
Probable space group: A B A 2
;
_chemical_formula_sum "Si O2"
_cell_formula_units_Z 60
_cell_length_a 9.018403
_cell_length_b 25.177516
_cell_length_c 11.999511
_cell_angle_alpha 90.000000
_cell_angle_beta 90.000000
_cell_angle_gamma 90.000000
_cell_volume 2724.620797
_symmetry_space_group_name_H-M "A B A 2"
_symmetry_group_IT_number 41
_symmetry_cell_setting 'orthorhombic'
loop_
_space_group_symop_operation_xyz
x,y,z
-x,-y,z
1/2-x,y,1/2+z
1/2+x,-y,1/2+z
x,1/2+y,1/2+z
-x,1/2-y,1/2+z
1/2-x,1/2+y,z
1/2+x,1/2-y,z
loop_
_atom_site_type_symbol
_atom_site_label
_atom_site_fract_x
_atom_site_fract_y
_atom_site_fract_z
Si Si1 0.234170 0.788962 0.154310
Si Si2 0.730951 0.001736 0.060818
Si Si3 0.500000 0.000000 0.702891
Si Si4 0.418868 0.608319 0.535630
Si Si5 0.742956 0.293508 0.456345
Si Si6 0.839524 0.574138 0.872324
Si Si7 0.505170 0.241819 0.307727
Si Si8 0.659087 0.107383 0.184513
O O1 0.370781 0.791782 0.243214
O O2 0.231963 0.850959 0.116675
O O3 0.081459 0.775776 0.215361
O O4 0.268243 0.749005 0.054264
O O5 0.749894 0.028970 0.940201
O O6 0.622280 0.953135 0.039337
O O7 0.668719 0.046905 0.142626
O O8 0.876482 0.977502 0.117938
O O9 0.556297 0.048657 0.777134
O O10 0.282890 0.647453 0.506395
O O11 0.556070 0.611742 0.447670
O O12 0.487893 0.624639 0.656985
O O13 0.591927 0.280663 0.391184
O O14 0.888181 0.294235 0.377467
O O15 0.709839 0.609031 0.813725
#
# Coordination Sequence:
#
# PCOD8184884 Si02
#       8
#     8   8   4   8   8   8   8   8
#     4  11  22  43  62  95 129 164 220 266 314 391
#     4  10  22  41  62  95 126 168 220 257 320 391
#     4  10  20  42  60  90 126 168 216 256 322 376
#     4  11  21  42  64  95 130 167 216 266 323 383
#     4  11  23  43  67  92 131 170 204 278 321 372
#     4  10  19  41  63  88 132 172 201 272 320 374
#     4  10  23  41  63  95 125 166 221 255 329 387
#     4  10  21  37  66  91 123 172 209 256 327 384
#
# _framework density 22.021412000000002
#
# number of rings (size 3 to 8) (size 9 to 14) (size 15 to 20)
#    0.000    1.600    1.333    4.400    0.000    3.200 
#   24.000    0.000    0.000    0.000    0.000    0.000 
#    0.000    0.000    0.000    0.000    0.000    0.000 
#
# Total GULP energy -371662.579914 kJ/mol
# GULP energy per Si atom -12388.752664 kJ/mol
# Density = 2.197129 g / cm^3
# Si number density = 22.021412 Si / 1000 Ang^3
#
#
#
# Elastic Constant Matrix: (Units=GPa)
#
#
# Indices 1 2 3 4 5 6 
#
# 1 75.8242 -19.0417 27.0643 0.0000 0.0000 0.0000
# 2 -19.0417 53.7274 -0.0173 0.0000 0.0000 0.0000
# 3 27.0643 -0.0173 84.7612 0.0000 0.0000 0.0000
# 4 0.0000 0.0000 0.0000 28.5836 0.0000 0.0000
# 5 0.0000 0.0000 0.0000 0.0000 55.1185 0.0000
# 6 0.0000 0.0000 0.0000 0.0000 0.0000 20.4147
#
#
#
# Elastic Compliance Matrix: (Units=1/GPa)
#
#
# Indices 1 2 3 4 5 6 
#
# 1 0.016546 0.005862 -0.005282 0.000000 0.000000 0.000000
# 2 0.005862 0.020690 -0.001868 0.000000 0.000000 0.000000
# 3 -0.005282 -0.001868 0.013484 0.000000 0.000000 0.000000
# 4 0.000000 0.000000 0.000000 0.034985 0.000000 0.000000
# 5 0.000000 0.000000 0.000000 0.000000 0.018143 0.000000
# 6 0.000000 0.000000 0.000000 0.000000 0.000000 0.048984
#
#
# Mechanical properties :
#
#
# Convention : Reuss Voigt Hill
#
# Bulk Modulus (GPa) = 20.77054 25.59150 23.18102
# Shear Modulus (GPa) = 29.16225 34.57717 31.86971
#
# Velocity S-wave (km/s) = 3.64300 3.96683 3.80835
# Velocity P-wave (km/s) = 5.21034 5.71204 5.46695
#
# Compressibility (1/GPa) = 0.04814511
#
# Stress axis : x y z
#
# Youngs Moduli (GPa) = 60.43781 48.33354 74.16199
#
# Poissons Ratio (x) = -0.28335 0.39172
# Poissons Ratio (y) = -0.35431 0.13851
# Poissons Ratio (z) = 0.31923 0.09027
#
# Static dielectric constant tensor:
#      x y z
#    x 4.132330 0.000000 0.000000 
#    y 0.000000 3.908790 0.000000 
#    z 0.000000 0.000000 4.311370 
# 
# 
# High freq. dielectric constant tensor:
#      x y z
#    x 1.858210 0.000000 0.000000 
#    y 0.000000 1.866230 0.000000 
#    z 0.000000 0.000000 1.869820 
# 
# From -- ./inp_files/4594.got.cif
#   From: 2010.03.12/outbox.cif.g09.slc.cpg/sg41_3_cif.got.tgz:4594.got - 2010.04.14 01:55:53.
