data_PCOD8184359
_publ_section_title
;
Structure prediction by ZEFSAII (Michael W. Deem and Ramdas Pophale) SiO2 
 PCOD8184359
Probable space group: A M A 2
;
_chemical_formula_sum "Si O2"
_cell_formula_units_Z 64
_cell_length_a 8.845700
_cell_length_b 28.652080
_cell_length_c 12.631826
_cell_angle_alpha 90.000000
_cell_angle_beta 90.000000
_cell_angle_gamma 90.000000
_cell_volume 3201.507298
_symmetry_space_group_name_H-M "A M A 2"
_symmetry_group_IT_number 40
_symmetry_cell_setting 'orthorhombic'
loop_
_space_group_symop_operation_xyz
x,y,z
-x,-y,z
1/2-x,y,z
1/2+x,-y,z
x,1/2+y,1/2+z
-x,1/2-y,1/2+z
1/2-x,1/2+y,1/2+z
1/2+x,1/2-y,1/2+z
loop_
_atom_site_type_symbol
_atom_site_label
_atom_site_fract_x
_atom_site_fract_y
_atom_site_fract_z
Si Si1 0.927271 0.300858 0.516900
Si Si2 0.070562 0.449128 0.232662
Si Si3 0.571314 0.112614 0.932574
Si Si4 0.570305 0.600882 0.021435
Si Si5 0.582598 0.571587 0.796837
Si Si6 0.917266 0.177310 0.227520
Si Si7 0.073088 0.546141 0.594690
Si Si8 0.929173 0.700541 0.953998
O O1 0.750000 0.303913 0.494465
O O2 0.989006 0.247879 0.507866
O O3 0.010067 0.334264 0.430907
O O4 0.961250 0.316816 0.635740
O O5 0.250000 0.454564 0.229531
O O6 0.019227 0.415752 0.329044
O O7 0.006950 0.424837 0.125844
O O8 0.000000 0.500000 0.247734
O O9 0.750000 0.113225 0.944183
O O10 0.501373 0.090286 0.038237
O O11 0.750000 0.603980 0.027614
O O12 0.524071 0.569935 0.918528
O O13 0.503513 0.653861 0.011034
O O14 0.750000 0.548446 0.785927
O O15 0.595551 0.624573 0.763252
O O16 0.464313 0.545860 0.720125
O O17 0.750000 0.194430 0.190352
O O18 0.975993 0.205019 0.330707
O O19 0.250000 0.546281 0.574640
O O20 0.000000 0.500000 0.542460
O O21 0.750000 0.696878 0.961794
#
# Coordination Sequence:
#
# PCOD8184359 Si02
#       8
#     8   8   8   8   8   8   8   8
#     4  11  21  33  55  86 116 148 192 246 296 347
#     4  10  22  39  61  85 113 153 200 245 293 349
#     4  11  23  39  57  80 113 154 198 241 291 352
#     4   8  16  35  60  84 113 152 194 233 284 348
#     4   9  17  33  58  82 108 144 184 227 281 342
#     4   9  17  33  55  75 106 149 187 227 279 344
#     4  12  24  37  56  82 113 144 183 233 286 344
#     4   8  17  33  54  82 114 152 193 233 285 350
#
# _framework density 19.990582
#
# number of rings (size 3 to 8) (size 9 to 14) (size 15 to 20)
#    0.000    2.250    1.250    3.750    0.000    3.500 
#    0.000    4.375    0.000    3.750    0.000    0.000 
#    0.000    0.000    0.000    0.000    0.000    0.000 
#
# Total GULP energy -396667.168445 kJ/mol
# GULP energy per Si atom -12395.849014 kJ/mol
# Density = 1.994508 g / cm^3
# Si number density = 19.990582 Si / 1000 Ang^3
#
#
#
# Elastic Constant Matrix: (Units=GPa)
#
#
# Indices 1 2 3 4 5 6 
#
# 1 61.2206 24.8640 22.3961 0.0000 0.0000 0.0000
# 2 24.8640 82.6974 33.6945 0.0000 0.0000 0.0000
# 3 22.3961 33.6945 112.9801 0.0000 0.0000 0.0000
# 4 0.0000 0.0000 0.0000 20.2866 0.0000 0.0000
# 5 0.0000 0.0000 0.0000 0.0000 13.6159 0.0000
# 6 0.0000 0.0000 0.0000 0.0000 0.0000 23.5988
#
#
#
# Elastic Compliance Matrix: (Units=1/GPa)
#
#
# Indices 1 2 3 4 5 6 
#
# 1 0.019146 -0.004793 -0.002366 0.000000 0.000000 0.000000
# 2 -0.004793 0.014965 -0.003513 0.000000 0.000000 0.000000
# 3 -0.002366 -0.003513 0.010368 0.000000 0.000000 0.000000
# 4 0.000000 0.000000 0.000000 0.049294 0.000000 0.000000
# 5 0.000000 0.000000 0.000000 0.000000 0.073444 0.000000
# 6 0.000000 0.000000 0.000000 0.000000 0.000000 0.042375
#
#
# Mechanical properties :
#
#
# Convention : Reuss Voigt Hill
#
# Bulk Modulus (GPa) = 43.22337 46.53414 44.87875
# Shear Modulus (GPa) = 20.95155 23.22984 22.09070
#
# Velocity S-wave (km/s) = 3.24090 3.41257 3.32784
# Velocity P-wave (km/s) = 5.97272 6.23346 6.10449
#
# Compressibility (1/GPa) = 0.02313563
#
# Stress axis : x y z
#
# Youngs Moduli (GPa) = 52.22916 66.82473 96.45237
#
# Poissons Ratio (x) = 0.32026 0.22821
# Poissons Ratio (y) = 0.25031 0.33883
# Poissons Ratio (z) = 0.12358 0.23475
#
# Static dielectric constant tensor:
#      x y z
#    x 3.324970 0.000000 0.000000 
#    y 0.000000 3.899480 0.000000 
#    z 0.000000 0.000000 3.978970 
# 
# 
# High freq. dielectric constant tensor:
#      x y z
#    x 1.747490 0.000000 0.000000 
#    y 0.000000 1.784630 0.000000 
#    z 0.000000 0.000000 1.781020 
# 
# From -- ./inp_files/10571.got.cif
#   From: 2010.03.12/outbox.cif.g09.slc.cpg/sg40_6_cif.got.tgz:10571.got - 2010.04.14 01:38:03.
