data_PCOD8184392
_publ_section_title
;
Structure prediction by ZEFSAII (Michael W. Deem and Ramdas Pophale) SiO2 
 PCOD8184392
Probable space group: A M A 2
;
_chemical_formula_sum "Si O2"
_cell_formula_units_Z 40
_cell_length_a 17.465797
_cell_length_b 5.173134
_cell_length_c 19.633144
_cell_angle_alpha 90.000000
_cell_angle_beta 90.000000
_cell_angle_gamma 90.000000
_cell_volume 1773.911659
_symmetry_space_group_name_H-M "A M A 2"
_symmetry_group_IT_number 40
_symmetry_cell_setting 'orthorhombic'
loop_
_space_group_symop_operation_xyz
x,y,z
-x,-y,z
1/2-x,y,z
1/2+x,-y,z
x,1/2+y,1/2+z
-x,1/2-y,1/2+z
1/2-x,1/2+y,1/2+z
1/2+x,1/2-y,1/2+z
loop_
_atom_site_type_symbol
_atom_site_label
_atom_site_fract_x
_atom_site_fract_y
_atom_site_fract_z
Si Si1 0.659771 0.750817 0.643150
Si Si2 0.950238 0.250002 0.856717
Si Si3 0.163308 0.920570 0.289394
Si Si4 0.159770 0.251074 0.070240
Si Si5 0.663309 0.420556 0.424017
O O1 0.750000 0.755426 0.630916
O O2 0.640719 0.748241 0.723616
O O3 0.624085 0.499843 0.606709
O O4 0.622334 0.999846 0.606683
O O5 0.894660 0.336422 0.794400
O O6 0.000000 0.500000 0.879572
O O7 0.894656 0.163584 0.919032
O O8 0.000000 0.000000 0.833864
O O9 0.250000 0.028476 0.282437
O O10 0.153712 0.749943 0.356694
O O11 0.250000 0.255714 0.082469
O O12 0.140713 0.248363 0.989775
O O13 0.750000 0.528447 0.430993
#
# Coordination Sequence:
#
# PCOD8184392 Si02
#       5
#     8   8   8   8   8
#     4   9  19  34  56  91 131 161 193 252 323 378
#     4  12  25  42  61  94 132 176 218 272 331 390
#     4  10  22  40  67 100 129 164 220 275 323 384
#     4   9  19  34  56  91 131 161 193 252 323 378
#     4  10  22  40  67 100 129 164 220 275 323 384
#
# _framework density 22.549040000000002
#
# number of rings (size 3 to 8) (size 9 to 14) (size 15 to 20)
#    0.000    2.000    2.000    0.600    5.600    0.000 
#    0.000    0.000    0.000    1.200   10.400    0.000 
#    0.000    0.000    0.000    0.000    0.000    2.000 
#
# Total GULP energy -247873.742781 kJ/mol
# GULP energy per Si atom -12393.687139 kJ/mol
# Density = 2.249772 g / cm^3
# Si number density = 22.549040 Si / 1000 Ang^3
#
#
#
# Elastic Constant Matrix: (Units=GPa)
#
#
# Indices 1 2 3 4 5 6 
#
# 1 99.7414 55.7981 37.6603 0.0000 0.0000 0.0000
# 2 55.7981 195.4590 95.0992 0.0000 0.0000 0.0000
# 3 37.6603 95.0992 190.5593 0.0000 0.0000 0.0000
# 4 0.0000 0.0000 0.0000 38.8628 0.0000 0.0000
# 5 0.0000 0.0000 0.0000 0.0000 -1.2353 0.0000
# 6 0.0000 0.0000 0.0000 0.0000 0.0000 6.7526
#
#
#
# Elastic Compliance Matrix: (Units=1/GPa)
#
#
# Indices 1 2 3 4 5 6 
#
# 1 0.012041 -0.003011 -0.000877 0.000000 0.000000 0.000000
# 2 -0.003011 0.007510 -0.003153 0.000000 0.000000 0.000000
# 3 -0.000877 -0.003153 0.006994 0.000000 0.000000 0.000000
# 4 0.000000 0.000000 0.000000 0.025732 0.000000 0.000000
# 5 0.000000 0.000000 0.000000 0.000000 -0.809551 0.000000
# 6 0.000000 0.000000 0.000000 0.000000 0.000000 0.148091
#
#
# Mechanical properties :
#
#
# Convention : Reuss Voigt Hill
#
# Bulk Modulus (GPa) = 80.22978 95.87498 88.05238
# Shear Modulus (GPa) = -8.46099 28.68951 10.11426
#
# Velocity S-wave (km/s) = -1.93918 3.57082 2.12019
# Velocity P-wave (km/s) = 5.53566 7.72087 6.71771
#
# Compressibility (1/GPa) = 0.01246420
#
# Stress axis : x y z
#
# Youngs Moduli (GPa) = 83.04671 133.16423 142.97098
#
# Poissons Ratio (x) = 0.40091 0.12542
# Poissons Ratio (y) = 0.25003 0.45074
# Poissons Ratio (z) = 0.07285 0.41982
#
# Static dielectric constant tensor:
#      x y z
#    x 4.059650 0.000000 0.000000 
#    y 0.000000 4.336170 0.000000 
#    z 0.000000 0.000000 3.953910 
# 
# 
# High freq. dielectric constant tensor:
#      x y z
#    x 1.853460 0.000000 0.000000 
#    y 0.000000 1.894250 0.000000 
#    z 0.000000 0.000000 1.880460 
# 
# From -- ./inp_files/1725.got.cif
#   From: 2010.03.12/outbox.cif.g09.slc.cpg/sg40_1_cif.got.tgz:1725.got - 2010.04.14 01:38:03.
