data_PCOD8184590
_publ_section_title
;
Structure prediction by ZEFSAII (Michael W. Deem and Ramdas Pophale) SiO2 
 PCOD8184590
Probable space group: A M A 2
;
_chemical_formula_sum "Si O2"
_cell_formula_units_Z 64
_cell_length_a 8.665169
_cell_length_b 29.897557
_cell_length_c 14.287795
_cell_angle_alpha 90.000000
_cell_angle_beta 90.000000
_cell_angle_gamma 90.000000
_cell_volume 3701.501675
_symmetry_space_group_name_H-M "A M A 2"
_symmetry_group_IT_number 40
_symmetry_cell_setting 'orthorhombic'
loop_
_space_group_symop_operation_xyz
x,y,z
-x,-y,z
1/2-x,y,z
1/2+x,-y,z
x,1/2+y,1/2+z
-x,1/2-y,1/2+z
1/2-x,1/2+y,1/2+z
1/2+x,1/2-y,1/2+z
loop_
_atom_site_type_symbol
_atom_site_label
_atom_site_fract_x
_atom_site_fract_y
_atom_site_fract_z
Si Si1 0.930488 0.719669 0.786680
Si Si2 0.928727 0.359435 0.678210
Si Si3 0.575909 0.778038 0.488628
Si Si4 0.568986 0.954620 0.123225
Si Si5 0.932626 0.362592 0.323987
Si Si6 0.076832 0.824160 0.000617
Si Si7 0.567418 0.196918 0.676004
Si Si8 0.431913 0.045587 0.911840
O O1 0.750000 0.729858 0.779448
O O2 0.964878 0.670740 0.743994
O O3 0.018711 0.757827 0.729336
O O4 0.980539 0.717962 0.893824
O O5 0.750000 0.350452 0.701642
O O6 0.972195 0.412088 0.689099
O O7 0.958764 0.348549 0.569637
O O8 0.750000 0.796052 0.472718
O O9 0.581247 0.727702 0.526121
O O10 0.491112 0.805759 0.569549
O O11 0.750000 0.960352 0.116963
O O12 0.500000 0.000000 0.167867
O O13 0.503673 0.947384 0.017561
O O14 0.750000 0.357006 0.329652
O O15 0.985767 0.413142 0.346981
O O16 0.011673 0.328785 0.396597
O O17 0.994548 0.347277 0.223359
O O18 0.250000 0.844206 0.008806
O O19 0.750000 0.193969 0.678246
O O20 0.250000 0.042100 0.912086
O O21 0.500000 0.000000 0.868421
#
# Coordination Sequence:
#
# PCOD8184590 Si02
#       8
#     8   8   8   8   8   8   8   8
#     4  12  24  37  54  78 105 139 179 219 262 310
#     4  11  21  35  53  75 106 142 179 217 261 312
#     4  11  23  39  55  76 104 139 180 221 264 306
#     4   9  18  32  49  74 104 138 174 213 260 310
#     4  11  21  35  53  75 106 142 179 217 261 312
#     4  11  21  31  50  76 104 139 180 219 258 307
#     4  12  24  37  54  78 105 139 179 219 262 310
#     4   9  18  32  49  74 104 138 174 213 260 310
#
# _framework density 17.290279999999999
#
# number of rings (size 3 to 8) (size 9 to 14) (size 15 to 20)
#    0.000    1.250    3.750    3.750    0.000    3.000 
#    0.000    0.000    0.000    0.000    0.000    0.875 
#    0.000    0.000    0.000    0.000    0.000    0.000 
#
# Total GULP energy -396828.343633 kJ/mol
# GULP energy per Si atom -12400.885739 kJ/mol
# Density = 1.725093 g / cm^3
# Si number density = 17.290280 Si / 1000 Ang^3
#
#
#
# Elastic Constant Matrix: (Units=GPa)
#
#
# Indices 1 2 3 4 5 6 
#
# 1 71.3751 28.1091 9.4796 0.0000 0.0000 0.0000
# 2 28.1091 91.9082 19.0227 0.0000 0.0000 0.0000
# 3 9.4796 19.0227 59.5550 0.0000 0.0000 0.0000
# 4 0.0000 0.0000 0.0000 21.7420 0.0000 0.0000
# 5 0.0000 0.0000 0.0000 0.0000 28.1951 0.0000
# 6 0.0000 0.0000 0.0000 0.0000 0.0000 27.4206
#
#
#
# Elastic Compliance Matrix: (Units=1/GPa)
#
#
# Indices 1 2 3 4 5 6 
#
# 1 0.015990 -0.004673 -0.001053 0.000000 0.000000 0.000000
# 2 -0.004673 0.013016 -0.003414 0.000000 0.000000 0.000000
# 3 -0.001053 -0.003414 0.018049 0.000000 0.000000 0.000000
# 4 0.000000 0.000000 0.000000 0.045994 0.000000 0.000000
# 5 0.000000 0.000000 0.000000 0.000000 0.035467 0.000000
# 6 0.000000 0.000000 0.000000 0.000000 0.000000 0.036469
#
#
# Mechanical properties :
#
#
# Convention : Reuss Voigt Hill
#
# Bulk Modulus (GPa) = 34.74945 37.34013 36.04479
# Shear Modulus (GPa) = 25.92600 26.55332 26.23966
#
# Velocity S-wave (km/s) = 3.87648 3.92310 3.89986
# Velocity P-wave (km/s) = 6.33857 6.49337 6.41644
#
# Compressibility (1/GPa) = 0.02877743
#
# Stress axis : x y z
#
# Youngs Moduli (GPa) = 62.53714 76.82821 55.40422
#
# Poissons Ratio (x) = 0.35899 0.05833
# Poissons Ratio (y) = 0.29221 0.18914
# Poissons Ratio (z) = 0.06584 0.26227
#
# Static dielectric constant tensor:
#      x y z
#    x 3.274310 0.000000 0.000000 
#    y 0.000000 3.317580 0.000000 
#    z 0.000000 0.000000 3.065690 
# 
# 
# High freq. dielectric constant tensor:
#      x y z
#    x 1.680880 0.000000 0.000000 
#    y 0.000000 1.657820 0.000000 
#    z 0.000000 0.000000 1.638790 
# 
# From -- ./inp_files/15858.got.cif
#   From: 2010.03.12/outbox.cif.g09.slc.cpg/sg40_8_cif.got.tgz:15858.got - 2010.04.14 01:38:03.
