data_PCOD8184919
_publ_section_title
;
Structure prediction by ZEFSAII (Michael W. Deem and Ramdas Pophale) SiO2 
 PCOD8184919
Probable space group: A B A 2
;
_chemical_formula_sum "Si O2"
_cell_formula_units_Z 64
_cell_length_a 5.112610
_cell_length_b 19.433111
_cell_length_c 31.826444
_cell_angle_alpha 90.000000
_cell_angle_beta 90.000000
_cell_angle_gamma 90.000000
_cell_volume 3162.081896
_symmetry_space_group_name_H-M "A B A 2"
_symmetry_group_IT_number 41
_symmetry_cell_setting 'orthorhombic'
loop_
_space_group_symop_operation_xyz
x,y,z
-x,-y,z
1/2-x,y,1/2+z
1/2+x,-y,1/2+z
x,1/2+y,1/2+z
-x,1/2-y,1/2+z
1/2-x,1/2+y,z
1/2+x,1/2-y,z
loop_
_atom_site_type_symbol
_atom_site_label
_atom_site_fract_x
_atom_site_fract_y
_atom_site_fract_z
Si Si1 0.878218 0.572756 0.892460
Si Si2 0.395025 0.210694 0.349391
Si Si3 0.038211 0.207297 0.009737
Si Si4 0.919763 0.079342 0.813910
Si Si5 0.514388 0.080571 0.219646
Si Si6 0.570302 0.796640 0.605505
Si Si7 0.879406 0.862814 0.926834
Si Si8 0.010638 0.582515 0.669274
O O1 0.845321 0.586977 0.841981
O O2 0.589913 0.578554 0.913644
O O3 0.000000 0.500000 0.902262
O O4 0.078455 0.624949 0.913705
O O5 0.653127 0.246854 0.331383
O O6 0.366742 0.131223 0.333958
O O7 0.437905 0.207016 0.400124
O O8 0.241188 0.269278 0.002133
O O9 0.072650 0.179870 0.056978
O O10 0.100688 0.146994 0.976786
O O11 0.895041 0.104895 0.765884
O O12 0.000000 0.000000 0.817709
O O13 0.227707 0.103696 0.204173
O O14 0.731676 0.106500 0.187095
O O15 0.500000 0.000000 0.220859
O O16 0.326726 0.747596 0.616860
O O17 0.565259 0.870197 0.628928
O O18 0.000000 0.500000 0.658390
#
# Coordination Sequence:
#
# PCOD8184919 Si02
#       8
#     8   8   8   8   8   8   8   8
#     4  11  22  36  55  82 113 151 196 243 286 333
#     4  11  22  36  53  80 113 143 182 235 286 327
#     4  10  20  36  59  85 111 146 195 239 277 340
#     4  10  22  40  61  82 111 156 201 237 282 341
#     4   9  20  36  60  86 111 148 198 240 276 340
#     4  10  21  38  62  90 119 150 189 237 291 349
#     4  11  21  36  57  79 112 155 192 232 288 341
#     4  10  20  38  60  86 116 149 189 237 290 347
#
# _framework density 20.239832
#
# number of rings (size 3 to 8) (size 9 to 14) (size 15 to 20)
#    0.000    1.750    0.000    5.625    0.000    5.500 
#    0.000    5.000    0.000    1.500    0.000    0.000 
#    0.000    0.000    0.000    0.000    0.000    0.000 
#
# Total GULP energy -396454.321513 kJ/mol
# GULP energy per Si atom -12389.197547 kJ/mol
# Density = 2.019377 g / cm^3
# Si number density = 20.239832 Si / 1000 Ang^3
#
#
#
# Elastic Constant Matrix: (Units=GPa)
#
#
# Indices 1 2 3 4 5 6 
#
# 1 122.4688 31.9027 38.7568 0.0000 0.0000 0.0000
# 2 31.9027 88.4623 50.7138 0.0000 0.0000 0.0000
# 3 38.7568 50.7138 134.5425 0.0000 0.0000 0.0000
# 4 0.0000 0.0000 0.0000 23.0684 0.0000 0.0000
# 5 0.0000 0.0000 0.0000 0.0000 26.0639 0.0000
# 6 0.0000 0.0000 0.0000 0.0000 0.0000 23.1883
#
#
#
# Elastic Compliance Matrix: (Units=1/GPa)
#
#
# Indices 1 2 3 4 5 6 
#
# 1 0.009347 -0.002331 -0.001814 0.000000 0.000000 0.000000
# 2 -0.002331 0.015002 -0.004983 0.000000 0.000000 0.000000
# 3 -0.001814 -0.004983 0.009833 0.000000 0.000000 0.000000
# 4 0.000000 0.000000 0.000000 0.043349 0.000000 0.000000
# 5 0.000000 0.000000 0.000000 0.000000 0.038367 0.000000
# 6 0.000000 0.000000 0.000000 0.000000 0.000000 0.043125
#
#
# Mechanical properties :
#
#
# Convention : Reuss Voigt Hill
#
# Bulk Modulus (GPa) = 62.79111 65.35781 64.07446
# Shear Modulus (GPa) = 27.38408 29.40414 28.39411
#
# Velocity S-wave (km/s) = 3.68228 3.81568 3.74957
# Velocity P-wave (km/s) = 7.01212 7.19544 7.10437
#
# Compressibility (1/GPa) = 0.01592582
#
# Stress axis : x y z
#
# Youngs Moduli (GPa) = 106.99160 66.65939 101.69390
#
# Poissons Ratio (x) = 0.15537 0.18445
# Poissons Ratio (y) = 0.24938 0.50676
# Poissons Ratio (z) = 0.19406 0.33218
#
# Static dielectric constant tensor:
#      x y z
#    x 4.492000 0.000000 0.000000 
#    y 0.000000 3.533770 0.000000 
#    z 0.000000 0.000000 3.908880 
# 
# 
# High freq. dielectric constant tensor:
#      x y z
#    x 1.809270 0.000000 0.000000 
#    y 0.000000 1.770870 0.000000 
#    z 0.000000 0.000000 1.778070 
# 
# From -- ./inp_files/12654.got.cif
#   From: 2010.03.12/outbox.cif.g09.slc.cpg/sg41_7_cif.got.tgz:12654.got - 2010.04.14 01:55:53.
