data_PCOD8184976
_publ_section_title
;
Structure prediction by ZEFSAII (Michael W. Deem and Ramdas Pophale) SiO2 
 PCOD8184976
Probable space group: A B A 2
;
_chemical_formula_sum "Si O2"
_cell_formula_units_Z 56
_cell_length_a 13.473191
_cell_length_b 15.518139
_cell_length_c 11.271154
_cell_angle_alpha 90.000000
_cell_angle_beta 90.000000
_cell_angle_gamma 90.000000
_cell_volume 2356.559925
_symmetry_space_group_name_H-M "A B A 2"
_symmetry_group_IT_number 41
_symmetry_cell_setting 'orthorhombic'
loop_
_space_group_symop_operation_xyz
x,y,z
-x,-y,z
1/2-x,y,1/2+z
1/2+x,-y,1/2+z
x,1/2+y,1/2+z
-x,1/2-y,1/2+z
1/2-x,1/2+y,z
1/2+x,1/2-y,z
loop_
_atom_site_type_symbol
_atom_site_label
_atom_site_fract_x
_atom_site_fract_y
_atom_site_fract_z
Si Si1 0.084277 0.065935 0.383780
Si Si2 0.096812 0.642124 0.140183
Si Si3 0.601613 0.681134 0.037492
Si Si4 0.898078 0.333136 0.663687
Si Si5 0.797512 0.985735 0.800140
Si Si6 0.114910 0.338305 0.259815
Si Si7 0.885886 0.996242 0.044013
O O1 0.072801 0.092626 0.519263
O O2 0.064922 0.147214 0.297547
O O3 0.189504 0.020283 0.358387
O O4 0.000000 0.000000 0.349313
O O5 0.143318 0.735943 0.107844
O O6 0.182434 0.593305 0.211908
O O7 0.998007 0.645388 0.218962
O O8 0.484280 0.677278 0.066400
O O9 0.656725 0.591645 0.078007
O O10 0.616460 0.690063 0.896991
O O11 0.841871 0.241068 0.678375
O O12 0.833895 0.418000 0.619436
O O13 0.816917 0.077858 0.736184
O O14 0.877573 0.978296 0.905224
O O15 0.000000 0.000000 0.081166
#
# Coordination Sequence:
#
# PCOD8184976 Si02
#       7
#     8   8   8   8   8   8   8
#     4  12  26  43  65  96 142 183 228 292 356 405
#     4  11  22  42  73 104 140 178 230 297 343 414
#     4   9  18  37  71 101 133 175 225 270 346 413
#     4  10  20  38  68  96 136 174 224 274 337 414
#     4  11  24  41  71  97 136 180 233 281 347 410
#     4  10  20  43  73 105 133 180 230 282 341 421
#     4   9  18  38  71 101 133 184 225 272 338 427
#
# _framework density 23.763452000000001
#
# number of rings (size 3 to 8) (size 9 to 14) (size 15 to 20)
#    0.000    1.714    1.429    5.143    2.000    0.000 
#    0.000    4.286   12.571    0.000    0.000    0.000 
#    0.000    0.000    0.000    0.000    0.000    0.000 
#
# Total GULP energy -346889.137133 kJ/mol
# GULP energy per Si atom -12388.897755 kJ/mol
# Density = 2.370937 g / cm^3
# Si number density = 23.763452 Si / 1000 Ang^3
#
#
#
# Elastic Constant Matrix: (Units=GPa)
#
#
# Indices 1 2 3 4 5 6 
#
# 1 53.6317 33.8468 9.0507 0.0000 0.0000 0.0000
# 2 33.8468 245.4942 60.8628 0.0000 0.0000 0.0000
# 3 9.0507 60.8628 85.5658 0.0000 0.0000 0.0000
# 4 0.0000 0.0000 0.0000 50.1019 0.0000 0.0000
# 5 0.0000 0.0000 0.0000 0.0000 28.0246 0.0000
# 6 0.0000 0.0000 0.0000 0.0000 0.0000 -8.2970
#
#
#
# Elastic Compliance Matrix: (Units=1/GPa)
#
#
# Indices 1 2 3 4 5 6 
#
# 1 0.020425 -0.002769 -0.000191 0.000000 0.000000 0.000000
# 2 -0.002769 0.005321 -0.003492 0.000000 0.000000 0.000000
# 3 -0.000191 -0.003492 0.014191 0.000000 0.000000 0.000000
# 4 0.000000 0.000000 0.000000 0.019959 0.000000 0.000000
# 5 0.000000 0.000000 0.000000 0.000000 0.035683 0.000000
# 6 0.000000 0.000000 0.000000 0.000000 0.000000 -0.120526
#
#
# Mechanical properties :
#
#
# Convention : Reuss Voigt Hill
#
# Bulk Modulus (GPa) = 36.99092 65.80138 51.39615
# Shear Modulus (GPa) = -1648.88809 32.69466 -808.09671
#
# Velocity S-wave (km/s) = -26.37010 3.71325 -18.46068
# Velocity P-wave (km/s) = 30.19232 6.79225 20.80194
#
# Compressibility (1/GPa) = 0.02703366
#
# Stress axis : x y z
#
# Youngs Moduli (GPa) = 48.95901 187.94024 70.46781
#
# Poissons Ratio (x) = 0.52035 0.01347
# Poissons Ratio (y) = 0.13555 0.24606
# Poissons Ratio (z) = 0.00936 0.65626
#
# Static dielectric constant tensor:
#      x y z
#    x 3.709180 0.000000 0.000000 
#    y 0.000000 5.275050 0.000000 
#    z 0.000000 0.000000 4.304450 
# 
# 
# High freq. dielectric constant tensor:
#      x y z
#    x 1.907750 0.000000 0.000000 
#    y 0.000000 1.968120 0.000000 
#    z 0.000000 0.000000 1.950730 
# 
# From -- ./inp_files/5606.got.cif
#   From: 2010.03.12/outbox.cif.g09.slc.cpg/sg41_3_cif.got.tgz:5606.got - 2010.04.14 01:55:53.
