data_PCOD8184508
_publ_section_title
;
Structure prediction by ZEFSAII (Michael W. Deem and Ramdas Pophale) SiO2 
 PCOD8184508
Probable space group: A M A 2
;
_chemical_formula_sum "Si O2"
_cell_formula_units_Z 48
_cell_length_a 16.842132
_cell_length_b 8.655836
_cell_length_c 14.688506
_cell_angle_alpha 90.000000
_cell_angle_beta 90.000000
_cell_angle_gamma 90.000000
_cell_volume 2141.330541
_symmetry_space_group_name_H-M "A M A 2"
_symmetry_group_IT_number 40
_symmetry_cell_setting 'orthorhombic'
loop_
_space_group_symop_operation_xyz
x,y,z
-x,-y,z
1/2-x,y,z
1/2+x,-y,z
x,1/2+y,1/2+z
-x,1/2-y,1/2+z
1/2-x,1/2+y,1/2+z
1/2+x,1/2-y,1/2+z
loop_
_atom_site_type_symbol
_atom_site_label
_atom_site_fract_x
_atom_site_fract_y
_atom_site_fract_z
Si Si1 0.923887 0.102665 0.671310
Si Si2 0.658452 0.598292 0.840480
Si Si3 0.578231 0.277088 0.859510
Si Si4 0.658452 0.098281 0.002137
Si Si5 0.658378 0.793471 0.671307
Si Si6 0.578222 0.777089 0.983103
O O1 0.926685 0.209300 0.759078
O O2 0.926713 0.209252 0.583523
O O3 0.852502 0.978676 0.671303
O O4 0.000000 0.000000 0.671348
O O5 0.750000 0.546771 0.825305
O O6 0.598144 0.456303 0.847978
O O7 0.623797 0.708868 0.760673
O O8 0.652436 0.695080 0.933526
O O9 0.652439 0.195050 0.909084
O O10 0.500002 0.249987 0.921302
O O11 0.750000 0.046757 0.017315
O O12 0.598138 0.956299 0.994661
O O13 0.623803 0.208878 0.081936
O O14 0.750000 0.759792 0.671316
#
# Coordination Sequence:
#
# PCOD8184508 Si02
#       6
#     8   8   8   8   8   8
#     4  12  25  42  64  92 126 164 211 264 317 376
#     4  11  23  42  65  94 129 168 211 261 316 378
#     4  12  25  42  66  95 128 169 214 262 318 378
#     4  11  23  42  65  94 129 168 211 261 316 378
#     4  10  23  42  67  96 129 166 211 262 317 376
#     4  12  25  42  66  95 128 169 214 262 318 378
#
# _framework density 22.415970000000002
#
# number of rings (size 3 to 8) (size 9 to 14) (size 15 to 20)
#    0.000    0.667    0.000    9.000    0.000    5.333 
#    0.000    5.000    0.000    0.000    0.000    0.000 
#    0.000    0.000    0.000    0.000    0.000    0.000 
#
# Total GULP energy -297563.252608 kJ/mol
# GULP energy per Si atom -12398.468859 kJ/mol
# Density = 2.236495 g / cm^3
# Si number density = 22.415970 Si / 1000 Ang^3
#
#
#
# Elastic Constant Matrix: (Units=GPa)
#
#
# Indices 1 2 3 4 5 6 
#
# 1 73.8371 25.8115 32.7871 0.0000 0.0000 0.0000
# 2 25.8115 136.6977 71.2784 0.0000 0.0000 0.0000
# 3 32.7871 71.2784 202.3420 0.0000 0.0000 0.0000
# 4 0.0000 0.0000 0.0000 28.0211 0.0000 0.0000
# 5 0.0000 0.0000 0.0000 0.0000 31.4737 0.0000
# 6 0.0000 0.0000 0.0000 0.0000 0.0000 42.4159
#
#
#
# Elastic Compliance Matrix: (Units=1/GPa)
#
#
# Indices 1 2 3 4 5 6 
#
# 1 0.014992 -0.001916 -0.001754 0.000000 0.000000 0.000000
# 2 -0.001916 0.009206 -0.002933 0.000000 0.000000 0.000000
# 3 -0.001754 -0.002933 0.006259 0.000000 0.000000 0.000000
# 4 0.000000 0.000000 0.000000 0.035687 0.000000 0.000000
# 5 0.000000 0.000000 0.000000 0.000000 0.031773 0.000000
# 6 0.000000 0.000000 0.000000 0.000000 0.000000 0.023576
#
#
# Mechanical properties :
#
#
# Convention : Reuss Voigt Hill
#
# Bulk Modulus (GPa) = 57.96456 74.73674 66.35065
# Shear Modulus (GPa) = 35.59968 39.24879 37.42423
#
# Velocity S-wave (km/s) = 3.98947 4.18895 4.09043
# Velocity P-wave (km/s) = 6.86556 7.53722 7.20921
#
# Compressibility (1/GPa) = 0.01725192
#
# Stress axis : x y z
#
# Youngs Moduli (GPa) = 66.70160 108.62049 159.75815
#
# Poissons Ratio (x) = 0.20813 0.28027
# Poissons Ratio (y) = 0.12781 0.46851
# Poissons Ratio (z) = 0.11702 0.31854
#
# Static dielectric constant tensor:
#      x y z
#    x 3.925140 0.000000 0.000000 
#    y 0.000000 3.479680 0.000000 
#    z 0.000000 0.000000 4.634730 
# 
# 
# High freq. dielectric constant tensor:
#      x y z
#    x 1.885260 0.000000 0.000000 
#    y 0.000000 1.895310 0.000000 
#    z 0.000000 0.000000 1.902750 
# 
# From -- ./inp_files/17604.got.cif
#   From: 2010.03.12/outbox.cif.g09.slc.cpg/sg40_9_cif.got.tgz:17604.got - 2010.04.14 01:38:03.
