data_PCOD8184589
_publ_section_title
;
Structure prediction by ZEFSAII (Michael W. Deem and Ramdas Pophale) SiO2 
 PCOD8184589
Probable space group: A M A 2
;
_chemical_formula_sum "Si O2"
_cell_formula_units_Z 48
_cell_length_a 15.408601
_cell_length_b 8.414815
_cell_length_c 18.299958
_cell_angle_alpha 90.000000
_cell_angle_beta 90.000000
_cell_angle_gamma 90.000000
_cell_volume 2372.782195
_symmetry_space_group_name_H-M "A M A 2"
_symmetry_group_IT_number 40
_symmetry_cell_setting 'orthorhombic'
loop_
_space_group_symop_operation_xyz
x,y,z
-x,-y,z
1/2-x,y,z
1/2+x,-y,z
x,1/2+y,1/2+z
-x,1/2-y,1/2+z
1/2-x,1/2+y,1/2+z
1/2+x,1/2-y,1/2+z
loop_
_atom_site_type_symbol
_atom_site_label
_atom_site_fract_x
_atom_site_fract_y
_atom_site_fract_z
Si Si1 0.084256 0.672467 0.820420
Si Si2 0.750000 0.772360 0.801431
Si Si3 0.918829 0.098894 0.072657
Si Si4 0.582310 0.657063 0.740732
Si Si5 0.250000 0.876007 0.855819
Si Si6 0.083218 0.586424 0.983078
Si Si7 0.750000 0.979758 0.009476
Si Si8 0.250000 0.376532 0.952700
O O1 0.105514 0.510159 0.778475
O O2 0.166270 0.789836 0.821660
O O3 0.055547 0.641278 0.902794
O O4 0.999817 0.745109 0.779238
O O5 0.666461 0.765270 0.749624
O O6 0.750000 0.635041 0.864162
O O7 0.750000 0.943015 0.835981
O O8 0.939202 0.132249 0.156629
O O9 0.833224 0.994095 0.061479
O O10 0.898812 0.262552 0.032531
O O11 0.000000 0.000000 0.039095
O O12 0.250000 0.883893 0.944889
O O13 0.166256 0.471402 0.980689
O O14 0.000000 0.500000 0.018260
O O15 0.750000 0.801061 0.981273
#
# Coordination Sequence:
#
# PCOD8184589 Si02
#       8
#     8   4   8   8   4   8   4   4
#     4  11  20  43  69  94 126 173 231 269 329 406
#     4  11  22  41  66  97 132 171 228 276 333 398
#     4  12  25  44  65 100 138 175 225 280 348 406
#     4  11  23  43  68  93 130 181 222 270 337 417
#     4  11  24  40  66 104 128 170 223 294 336 377
#     4  12  22  41  68  95 127 173 227 279 328 399
#     4  11  24  43  66  99 138 171 222 282 346 405
#     4  11  22  40  66  98 126 168 225 278 331 394
#
# _framework density 20.229416000000001
#
# number of rings (size 3 to 8) (size 9 to 14) (size 15 to 20)
#    0.000    0.667    6.667    3.000    0.000    2.000 
#    3.000    1.667    0.000    0.000    0.000    0.000 
#    0.000    0.000    0.000    0.000    0.000    0.000 
#
# Total GULP energy -297553.048977 kJ/mol
# GULP energy per Si atom -12398.043707 kJ/mol
# Density = 2.018337 g / cm^3
# Si number density = 20.229416 Si / 1000 Ang^3
#
#
#
# Elastic Constant Matrix: (Units=GPa)
#
#
# Indices 1 2 3 4 5 6 
#
# 1 193.5534 51.3834 34.7734 0.0000 0.0000 0.0000
# 2 51.3834 85.3320 36.9229 0.0000 0.0000 0.0000
# 3 34.7734 36.9229 101.7522 0.0000 0.0000 0.0000
# 4 0.0000 0.0000 0.0000 24.4827 0.0000 0.0000
# 5 0.0000 0.0000 0.0000 0.0000 22.2364 0.0000
# 6 0.0000 0.0000 0.0000 0.0000 0.0000 16.2830
#
#
#
# Elastic Compliance Matrix: (Units=1/GPa)
#
#
# Indices 1 2 3 4 5 6 
#
# 1 0.006220 -0.003352 -0.000909 0.000000 0.000000 0.000000
# 2 -0.003352 0.015708 -0.004555 0.000000 0.000000 0.000000
# 3 -0.000909 -0.004555 0.011791 0.000000 0.000000 0.000000
# 4 0.000000 0.000000 0.000000 0.040845 0.000000 0.000000
# 5 0.000000 0.000000 0.000000 0.000000 0.044971 0.000000
# 6 0.000000 0.000000 0.000000 0.000000 0.000000 0.061414
#
#
# Mechanical properties :
#
#
# Convention : Reuss Voigt Hill
#
# Bulk Modulus (GPa) = 62.15917 69.64411 65.90164
# Shear Modulus (GPa) = 24.51667 29.77094 27.14380
#
# Velocity S-wave (km/s) = 3.48506 3.84039 3.66703
# Velocity P-wave (km/s) = 6.85478 7.35980 7.11177
#
# Compressibility (1/GPa) = 0.01608773
#
# Stress axis : x y z
#
# Youngs Moduli (GPa) = 160.77919 63.66195 84.80870
#
# Poissons Ratio (x) = 0.21338 0.07712
# Poissons Ratio (y) = 0.53890 0.38626
# Poissons Ratio (z) = 0.14619 0.28995
#
# Static dielectric constant tensor:
#      x y z
#    x 3.979030 0.000000 0.000000 
#    y 0.000000 3.255750 0.000000 
#    z 0.000000 0.000000 3.890430 
# 
# 
# High freq. dielectric constant tensor:
#      x y z
#    x 1.813020 0.000000 0.000000 
#    y 0.000000 1.782580 0.000000 
#    z 0.000000 0.000000 1.780650 
# 
# From -- ./inp_files/20627.got.cif
#   From: 2010.03.12/outbox.cif.g09.slc.cpg/sg40_11_cif.got.tgz:20627.got - 2010.04.14 01:38:03.
