data_PCOD8184951
_publ_section_title
;
Structure prediction by ZEFSAII (Michael W. Deem and Ramdas Pophale) SiO2 
 PCOD8184951
Probable space group: A B A 2
;
_chemical_formula_sum "Si O2"
_cell_formula_units_Z 56
_cell_length_a 8.491947
_cell_length_b 13.771117
_cell_length_c 21.398181
_cell_angle_alpha 90.000000
_cell_angle_beta 90.000000
_cell_angle_gamma 90.000000
_cell_volume 2502.380227
_symmetry_space_group_name_H-M "A B A 2"
_symmetry_group_IT_number 41
_symmetry_cell_setting 'orthorhombic'
loop_
_space_group_symop_operation_xyz
x,y,z
-x,-y,z
1/2-x,y,1/2+z
1/2+x,-y,1/2+z
x,1/2+y,1/2+z
-x,1/2-y,1/2+z
1/2-x,1/2+y,z
1/2+x,1/2-y,z
loop_
_atom_site_type_symbol
_atom_site_label
_atom_site_fract_x
_atom_site_fract_y
_atom_site_fract_z
Si Si1 0.478798 0.864169 0.063900
Si Si2 0.531016 0.687896 0.819403
Si Si3 0.000000 0.000000 0.672176
Si Si4 0.199060 0.623062 0.862000
Si Si5 0.223707 0.208571 0.113075
Si Si6 0.742026 0.028104 0.764117
Si Si7 0.457886 0.815966 0.701271
Si Si8 0.000000 0.000000 0.456702
O O1 0.432255 0.913478 0.129818
O O2 0.670635 0.860265 0.068442
O O3 0.390838 0.761902 0.063715
O O4 0.419599 0.921495 0.002998
O O5 0.386718 0.644932 0.860739
O O6 0.606827 0.775136 0.859794
O O7 0.656972 0.602084 0.808103
O O8 0.477997 0.729636 0.752086
O O9 0.145156 0.029384 0.716248
O O10 0.157975 0.557372 0.802297
O O11 0.136980 0.556584 0.919273
O O12 0.340025 0.282025 0.147774
O O13 0.121690 0.155615 0.166917
O O14 0.602860 0.086334 0.731997
#
# Coordination Sequence:
#
# PCOD8184951 Si02
#       8
#     8   8   4   8   8   8   8   4
#     4  10  23  44  69  92 133 181 233 287 355 417
#     4  12  23  42  67 102 144 188 231 291 373 440
#     4  11  20  38  64 100 140 181 212 292 358 437
#     4  12  27  44  68 100 135 192 245 297 360 429
#     4  10  20  37  68 101 129 177 225 281 360 431
#     4  12  22  39  68 106 149 185 230 296 372 449
#     4  11  19  35  65 106 145 172 220 277 359 452
#     4  11  28  50  68  90 134 187 254 302 346 423
#
# _framework density 22.378693999999999
#
# number of rings (size 3 to 8) (size 9 to 14) (size 15 to 20)
#    0.000    0.857    5.714    1.714    2.000    1.143 
#    0.000    0.000    6.286    0.000    0.000    0.000 
#    0.000    0.000    0.000    0.000    0.000    0.000 
#
# Total GULP energy -346993.735132 kJ/mol
# GULP energy per Si atom -12392.633398 kJ/mol
# Density = 2.232776 g / cm^3
# Si number density = 22.378694 Si / 1000 Ang^3
#
#
#
# Elastic Constant Matrix: (Units=GPa)
#
#
# Indices 1 2 3 4 5 6 
#
# 1 100.0070 30.1189 30.4364 0.0000 0.0000 0.0000
# 2 30.1189 73.3572 22.8681 0.0000 0.0000 0.0000
# 3 30.4364 22.8681 97.0833 0.0000 0.0000 0.0000
# 4 0.0000 0.0000 0.0000 5.1770 0.0000 0.0000
# 5 0.0000 0.0000 0.0000 0.0000 19.1507 0.0000
# 6 0.0000 0.0000 0.0000 0.0000 0.0000 38.9317
#
#
#
# Elastic Compliance Matrix: (Units=1/GPa)
#
#
# Indices 1 2 3 4 5 6 
#
# 1 0.012090 -0.004082 -0.002829 0.000000 0.000000 0.000000
# 2 -0.004082 0.016090 -0.002510 0.000000 0.000000 0.000000
# 3 -0.002829 -0.002510 0.011779 0.000000 0.000000 0.000000
# 4 0.000000 0.000000 0.000000 0.193160 0.000000 0.000000
# 5 0.000000 0.000000 0.000000 0.000000 0.052217 0.000000
# 6 0.000000 0.000000 0.000000 0.000000 0.000000 0.025686
#
#
# Mechanical properties :
#
#
# Convention : Reuss Voigt Hill
#
# Bulk Modulus (GPa) = 47.35613 48.58824 47.97219
# Shear Modulus (GPa) = 14.84106 25.12016 19.98061
#
# Velocity S-wave (km/s) = 2.57802 3.35401 2.99129
# Velocity P-wave (km/s) = 5.48350 6.06285 5.78044
#
# Compressibility (1/GPa) = 0.02111659
#
# Stress axis : x y z
#
# Youngs Moduli (GPa) = 82.71628 62.14862 84.89989
#
# Poissons Ratio (x) = 0.25368 0.24015
# Poissons Ratio (y) = 0.33764 0.21313
# Poissons Ratio (z) = 0.23398 0.15602
#
# Static dielectric constant tensor:
#      x y z
#    x 4.270160 0.000000 0.000000 
#    y 0.000000 4.273320 0.000000 
#    z 0.000000 0.000000 3.841070 
# 
# 
# High freq. dielectric constant tensor:
#      x y z
#    x 1.891040 0.000000 0.000000 
#    y 0.000000 1.889040 0.000000 
#    z 0.000000 0.000000 1.850720 
# 
# From -- ./inp_files/11233.got.cif
#   From: 2010.03.12/outbox.cif.g09.slc.cpg/sg41_6_cif.got.tgz:11233.got - 2010.04.14 01:55:53.
