data_PCOD8184228
_publ_section_title
;
Structure prediction by ZEFSAII (Michael W. Deem and Ramdas Pophale) SiO2 
 PCOD8184228
Probable space group: A M A 2
;
_chemical_formula_sum "Si O2"
_cell_formula_units_Z 64
_cell_length_a 18.758083
_cell_length_b 13.741672
_cell_length_c 12.067703
_cell_angle_alpha 90.000000
_cell_angle_beta 90.000000
_cell_angle_gamma 90.000000
_cell_volume 3110.660715
_symmetry_space_group_name_H-M "A M A 2"
_symmetry_group_IT_number 40
_symmetry_cell_setting 'orthorhombic'
loop_
_space_group_symop_operation_xyz
x,y,z
-x,-y,z
1/2-x,y,z
1/2+x,-y,z
x,1/2+y,1/2+z
-x,1/2-y,1/2+z
1/2-x,1/2+y,1/2+z
1/2+x,1/2-y,1/2+z
loop_
_atom_site_type_symbol
_atom_site_label
_atom_site_fract_x
_atom_site_fract_y
_atom_site_fract_z
Si Si1 0.450263 0.735230 0.613320
Si Si2 0.018889 0.600530 0.965999
Si Si3 0.168869 0.687885 0.975620
Si Si4 0.169521 0.527780 0.346030
Si Si5 0.329378 0.319470 0.267182
Si Si6 0.936624 0.122391 0.246429
Si Si7 0.168445 0.721257 0.231788
Si Si8 0.576877 0.975337 0.049883
O O1 0.481632 0.807164 0.521433
O O2 0.388772 0.784207 0.683881
O O3 0.517152 0.704630 0.685972
O O4 0.414103 0.640192 0.561378
O O5 0.104989 0.610853 0.952097
O O6 0.000000 0.500000 0.031873
O O7 0.981648 0.582752 0.847832
O O8 0.250000 0.643092 0.963138
O O9 0.158338 0.776980 0.890674
O O10 0.158209 0.726412 0.099635
O O11 0.250000 0.552800 0.376813
O O12 0.164521 0.435879 0.265092
O O13 0.135020 0.621343 0.283296
O O14 0.133977 0.493454 0.460098
O O15 0.250000 0.288741 0.226207
O O16 0.867037 0.182472 0.284827
O O17 0.914808 0.031959 0.166972
O O18 0.250000 0.726426 0.265773
O O19 0.500000 0.000000 0.998872
#
# Coordination Sequence:
#
# PCOD8184228 Si02
#       8
#     8   8   8   8   8   8   8   8
#     4  11  23  39  61  89 125 163 209 262 319 379
#     4  12  25  41  63  97 129 169 215 271 333 394
#     4  10  21  40  65  91 126 169 215 261 324 398
#     4  10  22  39  63  92 124 158 208 264 315 381
#     4  10  22  39  62  90 121 164 210 261 317 386
#     4  11  22  41  64  88 129 164 214 268 320 392
#     4  10  21  39  64  96 128 165 210 269 332 388
#     4  10  23  40  61  90 119 167 205 259 314 370
#
# _framework density 20.574407000000001
#
# number of rings (size 3 to 8) (size 9 to 14) (size 15 to 20)
#    0.000    1.500    2.500    2.625    3.500    3.000 
#    0.000    1.250    0.000    0.000    0.000    0.000 
#    0.000    0.000    0.000    0.000    0.000    0.000 
#
# Total GULP energy -396620.291076 kJ/mol
# GULP energy per Si atom -12394.384096 kJ/mol
# Density = 2.052758 g / cm^3
# Si number density = 20.574407 Si / 1000 Ang^3
#
#
#
# Elastic Constant Matrix: (Units=GPa)
#
#
# Indices 1 2 3 4 5 6 
#
# 1 101.6172 57.3367 41.4670 0.0000 0.0000 0.0000
# 2 57.3367 126.1976 27.3840 0.0000 0.0000 0.0000
# 3 41.4670 27.3840 76.6849 0.0000 0.0000 0.0000
# 4 0.0000 0.0000 0.0000 23.5755 0.0000 0.0000
# 5 0.0000 0.0000 0.0000 0.0000 35.5068 0.0000
# 6 0.0000 0.0000 0.0000 0.0000 0.0000 29.4657
#
#
#
# Elastic Compliance Matrix: (Units=1/GPa)
#
#
# Indices 1 2 3 4 5 6 
#
# 1 0.015709 -0.005739 -0.006445 0.000000 0.000000 0.000000
# 2 -0.005739 0.010686 -0.000713 0.000000 0.000000 0.000000
# 3 -0.006445 -0.000713 0.016780 0.000000 0.000000 0.000000
# 4 0.000000 0.000000 0.000000 0.042417 0.000000 0.000000
# 5 0.000000 0.000000 0.000000 0.000000 0.028164 0.000000
# 6 0.000000 0.000000 0.000000 0.000000 0.000000 0.033938
#
#
# Mechanical properties :
#
#
# Convention : Reuss Voigt Hill
#
# Bulk Modulus (GPa) = 57.53179 61.87501 59.70340
# Shear Modulus (GPa) = 27.88918 29.59706 28.74312
#
# Velocity S-wave (km/s) = 3.68574 3.79692 3.74174
# Velocity P-wave (km/s) = 6.79238 7.02575 6.91005
#
# Compressibility (1/GPa) = 0.01738169
#
# Stress axis : x y z
#
# Youngs Moduli (GPa) = 63.65790 93.57982 59.59417
#
# Poissons Ratio (x) = 0.53702 0.38410
# Poissons Ratio (y) = 0.36531 0.04248
# Poissons Ratio (z) = 0.41029 0.06671
#
# Static dielectric constant tensor:
#      x y z
#    x 3.949280 0.000000 0.000000 
#    y 0.000000 3.872950 0.000000 
#    z 0.000000 0.000000 3.535350 
# 
# 
# High freq. dielectric constant tensor:
#      x y z
#    x 1.811320 0.000000 0.000000 
#    y 0.000000 1.811440 0.000000 
#    z 0.000000 0.000000 1.789900 
# 
# From -- ./inp_files/13096.got.cif
#   From: 2010.03.12/outbox.cif.g09.slc.cpg/sg40_7_cif.got.tgz:13096.got - 2010.04.14 01:38:03.
