data_PCOD8184109
_publ_section_title
;
Structure prediction by ZEFSAII (Michael W. Deem and Ramdas Pophale) SiO2 
 PCOD8184109
Probable space group: A M A 2
;
_chemical_formula_sum "Si O2"
_cell_formula_units_Z 48
_cell_length_a 8.476345
_cell_length_b 29.748793
_cell_length_c 9.889531
_cell_angle_alpha 90.000000
_cell_angle_beta 90.000000
_cell_angle_gamma 90.000000
_cell_volume 2493.754351
_symmetry_space_group_name_H-M "A M A 2"
_symmetry_group_IT_number 40
_symmetry_cell_setting 'orthorhombic'
loop_
_space_group_symop_operation_xyz
x,y,z
-x,-y,z
1/2-x,y,z
1/2+x,-y,z
x,1/2+y,1/2+z
-x,1/2-y,1/2+z
1/2-x,1/2+y,1/2+z
1/2+x,1/2-y,1/2+z
loop_
_atom_site_type_symbol
_atom_site_label
_atom_site_fract_x
_atom_site_fract_y
_atom_site_fract_z
Si Si1 0.064396 0.049150 0.954400
Si Si2 0.432382 0.882244 0.167661
Si Si3 0.569041 0.385631 0.957691
Si Si4 0.433589 0.952696 0.665019
Si Si5 0.930971 0.782096 0.463704
Si Si6 0.068415 0.211580 0.159122
O O1 0.250000 0.051277 0.979257
O O2 0.025808 0.061900 0.799928
O O3 0.000000 0.000000 0.990188
O O4 0.977616 0.084402 0.048844
O O5 0.250000 0.887411 0.203613
O O6 0.532236 0.894035 0.300733
O O7 0.466275 0.831619 0.116889
O O8 0.750000 0.398876 0.983959
O O9 0.536507 0.334080 0.996917
O O10 0.456865 0.415754 0.049867
O O11 0.250000 0.957755 0.700068
O O12 0.500000 0.000000 0.610389
O O13 0.750000 0.769435 0.492574
O O14 0.977826 0.771880 0.309022
O O15 0.042142 0.752237 0.556945
O O16 0.250000 0.196444 0.157644
#
# Coordination Sequence:
#
# PCOD8184109 Si02
#       6
#     8   8   8   8   8   8
#     4  11  22  39  60  84 114 148 186 230 280 332
#     4  11  22  38  59  84 113 147 188 233 281 333
#     4  10  21  39  59  83 115 149 187 232 281 332
#     4  11  22  38  59  85 115 149 188 230 278 330
#     4   9  20  37  56  80 111 145 183 228 276 329
#     4  10  21  37  57  82 112 146 185 229 278 332
#
# _framework density 19.248087999999999
#
# number of rings (size 3 to 8) (size 9 to 14) (size 15 to 20)
#    0.000    1.667    0.000    7.500    0.000    6.000 
#    0.000    6.667    0.000    0.000    0.000    0.000 
#    0.000    0.000    0.000    0.000    0.000    0.000 
#
# Total GULP energy -297736.773898 kJ/mol
# GULP energy per Si atom -12405.698912 kJ/mol
# Density = 1.920428 g / cm^3
# Si number density = 19.248088 Si / 1000 Ang^3
#
#
#
# Elastic Constant Matrix: (Units=GPa)
#
#
# Indices 1 2 3 4 5 6 
#
# 1 83.6827 25.5970 15.0217 0.0000 0.0000 0.0000
# 2 25.5970 97.7050 68.8692 0.0000 0.0000 0.0000
# 3 15.0217 68.8692 87.0216 0.0000 0.0000 0.0000
# 4 0.0000 0.0000 0.0000 96.0068 0.0000 0.0000
# 5 0.0000 0.0000 0.0000 0.0000 33.0664 0.0000
# 6 0.0000 0.0000 0.0000 0.0000 0.0000 34.1772
#
#
#
# Elastic Compliance Matrix: (Units=1/GPa)
#
#
# Indices 1 2 3 4 5 6 
#
# 1 0.013031 -0.004135 0.001023 0.000000 0.000000 0.000000
# 2 -0.004135 0.024459 -0.018643 0.000000 0.000000 0.000000
# 3 0.001023 -0.018643 0.026069 0.000000 0.000000 0.000000
# 4 0.000000 0.000000 0.000000 0.010416 0.000000 0.000000
# 5 0.000000 0.000000 0.000000 0.000000 0.030242 0.000000
# 6 0.000000 0.000000 0.000000 0.000000 0.000000 0.029259
#
#
# Mechanical properties :
#
#
# Convention : Reuss Voigt Hill
#
# Bulk Modulus (GPa) = 49.87807 54.15391 52.01599
# Shear Modulus (GPa) = 27.22259 43.24484 35.23371
#
# Velocity S-wave (km/s) = 3.76480 4.74509 4.28308
# Velocity P-wave (km/s) = 6.69834 7.63000 7.17930
#
# Compressibility (1/GPa) = 0.02004889
#
# Stress axis : x y z
#
# Youngs Moduli (GPa) = 76.73957 40.88407 38.35930
#
# Poissons Ratio (x) = 0.16906 -0.03924
# Poissons Ratio (y) = 0.31732 0.71515
# Poissons Ratio (z) = -0.07851 0.76222
#
# Static dielectric constant tensor:
#      x y z
#    x 3.556990 0.000000 0.000000 
#    y 0.000000 3.424450 0.000000 
#    z 0.000000 0.000000 3.443440 
# 
# 
# High freq. dielectric constant tensor:
#      x y z
#    x 1.762960 0.000000 0.000000 
#    y 0.000000 1.749660 0.000000 
#    z 0.000000 0.000000 1.748260 
# 
# From -- ./inp_files/4609.got.cif
#   From: 2010.03.12/outbox.cif.g09.slc.cpg/sg40_3_cif.got.tgz:4609.got - 2010.04.14 01:38:03.
