data_PCOD8184084
_publ_section_title
;
Structure prediction by ZEFSAII (Michael W. Deem and Ramdas Pophale) SiO2 
 PCOD8184084
Probable space group: A M A 2
;
_chemical_formula_sum "Si O2"
_cell_formula_units_Z 64
_cell_length_a 25.179273
_cell_length_b 6.650706
_cell_length_c 18.687602
_cell_angle_alpha 90.000000
_cell_angle_beta 90.000000
_cell_angle_gamma 90.000000
_cell_volume 3129.424747
_symmetry_space_group_name_H-M "A M A 2"
_symmetry_group_IT_number 40
_symmetry_cell_setting 'orthorhombic'
loop_
_space_group_symop_operation_xyz
x,y,z
-x,-y,z
1/2-x,y,z
1/2+x,-y,z
x,1/2+y,1/2+z
-x,1/2-y,1/2+z
1/2-x,1/2+y,1/2+z
1/2+x,1/2-y,1/2+z
loop_
_atom_site_type_symbol
_atom_site_label
_atom_site_fract_x
_atom_site_fract_y
_atom_site_fract_z
Si Si1 0.438862 0.529093 0.446410
Si Si2 0.874634 0.122784 0.503124
Si Si3 0.688423 0.549585 0.866435
Si Si4 0.151146 0.714377 0.740229
Si Si5 0.119818 0.108877 0.807967
Si Si6 0.309882 0.075014 0.095864
Si Si7 0.942392 0.083543 0.217781
Si Si8 0.899614 0.227396 0.075392
O O1 0.500000 0.500000 0.427335
O O2 0.426346 0.753723 0.475984
O O3 0.404660 0.490024 0.375094
O O4 0.422941 0.361647 0.503045
O O5 0.833013 0.278726 0.535865
O O6 0.846026 0.007967 0.437704
O O7 0.892796 0.965537 0.563590
O O8 0.750000 0.562479 0.886774
O O9 0.678724 0.367547 0.811865
O O10 0.670594 0.759376 0.830783
O O11 0.190057 0.681903 0.673226
O O12 0.096066 0.606787 0.721724
O O13 0.140019 0.950954 0.749160
O O14 0.073920 0.250668 0.775947
O O15 0.250000 0.019766 0.074813
O O16 0.342937 0.867741 0.097085
O O17 0.941169 0.184720 0.139164
O O18 0.000000 0.000000 0.236220
#
# Coordination Sequence:
#
# PCOD8184084 Si02
#       8
#     8   8   8   8   8   8   8   8
#     4  10  22  38  59  87 118 152 199 247 294 358
#     4  10  21  39  58  85 117 153 198 247 296 358
#     4  10  21  37  57  85 119 154 198 247 298 358
#     4  10  21  38  57  84 120 153 195 245 296 357
#     4  10  22  39  58  87 119 155 200 247 296 364
#     4  10  21  36  57  85 115 150 197 245 293 355
#     4  10  22  38  60  87 118 153 197 246 297 358
#     4  10  21  40  59  83 119 153 193 247 296 352
#
# _framework density 20.451041
#
# number of rings (size 3 to 8) (size 9 to 14) (size 15 to 20)
#    0.000    2.000    0.000    2.625    1.750    2.500 
#    0.000    1.250    0.000    0.000    0.000    0.000 
#    0.000    0.000    0.000    0.000    0.000    0.000 
#
# Total GULP energy -396948.104090 kJ/mol
# GULP energy per Si atom -12404.628253 kJ/mol
# Density = 2.040449 g / cm^3
# Si number density = 20.451041 Si / 1000 Ang^3
#
#
#
# Elastic Constant Matrix: (Units=GPa)
#
#
# Indices 1 2 3 4 5 6 
#
# 1 87.8398 18.6398 -0.0915 0.0000 0.0000 0.0000
# 2 18.6398 71.9777 7.7329 0.0000 0.0000 0.0000
# 3 -0.0915 7.7329 75.5545 0.0000 0.0000 0.0000
# 4 0.0000 0.0000 0.0000 34.2909 0.0000 0.0000
# 5 0.0000 0.0000 0.0000 0.0000 20.6914 0.0000
# 6 0.0000 0.0000 0.0000 0.0000 0.0000 17.8331
#
#
#
# Elastic Compliance Matrix: (Units=1/GPa)
#
#
# Indices 1 2 3 4 5 6 
#
# 1 0.012055 -0.003158 0.000338 0.000000 0.000000 0.000000
# 2 -0.003158 0.014875 -0.001526 0.000000 0.000000 0.000000
# 3 0.000338 -0.001526 0.013392 0.000000 0.000000 0.000000
# 4 0.000000 0.000000 0.000000 0.029162 0.000000 0.000000
# 5 0.000000 0.000000 0.000000 0.000000 0.048329 0.000000
# 6 0.000000 0.000000 0.000000 0.000000 0.000000 0.056076
#
#
# Mechanical properties :
#
#
# Convention : Reuss Voigt Hill
#
# Bulk Modulus (GPa) = 31.61666 31.99273 31.80470
# Shear Modulus (GPa) = 25.88997 28.50246 27.19621
#
# Velocity S-wave (km/s) = 3.56188 3.73727 3.65063
# Velocity P-wave (km/s) = 5.69291 5.85666 5.77536
#
# Compressibility (1/GPa) = 0.03162889
#
# Stress axis : x y z
#
# Youngs Moduli (GPa) = 82.95402 67.22688 74.67085
#
# Poissons Ratio (x) = 0.21231 -0.02523
# Poissons Ratio (y) = 0.26198 0.11397
# Poissons Ratio (z) = -0.02802 0.10261
#
# Static dielectric constant tensor:
#      x y z
#    x 3.481370 0.000000 0.000000 
#    y 0.000000 3.566380 0.000000 
#    z 0.000000 0.000000 3.844390 
# 
# 
# High freq. dielectric constant tensor:
#      x y z
#    x 1.787860 0.000000 0.000000 
#    y 0.000000 1.793060 0.000000 
#    z 0.000000 0.000000 1.815010 
# 
# From -- ./inp_files/23714.got.cif
#   From: 2010.03.12/outbox.cif.g09.slc.cpg/sg40_12_cif.got.tgz:23714.got - 2010.04.14 01:38:03.
