data_PCOD8184090
_publ_section_title
;
Structure prediction by ZEFSAII (Michael W. Deem and Ramdas Pophale) SiO2 
 PCOD8184090
Probable space group: A M A 2
;
_chemical_formula_sum "Si O2"
_cell_formula_units_Z 64
_cell_length_a 8.844687
_cell_length_b 24.066274
_cell_length_c 14.631834
_cell_angle_alpha 90.000000
_cell_angle_beta 90.000000
_cell_angle_gamma 90.000000
_cell_volume 3114.512590
_symmetry_space_group_name_H-M "A M A 2"
_symmetry_group_IT_number 40
_symmetry_cell_setting 'orthorhombic'
loop_
_space_group_symop_operation_xyz
x,y,z
-x,-y,z
1/2-x,y,z
1/2+x,-y,z
x,1/2+y,1/2+z
-x,1/2-y,1/2+z
1/2-x,1/2+y,1/2+z
1/2+x,1/2-y,1/2+z
loop_
_atom_site_type_symbol
_atom_site_label
_atom_site_fract_x
_atom_site_fract_y
_atom_site_fract_z
Si Si1 0.916584 0.736605 0.725750
Si Si2 0.417405 0.272421 0.509107
Si Si3 0.928452 0.383423 0.518005
Si Si4 0.571472 0.847854 0.518044
Si Si5 0.073532 0.346418 0.213549
Si Si6 0.429206 0.442554 0.352986
Si Si7 0.569672 0.614945 0.715407
Si Si8 0.929621 0.942916 0.380360
O O1 0.750000 0.747741 0.766557
O O2 0.907459 0.734614 0.617062
O O3 0.977427 0.675794 0.755628
O O4 0.023795 0.787057 0.757393
O O5 0.250000 0.287137 0.470166
O O6 0.530825 0.321533 0.481143
O O7 0.475797 0.212103 0.473685
O O8 0.750000 0.389965 0.524149
O O9 0.996746 0.428992 0.450398
O O10 0.001582 0.394847 0.615824
O O11 0.750000 0.848702 0.532198
O O12 0.499909 0.858750 0.616310
O O13 0.515851 0.895540 0.450076
O O14 0.250000 0.344295 0.198660
O O15 0.023894 0.395133 0.281381
O O16 0.500000 0.500000 0.316840
O O17 0.250000 0.447824 0.363369
O O18 0.750000 0.609424 0.709387
O O19 0.499193 0.568792 0.780974
O O20 0.750000 0.946984 0.373606
O O21 0.000000 0.000000 0.417394
#
# Coordination Sequence:
#
# PCOD8184090 Si02
#       8
#     8   8   8   8   8   8   8   8
#     4   8  16  32  56  85 117 149 183 224 278 338
#     4   8  15  32  56  84 116 149 184 227 278 334
#     4  11  22  37  60  89 117 149 186 230 283 341
#     4   9  20  38  60  84 116 154 189 230 283 336
#     4  10  21  36  59  88 117 148 186 233 284 336
#     4  11  25  43  59  81 112 149 194 241 283 332
#     4  10  21  39  61  86 117 152 187 232 283 334
#     4  11  24  41  59  83 113 150 196 241 282 333
#
# _framework density 20.548960999999998
#
# number of rings (size 3 to 8) (size 9 to 14) (size 15 to 20)
#    0.000    2.250    0.000    4.125    0.000   10.000 
#    0.000    8.750    0.000    0.000    0.000    0.000 
#    0.000    0.000    0.000    0.000    0.000    0.000 
#
# Total GULP energy -396778.000149 kJ/mol
# GULP energy per Si atom -12399.312505 kJ/mol
# Density = 2.050219 g / cm^3
# Si number density = 20.548961 Si / 1000 Ang^3
#
#
#
# Elastic Constant Matrix: (Units=GPa)
#
#
# Indices 1 2 3 4 5 6 
#
# 1 79.6911 23.6836 21.8275 0.0000 0.0000 0.0000
# 2 23.6836 89.3882 12.5436 0.0000 0.0000 0.0000
# 3 21.8275 12.5436 45.7127 0.0000 0.0000 0.0000
# 4 0.0000 0.0000 0.0000 33.8535 0.0000 0.0000
# 5 0.0000 0.0000 0.0000 0.0000 16.7858 0.0000
# 6 0.0000 0.0000 0.0000 0.0000 0.0000 33.8733
#
#
#
# Elastic Compliance Matrix: (Units=1/GPa)
#
#
# Indices 1 2 3 4 5 6 
#
# 1 0.015238 -0.003137 -0.006415 0.000000 0.000000 0.000000
# 2 -0.003137 0.012281 -0.001872 0.000000 0.000000 0.000000
# 3 -0.006415 -0.001872 0.025453 0.000000 0.000000 0.000000
# 4 0.000000 0.000000 0.000000 0.029539 0.000000 0.000000
# 5 0.000000 0.000000 0.000000 0.000000 0.059574 0.000000
# 6 0.000000 0.000000 0.000000 0.000000 0.000000 0.029522
#
#
# Mechanical properties :
#
#
# Convention : Reuss Voigt Hill
#
# Bulk Modulus (GPa) = 33.19717 36.76683 34.98200
# Shear Modulus (GPa) = 24.45037 27.35169 25.90103
#
# Velocity S-wave (km/s) = 3.45318 3.65231 3.55414
# Velocity P-wave (km/s) = 5.66476 5.97637 5.82265
#
# Compressibility (1/GPa) = 0.03012305
#
# Stress axis : x y z
#
# Youngs Moduli (GPa) = 65.62589 81.42641 39.28868
#
# Poissons Ratio (x) = 0.25544 0.25204
# Poissons Ratio (y) = 0.20587 0.07355
# Poissons Ratio (z) = 0.42100 0.15243
#
# Static dielectric constant tensor:
#      x y z
#    x 3.685540 0.000000 0.000000 
#    y 0.000000 4.059950 0.000000 
#    z 0.000000 0.000000 3.515190 
# 
# 
# High freq. dielectric constant tensor:
#      x y z
#    x 1.803110 0.000000 0.000000 
#    y 0.000000 1.813530 0.000000 
#    z 0.000000 0.000000 1.790000 
# 
# From -- ./inp_files/15696.got.cif
#   From: 2010.03.12/outbox.cif.g09.slc.cpg/sg40_8_cif.got.tgz:15696.got - 2010.04.14 01:38:03.
