data_PCOD8184031
_publ_section_title
;
Structure prediction by ZEFSAII (Michael W. Deem and Ramdas Pophale) SiO2 
 PCOD8184031
Probable space group: A M A 2
;
_chemical_formula_sum "Si O2"
_cell_formula_units_Z 64
_cell_length_a 17.572448
_cell_length_b 12.420521
_cell_length_c 14.653916
_cell_angle_alpha 90.000000
_cell_angle_beta 90.000000
_cell_angle_gamma 90.000000
_cell_volume 3198.348457
_symmetry_space_group_name_H-M "A M A 2"
_symmetry_group_IT_number 40
_symmetry_cell_setting 'orthorhombic'
loop_
_space_group_symop_operation_xyz
x,y,z
-x,-y,z
1/2-x,y,z
1/2+x,-y,z
x,1/2+y,1/2+z
-x,1/2-y,1/2+z
1/2-x,1/2+y,1/2+z
1/2+x,1/2-y,1/2+z
loop_
_atom_site_type_symbol
_atom_site_label
_atom_site_fract_x
_atom_site_fract_y
_atom_site_fract_z
Si Si1 0.836388 0.877570 0.689980
Si Si2 0.020076 0.878191 0.984013
Si Si3 0.838292 0.094390 0.401383
Si Si4 0.949394 0.786774 0.166736
Si Si5 0.418633 0.442999 0.088861
Si Si6 0.162779 0.846827 0.088965
Si Si7 0.663398 0.464886 0.725899
Si Si8 0.062393 0.227207 0.819070
O O1 0.750000 0.882537 0.725149
O O2 0.850582 0.771593 0.629156
O O3 0.895331 0.876258 0.774734
O O4 0.853675 0.982470 0.631290
O O5 0.110586 0.862267 0.999093
O O6 0.977738 0.841136 0.074680
O O7 0.000000 0.000000 0.960645
O O8 0.994213 0.805513 0.899616
O O9 0.750000 0.109918 0.429790
O O10 0.893423 0.077093 0.486040
O O11 0.866929 0.201544 0.352101
O O12 0.847348 0.994428 0.332264
O O13 0.922055 0.665758 0.147444
O O14 0.880214 0.855925 0.204716
O O15 0.014783 0.790361 0.242609
O O16 0.500000 0.500000 0.089256
O O17 0.250000 0.862657 0.058697
O O18 0.136791 0.934755 0.163764
O O19 0.750000 0.438987 0.703383
#
# Coordination Sequence:
#
# PCOD8184031 Si02
#       8
#     8   8   8   8   8   8   8   8
#     4  11  23  43  70  94 129 179 220 263 330 402
#     4  12  24  42  67 101 129 174 225 271 329 391
#     4  11  24  43  69 102 133 172 228 281 336 402
#     4  12  25  44  67  98 136 176 222 277 338 395
#     4  12  25  44  65  99 138 178 223 275 336 400
#     4  10  20  41  69  97 129 169 220 270 329 397
#     4  10  22  41  68 101 133 171 223 284 338 392
#     4  12  25  42  68  98 136 175 222 279 322 401
#
# _framework density 20.010328000000001
#
# number of rings (size 3 to 8) (size 9 to 14) (size 15 to 20)
#    0.000    0.750    6.250    0.750    3.500    1.000 
#    0.000    3.125    0.000    0.000    0.000    0.000 
#    0.000    0.000    0.000    0.000    0.000    0.000 
#
# Total GULP energy -396882.786361 kJ/mol
# GULP energy per Si atom -12402.587074 kJ/mol
# Density = 1.996478 g / cm^3
# Si number density = 20.010328 Si / 1000 Ang^3
#
#
#
# Elastic Constant Matrix: (Units=GPa)
#
#
# Indices 1 2 3 4 5 6 
#
# 1 110.5936 40.2130 38.7362 0.0000 0.0000 0.0000
# 2 40.2130 106.8833 17.7311 0.0000 0.0000 0.0000
# 3 38.7362 17.7311 80.8758 0.0000 0.0000 0.0000
# 4 0.0000 0.0000 0.0000 22.3334 0.0000 0.0000
# 5 0.0000 0.0000 0.0000 0.0000 35.4270 0.0000
# 6 0.0000 0.0000 0.0000 0.0000 0.0000 33.7270
#
#
#
# Elastic Compliance Matrix: (Units=1/GPa)
#
#
# Indices 1 2 3 4 5 6 
#
# 1 0.012155 -0.003743 -0.005001 0.000000 0.000000 0.000000
# 2 -0.003743 0.010862 -0.000588 0.000000 0.000000 0.000000
# 3 -0.005001 -0.000588 0.014889 0.000000 0.000000 0.000000
# 4 0.000000 0.000000 0.000000 0.044776 0.000000 0.000000
# 5 0.000000 0.000000 0.000000 0.000000 0.028227 0.000000
# 6 0.000000 0.000000 0.000000 0.000000 0.000000 0.029650
#
#
# Mechanical properties :
#
#
# Convention : Reuss Voigt Hill
#
# Bulk Modulus (GPa) = 51.97475 54.63483 53.30479
# Shear Modulus (GPa) = 30.18636 31.74232 30.96434
#
# Velocity S-wave (km/s) = 3.88820 3.98715 3.93799
# Velocity P-wave (km/s) = 6.79617 6.96844 6.88284
#
# Compressibility (1/GPa) = 0.01924011
#
# Stress axis : x y z
#
# Youngs Moduli (GPa) = 82.27128 92.06393 67.16408
#
# Poissons Ratio (x) = 0.34464 0.33589
# Poissons Ratio (y) = 0.30798 0.03952
# Poissons Ratio (z) = 0.41144 0.05417
#
# Static dielectric constant tensor:
#      x y z
#    x 3.798550 0.000000 0.000000 
#    y 0.000000 3.669730 0.000000 
#    z 0.000000 0.000000 3.675550 
# 
# 
# High freq. dielectric constant tensor:
#      x y z
#    x 1.795670 0.000000 0.000000 
#    y 0.000000 1.780220 0.000000 
#    z 0.000000 0.000000 1.775480 
# 
# From -- ./inp_files/17884.got.cif
#   From: 2010.03.12/outbox.cif.g09.slc.cpg/sg40_9_cif.got.tgz:17884.got - 2010.04.14 01:38:03.
