data_PCOD8184285
_publ_section_title
;
Structure prediction by ZEFSAII (Michael W. Deem and Ramdas Pophale) SiO2 
 PCOD8184285
Probable space group: A M A 2
;
_chemical_formula_sum "Si O2"
_cell_formula_units_Z 64
_cell_length_a 8.697360
_cell_length_b 30.561131
_cell_length_c 11.857271
_cell_angle_alpha 90.000000
_cell_angle_beta 90.000000
_cell_angle_gamma 90.000000
_cell_volume 3151.676366
_symmetry_space_group_name_H-M "A M A 2"
_symmetry_group_IT_number 40
_symmetry_cell_setting 'orthorhombic'
loop_
_space_group_symop_operation_xyz
x,y,z
-x,-y,z
1/2-x,y,z
1/2+x,-y,z
x,1/2+y,1/2+z
-x,1/2-y,1/2+z
1/2-x,1/2+y,1/2+z
1/2+x,1/2-y,1/2+z
loop_
_atom_site_type_symbol
_atom_site_label
_atom_site_fract_x
_atom_site_fract_y
_atom_site_fract_z
Si Si1 0.073969 0.200289 0.010100
Si Si2 0.430982 0.044697 0.013415
Si Si3 0.429640 0.625956 0.133830
Si Si4 0.070985 0.375885 0.376388
Si Si5 0.068526 0.043799 0.481420
Si Si6 0.574773 0.839413 0.250305
Si Si7 0.070682 0.430785 0.747884
Si Si8 0.426599 0.208032 0.480247
O O1 0.250000 0.192469 0.975438
O O2 0.043231 0.187946 0.138763
O O3 0.970305 0.171294 0.927534
O O4 0.035184 0.250995 0.999737
O O5 0.250000 0.041738 0.008262
O O6 0.483532 0.048954 0.141898
O O7 0.500000 0.000000 0.961137
O O8 0.481191 0.086262 0.941111
O O9 0.250000 0.623802 0.164519
O O10 0.529742 0.623760 0.245572
O O11 0.478435 0.585317 0.056020
O O12 0.471212 0.670238 0.068210
O O13 0.250000 0.384620 0.392222
O O14 0.250000 0.040604 0.468095
O O15 0.992123 0.046543 0.359275
O O16 0.000000 0.000000 0.539832
O O17 0.750000 0.857610 0.255521
O O18 0.457106 0.879130 0.254241
O O19 0.541727 0.807962 0.354280
O O20 0.250000 0.440343 0.734372
O O21 0.250000 0.222011 0.496358
#
# Coordination Sequence:
#
# PCOD8184285 Si02
#       8
#     8   8   8   8   8   8   8   8
#     4  11  24  41  65  96 130 168 212 262 320 378
#     4  12  25  44  68  95 129 167 212 262 317 380
#     4  10  23  44  67  91 126 171 214 263 320 376
#     4  12  26  44  66  94 129 168 213 263 318 381
#     4  11  23  42  66  94 129 168 212 261 315 377
#     4  10  21  41  66  92 127 171 208 260 321 374
#     4  12  23  38  64  98 132 167 210 261 318 376
#     4  10  22  42  66  94 128 167 214 263 317 375
#
# _framework density 20.306654999999999
#
# number of rings (size 3 to 8) (size 9 to 14) (size 15 to 20)
#    0.000    1.000    2.500    4.500    1.750    3.000 
#    0.000    1.250    0.000    0.000    0.000    0.000 
#    0.000    0.000    0.000    0.000    0.000    0.000 
#
# Total GULP energy -397008.566634 kJ/mol
# GULP energy per Si atom -12406.517707 kJ/mol
# Density = 2.026044 g / cm^3
# Si number density = 20.306655 Si / 1000 Ang^3
#
#
#
# Elastic Constant Matrix: (Units=GPa)
#
#
# Indices 1 2 3 4 5 6 
#
# 1 121.5089 46.5854 49.1993 0.0000 0.0000 0.0000
# 2 46.5854 135.7419 40.7023 0.0000 0.0000 0.0000
# 3 49.1993 40.7023 109.0487 0.0000 0.0000 0.0000
# 4 0.0000 0.0000 0.0000 23.5366 0.0000 0.0000
# 5 0.0000 0.0000 0.0000 0.0000 41.1601 0.0000
# 6 0.0000 0.0000 0.0000 0.0000 0.0000 37.8593
#
#
#
# Elastic Compliance Matrix: (Units=1/GPa)
#
#
# Indices 1 2 3 4 5 6 
#
# 1 0.010787 -0.002525 -0.003924 0.000000 0.000000 0.000000
# 2 -0.002525 0.008887 -0.002178 0.000000 0.000000 0.000000
# 3 -0.003924 -0.002178 0.011753 0.000000 0.000000 0.000000
# 4 0.000000 0.000000 0.000000 0.042487 0.000000 0.000000
# 5 0.000000 0.000000 0.000000 0.000000 0.024295 0.000000
# 6 0.000000 0.000000 0.000000 0.000000 0.000000 0.026414
#
#
# Mechanical properties :
#
#
# Convention : Reuss Voigt Hill
#
# Bulk Modulus (GPa) = 70.55732 71.03038 70.79385
# Shear Modulus (GPa) = 34.10614 35.83205 34.96909
#
# Velocity S-wave (km/s) = 4.10268 4.20521 4.15426
# Velocity P-wave (km/s) = 7.56730 7.65723 7.61240
#
# Compressibility (1/GPa) = 0.01417287
#
# Stress axis : x y z
#
# Youngs Moduli (GPa) = 92.70476 112.52996 85.08150
#
# Poissons Ratio (x) = 0.28417 0.33387
# Poissons Ratio (y) = 0.23411 0.18527
# Poissons Ratio (z) = 0.36379 0.24504
#
# Static dielectric constant tensor:
#      x y z
#    x 3.703970 0.000000 0.000000 
#    y 0.000000 3.846770 0.000000 
#    z 0.000000 0.000000 3.755970 
# 
# 
# High freq. dielectric constant tensor:
#      x y z
#    x 1.796790 0.000000 0.000000 
#    y 0.000000 1.809230 0.000000 
#    z 0.000000 0.000000 1.798160 
# 
# From -- ./inp_files/10619.got.cif
#   From: 2010.03.12/outbox.cif.g09.slc.cpg/sg40_6_cif.got.tgz:10619.got - 2010.04.14 01:38:03.
