data_PCOD8184784
_publ_section_title
;
Structure prediction by ZEFSAII (Michael W. Deem and Ramdas Pophale) SiO2 
 PCOD8184784
Probable space group: A B A 2
;
_chemical_formula_sum "Si O2"
_cell_formula_units_Z 52
_cell_length_a 8.132165
_cell_length_b 20.166206
_cell_length_c 14.394323
_cell_angle_alpha 90.000000
_cell_angle_beta 90.000000
_cell_angle_gamma 90.000000
_cell_volume 2360.595771
_symmetry_space_group_name_H-M "A B A 2"
_symmetry_group_IT_number 41
_symmetry_cell_setting 'orthorhombic'
loop_
_space_group_symop_operation_xyz
x,y,z
-x,-y,z
1/2-x,y,1/2+z
1/2+x,-y,1/2+z
x,1/2+y,1/2+z
-x,1/2-y,1/2+z
1/2-x,1/2+y,z
1/2+x,1/2-y,z
loop_
_atom_site_type_symbol
_atom_site_label
_atom_site_fract_x
_atom_site_fract_y
_atom_site_fract_z
Si Si1 0.535707 0.800730 0.170160
Si Si2 0.873847 0.598444 0.306473
Si Si3 0.548247 0.102445 0.031876
Si Si4 0.926786 0.070770 0.012424
Si Si5 0.500000 0.500000 0.672037
Si Si6 0.404447 0.159982 0.664486
Si Si7 0.493617 0.921243 0.830407
O O1 0.468329 0.840424 0.259488
O O2 0.439469 0.823929 0.075843
O O3 0.723782 0.814321 0.145469
O O4 0.516761 0.723225 0.189229
O O5 0.964375 0.585394 0.404322
O O6 0.866742 0.532746 0.241056
O O7 0.683291 0.613813 0.320127
O O8 0.729920 0.070293 0.027683
O O9 0.436062 0.059209 0.104668
O O10 0.451169 0.099325 0.934475
O O11 0.015987 0.125436 0.075019
O O12 0.000000 0.000000 0.041169
O O13 0.391177 0.110624 0.752562
O O14 0.500000 0.000000 0.820015
#
# Coordination Sequence:
#
# PCOD8184784 Si02
#       7
#     8   8   8   8   4   8   8
#     4  11  26  45  67  94 123 183 216 274 327 388
#     4  10  23  40  67  93 137 166 220 262 325 380
#     4  10  23  40  67  93 137 166 220 262 325 380
#     4  11  24  41  65 102 133 173 212 273 321 392
#     4  10  18  38  60  92 126 168 200 258 310 382
#     4  12  26  43  68  91 135 168 228 265 330 389
#     4  11  24  41  65 102 133 173 212 273 321 392
#
# _framework density 22.028338000000002
#
# number of rings (size 3 to 8) (size 9 to 14) (size 15 to 20)
#    0.000    1.231    1.538    4.154    8.615    2.462 
#    0.000    0.000    0.000    0.000    0.000    0.000 
#    0.000    0.000    0.000    0.000    0.000    0.000 
#
# Total GULP energy -322280.906679 kJ/mol
# GULP energy per Si atom -12395.419488 kJ/mol
# Density = 2.197820 g / cm^3
# Si number density = 22.028338 Si / 1000 Ang^3
#
#
#
# Elastic Constant Matrix: (Units=GPa)
#
#
# Indices 1 2 3 4 5 6 
#
# 1 63.7893 20.1952 23.4367 0.0000 0.0000 0.0000
# 2 20.1952 126.2238 64.0670 0.0000 0.0000 0.0000
# 3 23.4367 64.0670 175.5407 0.0000 0.0000 0.0000
# 4 0.0000 0.0000 0.0000 25.5380 0.0000 0.0000
# 5 0.0000 0.0000 0.0000 0.0000 26.3107 0.0000
# 6 0.0000 0.0000 0.0000 0.0000 0.0000 34.7183
#
#
#
# Elastic Compliance Matrix: (Units=1/GPa)
#
#
# Indices 1 2 3 4 5 6 
#
# 1 0.016851 -0.001908 -0.001554 0.000000 0.000000 0.000000
# 2 -0.001908 0.009940 -0.003373 0.000000 0.000000 0.000000
# 3 -0.001554 -0.003373 0.007135 0.000000 0.000000 0.000000
# 4 0.000000 0.000000 0.000000 0.039157 0.000000 0.000000
# 5 0.000000 0.000000 0.000000 0.000000 0.038007 0.000000
# 6 0.000000 0.000000 0.000000 0.000000 0.000000 0.028803
#
#
# Mechanical properties :
#
#
# Convention : Reuss Voigt Hill
#
# Bulk Modulus (GPa) = 49.36382 64.55021 56.95701
# Shear Modulus (GPa) = 31.18859 34.50373 32.84616
#
# Velocity S-wave (km/s) = 3.76685 3.96199 3.86565
# Velocity P-wave (km/s) = 6.43247 7.09201 6.77028
#
# Compressibility (1/GPa) = 0.02025775
#
# Stress axis : x y z
#
# Youngs Moduli (GPa) = 59.34246 100.60715 140.15116
#
# Poissons Ratio (x) = 0.19191 0.21775
# Poissons Ratio (y) = 0.11320 0.47273
# Poissons Ratio (z) = 0.09220 0.33935
#
# Static dielectric constant tensor:
#      x y z
#    x 3.744410 0.000000 0.000000 
#    y 0.000000 4.095750 0.000000 
#    z 0.000000 0.000000 4.337630 
# 
# 
# High freq. dielectric constant tensor:
#      x y z
#    x 1.853140 0.000000 0.000000 
#    y 0.000000 1.863440 0.000000 
#    z 0.000000 0.000000 1.884360 
# 
# From -- ./inp_files/7423.got.cif
#   From: 2010.03.12/outbox.cif.g09.slc.cpg/sg41_4_cif.got.tgz:7423.got - 2010.04.14 01:55:53.
