data_PCOD8184806
_publ_section_title
;
Structure prediction by ZEFSAII (Michael W. Deem and Ramdas Pophale) SiO2 
 PCOD8184806
Probable space group: A B A 2
;
_chemical_formula_sum "Si O2"
_cell_formula_units_Z 40
_cell_length_a 17.903034
_cell_length_b 5.006334
_cell_length_c 24.365565
_cell_angle_alpha 90.000000
_cell_angle_beta 90.000000
_cell_angle_gamma 90.000000
_cell_volume 2183.850695
_symmetry_space_group_name_H-M "A B A 2"
_symmetry_group_IT_number 41
_symmetry_cell_setting 'orthorhombic'
loop_
_space_group_symop_operation_xyz
x,y,z
-x,-y,z
1/2-x,y,1/2+z
1/2+x,-y,1/2+z
x,1/2+y,1/2+z
-x,1/2-y,1/2+z
1/2-x,1/2+y,z
1/2+x,1/2-y,z
loop_
_atom_site_type_symbol
_atom_site_label
_atom_site_fract_x
_atom_site_fract_y
_atom_site_fract_z
Si Si1 0.085654 0.478198 0.869850
Si Si2 0.297393 0.590423 0.584031
Si Si3 0.698991 0.015553 0.966555
Si Si4 0.414346 0.978198 0.298212
Si Si5 0.801009 0.015553 0.701507
O O1 0.135681 0.538809 0.922284
O O2 0.103929 0.686736 0.821620
O O3 0.000000 0.500000 0.888842
O O4 0.103929 0.186736 0.846441
O O5 0.277200 0.903801 0.584031
O O6 0.339852 0.520154 0.527006
O O7 0.339852 0.520154 0.641055
O O8 0.767455 0.810132 0.959488
O O9 0.500000 0.000000 0.279220
O O10 0.364319 0.038808 0.245777
O O11 0.732546 0.810132 0.708573
#
# Coordination Sequence:
#
# PCOD8184806 Si02
#       5
#     8   8   8   8   8
#     4  10  21  35  49  69 100 131 157 194 243 284
#     4   8  16  30  47  70  97 122 150 194 244 276
#     4  10  19  32  52  74  96 124 161 199 234 281
#     4  10  21  35  49  69 100 131 157 194 243 284
#     4  10  19  32  52  74  96 124 161 199 234 281
#
# _framework density 18.316269999999999
#
# number of rings (size 3 to 8) (size 9 to 14) (size 15 to 20)
#    0.000    2.400    0.000    2.400    0.000    4.800 
#    0.000    1.000    0.000    0.000    0.000   25.200 
#    0.000    0.000    0.000    0.000    0.000    0.000 
#
# Total GULP energy -247904.736518 kJ/mol
# GULP energy per Si atom -12395.236826 kJ/mol
# Density = 1.827458 g / cm^3
# Si number density = 18.316270 Si / 1000 Ang^3
#
#
#
# Elastic Constant Matrix: (Units=GPa)
#
#
# Indices 1 2 3 4 5 6 
#
# 1 55.7723 9.4033 67.7043 0.0000 0.0000 0.0000
# 2 9.4033 70.7395 0.2980 0.0000 0.0000 0.0000
# 3 67.7043 0.2980 139.9502 0.0000 0.0000 0.0000
# 4 0.0000 0.0000 0.0000 14.6299 0.0000 0.0000
# 5 0.0000 0.0000 0.0000 0.0000 -0.7132 0.0000
# 6 0.0000 0.0000 0.0000 0.0000 0.0000 17.6082
#
#
#
# Elastic Compliance Matrix: (Units=1/GPa)
#
#
# Indices 1 2 3 4 5 6 
#
# 1 0.045857 -0.006002 -0.022172 0.000000 0.000000 0.000000
# 2 -0.006002 0.014922 0.002872 0.000000 0.000000 0.000000
# 3 -0.022172 0.002872 0.017865 0.000000 0.000000 0.000000
# 4 0.000000 0.000000 0.000000 0.068353 0.000000 0.000000
# 5 0.000000 0.000000 0.000000 0.000000 -1.402226 0.000000
# 6 0.000000 0.000000 0.000000 0.000000 0.000000 0.056792
#
#
# Mechanical properties :
#
#
# Convention : Reuss Voigt Hill
#
# Bulk Modulus (GPa) = 35.66258 46.80814 41.23536
# Shear Modulus (GPa) = -4.39180 18.90874 7.25847
#
# Velocity S-wave (km/s) = -1.55015 3.21650 1.99285
# Velocity P-wave (km/s) = 4.03841 6.27738 5.27798
#
# Compressibility (1/GPa) = 0.02804059
#
# Stress axis : x y z
#
# Youngs Moduli (GPa) = 21.80677 67.01444 55.97397
#
# Poissons Ratio (x) = 0.40225 1.24104
# Poissons Ratio (y) = 0.13089 -0.16076
# Poissons Ratio (z) = 0.48350 -0.19247
#
# Static dielectric constant tensor:
#      x y z
#    x 2.900690 0.000000 0.000000 
#    y 0.000000 3.578930 0.000000 
#    z 0.000000 0.000000 3.621940 
# 
# 
# High freq. dielectric constant tensor:
#      x y z
#    x 1.652450 0.000000 0.000000 
#    y 0.000000 1.735550 0.000000 
#    z 0.000000 0.000000 1.727740 
# 
# From -- ./inp_files/239.got.cif
#   From: 2010.03.12/outbox.cif.g09.slc.cpg/sg41_1_cif.got.tgz:239.got - 2010.04.14 01:55:53.
