data_PCOD8184002
_publ_section_title
;
Structure prediction by ZEFSAII (Michael W. Deem and Ramdas Pophale) SiO2 
 PCOD8184002
Probable space group: A M A 2
;
_chemical_formula_sum "Si O2"
_cell_formula_units_Z 40
_cell_length_a 19.052538
_cell_length_b 12.892343
_cell_length_c 7.652147
_cell_angle_alpha 90.000000
_cell_angle_beta 90.000000
_cell_angle_gamma 90.000000
_cell_volume 1879.611062
_symmetry_space_group_name_H-M "A M A 2"
_symmetry_group_IT_number 40
_symmetry_cell_setting 'orthorhombic'
loop_
_space_group_symop_operation_xyz
x,y,z
-x,-y,z
1/2-x,y,z
1/2+x,-y,z
x,1/2+y,1/2+z
-x,1/2-y,1/2+z
1/2-x,1/2+y,1/2+z
1/2+x,1/2-y,1/2+z
loop_
_atom_site_type_symbol
_atom_site_label
_atom_site_fract_x
_atom_site_fract_y
_atom_site_fract_z
Si Si1 0.972084 0.385211 0.227600
Si Si2 0.329270 0.387534 0.913741
Si Si3 0.172464 0.541069 0.222502
Si Si4 0.571417 0.776675 0.042823
Si Si5 0.830362 0.947004 0.128126
O O1 0.890211 0.381351 0.164298
O O2 0.975050 0.357805 0.432358
O O3 0.000000 0.500000 0.191592
O O4 0.018609 0.299563 0.136111
O O5 0.250000 0.351567 0.873528
O O6 0.378841 0.287534 0.910140
O O7 0.355819 0.465013 0.762390
O O8 0.333836 0.437286 0.107406
O O9 0.250000 0.591482 0.192635
O O10 0.161652 0.512991 0.427828
O O11 0.621831 0.845269 0.167862
O O12 0.750000 0.916592 0.169712
#
# Coordination Sequence:
#
# PCOD8184002 Si02
#       5
#     8   8   8   8   8
#     4  11  24  41  60  90 129 162 208 261 311 373
#     4  10  20  39  68  95 125 167 210 262 317 369
#     4   9  19  39  64  88 124 161 200 264 313 360
#     4  11  24  39  64  91 127 172 211 255 316 381
#     4   9  20  39  63  95 127 163 214 264 311 371
#
# _framework density 21.280999999999999
#
# number of rings (size 3 to 8) (size 9 to 14) (size 15 to 20)
#    0.000    2.000    2.000    0.600    2.800    4.000 
#    0.000    0.000    0.000   10.800    0.000    0.000 
#    0.000    0.000    0.000    0.000    0.000    0.000 
#
# Total GULP energy -247839.793349 kJ/mol
# GULP energy per Si atom -12391.989667 kJ/mol
# Density = 2.123256 g / cm^3
# Si number density = 21.281000 Si / 1000 Ang^3
#
#
#
# Elastic Constant Matrix: (Units=GPa)
#
#
# Indices 1 2 3 4 5 6 
#
# 1 109.8314 29.5587 25.8452 0.0000 0.0000 0.0000
# 2 29.5587 48.6607 15.7054 0.0000 0.0000 0.0000
# 3 25.8452 15.7054 64.3012 0.0000 0.0000 0.0000
# 4 0.0000 0.0000 0.0000 35.2470 0.0000 0.0000
# 5 0.0000 0.0000 0.0000 0.0000 13.3837 0.0000
# 6 0.0000 0.0000 0.0000 0.0000 0.0000 20.1960
#
#
#
# Elastic Compliance Matrix: (Units=1/GPa)
#
#
# Indices 1 2 3 4 5 6 
#
# 1 0.011443 -0.005934 -0.003150 0.000000 0.000000 0.000000
# 2 -0.005934 0.025387 -0.003815 0.000000 0.000000 0.000000
# 3 -0.003150 -0.003815 0.017750 0.000000 0.000000 0.000000
# 4 0.000000 0.000000 0.000000 0.028371 0.000000 0.000000
# 5 0.000000 0.000000 0.000000 0.000000 0.074718 0.000000
# 6 0.000000 0.000000 0.000000 0.000000 0.000000 0.049515
#
#
# Mechanical properties :
#
#
# Convention : Reuss Voigt Hill
#
# Bulk Modulus (GPa) = 34.74616 40.55686 37.65151
# Shear Modulus (GPa) = 20.61203 23.87760 22.24481
#
# Velocity S-wave (km/s) = 3.11555 3.35328 3.23660
# Velocity P-wave (km/s) = 5.41341 5.83882 5.63013
#
# Compressibility (1/GPa) = 0.02878016
#
# Stress axis : x y z
#
# Youngs Moduli (GPa) = 87.38777 39.39062 56.33863
#
# Poissons Ratio (x) = 0.23376 0.17747
# Poissons Ratio (y) = 0.51860 0.21495
# Poissons Ratio (z) = 0.27527 0.15029
#
# Static dielectric constant tensor:
#      x y z
#    x 4.319930 0.000000 0.000000 
#    y 0.000000 3.736980 0.000000 
#    z 0.000000 0.000000 3.768670 
# 
# 
# High freq. dielectric constant tensor:
#      x y z
#    x 1.855420 0.000000 0.000000 
#    y 0.000000 1.818390 0.000000 
#    z 0.000000 0.000000 1.817770 
# 
# From -- ./inp_files/7140.got.cif
#   From: 2010.03.12/outbox.cif.g09.slc.cpg/sg40_4_cif.got.tgz:7140.got - 2010.04.14 01:38:03.
