data_PCOD8184418
_publ_section_title
;
Structure prediction by ZEFSAII (Michael W. Deem and Ramdas Pophale) SiO2 
 PCOD8184418
Probable space group: A M A 2
;
_chemical_formula_sum "Si O2"
_cell_formula_units_Z 48
_cell_length_a 15.980220
_cell_length_b 8.188949
_cell_length_c 17.440243
_cell_angle_alpha 90.000000
_cell_angle_beta 90.000000
_cell_angle_gamma 90.000000
_cell_volume 2282.251242
_symmetry_space_group_name_H-M "A M A 2"
_symmetry_group_IT_number 40
_symmetry_cell_setting 'orthorhombic'
loop_
_space_group_symop_operation_xyz
x,y,z
-x,-y,z
1/2-x,y,z
1/2+x,-y,z
x,1/2+y,1/2+z
-x,1/2-y,1/2+z
1/2-x,1/2+y,1/2+z
1/2+x,1/2-y,1/2+z
loop_
_atom_site_type_symbol
_atom_site_label
_atom_site_fract_x
_atom_site_fract_y
_atom_site_fract_z
Si Si1 0.093512 0.175551 0.477470
Si Si2 0.987216 0.176954 0.249318
Si Si3 0.656414 0.831001 0.646502
Si Si4 0.842142 0.629637 0.239465
Si Si5 0.657395 0.504548 0.401481
Si Si6 0.079574 0.335653 0.921232
O O1 0.137154 0.200462 0.558311
O O2 0.104514 0.340726 0.428752
O O3 0.993350 0.162805 0.485331
O O4 0.128720 0.009197 0.434749
O O5 0.078792 0.254063 0.240321
O O6 0.914357 0.256973 0.200325
O O7 0.961810 0.168715 0.337734
O O8 0.000000 0.000000 0.213914
O O9 0.750000 0.760409 0.664629
O O10 0.655834 0.025347 0.661346
O O11 0.750000 0.719515 0.245394
O O12 0.849717 0.499490 0.309334
O O13 0.750000 0.538250 0.431115
O O14 0.633246 0.327034 0.434746
#
# Coordination Sequence:
#
# PCOD8184418 Si02
#       6
#     8   8   8   8   8   8
#     4  11  24  44  66  98 139 175 225 284 345 401
#     4  12  23  42  71 101 134 180 227 282 342 407
#     4  11  26  45  68  98 139 182 224 284 351 406
#     4  10  22  41  67  98 132 180 227 275 340 408
#     4  11  22  40  69  98 132 178 224 279 337 404
#     4  11  23  40  69 103 129 176 233 279 337 411
#
# _framework density 21.031865
#
# number of rings (size 3 to 8) (size 9 to 14) (size 15 to 20)
#    0.000    1.000    5.000    1.500    4.667    3.333 
#    0.000    0.000    0.000    0.000    0.000    0.000 
#    0.000    0.000    0.000    0.000    0.000    0.000 
#
# Total GULP energy -297355.622939 kJ/mol
# GULP energy per Si atom -12389.817622 kJ/mol
# Density = 2.098400 g / cm^3
# Si number density = 21.031865 Si / 1000 Ang^3
#
#
#
# Elastic Constant Matrix: (Units=GPa)
#
#
# Indices 1 2 3 4 5 6 
#
# 1 132.8014 35.6567 40.3817 0.0000 0.0000 0.0000
# 2 35.6567 125.0593 18.5046 0.0000 0.0000 0.0000
# 3 40.3817 18.5046 69.5590 0.0000 0.0000 0.0000
# 4 0.0000 0.0000 0.0000 17.6200 0.0000 0.0000
# 5 0.0000 0.0000 0.0000 0.0000 24.8310 0.0000
# 6 0.0000 0.0000 0.0000 0.0000 0.0000 90.7263
#
#
#
# Elastic Compliance Matrix: (Units=1/GPa)
#
#
# Indices 1 2 3 4 5 6 
#
# 1 0.009598 -0.001990 -0.005042 0.000000 0.000000 0.000000
# 2 -0.001990 0.008737 -0.001169 0.000000 0.000000 0.000000
# 3 -0.005042 -0.001169 0.017614 0.000000 0.000000 0.000000
# 4 0.000000 0.000000 0.000000 0.056754 0.000000 0.000000
# 5 0.000000 0.000000 0.000000 0.000000 0.040272 0.000000
# 6 0.000000 0.000000 0.000000 0.000000 0.000000 0.011022
#
#
# Mechanical properties :
#
#
# Convention : Reuss Voigt Hill
#
# Bulk Modulus (GPa) = 51.16146 57.38952 54.27549
# Shear Modulus (GPa) = 29.95539 42.16058 36.05799
#
# Velocity S-wave (km/s) = 3.77807 4.48214 4.14508
# Velocity P-wave (km/s) = 6.58864 7.35746 6.98364
#
# Compressibility (1/GPa) = 0.01954596
#
# Stress axis : x y z
#
# Youngs Moduli (GPa) = 104.19163 114.46062 56.77157
#
# Poissons Ratio (x) = 0.22782 0.28626
# Poissons Ratio (y) = 0.20738 0.06635
# Poissons Ratio (z) = 0.52537 0.13377
#
# Static dielectric constant tensor:
#      x y z
#    x 4.231990 0.000000 0.000000 
#    y 0.000000 4.002060 0.000000 
#    z 0.000000 0.000000 3.710470 
# 
# 
# High freq. dielectric constant tensor:
#      x y z
#    x 1.833650 0.000000 0.000000 
#    y 0.000000 1.824360 0.000000 
#    z 0.000000 0.000000 1.809150 
# 
# From -- ./inp_files/20551.got.cif
#   From: 2010.03.12/outbox.cif.g09.slc.cpg/sg40_11_cif.got.tgz:20551.got - 2010.04.14 01:38:03.
