data_PCOD8184823
_publ_section_title
;
Structure prediction by ZEFSAII (Michael W. Deem and Ramdas Pophale) SiO2 
 PCOD8184823
Probable space group: A B A 2
;
_chemical_formula_sum "Si O2"
_cell_formula_units_Z 64
_cell_length_a 16.540116
_cell_length_b 23.234542
_cell_length_c 8.095687
_cell_angle_alpha 90.000000
_cell_angle_beta 90.000000
_cell_angle_gamma 90.000000
_cell_volume 3111.188866
_symmetry_space_group_name_H-M "A B A 2"
_symmetry_group_IT_number 41
_symmetry_cell_setting 'orthorhombic'
loop_
_space_group_symop_operation_xyz
x,y,z
-x,-y,z
1/2-x,y,1/2+z
1/2+x,-y,1/2+z
x,1/2+y,1/2+z
-x,1/2-y,1/2+z
1/2-x,1/2+y,z
1/2+x,1/2-y,z
loop_
_atom_site_type_symbol
_atom_site_label
_atom_site_fract_x
_atom_site_fract_y
_atom_site_fract_z
Si Si1 0.575744 0.816348 0.977920
Si Si2 0.450280 0.268307 0.258817
Si Si3 0.252821 0.915452 0.978143
Si Si4 0.784488 0.789931 0.254920
Si Si5 0.451624 0.586532 0.721652
Si Si6 0.292124 0.829229 0.730204
Si Si7 0.869031 0.324475 0.434230
Si Si8 0.373389 0.962748 0.216376
O O1 0.526218 0.808257 0.806148
O O2 0.666415 0.796334 0.928521
O O3 0.531839 0.777371 0.115468
O O4 0.571969 0.880897 0.050471
O O5 0.381403 0.309298 0.189469
O O6 0.423154 0.233191 0.423330
O O7 0.281490 0.851999 0.916234
O O8 0.187997 0.950200 0.868220
O O9 0.213671 0.891967 0.145709
O O10 0.328544 0.954655 0.038675
O O11 0.773286 0.722641 0.203585
O O12 0.697331 0.818245 0.287328
O O13 0.828909 0.827494 0.114132
O O14 0.423120 0.620237 0.887596
O O15 0.402861 0.527648 0.724066
O O16 0.548567 0.578859 0.729379
#
# Coordination Sequence:
#
# PCOD8184823 Si02
#       8
#     8   8   8   8   8   8   8   8
#     4  11  22  35  57  85 121 164 200 247 309 377
#     4  10  20  33  51  83 117 152 196 238 304 380
#     4  10  21  36  63  87 108 153 201 245 299 351
#     4  11  21  36  56  89 127 163 204 245 305 386
#     4  10  23  43  62  85 123 161 201 261 314 359
#     4  10  19  34  55  82 117 148 188 248 298 353
#     4  10  21  36  57  85 121 165 202 246 308 375
#     4  10  23  43  63  87 116 155 212 264 307 353
#
# _framework density 20.570914999999999
#
# number of rings (size 3 to 8) (size 9 to 14) (size 15 to 20)
#    0.000    1.750    0.000    6.000    0.000   10.000 
#    0.000    1.250    0.000    7.500    0.000    0.000 
#    0.000    0.000    0.000    0.000    0.000    0.000 
#
# Total GULP energy -396465.253750 kJ/mol
# GULP energy per Si atom -12389.539180 kJ/mol
# Density = 2.052409 g / cm^3
# Si number density = 20.570915 Si / 1000 Ang^3
#
#
#
# Elastic Constant Matrix: (Units=GPa)
#
#
# Indices 1 2 3 4 5 6 
#
# 1 111.3398 58.0604 30.3687 0.0000 0.0000 0.0000
# 2 58.0604 96.4203 38.7683 0.0000 0.0000 0.0000
# 3 30.3687 38.7683 52.6072 0.0000 0.0000 0.0000
# 4 0.0000 0.0000 0.0000 29.3504 0.0000 0.0000
# 5 0.0000 0.0000 0.0000 0.0000 37.4634 0.0000
# 6 0.0000 0.0000 0.0000 0.0000 0.0000 30.8042
#
#
#
# Elastic Compliance Matrix: (Units=1/GPa)
#
#
# Indices 1 2 3 4 5 6 
#
# 1 0.013325 -0.007007 -0.002528 0.000000 0.000000 0.000000
# 2 -0.007007 0.018423 -0.009532 0.000000 0.000000 0.000000
# 3 -0.002528 -0.009532 0.027493 0.000000 0.000000 0.000000
# 4 0.000000 0.000000 0.000000 0.034071 0.000000 0.000000
# 5 0.000000 0.000000 0.000000 0.000000 0.026693 0.000000
# 6 0.000000 0.000000 0.000000 0.000000 0.000000 0.032463
#
#
# Mechanical properties :
#
#
# Convention : Reuss Voigt Hill
#
# Bulk Modulus (GPa) = 47.37893 57.19580 52.28736
# Shear Modulus (GPa) = 25.29877 28.40160 26.85018
#
# Velocity S-wave (km/s) = 3.51070 3.71976 3.61674
# Velocity P-wave (km/s) = 6.28612 6.80540 6.55091
#
# Compressibility (1/GPa) = 0.02110643
#
# Stress axis : x y z
#
# Youngs Moduli (GPa) = 75.04543 54.27925 36.37348
#
# Poissons Ratio (x) = 0.38035 0.09196
# Poissons Ratio (y) = 0.52587 0.34670
# Poissons Ratio (z) = 0.18974 0.51737
#
# Static dielectric constant tensor:
#      x y z
#    x 3.882350 0.000000 0.000000 
#    y 0.000000 3.534410 0.000000 
#    z 0.000000 0.000000 3.772000 
# 
# 
# High freq. dielectric constant tensor:
#      x y z
#    x 1.812870 0.000000 0.000000 
#    y 0.000000 1.783330 0.000000 
#    z 0.000000 0.000000 1.809630 
# 
# From -- ./inp_files/2814.got.cif
#   From: 2010.03.12/outbox.cif.g09.slc.cpg/sg41_2_cif.got.tgz:2814.got - 2010.04.14 01:55:53.
