data_PCOD8184161
_publ_section_title
;
Structure prediction by ZEFSAII (Michael W. Deem and Ramdas Pophale) SiO2 
 PCOD8184161
Probable space group: A M A 2
;
_chemical_formula_sum "Si O2"
_cell_formula_units_Z 64
_cell_length_a 8.772941
_cell_length_b 30.849284
_cell_length_c 11.926248
_cell_angle_alpha 90.000000
_cell_angle_beta 90.000000
_cell_angle_gamma 90.000000
_cell_volume 3227.707217
_symmetry_space_group_name_H-M "A M A 2"
_symmetry_group_IT_number 40
_symmetry_cell_setting 'orthorhombic'
loop_
_space_group_symop_operation_xyz
x,y,z
-x,-y,z
1/2-x,y,z
1/2+x,-y,z
x,1/2+y,1/2+z
-x,1/2-y,1/2+z
1/2-x,1/2+y,1/2+z
1/2+x,1/2-y,1/2+z
loop_
_atom_site_type_symbol
_atom_site_label
_atom_site_fract_x
_atom_site_fract_y
_atom_site_fract_z
Si Si1 0.430709 0.375549 0.657600
Si Si2 0.426953 0.044799 0.769401
Si Si3 0.572585 0.167069 0.537628
Si Si4 0.923264 0.922411 0.526697
Si Si5 0.569940 0.704122 0.801173
Si Si6 0.429767 0.699629 0.260345
Si Si7 0.574545 0.955628 0.285074
Si Si8 0.069721 0.875370 0.900993
O O1 0.250000 0.377174 0.667575
O O2 0.495853 0.331413 0.714023
O O3 0.495850 0.416061 0.723428
O O4 0.484852 0.377322 0.529345
O O5 0.250000 0.044027 0.798979
O O6 0.457282 0.049449 0.636933
O O7 0.500996 0.084608 0.834089
O O8 0.500000 0.000000 0.811591
O O9 0.750000 0.174249 0.566008
O O10 0.543335 0.116398 0.519839
O O11 0.520590 0.192340 0.426819
O O12 0.466908 0.184225 0.636097
O O13 0.750000 0.904147 0.530138
O O14 0.948447 0.952393 0.418747
O O15 0.750000 0.704256 0.790099
O O16 0.505523 0.751661 0.773446
O O17 0.250000 0.696888 0.281095
O O18 0.512081 0.669757 0.351037
O O19 0.750000 0.955993 0.250695
O O20 0.500000 0.000000 0.242325
O O21 0.250000 0.877350 0.889755
#
# Coordination Sequence:
#
# PCOD8184161 Si02
#       8
#     8   8   8   8   8   8   8   8
#     4  10  22  43  64  85 118 160 204 253 302 354
#     4  11  23  40  63  89 123 159 199 248 304 361
#     4  11  21  37  64  92 121 158 204 249 299 358
#     4  10  21  38  60  91 125 158 195 244 304 357
#     4   9  21  40  62  89 121 161 199 245 304 357
#     4  11  23  40  62  89 127 163 199 248 306 360
#     4  11  23  39  62  92 123 158 201 246 299 362
#     4  11  24  41  63  89 119 159 209 253 300 359
#
# _framework density 19.828315
#
# number of rings (size 3 to 8) (size 9 to 14) (size 15 to 20)
#    0.000    1.500    2.500    2.250    1.750    2.500 
#    0.000    3.125    0.000    0.000    0.000    0.000 
#    0.000    0.000    0.000    0.000    0.000    0.000 
#
# Total GULP energy -396925.634682 kJ/mol
# GULP energy per Si atom -12403.926084 kJ/mol
# Density = 1.978319 g / cm^3
# Si number density = 19.828315 Si / 1000 Ang^3
#
#
#
# Elastic Constant Matrix: (Units=GPa)
#
#
# Indices 1 2 3 4 5 6 
#
# 1 45.2764 27.2789 28.5869 0.0000 0.0000 0.0000
# 2 27.2789 143.6934 43.1497 0.0000 0.0000 0.0000
# 3 28.5869 43.1497 108.1192 0.0000 0.0000 0.0000
# 4 0.0000 0.0000 0.0000 -52.4912 0.0000 0.0000
# 5 0.0000 0.0000 0.0000 0.0000 9.6500 0.0000
# 6 0.0000 0.0000 0.0000 0.0000 0.0000 31.1310
#
#
#
# Elastic Compliance Matrix: (Units=1/GPa)
#
#
# Indices 1 2 3 4 5 6 
#
# 1 0.027990 -0.003512 -0.005999 0.000000 0.000000 0.000000
# 2 -0.003512 0.008348 -0.002403 0.000000 0.000000 0.000000
# 3 -0.005999 -0.002403 0.011794 0.000000 0.000000 0.000000
# 4 0.000000 0.000000 0.000000 -0.019051 0.000000 0.000000
# 5 0.000000 0.000000 0.000000 0.000000 0.103627 0.000000
# 6 0.000000 0.000000 0.000000 0.000000 0.000000 0.032122
#
#
# Mechanical properties :
#
#
# Convention : Reuss Voigt Hill
#
# Bulk Modulus (GPa) = 41.14561 55.01335 48.07948
# Shear Modulus (GPa) = 25.41166 10.86286 18.13726
#
# Velocity S-wave (km/s) = 3.58381 2.34315 3.02771
# Velocity P-wave (km/s) = 6.15799 5.92668 6.04344
#
# Compressibility (1/GPa) = 0.02430393
#
# Stress axis : x y z
#
# Youngs Moduli (GPa) = 35.72661 119.79518 84.78786
#
# Poissons Ratio (x) = 0.42075 0.50864
# Poissons Ratio (y) = 0.12548 0.20373
# Poissons Ratio (z) = 0.21432 0.28785
#
# Static dielectric constant tensor:
#      x y z
#    x 3.541430 0.000000 0.000000 
#    y 0.000000 3.815920 0.000000 
#    z 0.000000 0.000000 3.762150 
# 
# 
# High freq. dielectric constant tensor:
#      x y z
#    x 1.767780 0.000000 0.000000 
#    y 0.000000 1.784090 0.000000 
#    z 0.000000 0.000000 1.780270 
# 
# From -- ./inp_files/10564.got.cif
#   From: 2010.03.12/outbox.cif.g09.slc.cpg/sg40_6_cif.got.tgz:10564.got - 2010.04.14 01:38:03.
