data_PCOD8184264
_publ_section_title
;
Structure prediction by ZEFSAII (Michael W. Deem and Ramdas Pophale) SiO2 
 PCOD8184264
Probable space group: A M A 2
;
_chemical_formula_sum "Si O2"
_cell_formula_units_Z 40
_cell_length_a 23.308533
_cell_length_b 17.618119
_cell_length_c 5.059587
_cell_angle_alpha 90.000000
_cell_angle_beta 90.000000
_cell_angle_gamma 90.000000
_cell_volume 2077.732092
_symmetry_space_group_name_H-M "A M A 2"
_symmetry_group_IT_number 40
_symmetry_cell_setting 'orthorhombic'
loop_
_space_group_symop_operation_xyz
x,y,z
-x,-y,z
1/2-x,y,z
1/2+x,-y,z
x,1/2+y,1/2+z
-x,1/2-y,1/2+z
1/2-x,1/2+y,1/2+z
1/2+x,1/2-y,1/2+z
loop_
_atom_site_type_symbol
_atom_site_label
_atom_site_fract_x
_atom_site_fract_y
_atom_site_fract_z
Si Si1 0.081984 0.297122 0.362700
Si Si2 0.033893 0.156811 0.095401
Si Si3 0.185343 0.867690 0.093286
Si Si4 0.865467 0.568117 0.112661
Si Si5 0.047798 0.058684 0.598005
O O1 0.078752 0.220163 0.194201
O O2 0.141119 0.297888 0.534733
O O3 0.083201 0.369822 0.163296
O O4 0.028300 0.304378 0.561505
O O5 0.029724 0.091055 0.313570
O O6 0.055813 0.124497 0.815509
O O7 0.250000 0.835784 0.090069
O O8 0.173061 0.907695 0.368269
O O9 0.176184 0.932155 0.868170
O O10 0.892031 0.485371 0.066208
O O11 0.000000 0.000000 0.700025
#
# Coordination Sequence:
#
# PCOD8184264 Si02
#       5
#     8   8   8   8   8
#     4  10  25  38  60  96 119 166 203 253 304 383
#     4  12  24  36  62  89 136 157 199 251 317 371
#     4  10  21  40  66  89 114 159 217 266 296 354
#     4  10  22  39  61  90 119 153 215 244 305 370
#     4  12  22  38  56  91 125 166 188 243 306 376
#
# _framework density 19.251759
#
# number of rings (size 3 to 8) (size 9 to 14) (size 15 to 20)
#    1.200    0.000    2.000    4.800    5.600    0.000 
#    0.000    0.000    0.000    7.200    0.000    0.000 
#    0.000    0.000    0.000    0.000    0.000    0.000 
#
# Total GULP energy -247941.506904 kJ/mol
# GULP energy per Si atom -12397.075345 kJ/mol
# Density = 1.920794 g / cm^3
# Si number density = 19.251759 Si / 1000 Ang^3
#
#
#
# Elastic Constant Matrix: (Units=GPa)
#
#
# Indices 1 2 3 4 5 6 
#
# 1 109.4350 30.4195 23.0557 0.0000 0.0000 0.0000
# 2 30.4195 69.7990 13.6292 0.0000 0.0000 0.0000
# 3 23.0557 13.6292 105.1041 0.0000 0.0000 0.0000
# 4 0.0000 0.0000 0.0000 28.3676 0.0000 0.0000
# 5 0.0000 0.0000 0.0000 0.0000 19.8092 0.0000
# 6 0.0000 0.0000 0.0000 0.0000 0.0000 16.9561
#
#
#
# Elastic Compliance Matrix: (Units=1/GPa)
#
#
# Indices 1 2 3 4 5 6 
#
# 1 0.010716 -0.004321 -0.001790 0.000000 0.000000 0.000000
# 2 -0.004321 0.016441 -0.001184 0.000000 0.000000 0.000000
# 3 -0.001790 -0.001184 0.010061 0.000000 0.000000 0.000000
# 4 0.000000 0.000000 0.000000 0.035251 0.000000 0.000000
# 5 0.000000 0.000000 0.000000 0.000000 0.050482 0.000000
# 6 0.000000 0.000000 0.000000 0.000000 0.000000 0.058976
#
#
# Mechanical properties :
#
#
# Convention : Reuss Voigt Hill
#
# Bulk Modulus (GPa) = 44.19427 46.50519 45.34973
# Shear Modulus (GPa) = 24.50264 27.50883 26.00573
#
# Velocity S-wave (km/s) = 3.57143 3.78418 3.67934
# Velocity P-wave (km/s) = 6.32555 6.58044 6.45425
#
# Compressibility (1/GPa) = 0.02262737
#
# Stress axis : x y z
#
# Youngs Moduli (GPa) = 93.31810 60.82331 99.39688
#
# Poissons Ratio (x) = 0.26279 0.17796
# Poissons Ratio (y) = 0.40319 0.11770
# Poissons Ratio (z) = 0.16708 0.07203
#
# Static dielectric constant tensor:
#      x y z
#    x 3.237690 0.000000 0.000000 
#    y 0.000000 3.366360 0.000000 
#    z 0.000000 0.000000 3.568920 
# 
# 
# High freq. dielectric constant tensor:
#      x y z
#    x 1.721540 0.000000 0.000000 
#    y 0.000000 1.727030 0.000000 
#    z 0.000000 0.000000 1.768610 
# 
# From -- ./inp_files/2648.got.cif
#   From: 2010.03.12/outbox.cif.g09.slc.cpg/sg40_2_cif.got.tgz:2648.got - 2010.04.14 01:38:03.
