data_PCOD8184267
_publ_section_title
;
Structure prediction by ZEFSAII (Michael W. Deem and Ramdas Pophale) SiO2 
 PCOD8184267
Probable space group: A M A 2
;
_chemical_formula_sum "Si O2"
_cell_formula_units_Z 64
_cell_length_a 18.091522
_cell_length_b 12.506545
_cell_length_c 14.544178
_cell_angle_alpha 90.000000
_cell_angle_beta 90.000000
_cell_angle_gamma 90.000000
_cell_volume 3290.801115
_symmetry_space_group_name_H-M "A M A 2"
_symmetry_group_IT_number 40
_symmetry_cell_setting 'orthorhombic'
loop_
_space_group_symop_operation_xyz
x,y,z
-x,-y,z
1/2-x,y,z
1/2+x,-y,z
x,1/2+y,1/2+z
-x,1/2-y,1/2+z
1/2-x,1/2+y,1/2+z
1/2+x,1/2-y,1/2+z
loop_
_atom_site_type_symbol
_atom_site_label
_atom_site_fract_x
_atom_site_fract_y
_atom_site_fract_z
Si Si1 0.475532 0.378650 0.080270
Si Si2 0.580158 0.542163 0.486517
Si Si3 0.441285 0.723416 0.248807
Si Si4 0.582154 0.039289 0.199293
Si Si5 0.664216 0.956401 0.821355
Si Si6 0.833799 0.148272 0.685658
Si Si7 0.165820 0.138920 0.298930
Si Si8 0.546667 0.265743 0.915510
O O1 0.500000 0.500000 0.083695
O O2 0.520629 0.312470 0.155111
O O3 0.387930 0.368319 0.099234
O O4 0.490237 0.329776 0.980225
O O5 0.500000 0.500000 0.458234
O O6 0.598245 0.520932 0.592220
O O7 0.639000 0.476898 0.425889
O O8 0.584182 0.668175 0.469001
O O9 0.406837 0.839607 0.231714
O O10 0.376049 0.643963 0.275984
O O11 0.503260 0.723649 0.326977
O O12 0.500000 0.000000 0.225422
O O13 0.643491 0.971602 0.251983
O O14 0.750000 0.928932 0.821478
O O15 0.645550 0.063169 0.764455
O O16 0.750000 0.131211 0.650726
O O17 0.845090 0.265869 0.726254
O O18 0.250000 0.132285 0.333392
O O19 0.113852 0.156762 0.387198
#
# Coordination Sequence:
#
# PCOD8184267 Si02
#       8
#     8   8   8   8   8   8   8   8
#     4  12  24  41  68  99 125 173 222 266 324 386
#     4  11  22  38  64  98 128 166 220 272 321 389
#     4  12  23  42  66  96 134 168 220 275 322 391
#     4  11  23  41  65  95 132 172 219 271 325 391
#     4  11  23  40  65  98 131 171 218 277 338 385
#     4  10  21  40  66  96 129 166 212 267 329 392
#     4  11  24  42  66  94 130 175 215 261 329 395
#     4  12  24  40  66  99 129 171 222 267 319 391
#
# _framework density 19.448152
#
# number of rings (size 3 to 8) (size 9 to 14) (size 15 to 20)
#    0.000    0.750    7.500    0.000    3.500    1.000 
#    0.000    3.125    0.000    0.000    0.000    0.000 
#    0.000    0.000    0.000    0.000    0.000    0.000 
#
# Total GULP energy -396997.145491 kJ/mol
# GULP energy per Si atom -12406.160797 kJ/mol
# Density = 1.940389 g / cm^3
# Si number density = 19.448152 Si / 1000 Ang^3
#
#
#
# Elastic Constant Matrix: (Units=GPa)
#
#
# Indices 1 2 3 4 5 6 
#
# 1 106.8280 31.6692 39.0958 0.0000 0.0000 0.0000
# 2 31.6692 121.8240 22.3161 0.0000 0.0000 0.0000
# 3 39.0958 22.3161 68.7629 0.0000 0.0000 0.0000
# 4 0.0000 0.0000 0.0000 30.4763 0.0000 0.0000
# 5 0.0000 0.0000 0.0000 0.0000 19.0500 0.0000
# 6 0.0000 0.0000 0.0000 0.0000 0.0000 32.2728
#
#
#
# Elastic Compliance Matrix: (Units=1/GPa)
#
#
# Indices 1 2 3 4 5 6 
#
# 1 0.012277 -0.002034 -0.006320 0.000000 0.000000 0.000000
# 2 -0.002034 0.009064 -0.001785 0.000000 0.000000 0.000000
# 3 -0.006320 -0.001785 0.018715 0.000000 0.000000 0.000000
# 4 0.000000 0.000000 0.000000 0.032812 0.000000 0.000000
# 5 0.000000 0.000000 0.000000 0.000000 0.052494 0.000000
# 6 0.000000 0.000000 0.000000 0.000000 0.000000 0.030986
#
#
# Mechanical properties :
#
#
# Convention : Reuss Voigt Hill
#
# Bulk Modulus (GPa) = 50.56080 53.73080 52.14580
# Shear Modulus (GPa) = 27.28971 29.98205 28.63588
#
# Velocity S-wave (km/s) = 3.75000 3.93063 3.84138
# Velocity P-wave (km/s) = 6.69359 6.94892 6.82245
#
# Compressibility (1/GPa) = 0.01977817
#
# Stress axis : x y z
#
# Youngs Moduli (GPa) = 81.45534 110.32284 53.43178
#
# Poissons Ratio (x) = 0.22436 0.33769
# Poissons Ratio (y) = 0.16566 0.09540
# Poissons Ratio (z) = 0.51480 0.19697
#
# Static dielectric constant tensor:
#      x y z
#    x 3.564720 0.000000 0.000000 
#    y 0.000000 3.689720 0.000000 
#    z 0.000000 0.000000 3.562990 
# 
# 
# High freq. dielectric constant tensor:
#      x y z
#    x 1.752850 0.000000 0.000000 
#    y 0.000000 1.770690 0.000000 
#    z 0.000000 0.000000 1.751030 
# 
# From -- ./inp_files/17865.got.cif
#   From: 2010.03.12/outbox.cif.g09.slc.cpg/sg40_9_cif.got.tgz:17865.got - 2010.04.14 01:38:03.
