data_PCOD8184308
_publ_section_title
;
Structure prediction by ZEFSAII (Michael W. Deem and Ramdas Pophale) SiO2 
 PCOD8184308
Probable space group: A M A 2
;
_chemical_formula_sum "Si O2"
_cell_formula_units_Z 32
_cell_length_a 17.050978
_cell_length_b 14.180794
_cell_length_c 5.232861
_cell_angle_alpha 90.000000
_cell_angle_beta 90.000000
_cell_angle_gamma 90.000000
_cell_volume 1265.286986
_symmetry_space_group_name_H-M "A M A 2"
_symmetry_group_IT_number 40
_symmetry_cell_setting 'orthorhombic'
loop_
_space_group_symop_operation_xyz
x,y,z
-x,-y,z
1/2-x,y,z
1/2+x,-y,z
x,1/2+y,1/2+z
-x,1/2-y,1/2+z
1/2-x,1/2+y,1/2+z
1/2+x,1/2-y,1/2+z
loop_
_atom_site_type_symbol
_atom_site_label
_atom_site_fract_x
_atom_site_fract_y
_atom_site_fract_z
Si Si1 0.408104 0.982332 0.413070
Si Si2 0.603225 0.914925 0.918205
Si Si3 0.467758 0.297470 0.418044
Si Si4 0.659102 0.210333 0.549863
O O1 0.369966 0.029385 0.666001
O O2 0.500000 0.000000 0.421610
O O3 0.387177 0.871297 0.392336
O O4 0.367635 0.029536 0.167284
O O5 0.506875 0.902053 0.940632
O O6 0.643236 0.811280 0.921659
O O7 0.483088 0.240450 0.672411
O O8 0.376267 0.294475 0.340599
O O9 0.750000 0.186651 0.565393
#
# Coordination Sequence:
#
# PCOD8184308 Si02
#       4
#     8   8   8   8
#     4  12  26  44  77 107 140 191 251 298 357 444
#     4  11  25  46  74 103 145 189 245 297 362 434
#     4  10  21  42  73 102 138 190 245 291 351 445
#     4  11  27  47  74 111 152 193 242 314 376 430
#
# _framework density 25.290707000000001
#
# number of rings (size 3 to 8) (size 9 to 14) (size 15 to 20)
#    0.000    1.000    2.500    3.750    7.000    4.000 
#    0.000   17.500    0.000    0.000    0.000    0.000 
#    0.000    0.000    0.000    0.000    0.000    0.000 
#
# Total GULP energy -198300.702880 kJ/mol
# GULP energy per Si atom -12393.793930 kJ/mol
# Density = 2.523314 g / cm^3
# Si number density = 25.290707 Si / 1000 Ang^3
#
#
#
# Elastic Constant Matrix: (Units=GPa)
#
#
# Indices 1 2 3 4 5 6 
#
# 1 129.7430 29.2416 8.9816 0.0000 0.0000 0.0000
# 2 29.2416 179.4893 81.6059 0.0000 0.0000 0.0000
# 3 8.9816 81.6059 170.3273 0.0000 0.0000 0.0000
# 4 0.0000 0.0000 0.0000 41.4208 0.0000 0.0000
# 5 0.0000 0.0000 0.0000 0.0000 13.5497 0.0000
# 6 0.0000 0.0000 0.0000 0.0000 0.0000 21.6416
#
#
#
# Elastic Compliance Matrix: (Units=1/GPa)
#
#
# Indices 1 2 3 4 5 6 
#
# 1 0.008010 -0.001423 0.000259 0.000000 0.000000 0.000000
# 2 -0.001423 0.007376 -0.003459 0.000000 0.000000 0.000000
# 3 0.000259 -0.003459 0.007515 0.000000 0.000000 0.000000
# 4 0.000000 0.000000 0.000000 0.024142 0.000000 0.000000
# 5 0.000000 0.000000 0.000000 0.000000 0.073802 0.000000
# 6 0.000000 0.000000 0.000000 0.000000 0.000000 0.046207
#
#
# Mechanical properties :
#
#
# Convention : Reuss Voigt Hill
#
# Bulk Modulus (GPa) = 73.22869 79.91309 76.57089
# Shear Modulus (GPa) = 27.64738 39.30448 33.47593
#
# Velocity S-wave (km/s) = 3.30992 3.94649 3.64214
# Velocity P-wave (km/s) = 6.60493 7.24105 6.93029
#
# Compressibility (1/GPa) = 0.01365585
#
# Stress axis : x y z
#
# Youngs Moduli (GPa) = 124.83944 135.57984 133.07583
#
# Poissons Ratio (x) = 0.19292 -0.03451
# Poissons Ratio (y) = 0.17764 0.46028
# Poissons Ratio (z) = -0.03238 0.46894
#
# Static dielectric constant tensor:
#      x y z
#    x 4.312760 0.000000 0.000000 
#    y 0.000000 4.891170 0.000000 
#    z 0.000000 0.000000 5.212080 
# 
# 
# High freq. dielectric constant tensor:
#      x y z
#    x 1.956040 0.000000 0.000000 
#    y 0.000000 2.032030 0.000000 
#    z 0.000000 0.000000 2.031560 
# 
# From -- ./inp_files/2154.got.cif
#   From: 2010.03.12/outbox.cif.g09.slc.cpg/sg40_2_cif.got.tgz:2154.got - 2010.04.14 01:38:03.
