data_PCOD8184489
_publ_section_title
;
Structure prediction by ZEFSAII (Michael W. Deem and Ramdas Pophale) SiO2 
 PCOD8184489
Probable space group: A M A 2
;
_chemical_formula_sum "Si O2"
_cell_formula_units_Z 48
_cell_length_a 18.060642
_cell_length_b 11.522231
_cell_length_c 10.257265
_cell_angle_alpha 90.000000
_cell_angle_beta 90.000000
_cell_angle_gamma 90.000000
_cell_volume 2134.525452
_symmetry_space_group_name_H-M "A M A 2"
_symmetry_group_IT_number 40
_symmetry_cell_setting 'orthorhombic'
loop_
_space_group_symop_operation_xyz
x,y,z
-x,-y,z
1/2-x,y,z
1/2+x,-y,z
x,1/2+y,1/2+z
-x,1/2-y,1/2+z
1/2-x,1/2+y,1/2+z
1/2+x,1/2-y,1/2+z
loop_
_atom_site_type_symbol
_atom_site_label
_atom_site_fract_x
_atom_site_fract_y
_atom_site_fract_z
Si Si1 0.667011 0.100534 0.704390
Si Si2 0.337655 0.628010 0.075492
Si Si3 0.414776 0.229681 0.825052
Si Si4 0.665846 0.846486 0.077628
Si Si5 0.076351 0.448164 0.685771
Si Si6 0.424232 0.310178 0.422145
O O1 0.750000 0.075399 0.751137
O O2 0.655375 0.231508 0.660331
O O3 0.617643 0.092336 0.834999
O O4 0.649562 0.012146 0.583534
O O5 0.250000 0.660348 0.078895
O O6 0.382585 0.662499 0.203026
O O7 0.374834 0.693052 0.951180
O O8 0.379611 0.168844 0.947712
O O9 0.393252 0.364804 0.801197
O O10 0.503326 0.223687 0.840365
O O11 0.750000 0.870239 0.039901
O O12 0.637713 0.954951 0.161291
O O13 0.057067 0.371915 0.557944
O O14 0.000000 0.500000 0.736497
#
# Coordination Sequence:
#
# PCOD8184489 Si02
#       6
#     8   8   8   8   8   8
#     4  10  23  41  64  92 131 175 220 273 334 403
#     4  10  23  43  66  95 130 175 226 275 336 406
#     4  11  24  41  66  97 130 173 223 280 335 402
#     4  11  24  42  64  96 134 173 221 273 334 409
#     4  11  23  42  65  94 133 172 221 277 340 395
#     4  11  23  40  67  96 132 170 227 282 334 400
#
# _framework density 22.487435999999999
#
# number of rings (size 3 to 8) (size 9 to 14) (size 15 to 20)
#    0.000    1.333    1.667    3.000    2.333    8.000 
#    0.000    3.333    0.000    0.000    0.000    0.000 
#    0.000    0.000    0.000    0.000    0.000    0.000 
#
# Total GULP energy -297441.255918 kJ/mol
# GULP energy per Si atom -12393.385663 kJ/mol
# Density = 2.243625 g / cm^3
# Si number density = 22.487436 Si / 1000 Ang^3
#
#
#
# Elastic Constant Matrix: (Units=GPa)
#
#
# Indices 1 2 3 4 5 6 
#
# 1 134.9421 38.2475 33.8885 0.0000 0.0000 0.0000
# 2 38.2475 88.8012 12.7605 0.0000 0.0000 0.0000
# 3 33.8885 12.7605 26.3184 0.0000 0.0000 0.0000
# 4 0.0000 0.0000 0.0000 23.7170 0.0000 0.0000
# 5 0.0000 0.0000 0.0000 0.0000 26.2479 0.0000
# 6 0.0000 0.0000 0.0000 0.0000 0.0000 -157.8355
#
#
#
# Elastic Compliance Matrix: (Units=1/GPa)
#
#
# Indices 1 2 3 4 5 6 
#
# 1 0.011690 -0.003087 -0.013555 0.000000 0.000000 0.000000
# 2 -0.003087 0.012920 -0.002289 0.000000 0.000000 0.000000
# 3 -0.013555 -0.002289 0.056561 0.000000 0.000000 0.000000
# 4 0.000000 0.000000 0.000000 0.042164 0.000000 0.000000
# 5 0.000000 0.000000 0.000000 0.000000 0.038098 0.000000
# 6 0.000000 0.000000 0.000000 0.000000 0.000000 -0.006336
#
#
# Mechanical properties :
#
#
# Convention : Reuss Voigt Hill
#
# Bulk Modulus (GPa) = 23.09101 46.65050 34.87075
# Shear Modulus (GPa) = 24.10854 -10.56310 6.77272
#
# Velocity S-wave (km/s) = 3.27783 -2.16968 1.73733
# Velocity P-wave (km/s) = 4.96148 3.80965 4.42322
#
# Compressibility (1/GPa) = 0.04330690
#
# Stress axis : x y z
#
# Youngs Moduli (GPa) = 85.54470 77.40148 17.68013
#
# Poissons Ratio (x) = 0.23894 0.23966
# Poissons Ratio (y) = 0.26408 0.04047
# Poissons Ratio (z) = 1.15960 0.17718
#
# Static dielectric constant tensor:
#      x y z
#    x 4.214210 0.000000 0.000000 
#    y 0.000000 4.532310 0.000000 
#    z 0.000000 0.000000 6.240260 
# 
# 
# High freq. dielectric constant tensor:
#      x y z
#    x 1.889170 0.000000 0.000000 
#    y 0.000000 1.903850 0.000000 
#    z 0.000000 0.000000 1.878080 
# 
# From -- ./inp_files/12913.got.cif
#   From: 2010.03.12/outbox.cif.g09.slc.cpg/sg40_7_cif.got.tgz:12913.got - 2010.04.14 01:38:03.
