data_PCOD8184645
_publ_section_title
;
Structure prediction by ZEFSAII (Michael W. Deem and Ramdas Pophale) SiO2 
 PCOD8184645
Probable space group: A M A 2
;
_chemical_formula_sum "Si O2"
_cell_formula_units_Z 64
_cell_length_a 30.020058
_cell_length_b 11.396814
_cell_length_c 8.677726
_cell_angle_alpha 90.000000
_cell_angle_beta 90.000000
_cell_angle_gamma 90.000000
_cell_volume 2968.936580
_symmetry_space_group_name_H-M "A M A 2"
_symmetry_group_IT_number 40
_symmetry_cell_setting 'orthorhombic'
loop_
_space_group_symop_operation_xyz
x,y,z
-x,-y,z
1/2-x,y,z
1/2+x,-y,z
x,1/2+y,1/2+z
-x,1/2-y,1/2+z
1/2-x,1/2+y,1/2+z
1/2+x,1/2-y,1/2+z
loop_
_atom_site_type_symbol
_atom_site_label
_atom_site_fract_x
_atom_site_fract_y
_atom_site_fract_z
Si Si1 0.469068 0.604188 0.845150
Si Si2 0.409995 0.742535 0.276771
Si Si3 0.152170 0.895169 0.091000
Si Si4 0.869461 0.885388 0.288418
Si Si5 0.999504 0.275637 0.131471
Si Si6 0.905210 0.164677 0.605537
Si Si7 0.300158 0.670935 0.056972
Si Si8 0.147786 0.021908 0.770953
O O1 0.500000 0.500000 0.905546
O O2 0.417055 0.570787 0.855879
O O3 0.484393 0.641766 0.671937
O O4 0.480876 0.713223 0.958434
O O5 0.459016 0.692004 0.245110
O O6 0.409257 0.827540 0.422330
O O7 0.380381 0.632716 0.324299
O O8 0.392440 0.818953 0.129997
O O9 0.192923 0.804164 0.121708
O O10 0.155245 0.935203 0.913670
O O11 0.155186 0.009684 0.197812
O O12 0.879158 0.775743 0.177186
O O13 0.836290 0.846269 0.422702
O O14 0.044186 0.350919 0.168775
O O15 0.878188 0.047265 0.638039
O O16 0.250000 0.657331 0.994712
O O17 0.307317 0.574105 0.192468
#
# Coordination Sequence:
#
# PCOD8184645 Si02
#       8
#     8   8   8   8   8   8   8   8
#     4  11  24  41  61  95 137 184 224 273 324 383
#     4  11  23  40  62  94 134 181 229 272 325 382
#     4  11  23  43  73  95 129 170 217 276 336 398
#     4  11  23  44  70 100 135 177 225 275 340 398
#     4  11  24  38  59  94 137 179 233 274 310 383
#     4  11  23  42  63  95 138 183 225 272 332 390
#     4  11  26  47  72 100 130 168 217 279 351 415
#     4  11  24  42  68  97 128 170 220 270 336 404
#
# _framework density 21.556542
#
# number of rings (size 3 to 8) (size 9 to 14) (size 15 to 20)
#    0.000    1.000    3.750    3.000    5.250    1.000 
#    0.000    0.625    0.000    0.000    0.000    0.000 
#    0.000    0.000    0.000    0.000    0.000    0.000 
#
# Total GULP energy -396542.569756 kJ/mol
# GULP energy per Si atom -12391.955305 kJ/mol
# Density = 2.150748 g / cm^3
# Si number density = 21.556542 Si / 1000 Ang^3
#
#
#
# Elastic Constant Matrix: (Units=GPa)
#
#
# Indices 1 2 3 4 5 6 
#
# 1 132.6187 22.5690 48.4086 0.0000 0.0000 0.0000
# 2 22.5690 65.3263 43.2211 0.0000 0.0000 0.0000
# 3 48.4086 43.2211 109.7624 0.0000 0.0000 0.0000
# 4 0.0000 0.0000 0.0000 41.7843 0.0000 0.0000
# 5 0.0000 0.0000 0.0000 0.0000 22.1114 0.0000
# 6 0.0000 0.0000 0.0000 0.0000 0.0000 18.3806
#
#
#
# Elastic Compliance Matrix: (Units=1/GPa)
#
#
# Indices 1 2 3 4 5 6 
#
# 1 0.009008 -0.000654 -0.003715 0.000000 0.000000 0.000000
# 2 -0.000654 0.020748 -0.007882 0.000000 0.000000 0.000000
# 3 -0.003715 -0.007882 0.013853 0.000000 0.000000 0.000000
# 4 0.000000 0.000000 0.000000 0.023932 0.000000 0.000000
# 5 0.000000 0.000000 0.000000 0.000000 0.045226 0.000000
# 6 0.000000 0.000000 0.000000 0.000000 0.000000 0.054405
#
#
# Mechanical properties :
#
#
# Convention : Reuss Voigt Hill
#
# Bulk Modulus (GPa) = 52.33635 59.56720 55.95178
# Shear Modulus (GPa) = 25.24707 29.35585 27.30146
#
# Velocity S-wave (km/s) = 3.42600 3.69427 3.56266
# Velocity P-wave (km/s) = 6.32308 6.77420 6.55252
#
# Compressibility (1/GPa) = 0.01910718
#
# Stress axis : x y z
#
# Youngs Moduli (GPa) = 111.01445 48.19654 72.18826
#
# Poissons Ratio (x) = 0.03152 0.26819
# Poissons Ratio (y) = 0.07260 0.56896
# Poissons Ratio (z) = 0.41244 0.37987
#
# Static dielectric constant tensor:
#      x y z
#    x 3.719950 0.000000 0.000000 
#    y 0.000000 4.011940 0.000000 
#    z 0.000000 0.000000 3.878750 
# 
# 
# High freq. dielectric constant tensor:
#      x y z
#    x 1.824040 0.000000 0.000000 
#    y 0.000000 1.853150 0.000000 
#    z 0.000000 0.000000 1.846060 
# 
# From -- ./inp_files/9444.got.cif
#   From: 2010.03.12/outbox.cif.g09.slc.cpg/sg40_5_cif.got.tgz:9444.got - 2010.04.14 01:38:03.
