data_PCOD8184843
_publ_section_title
;
Structure prediction by ZEFSAII (Michael W. Deem and Ramdas Pophale) SiO2 
 PCOD8184843
Probable space group: A B A 2
;
_chemical_formula_sum "Si O2"
_cell_formula_units_Z 64
_cell_length_a 28.338426
_cell_length_b 19.215688
_cell_length_c 5.217154
_cell_angle_alpha 90.000000
_cell_angle_beta 90.000000
_cell_angle_gamma 90.000000
_cell_volume 2840.961312
_symmetry_space_group_name_H-M "A B A 2"
_symmetry_group_IT_number 41
_symmetry_cell_setting 'orthorhombic'
loop_
_space_group_symop_operation_xyz
x,y,z
-x,-y,z
1/2-x,y,1/2+z
1/2+x,-y,1/2+z
x,1/2+y,1/2+z
-x,1/2-y,1/2+z
1/2-x,1/2+y,z
1/2+x,1/2-y,z
loop_
_atom_site_type_symbol
_atom_site_label
_atom_site_fract_x
_atom_site_fract_y
_atom_site_fract_z
Si Si1 0.126051 0.069483 0.022770
Si Si2 0.489044 0.144845 0.712853
Si Si3 0.566309 0.754912 0.368241
Si Si4 0.619381 0.134135 0.098043
Si Si5 0.771896 0.484771 0.562918
Si Si6 0.269015 0.360730 0.582084
Si Si7 0.423210 0.934804 0.600147
Si Si8 0.902499 0.860089 0.510044
O O1 0.172156 0.021906 0.043507
O O2 0.127064 0.129231 0.244785
O O3 0.081891 0.017824 0.072939
O O4 0.122413 0.096347 0.733762
O O5 0.451544 0.173690 0.502920
O O6 0.521694 0.208394 0.799744
O O7 0.521073 0.082959 0.601599
O O8 0.457215 0.117689 0.950926
O O9 0.601707 0.713264 0.554586
O O10 0.594450 0.779625 0.110607
O O11 0.675435 0.130402 0.098761
O O12 0.600986 0.106821 0.368967
O O13 0.599959 0.086744 0.869133
O O14 0.747511 0.447497 0.318902
O O15 0.758250 0.565642 0.565361
O O16 0.252371 0.319506 0.326907
#
# Coordination Sequence:
#
# PCOD8184843 Si02
#       8
#     8   8   8   8   8   8   8   8
#     4  12  25  43  63 100 140 178 217 278 346 412
#     4  11  23  43  69  95 125 179 235 277 326 379
#     4  11  23  43  71  93 133 175 236 283 328 397
#     4  11  23  39  70 103 130 170 220 290 342 391
#     4  10  19  36  66  90 124 165 212 267 328 412
#     4  10  19  35  61  96 130 158 203 271 343 402
#     4  11  24  40  64 100 139 171 226 277 337 403
#     4  12  26  43  65  94 137 184 229 268 331 409
#
# _framework density 22.527585999999999
#
# number of rings (size 3 to 8) (size 9 to 14) (size 15 to 20)
#    0.000    1.000    2.500    6.000    3.500    0.500 
#    2.250    0.000    0.000    4.500    0.000    0.000 
#    0.000    0.000    0.000    0.000    0.000    0.000 
#
# Total GULP energy -396598.802666 kJ/mol
# GULP energy per Si atom -12393.712583 kJ/mol
# Density = 2.247631 g / cm^3
# Si number density = 22.527586 Si / 1000 Ang^3
#
#
#
# Elastic Constant Matrix: (Units=GPa)
#
#
# Indices 1 2 3 4 5 6 
#
# 1 76.9722 4.6250 22.3184 0.0000 0.0000 0.0000
# 2 4.6250 26.9548 10.9017 0.0000 0.0000 0.0000
# 3 22.3184 10.9017 139.0062 0.0000 0.0000 0.0000
# 4 0.0000 0.0000 0.0000 26.9333 0.0000 0.0000
# 5 0.0000 0.0000 0.0000 0.0000 43.8866 0.0000
# 6 0.0000 0.0000 0.0000 0.0000 0.0000 33.2242
#
#
#
# Elastic Compliance Matrix: (Units=1/GPa)
#
#
# Indices 1 2 3 4 5 6 
#
# 1 0.013685 -0.001507 -0.002079 0.000000 0.000000 0.000000
# 2 -0.001507 0.038481 -0.002776 0.000000 0.000000 0.000000
# 3 -0.002079 -0.002776 0.007745 0.000000 0.000000 0.000000
# 4 0.000000 0.000000 0.000000 0.037129 0.000000 0.000000
# 5 0.000000 0.000000 0.000000 0.000000 0.022786 0.000000
# 6 0.000000 0.000000 0.000000 0.000000 0.000000 0.030099
#
#
# Mechanical properties :
#
#
# Convention : Reuss Voigt Hill
#
# Bulk Modulus (GPa) = 21.19243 35.40258 28.29750
# Shear Modulus (GPa) = 28.03043 34.48136 31.25590
#
# Velocity S-wave (km/s) = 3.53125 3.91657 3.72889
# Velocity P-wave (km/s) = 5.10432 6.01681 5.57925
#
# Compressibility (1/GPa) = 0.04718667
#
# Stress axis : x y z
#
# Youngs Moduli (GPa) = 73.07217 25.98718 129.10848
#
# Poissons Ratio (x) = 0.03917 0.26842
# Poissons Ratio (y) = 0.11014 0.35839
# Poissons Ratio (z) = 0.15192 0.07214
#
# Static dielectric constant tensor:
#      x y z
#    x 4.066840 0.000000 0.000000 
#    y 0.000000 3.822830 0.000000 
#    z 0.000000 0.000000 7.021550 
# 
# 
# High freq. dielectric constant tensor:
#      x y z
#    x 1.887560 0.000000 0.000000 
#    y 0.000000 1.848690 0.000000 
#    z 0.000000 0.000000 1.918970 
# 
# From -- ./inp_files/1233.got.cif
#   From: 2010.03.12/outbox.cif.g09.slc.cpg/sg41_1_cif.got.tgz:1233.got - 2010.04.14 01:55:53.
