data_PCOD8184526
_publ_section_title
;
Structure prediction by ZEFSAII (Michael W. Deem and Ramdas Pophale) SiO2 
 PCOD8184526
Probable space group: A M A 2
;
_chemical_formula_sum "Si O2"
_cell_formula_units_Z 40
_cell_length_a 9.521790
_cell_length_b 6.763907
_cell_length_c 26.677897
_cell_angle_alpha 90.000000
_cell_angle_beta 90.000000
_cell_angle_gamma 90.000000
_cell_volume 1718.176672
_symmetry_space_group_name_H-M "A M A 2"
_symmetry_group_IT_number 40
_symmetry_cell_setting 'orthorhombic'
loop_
_space_group_symop_operation_xyz
x,y,z
-x,-y,z
1/2-x,y,z
1/2+x,-y,z
x,1/2+y,1/2+z
-x,1/2-y,1/2+z
1/2-x,1/2+y,1/2+z
1/2+x,1/2-y,1/2+z
loop_
_atom_site_type_symbol
_atom_site_label
_atom_site_fract_x
_atom_site_fract_y
_atom_site_fract_z
Si Si1 0.911648 0.816599 0.170130
Si Si2 0.405796 0.823967 0.024401
Si Si3 0.905796 0.176033 0.912030
Si Si4 0.000000 0.000000 0.595803
Si Si5 0.088352 0.683404 0.266300
Si Si6 0.000000 0.500000 0.840629
O O1 0.750000 0.876120 0.183914
O O2 0.902993 0.638880 0.130343
O O3 0.000000 0.750007 0.218216
O O4 0.000000 0.000000 0.147027
O O5 0.250000 0.910859 0.022864
O O6 0.404362 0.634007 0.060113
O O7 0.500000 0.000000 0.046551
O O8 0.456437 0.764644 0.968216
O O9 0.750000 0.089138 0.913566
O O10 0.904361 0.365993 0.876318
O O11 0.000000 0.000000 0.889880
O O12 0.250000 0.623885 0.252515
O O13 0.000000 0.500000 0.289402
O O14 0.097008 0.861119 0.306089
#
# Coordination Sequence:
#
# PCOD8184526 Si02
#       6
#     8   8   8   4   8   4
#     4  12  27  46  70  98 135 179 232 288 347 409
#     4  10  23  44  70 103 141 181 228 282 341 409
#     4  10  23  44  70 103 141 181 228 282 341 409
#     4  12  25  42  72 102 138 182 235 276 348 406
#     4  12  27  46  70  98 135 179 232 288 347 409
#     4  12  25  42  72 102 138 182 235 276 348 406
#
# _framework density 23.280494000000001
#
# number of rings (size 3 to 8) (size 9 to 14) (size 15 to 20)
#    0.000    0.800    2.000    4.200    0.000   11.200 
#    0.000    4.000    0.000    0.000    0.000    0.000 
#    0.000    0.000    0.000    0.000    0.000    0.000 
#
# Total GULP energy -247965.821465 kJ/mol
# GULP energy per Si atom -12398.291073 kJ/mol
# Density = 2.322751 g / cm^3
# Si number density = 23.280494 Si / 1000 Ang^3
#
#
#
# Elastic Constant Matrix: (Units=GPa)
#
#
# Indices 1 2 3 4 5 6 
#
# 1 173.5423 63.8467 45.2531 0.0000 0.0000 0.0000
# 2 63.8467 156.6910 70.6330 0.0000 0.0000 0.0000
# 3 45.2531 70.6330 123.6022 0.0000 0.0000 0.0000
# 4 0.0000 0.0000 0.0000 49.2105 0.0000 0.0000
# 5 0.0000 0.0000 0.0000 0.0000 125.2260 0.0000
# 6 0.0000 0.0000 0.0000 0.0000 0.0000 32.9944
#
#
#
# Elastic Compliance Matrix: (Units=1/GPa)
#
#
# Indices 1 2 3 4 5 6 
#
# 1 0.006917 -0.002259 -0.001242 0.000000 0.000000 0.000000
# 2 -0.002259 0.009334 -0.004507 0.000000 0.000000 0.000000
# 3 -0.001242 -0.004507 0.011121 0.000000 0.000000 0.000000
# 4 0.000000 0.000000 0.000000 0.020321 0.000000 0.000000
# 5 0.000000 0.000000 0.000000 0.000000 0.007986 0.000000
# 6 0.000000 0.000000 0.000000 0.000000 0.000000 0.030308
#
#
# Mechanical properties :
#
#
# Convention : Reuss Voigt Hill
#
# Bulk Modulus (GPa) = 88.05283 90.36681 89.20982
# Shear Modulus (GPa) = 47.26485 59.75967 53.51226
#
# Velocity S-wave (km/s) = 4.51070 5.07200 4.79956
# Velocity P-wave (km/s) = 8.06432 8.55576 8.31367
#
# Compressibility (1/GPa) = 0.01135682
#
# Stress axis : x y z
#
# Youngs Moduli (GPa) = 144.56976 107.13497 89.92304
#
# Poissons Ratio (x) = 0.24199 0.11166
# Poissons Ratio (y) = 0.32655 0.40528
# Poissons Ratio (z) = 0.17951 0.48286
#
# Static dielectric constant tensor:
#      x y z
#    x 3.893350 0.000000 0.000000 
#    y 0.000000 4.502480 0.000000 
#    z 0.000000 0.000000 4.354490 
# 
# 
# High freq. dielectric constant tensor:
#      x y z
#    x 1.912230 0.000000 0.000000 
#    y 0.000000 1.922700 0.000000 
#    z 0.000000 0.000000 1.937000 
# 
# From -- ./inp_files/25599.got.cif
#   From: 2010.03.12/outbox.cif.g09.slc.cpg/sg40_13_cif.got.tgz:25599.got - 2010.04.14 01:38:03.
