data_PCOD8184183
_publ_section_title
;
Structure prediction by ZEFSAII (Michael W. Deem and Ramdas Pophale) SiO2 
 PCOD8184183
Probable space group: A M A 2
;
_chemical_formula_sum "Si O2"
_cell_formula_units_Z 40
_cell_length_a 8.552233
_cell_length_b 17.076141
_cell_length_c 12.527863
_cell_angle_alpha 90.000000
_cell_angle_beta 90.000000
_cell_angle_gamma 90.000000
_cell_volume 1829.558296
_symmetry_space_group_name_H-M "A M A 2"
_symmetry_group_IT_number 40
_symmetry_cell_setting 'orthorhombic'
loop_
_space_group_symop_operation_xyz
x,y,z
-x,-y,z
1/2-x,y,z
1/2+x,-y,z
x,1/2+y,1/2+z
-x,1/2-y,1/2+z
1/2-x,1/2+y,1/2+z
1/2+x,1/2-y,1/2+z
loop_
_atom_site_type_symbol
_atom_site_label
_atom_site_fract_x
_atom_site_fract_y
_atom_site_fract_z
Si Si1 0.432324 0.917969 0.540410
Si Si2 0.933749 0.588409 0.428002
Si Si3 0.426945 0.081295 0.337556
Si Si4 0.931238 0.832110 0.722257
Si Si5 0.426619 0.678281 0.625364
O O1 0.250000 0.913715 0.568765
O O2 0.476598 0.870835 0.431635
O O3 0.536686 0.905237 0.645195
O O4 0.500000 0.000000 0.496951
O O5 0.750000 0.580488 0.416269
O O6 0.000000 0.500000 0.420251
O O7 0.994724 0.647118 0.336155
O O8 0.973497 0.629711 0.539769
O O9 0.250000 0.067567 0.377025
O O10 0.433106 0.136384 0.236999
O O11 0.500000 0.000000 0.297936
O O12 0.750000 0.814729 0.739280
O O13 0.009305 0.764286 0.650780
O O14 0.250000 0.685821 0.581380
#
# Coordination Sequence:
#
# PCOD8184183 Si02
#       5
#     8   8   8   8   8
#     4  11  22  39  64  93 128 167 215 266 325 392
#     4  12  26  47  73 102 138 182 233 284 342 411
#     4  10  21  38  63  93 128 166 213 263 321 389
#     4  12  26  44  67  96 134 176 223 277 339 400
#     4  11  25  44  67  98 135 175 223 276 337 402
#
# _framework density 21.863201
#
# number of rings (size 3 to 8) (size 9 to 14) (size 15 to 20)
#    0.000    0.800    0.000    9.000    2.800    4.800 
#    0.000    0.000    0.000    0.000    0.000    0.000 
#    0.000    0.000    0.000    0.000    0.000    0.000 
#
# Total GULP energy -247881.502525 kJ/mol
# GULP energy per Si atom -12394.075126 kJ/mol
# Density = 2.181344 g / cm^3
# Si number density = 21.863201 Si / 1000 Ang^3
#
#
#
# Elastic Constant Matrix: (Units=GPa)
#
#
# Indices 1 2 3 4 5 6 
#
# 1 110.6541 15.4759 42.2407 0.0000 0.0000 0.0000
# 2 15.4759 60.7842 20.0541 0.0000 0.0000 0.0000
# 3 42.2407 20.0541 105.3290 0.0000 0.0000 0.0000
# 4 0.0000 0.0000 0.0000 35.1726 0.0000 0.0000
# 5 0.0000 0.0000 0.0000 0.0000 42.7986 0.0000
# 6 0.0000 0.0000 0.0000 0.0000 0.0000 30.7921
#
#
#
# Elastic Compliance Matrix: (Units=1/GPa)
#
#
# Indices 1 2 3 4 5 6 
#
# 1 0.010782 -0.001407 -0.004056 0.000000 0.000000 0.000000
# 2 -0.001407 0.017738 -0.002813 0.000000 0.000000 0.000000
# 3 -0.004056 -0.002813 0.011656 0.000000 0.000000 0.000000
# 4 0.000000 0.000000 0.000000 0.028431 0.000000 0.000000
# 5 0.000000 0.000000 0.000000 0.000000 0.023365 0.000000
# 6 0.000000 0.000000 0.000000 0.000000 0.000000 0.032476
#
#
# Mechanical properties :
#
#
# Convention : Reuss Voigt Hill
#
# Bulk Modulus (GPa) = 42.32937 48.03431 45.18184
# Shear Modulus (GPa) = 33.58498 35.01909 34.30203
#
# Velocity S-wave (km/s) = 3.92362 4.00651 3.96528
# Velocity P-wave (km/s) = 6.31897 6.58946 6.45563
#
# Compressibility (1/GPa) = 0.02362426
#
# Stress axis : x y z
#
# Youngs Moduli (GPa) = 92.74402 56.37638 85.79033
#
# Poissons Ratio (x) = 0.07932 0.34799
# Poissons Ratio (y) = 0.13049 0.24132
# Poissons Ratio (z) = 0.37619 0.15858
#
# Static dielectric constant tensor:
#      x y z
#    x 4.162980 0.000000 0.000000 
#    y 0.000000 3.566200 0.000000 
#    z 0.000000 0.000000 4.075290 
# 
# 
# High freq. dielectric constant tensor:
#      x y z
#    x 1.872390 0.000000 0.000000 
#    y 0.000000 1.855320 0.000000 
#    z 0.000000 0.000000 1.886850 
# 
# From -- ./inp_files/10017.got.cif
#   From: 2010.03.12/outbox.cif.g09.slc.cpg/sg40_6_cif.got.tgz:10017.got - 2010.04.14 01:38:03.
