data_PCOD8184525
_publ_section_title
;
Structure prediction by ZEFSAII (Michael W. Deem and Ramdas Pophale) SiO2 
 PCOD8184525
Probable space group: A M A 2
;
_chemical_formula_sum "Si O2"
_cell_formula_units_Z 64
_cell_length_a 28.799795
_cell_length_b 8.291573
_cell_length_c 11.723299
_cell_angle_alpha 90.000000
_cell_angle_beta 90.000000
_cell_angle_gamma 90.000000
_cell_volume 2799.472249
_symmetry_space_group_name_H-M "A M A 2"
_symmetry_group_IT_number 40
_symmetry_cell_setting 'orthorhombic'
loop_
_space_group_symop_operation_xyz
x,y,z
-x,-y,z
1/2-x,y,z
1/2+x,-y,z
x,1/2+y,1/2+z
-x,1/2-y,1/2+z
1/2-x,1/2+y,1/2+z
1/2+x,1/2-y,1/2+z
loop_
_atom_site_type_symbol
_atom_site_label
_atom_site_fract_x
_atom_site_fract_y
_atom_site_fract_z
Si Si1 0.067458 0.370674 0.850570
Si Si2 0.018315 0.337868 0.631382
Si Si3 0.430054 0.359808 0.102878
Si Si4 0.302048 0.213868 0.893980
Si Si5 0.887255 0.692158 0.506787
Si Si6 0.652309 0.887883 0.115784
Si Si7 0.343062 0.049190 0.358265
Si Si8 0.390046 0.544256 0.307398
O O1 0.027287 0.399880 0.760182
O O2 0.111042 0.469412 0.804494
O O3 0.076359 0.179791 0.856587
O O4 0.058147 0.433679 0.978513
O O5 0.063735 0.264282 0.568118
O O6 0.000000 0.500000 0.566028
O O7 0.979690 0.200378 0.647637
O O8 0.394599 0.211317 0.091849
O O9 0.406160 0.498829 0.179587
O O10 0.250000 0.168953 0.855787
O O11 0.307536 0.407856 0.889994
O O12 0.337167 0.113501 0.811921
O O13 0.309059 0.166828 0.025770
O O14 0.858200 0.577225 0.591040
O O15 0.855011 0.846094 0.471610
O O16 0.897447 0.611854 0.384682
O O17 0.673414 0.855562 0.243281
#
# Coordination Sequence:
#
# PCOD8184525 Si02
#       8
#     8   8   8   8   8   8   8   8
#     4  11  24  42  62  98 140 188 238 294 344 412
#     4  12  25  40  62 100 146 186 250 293 333 403
#     4  12  23  41  67  98 140 194 236 287 349 418
#     4  10  24  48  75 105 140 175 233 302 367 452
#     4  11  22  41  69  96 137 189 231 286 344 414
#     4  11  21  44  68  99 142 183 223 286 359 415
#     4  11  22  41  74  99 137 188 228 282 370 423
#     4  10  23  44  69  96 135 184 235 284 374 422
#
# _framework density 22.861452
#
# number of rings (size 3 to 8) (size 9 to 14) (size 15 to 20)
#    0.000    1.000    7.500    0.000    3.500    1.000 
#    0.000    3.125    0.000    0.000    0.000    0.000 
#    0.000    0.000    0.000    0.000    0.000    0.000 
#
# Total GULP energy -396547.450954 kJ/mol
# GULP energy per Si atom -12392.107842 kJ/mol
# Density = 2.280942 g / cm^3
# Si number density = 22.861452 Si / 1000 Ang^3
#
#
#
# Elastic Constant Matrix: (Units=GPa)
#
#
# Indices 1 2 3 4 5 6 
#
# 1 106.4617 28.7931 33.8302 0.0000 0.0000 0.0000
# 2 28.7931 69.3159 29.6238 0.0000 0.0000 0.0000
# 3 33.8302 29.6238 140.2139 0.0000 0.0000 0.0000
# 4 0.0000 0.0000 0.0000 36.6468 0.0000 0.0000
# 5 0.0000 0.0000 0.0000 0.0000 18.5466 0.0000
# 6 0.0000 0.0000 0.0000 0.0000 0.0000 18.6815
#
#
#
# Elastic Compliance Matrix: (Units=1/GPa)
#
#
# Indices 1 2 3 4 5 6 
#
# 1 0.011005 -0.003778 -0.001857 0.000000 0.000000 0.000000
# 2 -0.003778 0.017155 -0.002713 0.000000 0.000000 0.000000
# 3 -0.001857 -0.002713 0.008153 0.000000 0.000000 0.000000
# 4 0.000000 0.000000 0.000000 0.027288 0.000000 0.000000
# 5 0.000000 0.000000 0.000000 0.000000 0.053918 0.000000
# 6 0.000000 0.000000 0.000000 0.000000 0.000000 0.053529
#
#
# Mechanical properties :
#
#
# Convention : Reuss Voigt Hill
#
# Bulk Modulus (GPa) = 50.97384 55.60954 53.29169
# Shear Modulus (GPa) = 25.73566 29.69128 27.71347
#
# Velocity S-wave (km/s) = 3.35882 3.60773 3.48549
# Velocity P-wave (km/s) = 6.11453 6.46000 6.28964
#
# Compressibility (1/GPa) = 0.01961791
#
# Stress axis : x y z
#
# Youngs Moduli (GPa) = 90.86901 58.29074 122.65077
#
# Poissons Ratio (x) = 0.22020 0.22777
# Poissons Ratio (y) = 0.34327 0.33276
# Poissons Ratio (z) = 0.16875 0.15815
#
# Static dielectric constant tensor:
#      x y z
#    x 3.711330 0.000000 0.000000 
#    y 0.000000 4.189970 0.000000 
#    z 0.000000 0.000000 4.281730 
# 
# 
# High freq. dielectric constant tensor:
#      x y z
#    x 1.860420 0.000000 0.000000 
#    y 0.000000 1.909540 0.000000 
#    z 0.000000 0.000000 1.912450 
# 
# From -- ./inp_files/14408.got.cif
#   From: 2010.03.12/outbox.cif.g09.slc.cpg/sg40_8_cif.got.tgz:14408.got - 2010.04.14 01:38:03.
