data_PCOD8184890
_publ_section_title
;
Structure prediction by ZEFSAII (Michael W. Deem and Ramdas Pophale) SiO2 
 PCOD8184890
Probable space group: A B A 2
;
_chemical_formula_sum "Si O2"
_cell_formula_units_Z 44
_cell_length_a 13.768763
_cell_length_b 13.743701
_cell_length_c 12.834779
_cell_angle_alpha 90.000000
_cell_angle_beta 90.000000
_cell_angle_gamma 90.000000
_cell_volume 2428.773512
_symmetry_space_group_name_H-M "A B A 2"
_symmetry_group_IT_number 41
_symmetry_cell_setting 'orthorhombic'
loop_
_space_group_symop_operation_xyz
x,y,z
-x,-y,z
1/2-x,y,1/2+z
1/2+x,-y,1/2+z
x,1/2+y,1/2+z
-x,1/2-y,1/2+z
1/2-x,1/2+y,z
1/2+x,1/2-y,z
loop_
_atom_site_type_symbol
_atom_site_label
_atom_site_fract_x
_atom_site_fract_y
_atom_site_fract_z
Si Si1 0.678840 0.912730 0.224380
Si Si2 0.720814 0.259385 0.556233
Si Si3 0.500000 0.000000 0.320788
Si Si4 0.754721 0.626579 0.244476
Si Si5 0.861042 0.252454 0.379677
Si Si6 0.578142 0.687647 0.881779
O O1 0.698266 0.861757 0.113088
O O2 0.699215 0.835043 0.315844
O O3 0.567027 0.942012 0.239400
O O4 0.742902 0.009811 0.235858
O O5 0.722618 0.168913 0.634170
O O6 0.825518 0.264875 0.498817
O O7 0.634520 0.237271 0.475886
O O8 0.553131 0.073565 0.401012
O O9 0.673775 0.649057 0.332868
O O10 0.855675 0.680946 0.277224
O O11 0.977122 0.254839 0.366679
#
# Coordination Sequence:
#
# PCOD8184890 Si02
#       6
#     8   8   4   8   8   8
#     4   9  18  33  50  73 103 133 168 206 252 302
#     4  10  20  32  53  79 100 129 171 215 251 295
#     4   8  16  32  52  68  98 140 166 200 250 306
#     4   9  19  34  52  73 101 136 169 205 252 306
#     4   9  19  34  52  72 101 135 164 208 254 300
#     4   9  18  33  51  74 102 132 171 208 254 305
#
# _framework density 18.116140000000001
#
# number of rings (size 3 to 8) (size 9 to 14) (size 15 to 20)
#    0.000    2.909    0.000    0.000    0.000   11.636 
#    0.000    0.000    0.000   17.455    0.000    0.000 
#    0.000    0.000    0.000    0.000    0.000    0.000 
#
# Total GULP energy -272544.115649 kJ/mol
# GULP energy per Si atom -12388.368893 kJ/mol
# Density = 1.807491 g / cm^3
# Si number density = 18.116140 Si / 1000 Ang^3
#
#
#
# Elastic Constant Matrix: (Units=GPa)
#
#
# Indices 1 2 3 4 5 6 
#
# 1 83.6153 31.5718 20.9828 0.0000 0.0000 0.0000
# 2 31.5718 104.1810 39.2537 0.0000 0.0000 0.0000
# 3 20.9828 39.2537 84.1569 0.0000 0.0000 0.0000
# 4 0.0000 0.0000 0.0000 23.7296 0.0000 0.0000
# 5 0.0000 0.0000 0.0000 0.0000 17.0713 0.0000
# 6 0.0000 0.0000 0.0000 0.0000 0.0000 31.0461
#
#
#
# Elastic Compliance Matrix: (Units=1/GPa)
#
#
# Indices 1 2 3 4 5 6 
#
# 1 0.013725 -0.003482 -0.001798 0.000000 0.000000 0.000000
# 2 -0.003482 0.012529 -0.004976 0.000000 0.000000 0.000000
# 3 -0.001798 -0.004976 0.014652 0.000000 0.000000 0.000000
# 4 0.000000 0.000000 0.000000 0.042141 0.000000 0.000000
# 5 0.000000 0.000000 0.000000 0.000000 0.058578 0.000000
# 6 0.000000 0.000000 0.000000 0.000000 0.000000 0.032210
#
#
# Mechanical properties :
#
#
# Convention : Reuss Voigt Hill
#
# Bulk Modulus (GPa) = 49.03294 50.61887 49.82591
# Shear Modulus (GPa) = 24.85771 26.37905 25.61838
#
# Velocity S-wave (km/s) = 3.70825 3.82004 3.76456
# Velocity P-wave (km/s) = 6.74236 6.88904 6.81610
#
# Compressibility (1/GPa) = 0.02039445
#
# Stress axis : x y z
#
# Youngs Moduli (GPa) = 72.85714 79.81722 68.25165
#
# Poissons Ratio (x) = 0.27792 0.12272
# Poissons Ratio (y) = 0.25369 0.33959
# Poissons Ratio (z) = 0.13100 0.39714
#
# Static dielectric constant tensor:
#      x y z
#    x 3.400420 0.000000 0.000000 
#    y 0.000000 3.533090 0.000000 
#    z 0.000000 0.000000 3.238650 
# 
# 
# High freq. dielectric constant tensor:
#      x y z
#    x 1.698610 0.000000 0.000000 
#    y 0.000000 1.702910 0.000000 
#    z 0.000000 0.000000 1.688380 
# 
# From -- ./inp_files/4944.got.cif
#   From: 2010.03.12/outbox.cif.g09.slc.cpg/sg41_3_cif.got.tgz:4944.got - 2010.04.14 01:55:53.
