data_PCOD8184917
_publ_section_title
;
Structure prediction by ZEFSAII (Michael W. Deem and Ramdas Pophale) SiO2 
 PCOD8184917
Probable space group: A B A 2
;
_chemical_formula_sum "Si O2"
_cell_formula_units_Z 44
_cell_length_a 13.668525
_cell_length_b 13.059807
_cell_length_c 12.248601
_cell_angle_alpha 90.000000
_cell_angle_beta 90.000000
_cell_angle_gamma 90.000000
_cell_volume 2186.476923
_symmetry_space_group_name_H-M "A B A 2"
_symmetry_group_IT_number 41
_symmetry_cell_setting 'orthorhombic'
loop_
_space_group_symop_operation_xyz
x,y,z
-x,-y,z
1/2-x,y,1/2+z
1/2+x,-y,1/2+z
x,1/2+y,1/2+z
-x,1/2-y,1/2+z
1/2-x,1/2+y,z
1/2+x,1/2-y,z
loop_
_atom_site_type_symbol
_atom_site_label
_atom_site_fract_x
_atom_site_fract_y
_atom_site_fract_z
Si Si1 0.500000 0.000000 0.868940
Si Si2 0.754467 0.828854 0.418230
Si Si3 0.786956 0.207770 0.611120
Si Si4 0.651868 0.491384 0.553221
Si Si5 0.620300 0.324900 0.721263
Si Si6 0.932866 0.795209 0.278038
O O1 0.477104 0.091162 0.785030
O O2 0.412363 0.970483 0.951094
O O3 0.704867 0.735317 0.483034
O O4 0.760764 0.923983 0.502058
O O5 0.690320 0.866489 0.316851
O O6 0.861509 0.785728 0.382823
O O7 0.678870 0.234126 0.658272
O O8 0.869297 0.275883 0.670206
O O9 0.805650 0.086680 0.621695
O O10 0.594041 0.418084 0.639043
O O11 0.521030 0.285825 0.777035
#
# Coordination Sequence:
#
# PCOD8184917 Si02
#       6
#     4   8   8   8   8   8
#     4  10  20  36  60  82 112 154 190 230 284 338
#     4   9  21  37  55  82 114 151 190 232 284 338
#     4  10  21  37  57  82 114 149 188 233 281 338
#     4  10  20  36  58  84 115 153 190 231 284 337
#     4  10  21  36  58  85 115 149 189 236 281 335
#     4  10  21  36  58  86 112 146 192 235 284 337
#
# _framework density 20.123698000000001
#
# number of rings (size 3 to 8) (size 9 to 14) (size 15 to 20)
#    0.000    2.182    0.000    2.182    0.000   11.636 
#    0.000    0.000    0.000   12.000    0.000    0.000 
#    0.000    0.000    0.000    0.000    0.000    0.000 
#
# Total GULP energy -272682.381451 kJ/mol
# GULP energy per Si atom -12394.653702 kJ/mol
# Density = 2.007790 g / cm^3
# Si number density = 20.123698 Si / 1000 Ang^3
#
#
#
# Elastic Constant Matrix: (Units=GPa)
#
#
# Indices 1 2 3 4 5 6 
#
# 1 87.8559 48.3403 33.3087 0.0000 0.0000 0.0000
# 2 48.3403 134.2003 59.5364 0.0000 0.0000 0.0000
# 3 33.3087 59.5364 98.0250 0.0000 0.0000 0.0000
# 4 0.0000 0.0000 0.0000 30.6262 0.0000 0.0000
# 5 0.0000 0.0000 0.0000 0.0000 23.8285 0.0000
# 6 0.0000 0.0000 0.0000 0.0000 0.0000 24.4827
#
#
#
# Elastic Compliance Matrix: (Units=1/GPa)
#
#
# Indices 1 2 3 4 5 6 
#
# 1 0.014603 -0.004187 -0.002419 0.000000 0.000000 0.000000
# 2 -0.004187 0.011400 -0.005501 0.000000 0.000000 0.000000
# 3 -0.002419 -0.005501 0.014365 0.000000 0.000000 0.000000
# 4 0.000000 0.000000 0.000000 0.032652 0.000000 0.000000
# 5 0.000000 0.000000 0.000000 0.000000 0.041967 0.000000
# 6 0.000000 0.000000 0.000000 0.000000 0.000000 0.040845
#
#
# Mechanical properties :
#
#
# Convention : Reuss Voigt Hill
#
# Bulk Modulus (GPa) = 61.90659 66.93909 64.42284
# Shear Modulus (GPa) = 26.96415 27.71387 27.33901
#
# Velocity S-wave (km/s) = 3.66446 3.71506 3.68985
# Velocity P-wave (km/s) = 6.98099 7.19293 7.08775
#
# Compressibility (1/GPa) = 0.01615337
#
# Stress axis : x y z
#
# Youngs Moduli (GPa) = 68.47809 87.71635 69.61453
#
# Poissons Ratio (x) = 0.36727 0.16841
# Poissons Ratio (y) = 0.28672 0.38298
# Poissons Ratio (z) = 0.16566 0.48256
#
# Static dielectric constant tensor:
#      x y z
#    x 3.674080 0.000000 0.000000 
#    y 0.000000 3.550650 0.000000 
#    z 0.000000 0.000000 3.702990 
# 
# 
# High freq. dielectric constant tensor:
#      x y z
#    x 1.780140 0.000000 0.000000 
#    y 0.000000 1.772820 0.000000 
#    z 0.000000 0.000000 1.791050 
# 
# From -- ./inp_files/5471.got.cif
#   From: 2010.03.12/outbox.cif.g09.slc.cpg/sg41_3_cif.got.tgz:5471.got - 2010.04.14 01:55:53.
