data_PCOD8184904
_publ_section_title
;
Structure prediction by ZEFSAII (Michael W. Deem and Ramdas Pophale) SiO2 
 PCOD8184904
Probable space group: A B A 2
;
_chemical_formula_sum "Si O2"
_cell_formula_units_Z 64
_cell_length_a 9.618678
_cell_length_b 21.734502
_cell_length_c 14.243596
_cell_angle_alpha 90.000000
_cell_angle_beta 90.000000
_cell_angle_gamma 90.000000
_cell_volume 2977.725959
_symmetry_space_group_name_H-M "A B A 2"
_symmetry_group_IT_number 41
_symmetry_cell_setting 'orthorhombic'
loop_
_space_group_symop_operation_xyz
x,y,z
-x,-y,z
1/2-x,y,1/2+z
1/2+x,-y,1/2+z
x,1/2+y,1/2+z
-x,1/2-y,1/2+z
1/2-x,1/2+y,z
1/2+x,1/2-y,z
loop_
_atom_site_type_symbol
_atom_site_label
_atom_site_fract_x
_atom_site_fract_y
_atom_site_fract_z
Si Si1 0.712868 0.300163 0.185770
Si Si2 0.208401 0.095828 0.041132
Si Si3 0.321088 0.679533 0.401714
Si Si4 0.015882 0.219352 0.925376
Si Si5 0.393210 0.443308 0.767415
Si Si6 0.527414 0.188610 0.213966
Si Si7 0.580345 0.594978 0.976028
Si Si8 0.160265 0.482353 0.640846
O O1 0.660038 0.347117 0.106840
O O2 0.675183 0.328309 0.289118
O O3 0.642253 0.233529 0.165812
O O4 0.877981 0.294029 0.171436
O O5 0.256562 0.040066 0.106908
O O6 0.316654 0.114862 0.958527
O O7 0.075113 0.067425 0.986903
O O8 0.456537 0.712769 0.445594
O O9 0.182468 0.717361 0.432516
O O10 0.965465 0.204450 0.821834
O O11 0.937001 0.168703 0.988358
O O12 0.500000 0.500000 0.756342
O O13 0.445905 0.384751 0.705093
O O14 0.365385 0.425471 0.874909
O O15 0.237752 0.459390 0.733467
O O16 0.674485 0.569707 0.060350
O O17 0.000000 0.500000 0.665018
#
# Coordination Sequence:
#
# PCOD8184904 Si02
#       8
#     8   8   8   8   8   8   8   8
#     4  10  20  35  55  84 118 149 192 246 293 353
#     4  10  20  34  58  85 110 151 203 240 290 363
#     4   9  18  33  52  79 113 146 184 236 288 344
#     4   8  16  33  55  79 109 148 192 232 287 352
#     4  11  21  39  65  87 118 161 202 249 302 360
#     4   9  20  35  56  86 117 155 198 240 298 356
#     4   9  20  39  60  82 114 157 199 239 292 359
#     4  10  22  38  57  86 116 151 204 250 295 361
#
# _framework density 21.492913000000001
#
# number of rings (size 3 to 8) (size 9 to 14) (size 15 to 20)
#    0.000    2.500    0.000    2.625    0.000    6.000 
#    0.000    4.375    0.000    0.000    0.000    0.000 
#    0.000    0.000    0.000    0.000    0.000    0.000 
#
# Total GULP energy -396446.994469 kJ/mol
# GULP energy per Si atom -12388.968577 kJ/mol
# Density = 2.144399 g / cm^3
# Si number density = 21.492913 Si / 1000 Ang^3
#
#
#
# Elastic Constant Matrix: (Units=GPa)
#
#
# Indices 1 2 3 4 5 6 
#
# 1 84.4518 15.8587 29.0290 0.0000 0.0000 0.0000
# 2 15.8587 52.5880 15.5666 0.0000 0.0000 0.0000
# 3 29.0290 15.5666 84.1379 0.0000 0.0000 0.0000
# 4 0.0000 0.0000 0.0000 23.5758 0.0000 0.0000
# 5 0.0000 0.0000 0.0000 0.0000 22.8390 0.0000
# 6 0.0000 0.0000 0.0000 0.0000 0.0000 29.7444
#
#
#
# Elastic Compliance Matrix: (Units=1/GPa)
#
#
# Indices 1 2 3 4 5 6 
#
# 1 0.013846 -0.002921 -0.004237 0.000000 0.000000 0.000000
# 2 -0.002921 0.020734 -0.002828 0.000000 0.000000 0.000000
# 3 -0.004237 -0.002828 0.013870 0.000000 0.000000 0.000000
# 4 0.000000 0.000000 0.000000 0.042416 0.000000 0.000000
# 5 0.000000 0.000000 0.000000 0.000000 0.043785 0.000000
# 6 0.000000 0.000000 0.000000 0.000000 0.000000 0.033620
#
#
# Mechanical properties :
#
#
# Convention : Reuss Voigt Hill
#
# Bulk Modulus (GPa) = 35.11500 38.00957 36.56229
# Shear Modulus (GPa) = 25.28630 25.94675 25.61653
#
# Velocity S-wave (km/s) = 3.43373 3.47828 3.45608
# Velocity P-wave (km/s) = 5.66516 5.81845 5.74232
#
# Compressibility (1/GPa) = 0.02847786
#
# Stress axis : x y z
#
# Youngs Moduli (GPa) = 72.22353 48.23020 72.09712
#
# Poissons Ratio (x) = 0.14090 0.30544
# Poissons Ratio (y) = 0.21099 0.20390
# Poissons Ratio (z) = 0.30598 0.13640
#
# Static dielectric constant tensor:
#      x y z
#    x 3.652180 0.000000 0.000000 
#    y 0.000000 4.262220 0.000000 
#    z 0.000000 0.000000 3.898190 
# 
# 
# High freq. dielectric constant tensor:
#      x y z
#    x 1.814860 0.000000 0.000000 
#    y 0.000000 1.840570 0.000000 
#    z 0.000000 0.000000 1.845870 
# 
# From -- ./inp_files/7571.got.cif
#   From: 2010.03.12/outbox.cif.g09.slc.cpg/sg41_4_cif.got.tgz:7571.got - 2010.04.14 01:55:53.
