data_PCOD8184001
_publ_section_title
;
Structure prediction by ZEFSAII (Michael W. Deem and Ramdas Pophale) SiO2 
 PCOD8184001
Probable space group: A M A 2
;
_chemical_formula_sum "Si O2"
_cell_formula_units_Z 40
_cell_length_a 13.636809
_cell_length_b 9.881771
_cell_length_c 12.194364
_cell_angle_alpha 90.000000
_cell_angle_beta 90.000000
_cell_angle_gamma 90.000000
_cell_volume 1643.261565
_symmetry_space_group_name_H-M "A M A 2"
_symmetry_group_IT_number 40
_symmetry_cell_setting 'orthorhombic'
loop_
_space_group_symop_operation_xyz
x,y,z
-x,-y,z
1/2-x,y,z
1/2+x,-y,z
x,1/2+y,1/2+z
-x,1/2-y,1/2+z
1/2-x,1/2+y,1/2+z
1/2+x,1/2-y,1/2+z
loop_
_atom_site_type_symbol
_atom_site_label
_atom_site_fract_x
_atom_site_fract_y
_atom_site_fract_z
Si Si1 0.531700 0.640947 0.797010
Si Si2 0.136123 0.851860 0.761537
Si Si3 0.857873 0.733245 0.598825
Si Si4 0.141776 0.035224 0.956530
Si Si5 0.442925 0.810907 0.529795
O O1 0.500000 0.500000 0.742872
O O2 0.434556 0.733529 0.804612
O O3 0.617599 0.706198 0.725896
O O4 0.579373 0.612465 0.916675
O O5 0.250000 0.811469 0.782921
O O6 0.111764 0.988084 0.832010
O O7 0.120246 0.871140 0.630410
O O8 0.750000 0.801403 0.591723
O O9 0.859290 0.594274 0.533259
O O10 0.941619 0.834088 0.554897
O O11 0.250000 0.099987 0.953768
O O12 0.071132 0.149378 0.007255
#
# Coordination Sequence:
#
# PCOD8184001 Si02
#       5
#     8   8   8   8   8
#     4  11  24  40  61  90 127 172 210 265 332 398
#     4  10  22  42  66  94 127 167 220 276 329 395
#     4  10  21  39  63  90 119 159 216 267 319 390
#     4  10  20  39  68  95 121 163 220 276 328 392
#     4  11  22  40  65  93 131 170 214 266 336 395
#
# _framework density 24.341836000000001
#
# number of rings (size 3 to 8) (size 9 to 14) (size 15 to 20)
#    0.000    1.600    2.000    3.600    0.000    4.000 
#    7.200    0.000    0.000    0.000    0.000    0.000 
#    0.000    0.000    0.000    0.000    0.000    0.000 
#
# Total GULP energy -247861.235645 kJ/mol
# GULP energy per Si atom -12393.061782 kJ/mol
# Density = 2.428643 g / cm^3
# Si number density = 24.341836 Si / 1000 Ang^3
#
#
#
# Elastic Constant Matrix: (Units=GPa)
#
#
# Indices 1 2 3 4 5 6 
#
# 1 132.4091 3.6032 20.6308 0.0000 0.0000 0.0000
# 2 3.6032 21.1645 -4.4238 0.0000 0.0000 0.0000
# 3 20.6308 -4.4238 176.0633 0.0000 0.0000 0.0000
# 4 0.0000 0.0000 0.0000 -19.6962 0.0000 0.0000
# 5 0.0000 0.0000 0.0000 0.0000 -10.1286 0.0000
# 6 0.0000 0.0000 0.0000 0.0000 0.0000 15.5233
#
#
#
# Elastic Compliance Matrix: (Units=1/GPa)
#
#
# Indices 1 2 3 4 5 6 
#
# 1 0.007741 -0.001515 -0.000945 0.000000 0.000000 0.000000
# 2 -0.001515 0.047795 0.001378 0.000000 0.000000 0.000000
# 3 -0.000945 0.001378 0.005825 0.000000 0.000000 0.000000
# 4 0.000000 0.000000 0.000000 -0.050771 0.000000 0.000000
# 5 0.000000 0.000000 0.000000 0.000000 -0.098731 0.000000
# 6 0.000000 0.000000 0.000000 0.000000 0.000000 0.064419
#
#
# Mechanical properties :
#
#
# Convention : Reuss Voigt Hill
#
# Bulk Modulus (GPa) = 16.89276 41.02858 28.96067
# Shear Modulus (GPa) = -2739.74843 17.79482 -1360.97680
#
# Velocity S-wave (km/s) = -33.58533 2.70671 -23.67116
# Velocity P-wave (km/s) = 38.69122 5.16334 27.11412
#
# Compressibility (1/GPa) = 0.05919695
#
# Stress axis : x y z
#
# Youngs Moduli (GPa) = 129.18476 20.92267 171.66907
#
# Poissons Ratio (x) = 0.03171 0.16225
# Poissons Ratio (y) = 0.19577 -0.23664
# Poissons Ratio (z) = 0.12210 -0.02884
#
# Static dielectric constant tensor:
#      x y z
#    x 4.743520 0.000000 0.000000 
#    y 0.000000 3.901780 0.000000 
#    z 0.000000 0.000000 4.740220 
# 
# 
# High freq. dielectric constant tensor:
#      x y z
#    x 1.970160 0.000000 0.000000 
#    y 0.000000 1.933420 0.000000 
#    z 0.000000 0.000000 1.989310 
# 
# From -- ./inp_files/11930.got.cif
#   From: 2010.03.12/outbox.cif.g09.slc.cpg/sg40_6_cif.got.tgz:11930.got - 2010.04.14 01:38:03.
