data_PCOD8184764
_publ_section_title
;
Structure prediction by ZEFSAII (Michael W. Deem and Ramdas Pophale) SiO2 
 PCOD8184764
Probable space group: A B A 2
;
_chemical_formula_sum "Si O2"
_cell_formula_units_Z 52
_cell_length_a 13.915791
_cell_length_b 20.963267
_cell_length_c 8.916818
_cell_angle_alpha 90.000000
_cell_angle_beta 90.000000
_cell_angle_gamma 90.000000
_cell_volume 2601.218090
_symmetry_space_group_name_H-M "A B A 2"
_symmetry_group_IT_number 41
_symmetry_cell_setting 'orthorhombic'
loop_
_space_group_symop_operation_xyz
x,y,z
-x,-y,z
1/2-x,y,1/2+z
1/2+x,-y,1/2+z
x,1/2+y,1/2+z
-x,1/2-y,1/2+z
1/2-x,1/2+y,z
1/2+x,1/2-y,z
loop_
_atom_site_type_symbol
_atom_site_label
_atom_site_fract_x
_atom_site_fract_y
_atom_site_fract_z
Si Si1 0.367406 0.316258 0.140580
Si Si2 0.500000 0.000000 0.225072
Si Si3 0.689157 0.718779 0.454707
Si Si4 0.369060 0.093003 0.074575
Si Si5 0.995943 0.197924 0.638872
Si Si6 0.206143 0.636341 0.381937
Si Si7 0.495254 0.881438 0.423328
O O1 0.338801 0.326194 0.313839
O O2 0.421943 0.249984 0.129855
O O3 0.273181 0.317454 0.039351
O O4 0.435288 0.373030 0.076718
O O5 0.589823 0.976690 0.120980
O O6 0.461160 0.943814 0.332489
O O7 0.600085 0.725549 0.567329
O O8 0.725224 0.788669 0.405552
O O9 0.463938 0.136520 0.047740
O O10 0.305424 0.124533 0.205967
O O11 0.297413 0.093343 0.933418
O O12 0.978758 0.179909 0.813965
O O13 0.108368 0.613472 0.464956
#
# Coordination Sequence:
#
# PCOD8184764 Si02
#       7
#     8   4   8   8   8   8   8
#     4  12  21  34  53  85 124 154 186 245 297 359
#     4   8  20  42  60  76 116 164 204 248 282 344
#     4  12  21  33  53  88 124 153 190 235 310 370
#     4  10  20  37  60  85 114 152 201 244 294 337
#     4  10  19  35  54  82 117 150 189 244 297 350
#     4  10  18  33  57  88 112 149 194 239 290 357
#     4  10  21  39  59  83 117 159 198 239 299 345
#
# _framework density 19.990634
#
# number of rings (size 3 to 8) (size 9 to 14) (size 15 to 20)
#    0.000    1.846    6.154    0.923    0.000    1.231 
#    0.000    9.231    0.000    7.385    0.000    0.000 
#    0.000    0.000    0.000    0.000    0.000    0.000 
#
# Total GULP energy -322304.159382 kJ/mol
# GULP energy per Si atom -12396.313822 kJ/mol
# Density = 1.994513 g / cm^3
# Si number density = 19.990634 Si / 1000 Ang^3
#
#
#
# Elastic Constant Matrix: (Units=GPa)
#
#
# Indices 1 2 3 4 5 6 
#
# 1 66.9325 10.0271 28.1447 0.0000 0.0000 0.0000
# 2 10.0271 57.8244 14.0702 0.0000 0.0000 0.0000
# 3 28.1447 14.0702 60.7033 0.0000 0.0000 0.0000
# 4 0.0000 0.0000 0.0000 19.0779 0.0000 0.0000
# 5 0.0000 0.0000 0.0000 0.0000 40.8676 0.0000
# 6 0.0000 0.0000 0.0000 0.0000 0.0000 24.6306
#
#
#
# Elastic Compliance Matrix: (Units=1/GPa)
#
#
# Indices 1 2 3 4 5 6 
#
# 1 0.018636 -0.001197 -0.008363 0.000000 0.000000 0.000000
# 2 -0.001197 0.018404 -0.003711 0.000000 0.000000 0.000000
# 3 -0.008363 -0.003711 0.021211 0.000000 0.000000 0.000000
# 4 0.000000 0.000000 0.000000 0.052417 0.000000 0.000000
# 5 0.000000 0.000000 0.000000 0.000000 0.024469 0.000000
# 6 0.000000 0.000000 0.000000 0.000000 0.000000 0.040600
#
#
# Mechanical properties :
#
#
# Convention : Reuss Voigt Hill
#
# Bulk Modulus (GPa) = 31.53576 32.21601 31.87589
# Shear Modulus (GPa) = 23.49075 25.79642 24.64359
#
# Velocity S-wave (km/s) = 3.43167 3.59615 3.51487
# Velocity P-wave (km/s) = 5.61350 5.77872 5.69671
#
# Compressibility (1/GPa) = 0.03171003
#
# Stress axis : x y z
#
# Youngs Moduli (GPa) = 53.65844 54.33529 47.14461
#
# Poissons Ratio (x) = 0.06502 0.39428
# Poissons Ratio (y) = 0.06421 0.17496
# Poissons Ratio (z) = 0.44876 0.20164
#
# Static dielectric constant tensor:
#      x y z
#    x 3.724240 0.000000 0.000000 
#    y 0.000000 3.409380 0.000000 
#    z 0.000000 0.000000 3.683250 
# 
# 
# High freq. dielectric constant tensor:
#      x y z
#    x 1.785720 0.000000 0.000000 
#    y 0.000000 1.743780 0.000000 
#    z 0.000000 0.000000 1.769260 
# 
# From -- ./inp_files/2657.got.cif
#   From: 2010.03.12/outbox.cif.g09.slc.cpg/sg41_2_cif.got.tgz:2657.got - 2010.04.14 01:55:53.
