data_PCOD8184412
_publ_section_title
;
Structure prediction by ZEFSAII (Michael W. Deem and Ramdas Pophale) SiO2 
 PCOD8184412
Probable space group: A M A 2
;
_chemical_formula_sum "Si O2"
_cell_formula_units_Z 48
_cell_length_a 29.895855
_cell_length_b 15.349358
_cell_length_c 5.084101
_cell_angle_alpha 90.000000
_cell_angle_beta 90.000000
_cell_angle_gamma 90.000000
_cell_volume 2333.003356
_symmetry_space_group_name_H-M "A M A 2"
_symmetry_group_IT_number 40
_symmetry_cell_setting 'orthorhombic'
loop_
_space_group_symop_operation_xyz
x,y,z
-x,-y,z
1/2-x,y,z
1/2+x,-y,z
x,1/2+y,1/2+z
-x,1/2-y,1/2+z
1/2-x,1/2+y,1/2+z
1/2+x,1/2-y,1/2+z
loop_
_atom_site_type_symbol
_atom_site_label
_atom_site_fract_x
_atom_site_fract_y
_atom_site_fract_z
Si Si1 0.379062 0.189485 0.532600
Si Si2 0.700016 0.219071 0.819345
Si Si3 0.160752 0.341236 0.814792
Si Si4 0.472269 0.266435 0.482868
Si Si5 0.046224 0.458934 0.513647
Si Si6 0.599472 0.503586 0.001790
O O1 0.337590 0.204716 0.331360
O O2 0.371066 0.254187 0.784417
O O3 0.427655 0.212270 0.412104
O O4 0.377999 0.086865 0.594653
O O5 0.750000 0.256804 0.860924
O O6 0.697424 0.173317 0.538876
O O7 0.688086 0.146778 0.042488
O O8 0.134080 0.428316 0.878430
O O9 0.500122 0.218947 0.713614
O O10 0.459719 0.359817 0.603746
O O11 0.063957 0.513137 0.766233
O O12 0.000000 0.500000 0.418120
O O13 0.078992 0.456394 0.264822
#
# Coordination Sequence:
#
# PCOD8184412 Si02
#       6
#     8   8   8   8   8   8
#     4  10  25  40  68  91 130 168 214 258 335 378
#     4  10  22  43  70  93 128 165 213 269 332 394
#     4  10  22  41  66  89 126 164 210 258 331 385
#     4  12  24  39  62  92 128 172 218 261 319 385
#     4  12  24  40  59  94 131 170 227 273 321 383
#     4  12  23  41  65  91 130 171 215 271 327 393
#
# _framework density 20.574338999999998
#
# number of rings (size 3 to 8) (size 9 to 14) (size 15 to 20)
#    1.000    0.000    1.667    6.000    4.667    0.000 
#    0.000    1.667    0.000    0.000    0.000    0.000 
#    0.000    0.000    0.000    0.000    0.000    0.000 
#
# Total GULP energy -297440.698691 kJ/mol
# GULP energy per Si atom -12393.362445 kJ/mol
# Density = 2.052751 g / cm^3
# Si number density = 20.574339 Si / 1000 Ang^3
#
#
#
# Elastic Constant Matrix: (Units=GPa)
#
#
# Indices 1 2 3 4 5 6 
#
# 1 129.9539 36.4789 30.4498 0.0000 0.0000 0.0000
# 2 36.4789 124.9586 13.1917 0.0000 0.0000 0.0000
# 3 30.4498 13.1917 103.2543 0.0000 0.0000 0.0000
# 4 0.0000 0.0000 0.0000 21.8630 0.0000 0.0000
# 5 0.0000 0.0000 0.0000 0.0000 23.5707 0.0000
# 6 0.0000 0.0000 0.0000 0.0000 0.0000 18.0376
#
#
#
# Elastic Compliance Matrix: (Units=1/GPa)
#
#
# Indices 1 2 3 4 5 6 
#
# 1 0.008900 -0.002353 -0.002324 0.000000 0.000000 0.000000
# 2 -0.002353 0.008734 -0.000422 0.000000 0.000000 0.000000
# 3 -0.002324 -0.000422 0.010424 0.000000 0.000000 0.000000
# 4 0.000000 0.000000 0.000000 0.045739 0.000000 0.000000
# 5 0.000000 0.000000 0.000000 0.000000 0.042426 0.000000
# 6 0.000000 0.000000 0.000000 0.000000 0.000000 0.055440
#
#
# Mechanical properties :
#
#
# Convention : Reuss Voigt Hill
#
# Bulk Modulus (GPa) = 55.98957 57.60083 56.79520
# Shear Modulus (GPa) = 26.62209 31.23071 28.92640
#
# Velocity S-wave (km/s) = 3.60105 3.90031 3.75366
# Velocity P-wave (km/s) = 6.67551 6.95273 6.81553
#
# Compressibility (1/GPa) = 0.01786047
#
# Stress axis : x y z
#
# Youngs Moduli (GPa) = 112.35910 114.49432 95.93154
#
# Poissons Ratio (x) = 0.26938 0.22295
# Poissons Ratio (y) = 0.26436 0.04048
# Poissons Ratio (z) = 0.26113 0.04832
#
# Static dielectric constant tensor:
#      x y z
#    x 3.644880 0.000000 0.000000 
#    y 0.000000 3.498110 0.000000 
#    z 0.000000 0.000000 3.691460 
# 
# 
# High freq. dielectric constant tensor:
#      x y z
#    x 1.798360 0.000000 0.000000 
#    y 0.000000 1.786140 0.000000 
#    z 0.000000 0.000000 1.810680 
# 
# From -- ./inp_files/3072.got.cif
#   From: 2010.03.12/outbox.cif.g09.slc.cpg/sg40_2_cif.got.tgz:3072.got - 2010.04.14 01:38:03.
