data_PCOD8184169
_publ_section_title
;
Structure prediction by ZEFSAII (Michael W. Deem and Ramdas Pophale) SiO2 
 PCOD8184169
Probable space group: A M A 2
;
_chemical_formula_sum "Si O2"
_cell_formula_units_Z 64
_cell_length_a 8.418947
_cell_length_b 30.787342
_cell_length_c 11.972038
_cell_angle_alpha 90.000000
_cell_angle_beta 90.000000
_cell_angle_gamma 90.000000
_cell_volume 3103.116340
_symmetry_space_group_name_H-M "A M A 2"
_symmetry_group_IT_number 40
_symmetry_cell_setting 'orthorhombic'
loop_
_space_group_symop_operation_xyz
x,y,z
-x,-y,z
1/2-x,y,z
1/2+x,-y,z
x,1/2+y,1/2+z
-x,1/2-y,1/2+z
1/2-x,1/2+y,1/2+z
1/2+x,1/2-y,1/2+z
loop_
_atom_site_type_symbol
_atom_site_label
_atom_site_fract_x
_atom_site_fract_y
_atom_site_fract_z
Si Si1 0.438459 0.373239 0.953000
Si Si2 0.564923 0.078030 0.830947
Si Si3 0.564004 0.045652 0.591618
Si Si4 0.432178 0.793125 0.056837
Si Si5 0.931093 0.328247 0.338921
Si Si6 0.563646 0.454935 0.557474
Si Si7 0.933807 0.702754 0.112995
Si Si8 0.562141 0.123744 0.199724
O O1 0.250000 0.374934 0.951632
O O2 0.501473 0.373076 0.826298
O O3 0.509153 0.415003 0.018378
O O4 0.495003 0.329412 0.015234
O O5 0.750000 0.091020 0.828610
O O6 0.516985 0.050876 0.721334
O O7 0.459328 0.120803 0.829653
O O8 0.526754 0.050256 0.940031
O O9 0.750000 0.046072 0.575414
O O10 0.500000 0.000000 0.545896
O O11 0.250000 0.780189 0.078631
O O12 0.544599 0.752095 0.075628
O O13 0.486187 0.831697 0.139020
O O14 0.451255 0.808409 0.930110
O O15 0.750000 0.319781 0.375044
O O16 0.962517 0.305028 0.222208
O O17 0.500000 0.500000 0.610590
O O18 0.750000 0.457056 0.535670
O O19 0.525860 0.416070 0.641383
O O20 0.750000 0.693283 0.139785
O O21 0.750000 0.115741 0.191872
#
# Coordination Sequence:
#
# PCOD8184169 Si02
#       8
#     8   8   8   8   8   8   8   8
#     4   9  20  41  64  88 121 166 207 253 313 371
#     4  11  21  39  64  92 127 163 205 261 320 373
#     4  10  21  38  61  89 123 159 202 251 310 372
#     4  11  24  41  64  96 130 165 210 264 319 376
#     4  12  24  40  65  95 129 168 212 260 315 376
#     4  12  25  41  63  92 126 164 210 259 314 377
#     4  11  23  42  67  94 129 168 210 261 317 378
#     4  10  22  42  66  88 123 166 209 259 315 375
#
# _framework density 20.624428000000002
#
# number of rings (size 3 to 8) (size 9 to 14) (size 15 to 20)
#    0.000    1.250    2.500    3.750    1.750    3.000 
#    0.000    3.125    0.000    0.000    0.000    0.000 
#    0.000    0.000    0.000    0.000    0.000    0.000 
#
# Total GULP energy -396966.404290 kJ/mol
# GULP energy per Si atom -12405.200134 kJ/mol
# Density = 2.057749 g / cm^3
# Si number density = 20.624428 Si / 1000 Ang^3
#
#
#
# Elastic Constant Matrix: (Units=GPa)
#
#
# Indices 1 2 3 4 5 6 
#
# 1 50.6976 24.4076 22.5934 0.0000 0.0000 0.0000
# 2 24.4076 156.1219 61.6770 0.0000 0.0000 0.0000
# 3 22.5934 61.6770 149.8319 0.0000 0.0000 0.0000
# 4 0.0000 0.0000 0.0000 63.3488 0.0000 0.0000
# 5 0.0000 0.0000 0.0000 0.0000 18.1456 0.0000
# 6 0.0000 0.0000 0.0000 0.0000 0.0000 32.9971
#
#
#
# Elastic Compliance Matrix: (Units=1/GPa)
#
#
# Indices 1 2 3 4 5 6 
#
# 1 0.021956 -0.002537 -0.002266 0.000000 0.000000 0.000000
# 2 -0.002537 0.007942 -0.002887 0.000000 0.000000 0.000000
# 3 -0.002266 -0.002887 0.008204 0.000000 0.000000 0.000000
# 4 0.000000 0.000000 0.000000 0.015786 0.000000 0.000000
# 5 0.000000 0.000000 0.000000 0.000000 0.055110 0.000000
# 6 0.000000 0.000000 0.000000 0.000000 0.000000 0.030306
#
#
# Mechanical properties :
#
#
# Convention : Reuss Voigt Hill
#
# Bulk Modulus (GPa) = 44.01014 63.77859 53.89437
# Shear Modulus (GPa) = 30.81495 39.42986 35.12241
#
# Velocity S-wave (km/s) = 3.86955 4.37716 4.13116
# Velocity P-wave (km/s) = 6.43038 7.51911 6.99595
#
# Compressibility (1/GPa) = 0.02272204
#
# Stress axis : x y z
#
# Youngs Moduli (GPa) = 45.54498 125.90704 121.88829
#
# Poissons Ratio (x) = 0.31945 0.27625
# Poissons Ratio (y) = 0.11556 0.35187
# Poissons Ratio (z) = 0.10322 0.36347
#
# Static dielectric constant tensor:
#      x y z
#    x 3.549920 0.000000 0.000000 
#    y 0.000000 3.943930 0.000000 
#    z 0.000000 0.000000 4.032470 
# 
# 
# High freq. dielectric constant tensor:
#      x y z
#    x 1.793520 0.000000 0.000000 
#    y 0.000000 1.819050 0.000000 
#    z 0.000000 0.000000 1.810440 
# 
# From -- ./inp_files/10699.got.cif
#   From: 2010.03.12/outbox.cif.g09.slc.cpg/sg40_6_cif.got.tgz:10699.got - 2010.04.14 01:38:03.
