data_PCOD8184699
_publ_section_title
;
Structure prediction by ZEFSAII (Michael W. Deem and Ramdas Pophale) SiO2 
 PCOD8184699
Probable space group: A M A 2
;
_chemical_formula_sum "Si O2"
_cell_formula_units_Z 48
_cell_length_a 16.924233
_cell_length_b 9.826920
_cell_length_c 14.386453
_cell_angle_alpha 90.000000
_cell_angle_beta 90.000000
_cell_angle_gamma 90.000000
_cell_volume 2392.655363
_symmetry_space_group_name_H-M "A M A 2"
_symmetry_group_IT_number 40
_symmetry_cell_setting 'orthorhombic'
loop_
_space_group_symop_operation_xyz
x,y,z
-x,-y,z
1/2-x,y,z
1/2+x,-y,z
x,1/2+y,1/2+z
-x,1/2-y,1/2+z
1/2-x,1/2+y,1/2+z
1/2+x,1/2-y,1/2+z
loop_
_atom_site_type_symbol
_atom_site_label
_atom_site_fract_x
_atom_site_fract_y
_atom_site_fract_z
Si Si1 0.592893 0.779814 0.551670
Si Si2 0.659924 0.486970 0.542273
Si Si3 0.930298 0.769742 0.156212
Si Si4 0.159174 0.498102 0.175236
Si Si5 0.922415 0.412958 0.361884
Si Si6 0.480168 0.658255 0.858606
O O1 0.643199 0.643901 0.561076
O O2 0.513039 0.772211 0.611220
O O3 0.647605 0.899935 0.589776
O O4 0.577144 0.811146 0.444181
O O5 0.750000 0.454022 0.567851
O O6 0.601068 0.404837 0.607958
O O7 0.645477 0.447376 0.435318
O O8 0.868397 0.649049 0.140348
O O9 0.935764 0.797849 0.265426
O O10 0.250000 0.492309 0.205441
O O11 0.106006 0.548400 0.260181
O O12 0.000000 0.500000 0.388213
O O13 0.941240 0.251519 0.367813
O O14 0.500000 0.500000 0.855839
#
# Coordination Sequence:
#
# PCOD8184699 Si02
#       6
#     8   8   8   8   8   8
#     4  12  23  43  69  95 133 176 227 274 324 410
#     4  12  25  42  65  99 135 174 218 282 341 387
#     4  12  23  43  69  95 133 176 227 274 324 410
#     4  12  25  42  65  99 135 174 218 282 341 387
#     4  12  21  44  69  96 125 173 229 267 326 409
#     4  12  24  40  68 102 124 167 233 274 323 387
#
# _framework density 20.061394
#
# number of rings (size 3 to 8) (size 9 to 14) (size 15 to 20)
#    0.000    0.000    6.667    4.500    0.000    0.000 
#    0.000    2.500    0.000    0.000    0.000    0.000 
#    0.000    0.000    0.000    0.000    0.000    0.000 
#
# Total GULP energy -297773.877234 kJ/mol
# GULP energy per Si atom -12407.244885 kJ/mol
# Density = 2.001573 g / cm^3
# Si number density = 20.061394 Si / 1000 Ang^3
#
#
#
# Elastic Constant Matrix: (Units=GPa)
#
#
# Indices 1 2 3 4 5 6 
#
# 1 83.7924 21.0854 8.1427 0.0000 0.0000 0.0000
# 2 21.0854 142.1083 18.9719 0.0000 0.0000 0.0000
# 3 8.1427 18.9719 110.7552 0.0000 0.0000 0.0000
# 4 0.0000 0.0000 0.0000 26.4635 0.0000 0.0000
# 5 0.0000 0.0000 0.0000 0.0000 27.8165 0.0000
# 6 0.0000 0.0000 0.0000 0.0000 0.0000 27.7016
#
#
#
# Elastic Compliance Matrix: (Units=1/GPa)
#
#
# Indices 1 2 3 4 5 6 
#
# 1 0.012438 -0.001764 -0.000612 0.000000 0.000000 0.000000
# 2 -0.001764 0.007452 -0.001147 0.000000 0.000000 0.000000
# 3 -0.000612 -0.001147 0.009270 0.000000 0.000000 0.000000
# 4 0.000000 0.000000 0.000000 0.037788 0.000000 0.000000
# 5 0.000000 0.000000 0.000000 0.000000 0.035950 0.000000
# 6 0.000000 0.000000 0.000000 0.000000 0.000000 0.036099
#
#
# Mechanical properties :
#
#
# Convention : Reuss Voigt Hill
#
# Bulk Modulus (GPa) = 45.22002 48.11732 46.66867
# Shear Modulus (GPa) = 32.59170 35.62671 34.10920
#
# Velocity S-wave (km/s) = 4.03500 4.21870 4.12787
# Velocity P-wave (km/s) = 6.65568 6.91136 6.78473
#
# Compressibility (1/GPa) = 0.02211410
#
# Stress axis : x y z
#
# Youngs Moduli (GPa) = 80.40160 134.19806 107.87051
#
# Poissons Ratio (x) = 0.23668 0.06605
# Poissons Ratio (y) = 0.14180 0.12370
# Poissons Ratio (z) = 0.04923 0.15389
#
# Static dielectric constant tensor:
#      x y z
#    x 3.685140 0.000000 0.000000 
#    y 0.000000 3.946580 0.000000 
#    z 0.000000 0.000000 3.809800 
# 
# 
# High freq. dielectric constant tensor:
#      x y z
#    x 1.768680 0.000000 0.000000 
#    y 0.000000 1.803640 0.000000 
#    z 0.000000 0.000000 1.798000 
# 
# From -- ./inp_files/17646.got.cif
#   From: 2010.03.12/outbox.cif.g09.slc.cpg/sg40_9_cif.got.tgz:17646.got - 2010.04.14 01:38:03.
