data_PCOD8184978
_publ_section_title
;
Structure prediction by ZEFSAII (Michael W. Deem and Ramdas Pophale) SiO2 
 PCOD8184978
Probable space group: A B A 2
;
_chemical_formula_sum "Si O2"
_cell_formula_units_Z 56
_cell_length_a 16.912725
_cell_length_b 13.877114
_cell_length_c 12.403378
_cell_angle_alpha 90.000000
_cell_angle_beta 90.000000
_cell_angle_gamma 90.000000
_cell_volume 2911.070496
_symmetry_space_group_name_H-M "A B A 2"
_symmetry_group_IT_number 41
_symmetry_cell_setting 'orthorhombic'
loop_
_space_group_symop_operation_xyz
x,y,z
-x,-y,z
1/2-x,y,1/2+z
1/2+x,-y,1/2+z
x,1/2+y,1/2+z
-x,1/2-y,1/2+z
1/2-x,1/2+y,z
1/2+x,1/2-y,z
loop_
_atom_site_type_symbol
_atom_site_label
_atom_site_fract_x
_atom_site_fract_y
_atom_site_fract_z
Si Si1 0.987814 0.387513 0.085590
Si Si2 0.606038 0.259736 0.183604
Si Si3 0.055557 0.090468 0.344631
Si Si4 0.214778 0.182814 0.994750
Si Si5 0.761395 0.457656 0.826526
Si Si6 0.328907 0.175598 0.168574
Si Si7 0.754087 0.681841 0.807809
O O1 0.063805 0.331081 0.128657
O O2 0.000000 0.500000 0.099522
O O3 0.918696 0.357935 0.168062
O O4 0.970441 0.363971 0.959871
O O5 0.546407 0.330184 0.248945
O O6 0.646025 0.316311 0.083774
O O7 0.670120 0.225653 0.271470
O O8 0.146129 0.056129 0.348726
O O9 0.000000 0.000000 0.315474
O O10 0.301780 0.183693 0.045859
O O11 0.215483 0.279029 0.922288
O O12 0.208297 0.085234 0.924254
O O13 0.731730 0.401108 0.721683
O O14 0.744178 0.568805 0.810974
O O15 0.320598 0.281161 0.223412
#
# Coordination Sequence:
#
# PCOD8184978 Si02
#       7
#     8   8   8   8   8   8   8
#     4  11  24  39  65  93 127 168 209 260 328 386
#     4  11  23  44  61  94 131 163 209 265 322 378
#     4  11  24  41  60  92 128 165 210 267 315 382
#     4  10  20  39  61  87 124 159 210 256 307 369
#     4  11  21  39  63  91 123 159 219 256 309 377
#     4  10  20  40  59  90 120 164 209 257 308 376
#     4  10  22  36  64  92 119 166 207 264 304 374
#
# _framework density 19.236910999999999
#
# number of rings (size 3 to 8) (size 9 to 14) (size 15 to 20)
#    0.000    1.429    5.714    0.857    6.000    3.429 
#    0.000    1.429    0.000    3.429    0.000    0.000 
#    0.000    0.000    0.000    0.000    0.000    0.000 
#
# Total GULP energy -347032.812216 kJ/mol
# GULP energy per Si atom -12394.029008 kJ/mol
# Density = 1.919313 g / cm^3
# Si number density = 19.236911 Si / 1000 Ang^3
#
#
#
# Elastic Constant Matrix: (Units=GPa)
#
#
# Indices 1 2 3 4 5 6 
#
# 1 78.3982 25.0144 29.7000 0.0000 0.0000 0.0000
# 2 25.0144 138.1972 50.2868 0.0000 0.0000 0.0000
# 3 29.7000 50.2868 102.3682 0.0000 0.0000 0.0000
# 4 0.0000 0.0000 0.0000 22.6784 0.0000 0.0000
# 5 0.0000 0.0000 0.0000 0.0000 14.3759 0.0000
# 6 0.0000 0.0000 0.0000 0.0000 0.0000 4.6491
#
#
#
# Elastic Compliance Matrix: (Units=1/GPa)
#
#
# Indices 1 2 3 4 5 6 
#
# 1 0.014530 -0.001335 -0.003560 0.000000 0.000000 0.000000
# 2 -0.001335 0.008934 -0.004001 0.000000 0.000000 0.000000
# 3 -0.003560 -0.004001 0.012767 0.000000 0.000000 0.000000
# 4 0.000000 0.000000 0.000000 0.044095 0.000000 0.000000
# 5 0.000000 0.000000 0.000000 0.000000 0.069561 0.000000
# 6 0.000000 0.000000 0.000000 0.000000 0.000000 0.215094
#
#
# Mechanical properties :
#
#
# Convention : Reuss Voigt Hill
#
# Bulk Modulus (GPa) = 54.23323 58.77400 56.50362
# Shear Modulus (GPa) = 12.85617 22.60486 17.73051
#
# Velocity S-wave (km/s) = 2.58797 3.43166 3.03923
# Velocity P-wave (km/s) = 6.09783 6.80594 6.46159
#
# Compressibility (1/GPa) = 0.01843888
#
# Stress axis : x y z
#
# Youngs Moduli (GPa) = 68.82385 111.93728 78.32658
#
# Poissons Ratio (x) = 0.14939 0.27884
# Poissons Ratio (y) = 0.09185 0.31341
# Poissons Ratio (z) = 0.24501 0.44789
#
# Static dielectric constant tensor:
#      x y z
#    x 3.480740 0.000000 0.000000 
#    y 0.000000 3.527330 0.000000 
#    z 0.000000 0.000000 3.657970 
# 
# 
# High freq. dielectric constant tensor:
#      x y z
#    x 1.741700 0.000000 0.000000 
#    y 0.000000 1.744530 0.000000 
#    z 0.000000 0.000000 1.760080 
# 
# From -- ./inp_files/5607.got.cif
#   From: 2010.03.12/outbox.cif.g09.slc.cpg/sg41_3_cif.got.tgz:5607.got - 2010.04.14 01:55:53.
