data_PCOD8184689
_publ_section_title
;
Structure prediction by ZEFSAII (Michael W. Deem and Ramdas Pophale) SiO2 
 PCOD8184689
Probable space group: A M A 2
;
_chemical_formula_sum "Si O2"
_cell_formula_units_Z 40
_cell_length_a 19.839028
_cell_length_b 12.074570
_cell_length_c 7.284226
_cell_angle_alpha 90.000000
_cell_angle_beta 90.000000
_cell_angle_gamma 90.000000
_cell_volume 1744.919820
_symmetry_space_group_name_H-M "A M A 2"
_symmetry_group_IT_number 40
_symmetry_cell_setting 'orthorhombic'
loop_
_space_group_symop_operation_xyz
x,y,z
-x,-y,z
1/2-x,y,z
1/2+x,-y,z
x,1/2+y,1/2+z
-x,1/2-y,1/2+z
1/2-x,1/2+y,1/2+z
1/2+x,1/2-y,1/2+z
loop_
_atom_site_type_symbol
_atom_site_label
_atom_site_fract_x
_atom_site_fract_y
_atom_site_fract_z
Si Si1 0.425806 0.538447 0.952560
Si Si2 0.327347 0.857674 0.290034
Si Si3 0.576853 0.503361 0.367008
Si Si4 0.131231 0.263921 0.402718
Si Si5 0.324627 0.661239 0.549212
O O1 0.500000 0.500000 0.902335
O O2 0.372782 0.465770 0.832977
O O3 0.424564 0.668182 0.910401
O O4 0.410118 0.545741 0.167842
O O5 0.250000 0.894295 0.322302
O O6 0.351111 0.761831 0.426129
O O7 0.332845 0.803429 0.088879
O O8 0.500000 0.500000 0.437674
O O9 0.593058 0.630326 0.328503
O O10 0.624185 0.442212 0.518459
O O11 0.182651 0.210985 0.254424
O O12 0.250000 0.620190 0.489378
#
# Coordination Sequence:
#
# PCOD8184689 Si02
#       5
#     8   8   8   8   8
#     4  11  26  45  72 105 141 187 239 291 349 422
#     4  11  25  46  72 105 143 184 234 292 352 417
#     4  11  26  45  72 105 141 187 239 291 349 422
#     4  12  25  44  74 102 137 190 234 290 353 418
#     4  11  25  46  72 105 143 184 234 292 352 417
#
# _framework density 22.923691000000002
#
# number of rings (size 3 to 8) (size 9 to 14) (size 15 to 20)
#    0.000    0.800    4.000    1.800    2.800    8.800 
#    0.000    0.000    0.000    0.000    0.000    0.000 
#    0.000    0.000    0.000    0.000    0.000    0.000 
#
# Total GULP energy -247814.767125 kJ/mol
# GULP energy per Si atom -12390.738356 kJ/mol
# Density = 2.287152 g / cm^3
# Si number density = 22.923691 Si / 1000 Ang^3
#
#
#
# Elastic Constant Matrix: (Units=GPa)
#
#
# Indices 1 2 3 4 5 6 
#
# 1 137.2143 48.7921 18.9340 0.0000 0.0000 0.0000
# 2 48.7921 126.6864 7.5592 0.0000 0.0000 0.0000
# 3 18.9340 7.5592 106.1642 0.0000 0.0000 0.0000
# 4 0.0000 0.0000 0.0000 33.0553 0.0000 0.0000
# 5 0.0000 0.0000 0.0000 0.0000 38.4948 0.0000
# 6 0.0000 0.0000 0.0000 0.0000 0.0000 19.6921
#
#
#
# Elastic Compliance Matrix: (Units=1/GPa)
#
#
# Indices 1 2 3 4 5 6 
#
# 1 0.008621 -0.003242 -0.001307 0.000000 0.000000 0.000000
# 2 -0.003242 0.009147 -0.000073 0.000000 0.000000 0.000000
# 3 -0.001307 -0.000073 0.009658 0.000000 0.000000 0.000000
# 4 0.000000 0.000000 0.000000 0.030252 0.000000 0.000000
# 5 0.000000 0.000000 0.000000 0.000000 0.025978 0.000000
# 6 0.000000 0.000000 0.000000 0.000000 0.000000 0.050782
#
#
# Mechanical properties :
#
#
# Convention : Reuss Voigt Hill
#
# Bulk Modulus (GPa) = 55.00172 57.84840 56.42506
# Shear Modulus (GPa) = 33.39087 37.90043 35.64565
#
# Velocity S-wave (km/s) = 3.82070 4.07053 3.94759
# Velocity P-wave (km/s) = 6.59614 6.88348 6.74134
#
# Compressibility (1/GPa) = 0.01818125
#
# Stress axis : x y z
#
# Youngs Moduli (GPa) = 115.99400 109.32984 103.54533
#
# Poissons Ratio (x) = 0.35449 0.13530
# Poissons Ratio (y) = 0.37610 0.00756
# Poissons Ratio (z) = 0.15157 0.00798
#
# Static dielectric constant tensor:
#      x y z
#    x 3.841610 0.000000 0.000000 
#    y 0.000000 4.289560 0.000000 
#    z 0.000000 0.000000 4.309940 
# 
# 
# High freq. dielectric constant tensor:
#      x y z
#    x 1.892010 0.000000 0.000000 
#    y 0.000000 1.923290 0.000000 
#    z 0.000000 0.000000 1.925080 
# 
# From -- ./inp_files/8096.got.cif
#   From: 2010.03.12/outbox.cif.g09.slc.cpg/sg40_5_cif.got.tgz:8096.got - 2010.04.14 01:38:03.
