data_PCOD8184981
_publ_section_title
;
Structure prediction by ZEFSAII (Michael W. Deem and Ramdas Pophale) SiO2 
 PCOD8184981
Probable space group: A B A 2
;
_chemical_formula_sum "Si O2"
_cell_formula_units_Z 52
_cell_length_a 5.392547
_cell_length_b 22.532805
_cell_length_c 18.961576
_cell_angle_alpha 90.000000
_cell_angle_beta 90.000000
_cell_angle_gamma 90.000000
_cell_volume 2304.006120
_symmetry_space_group_name_H-M "A B A 2"
_symmetry_group_IT_number 41
_symmetry_cell_setting 'orthorhombic'
loop_
_space_group_symop_operation_xyz
x,y,z
-x,-y,z
1/2-x,y,1/2+z
1/2+x,-y,1/2+z
x,1/2+y,1/2+z
-x,1/2-y,1/2+z
1/2-x,1/2+y,z
1/2+x,1/2-y,z
loop_
_atom_site_type_symbol
_atom_site_label
_atom_site_fract_x
_atom_site_fract_y
_atom_site_fract_z
Si Si1 0.003353 0.069240 0.224020
Si Si2 0.000000 0.000000 0.939904
Si Si3 0.496647 0.930760 0.155786
Si Si4 0.667033 0.596534 0.373135
Si Si5 0.667038 0.903465 0.006672
Si Si6 0.782384 0.273934 0.518814
Si Si7 0.717607 0.726064 0.861000
O O1 0.752627 0.097609 0.189845
O O2 0.008932 0.081580 0.307395
O O3 0.252627 0.097609 0.189961
O O4 0.000000 0.000000 0.207041
O O5 0.839665 0.959944 0.992506
O O6 0.160350 0.959947 0.887303
O O7 0.500000 0.000000 0.172765
O O8 0.491068 0.918420 0.072411
O O9 0.499995 0.610685 0.439903
O O10 0.828730 0.655345 0.358721
O O11 0.828728 0.844654 0.021088
O O12 0.520929 0.256536 0.556930
O O13 0.749989 0.249997 0.439908
O O14 0.479061 0.756534 0.822885
#
# Coordination Sequence:
#
# PCOD8184981 Si02
#       7
#     8   4   8   8   8   8   8
#     4  10  24  43  63  89 134 183 216 256 331 411
#     4  12  26  36  60 110 132 164 212 298 338 368
#     4  10  24  43  63  89 134 183 216 256 331 411
#     4  12  25  40  68  99 136 165 228 284 329 396
#     4  12  25  40  68  99 136 165 228 284 329 396
#     4  10  20  39  62  94 121 170 213 268 325 393
#     4  10  20  39  62  94 121 170 213 268 325 393
#
# _framework density 22.569382999999998
#
# number of rings (size 3 to 8) (size 9 to 14) (size 15 to 20)
#    0.000    1.231    3.077    4.154   10.769    0.000 
#    0.000    0.000    0.000    5.538    0.000    0.000 
#    0.000    0.000    0.000    0.000    0.000    0.000 
#
# Total GULP energy -322357.138026 kJ/mol
# GULP energy per Si atom -12398.351463 kJ/mol
# Density = 2.251801 g / cm^3
# Si number density = 22.569383 Si / 1000 Ang^3
#
#
#
# Elastic Constant Matrix: (Units=GPa)
#
#
# Indices 1 2 3 4 5 6 
#
# 1 186.6352 47.3528 47.9307 0.0000 0.0000 0.0000
# 2 47.3528 130.7553 2.0104 0.0000 0.0000 0.0000
# 3 47.9307 2.0104 102.9079 0.0000 0.0000 0.0000
# 4 0.0000 0.0000 0.0000 1.6494 0.0000 0.0000
# 5 0.0000 0.0000 0.0000 0.0000 30.2710 0.0000
# 6 0.0000 0.0000 0.0000 0.0000 0.0000 42.3816
#
#
#
# Elastic Compliance Matrix: (Units=1/GPa)
#
#
# Indices 1 2 3 4 5 6 
#
# 1 0.006765 -0.002402 -0.003104 0.000000 0.000000 0.000000
# 2 -0.002402 0.008503 0.000953 0.000000 0.000000 0.000000
# 3 -0.003104 0.000953 0.011144 0.000000 0.000000 0.000000
# 4 0.000000 0.000000 0.000000 0.606280 0.000000 0.000000
# 5 0.000000 0.000000 0.000000 0.000000 0.033035 0.000000
# 6 0.000000 0.000000 0.000000 0.000000 0.000000 0.023595
#
#
# Mechanical properties :
#
#
# Convention : Reuss Voigt Hill
#
# Bulk Modulus (GPa) = 57.78396 68.32069 63.05232
# Shear Modulus (GPa) = 7.10028 36.39403 21.74716
#
# Velocity S-wave (km/s) = 1.77562 4.02000 3.10751
# Velocity P-wave (km/s) = 5.46463 7.20308 6.39322
#
# Compressibility (1/GPa) = 0.01730584
#
# Stress axis : x y z
#
# Youngs Moduli (GPa) = 147.82872 117.60377 89.73090
#
# Poissons Ratio (x) = 0.28249 0.27850
# Poissons Ratio (y) = 0.35509 -0.08548
# Poissons Ratio (z) = 0.45883 -0.11204
#
# Static dielectric constant tensor:
#      x y z
#    x 3.761110 0.000000 0.000000 
#    y 0.000000 4.029760 0.000000 
#    z 0.000000 0.000000 3.604700 
# 
# 
# High freq. dielectric constant tensor:
#      x y z
#    x 1.909220 0.000000 0.000000 
#    y 0.000000 1.879780 0.000000 
#    z 0.000000 0.000000 1.844930 
# 
# From -- ./inp_files/10971.got.cif
#   From: 2010.03.12/outbox.cif.g09.slc.cpg/sg41_6_cif.got.tgz:10971.got - 2010.04.14 01:55:53.
