data_PCOD8184552
_publ_section_title
;
Structure prediction by ZEFSAII (Michael W. Deem and Ramdas Pophale) SiO2 
 PCOD8184552
Probable space group: A M A 2
;
_chemical_formula_sum "Si O2"
_cell_formula_units_Z 40
_cell_length_a 8.826888
_cell_length_b 19.126322
_cell_length_c 10.614462
_cell_angle_alpha 90.000000
_cell_angle_beta 90.000000
_cell_angle_gamma 90.000000
_cell_volume 1791.996123
_symmetry_space_group_name_H-M "A M A 2"
_symmetry_group_IT_number 40
_symmetry_cell_setting 'orthorhombic'
loop_
_space_group_symop_operation_xyz
x,y,z
-x,-y,z
1/2-x,y,z
1/2+x,-y,z
x,1/2+y,1/2+z
-x,1/2-y,1/2+z
1/2-x,1/2+y,1/2+z
1/2+x,1/2-y,1/2+z
loop_
_atom_site_type_symbol
_atom_site_label
_atom_site_fract_x
_atom_site_fract_y
_atom_site_fract_z
Si Si1 0.422594 0.071139 0.272690
Si Si2 0.073105 0.201543 0.901676
Si Si3 0.428277 0.924509 0.794854
Si Si4 0.423566 0.218742 0.177877
Si Si5 0.070365 0.075333 0.550434
O O1 0.250000 0.049241 0.290042
O O2 0.445863 0.134327 0.176528
O O3 0.480588 0.098371 0.410680
O O4 0.500000 0.000000 0.224732
O O5 0.250000 0.183192 0.896925
O O6 0.977786 0.129439 0.903382
O O7 0.032218 0.249853 0.783233
O O8 0.035325 0.241479 0.034366
O O9 0.250000 0.933097 0.788067
O O10 0.490831 0.884123 0.666990
O O11 0.500000 0.000000 0.823362
O O12 0.250000 0.238030 0.212897
O O13 0.250000 0.076990 0.569919
O O14 0.000000 0.000000 0.576163
#
# Coordination Sequence:
#
# PCOD8184552 Si02
#       5
#     8   8   8   8   8
#     4   9  19  36  60  90 126 162 204 258 313 372
#     4  11  25  44  66  93 127 169 216 265 321 385
#     4  11  22  38  62  92 128 166 211 264 317 378
#     4  10  24  45  65  93 129 168 214 264 320 384
#     4   9  16  29  52  86 122 161 201 247 306 367
#
# _framework density 22.321476000000001
#
# number of rings (size 3 to 8) (size 9 to 14) (size 15 to 20)
#    0.000    2.000    0.000    4.200    2.800    4.000 
#    0.000    2.000    0.000    0.000    0.000    0.000 
#    0.000    0.000    0.000    0.000    0.000    0.000 
#
# Total GULP energy -247836.359601 kJ/mol
# GULP energy per Si atom -12391.817980 kJ/mol
# Density = 2.227067 g / cm^3
# Si number density = 22.321476 Si / 1000 Ang^3
#
#
#
# Elastic Constant Matrix: (Units=GPa)
#
#
# Indices 1 2 3 4 5 6 
#
# 1 110.5057 23.2432 39.5889 0.0000 0.0000 0.0000
# 2 23.2432 52.2401 29.6972 0.0000 0.0000 0.0000
# 3 39.5889 29.6972 111.2502 0.0000 0.0000 0.0000
# 4 0.0000 0.0000 0.0000 33.0812 0.0000 0.0000
# 5 0.0000 0.0000 0.0000 0.0000 48.1090 0.0000
# 6 0.0000 0.0000 0.0000 0.0000 0.0000 32.8795
#
#
#
# Elastic Compliance Matrix: (Units=1/GPa)
#
#
# Indices 1 2 3 4 5 6 
#
# 1 0.010777 -0.003083 -0.003012 0.000000 0.000000 0.000000
# 2 -0.003083 0.023449 -0.005162 0.000000 0.000000 0.000000
# 3 -0.003012 -0.005162 0.011439 0.000000 0.000000 0.000000
# 4 0.000000 0.000000 0.000000 0.030229 0.000000 0.000000
# 5 0.000000 0.000000 0.000000 0.000000 0.020786 0.000000
# 6 0.000000 0.000000 0.000000 0.000000 0.000000 0.030414
#
#
# Mechanical properties :
#
#
# Convention : Reuss Voigt Hill
#
# Bulk Modulus (GPa) = 43.19686 51.00607 47.10146
# Shear Modulus (GPa) = 31.78157 34.91171 33.34664
#
# Velocity S-wave (km/s) = 3.77744 3.95909 3.86933
# Velocity P-wave (km/s) = 6.19835 6.61811 6.41167
#
# Compressibility (1/GPa) = 0.02314983
#
# Stress axis : x y z
#
# Youngs Moduli (GPa) = 92.79211 42.64639 87.42274
#
# Poissons Ratio (x) = 0.13146 0.26333
# Poissons Ratio (y) = 0.28604 0.45131
# Poissons Ratio (z) = 0.27950 0.22016
#
# Static dielectric constant tensor:
#      x y z
#    x 3.838730 0.000000 0.000000 
#    y 0.000000 3.799860 0.000000 
#    z 0.000000 0.000000 4.500770 
# 
# 
# High freq. dielectric constant tensor:
#      x y z
#    x 1.870910 0.000000 0.000000 
#    y 0.000000 1.870710 0.000000 
#    z 0.000000 0.000000 1.886600 
# 
# From -- ./inp_files/10023.got.cif
#   From: 2010.03.12/outbox.cif.g09.slc.cpg/sg40_6_cif.got.tgz:10023.got - 2010.04.14 01:38:03.
