data_PCOD8184178
_publ_section_title
;
Structure prediction by ZEFSAII (Michael W. Deem and Ramdas Pophale) SiO2 
 PCOD8184178
Probable space group: A M A 2
;
_chemical_formula_sum "Si O2"
_cell_formula_units_Z 64
_cell_length_a 18.151809
_cell_length_b 15.303135
_cell_length_c 11.781140
_cell_angle_alpha 90.000000
_cell_angle_beta 90.000000
_cell_angle_gamma 90.000000
_cell_volume 3272.560164
_symmetry_space_group_name_H-M "A M A 2"
_symmetry_group_IT_number 40
_symmetry_cell_setting 'orthorhombic'
loop_
_space_group_symop_operation_xyz
x,y,z
-x,-y,z
1/2-x,y,z
1/2+x,-y,z
x,1/2+y,1/2+z
-x,1/2-y,1/2+z
1/2-x,1/2+y,1/2+z
1/2+x,1/2-y,1/2+z
loop_
_atom_site_type_symbol
_atom_site_label
_atom_site_fract_x
_atom_site_fract_y
_atom_site_fract_z
Si Si1 0.443941 0.622360 0.418360
Si Si2 0.607162 0.564987 0.451683
Si Si3 0.577154 0.040171 0.383466
Si Si4 0.333829 0.048555 0.569983
Si Si5 0.084294 0.698657 0.179081
Si Si6 0.937014 0.205494 0.545159
Si Si7 0.334265 0.381919 0.216965
Si Si8 0.663966 0.121966 0.189547
O O1 0.524018 0.597568 0.464874
O O2 0.389837 0.539605 0.432894
O O3 0.449702 0.648187 0.286501
O O4 0.411959 0.703001 0.490236
O O5 0.645035 0.616415 0.348609
O O6 0.653855 0.589020 0.561952
O O7 0.567503 0.130554 0.450665
O O8 0.628750 0.051298 0.274223
O O9 0.500000 0.000000 0.342073
O O10 0.614466 0.968061 0.462868
O O11 0.250000 0.045712 0.528634
O O12 0.351461 0.142561 0.621278
O O13 0.349973 0.977307 0.666485
O O14 0.121315 0.788651 0.215144
O O15 0.020127 0.713645 0.088483
O O16 0.882728 0.188948 0.650323
O O17 0.250000 0.353529 0.201897
O O18 0.750000 0.133530 0.216912
#
# Coordination Sequence:
#
# PCOD8184178 Si02
#       8
#     8   8   8   8   8   8   8   8
#     4  11  23  40  65  97 124 166 214 268 311 373
#     4  11  23  41  67  90 128 167 214 262 319 379
#     4  11  23  39  66  92 125 168 209 264 319 375
#     4  10  21  38  62  93 123 160 211 262 317 377
#     4  12  21  40  67  93 127 164 213 265 316 378
#     4  11  22  40  64  97 127 160 216 268 315 376
#     4  10  21  38  63  93 128 164 206 266 324 370
#     4  12  27  43  61  93 135 172 205 259 328 388
#
# _framework density 19.556553999999998
#
# number of rings (size 3 to 8) (size 9 to 14) (size 15 to 20)
#    0.000    1.000    6.250    1.125    1.750    0.500 
#    0.000    2.500    0.000    0.000    0.000    0.000 
#    0.000    0.000    0.000    0.000    0.000    0.000 
#
# Total GULP energy -396970.889712 kJ/mol
# GULP energy per Si atom -12405.340303 kJ/mol
# Density = 1.951204 g / cm^3
# Si number density = 19.556554 Si / 1000 Ang^3
#
#
#
# Elastic Constant Matrix: (Units=GPa)
#
#
# Indices 1 2 3 4 5 6 
#
# 1 92.2701 11.5160 32.0514 0.0000 0.0000 0.0000
# 2 11.5160 82.1898 27.4368 0.0000 0.0000 0.0000
# 3 32.0514 27.4368 106.1638 0.0000 0.0000 0.0000
# 4 0.0000 0.0000 0.0000 30.2004 0.0000 0.0000
# 5 0.0000 0.0000 0.0000 0.0000 28.8741 0.0000
# 6 0.0000 0.0000 0.0000 0.0000 0.0000 24.5467
#
#
#
# Elastic Compliance Matrix: (Units=1/GPa)
#
#
# Indices 1 2 3 4 5 6 
#
# 1 0.012128 -0.000522 -0.003527 0.000000 0.000000 0.000000
# 2 -0.000522 0.013338 -0.003289 0.000000 0.000000 0.000000
# 3 -0.003527 -0.003289 0.011334 0.000000 0.000000 0.000000
# 4 0.000000 0.000000 0.000000 0.033112 0.000000 0.000000
# 5 0.000000 0.000000 0.000000 0.000000 0.034633 0.000000
# 6 0.000000 0.000000 0.000000 0.000000 0.000000 0.040739
#
#
# Mechanical properties :
#
#
# Convention : Reuss Voigt Hill
#
# Bulk Modulus (GPa) = 45.19950 46.95910 46.07930
# Shear Modulus (GPa) = 29.88014 30.69887 30.28950
#
# Velocity S-wave (km/s) = 3.91306 3.96630 3.93977
# Velocity P-wave (km/s) = 6.60139 6.71115 6.65650
#
# Compressibility (1/GPa) = 0.02212414
#
# Stress axis : x y z
#
# Youngs Moduli (GPa) = 82.45453 74.97258 88.22835
#
# Poissons Ratio (x) = 0.03914 0.31114
# Poissons Ratio (y) = 0.04305 0.29023
# Poissons Ratio (z) = 0.29078 0.24662
#
# Static dielectric constant tensor:
#      x y z
#    x 3.471090 0.000000 0.000000 
#    y 0.000000 3.555170 0.000000 
#    z 0.000000 0.000000 3.531370 
# 
# 
# High freq. dielectric constant tensor:
#      x y z
#    x 1.761090 0.000000 0.000000 
#    y 0.000000 1.758770 0.000000 
#    z 0.000000 0.000000 1.767830 
# 
# From -- ./inp_files/13098.got.cif
#   From: 2010.03.12/outbox.cif.g09.slc.cpg/sg40_7_cif.got.tgz:13098.got - 2010.04.14 01:38:03.
