data_PCOD8184351
_publ_section_title
;
Structure prediction by ZEFSAII (Michael W. Deem and Ramdas Pophale) SiO2 
 PCOD8184351
Probable space group: A M A 2
;
_chemical_formula_sum "Si O2"
_cell_formula_units_Z 48
_cell_length_a 18.681004
_cell_length_b 11.083556
_cell_length_c 11.013802
_cell_angle_alpha 90.000000
_cell_angle_beta 90.000000
_cell_angle_gamma 90.000000
_cell_volume 2280.429225
_symmetry_space_group_name_H-M "A M A 2"
_symmetry_group_IT_number 40
_symmetry_cell_setting 'orthorhombic'
loop_
_space_group_symop_operation_xyz
x,y,z
-x,-y,z
1/2-x,y,z
1/2+x,-y,z
x,1/2+y,1/2+z
-x,1/2-y,1/2+z
1/2-x,1/2+y,1/2+z
1/2+x,1/2-y,1/2+z
loop_
_atom_site_type_symbol
_atom_site_label
_atom_site_fract_x
_atom_site_fract_y
_atom_site_fract_z
Si Si1 0.429430 0.247315 0.431010
Si Si2 0.828715 0.098311 0.482988
Si Si3 0.170872 0.596971 0.782787
Si Si4 0.582719 0.012098 0.067637
Si Si5 0.086505 0.685509 0.369793
Si Si6 0.573856 0.946334 0.633392
O O1 0.374206 0.215861 0.321822
O O2 0.399763 0.355368 0.515295
O O3 0.502861 0.282944 0.366056
O O4 0.443732 0.130864 0.513880
O O5 0.750000 0.144238 0.524127
O O6 0.867026 0.199428 0.403273
O O7 0.819493 0.980414 0.402764
O O8 0.874138 0.058873 0.601351
O O9 0.250000 0.635571 0.735148
O O10 0.130927 0.515467 0.683671
O O11 0.500000 0.000000 0.106929
O O12 0.603583 0.917133 0.965859
O O13 0.109298 0.637035 0.237175
O O14 0.500000 0.000000 0.685794
#
# Coordination Sequence:
#
# PCOD8184351 Si02
#       6
#     8   8   8   8   8   8
#     4  10  22  38  62  92 126 165 210 264 314 370
#     4  10  23  42  62  92 125 163 211 258 320 384
#     4  10  23  40  64  91 122 165 210 256 316 381
#     4  10  23  39  58  93 125 162 209 260 312 372
#     4  11  23  38  62  92 126 164 213 262 314 376
#     4  11  21  38  64  92 125 167 213 265 316 372
#
# _framework density 21.048669
#
# number of rings (size 3 to 8) (size 9 to 14) (size 15 to 20)
#    0.000    1.667    1.667    2.500    7.000    3.333 
#    0.000    3.333    0.000    0.000    0.000    0.000 
#    0.000    0.000    0.000    0.000    0.000    0.000 
#
# Total GULP energy -297632.313390 kJ/mol
# GULP energy per Si atom -12401.346391 kJ/mol
# Density = 2.100076 g / cm^3
# Si number density = 21.048669 Si / 1000 Ang^3
#
#
#
# Elastic Constant Matrix: (Units=GPa)
#
#
# Indices 1 2 3 4 5 6 
#
# 1 121.3775 46.8470 50.1655 0.0000 0.0000 0.0000
# 2 46.8470 96.0739 28.3962 0.0000 0.0000 0.0000
# 3 50.1655 28.3962 79.6417 0.0000 0.0000 0.0000
# 4 0.0000 0.0000 0.0000 47.4503 0.0000 0.0000
# 5 0.0000 0.0000 0.0000 0.0000 10.3977 0.0000
# 6 0.0000 0.0000 0.0000 0.0000 0.0000 10.9933
#
#
#
# Elastic Compliance Matrix: (Units=1/GPa)
#
#
# Indices 1 2 3 4 5 6 
#
# 1 0.012497 -0.004211 -0.006370 0.000000 0.000000 0.000000
# 2 -0.004211 0.013054 -0.002002 0.000000 0.000000 0.000000
# 3 -0.006370 -0.002002 0.017283 0.000000 0.000000 0.000000
# 4 0.000000 0.000000 0.000000 0.021075 0.000000 0.000000
# 5 0.000000 0.000000 0.000000 0.000000 0.096175 0.000000
# 6 0.000000 0.000000 0.000000 0.000000 0.000000 0.090964
#
#
# Mechanical properties :
#
#
# Convention : Reuss Voigt Hill
#
# Bulk Modulus (GPa) = 56.60251 60.87891 58.74071
# Shear Modulus (GPa) = 17.72412 25.21390 21.46901
#
# Velocity S-wave (km/s) = 2.90497 3.46480 3.19716
# Velocity P-wave (km/s) = 6.18073 6.70762 6.44956
#
# Compressibility (1/GPa) = 0.01766706
#
# Stress axis : x y z
#
# Youngs Moduli (GPa) = 80.02057 76.60725 57.86173
#
# Poissons Ratio (x) = 0.32258 0.36859
# Poissons Ratio (y) = 0.33695 0.11583
# Poissons Ratio (z) = 0.50975 0.15336
#
# Static dielectric constant tensor:
#      x y z
#    x 4.010620 0.000000 0.000000 
#    y 0.000000 3.909190 0.000000 
#    z 0.000000 0.000000 3.655460 
# 
# 
# High freq. dielectric constant tensor:
#      x y z
#    x 1.814870 0.000000 0.000000 
#    y 0.000000 1.832930 0.000000 
#    z 0.000000 0.000000 1.823140 
# 
# From -- ./inp_files/12897.got.cif
#   From: 2010.03.12/outbox.cif.g09.slc.cpg/sg40_7_cif.got.tgz:12897.got - 2010.04.14 01:38:03.
