data_PCOD8184375
_publ_section_title
;
Structure prediction by ZEFSAII (Michael W. Deem and Ramdas Pophale) SiO2 
 PCOD8184375
Probable space group: A M A 2
;
_chemical_formula_sum "Si O2"
_cell_formula_units_Z 64
_cell_length_a 18.339958
_cell_length_b 6.355022
_cell_length_c 26.274565
_cell_angle_alpha 90.000000
_cell_angle_beta 90.000000
_cell_angle_gamma 90.000000
_cell_volume 3062.322531
_symmetry_space_group_name_H-M "A M A 2"
_symmetry_group_IT_number 40
_symmetry_cell_setting 'orthorhombic'
loop_
_space_group_symop_operation_xyz
x,y,z
-x,-y,z
1/2-x,y,z
1/2+x,-y,z
x,1/2+y,1/2+z
-x,1/2-y,1/2+z
1/2-x,1/2+y,1/2+z
1/2+x,1/2-y,1/2+z
loop_
_atom_site_type_symbol
_atom_site_label
_atom_site_fract_x
_atom_site_fract_y
_atom_site_fract_z
Si Si1 0.574642 0.099150 0.845760
Si Si2 0.666484 0.906343 0.284786
Si Si3 0.333425 0.211982 0.084408
Si Si4 0.166575 0.288019 0.878877
Si Si5 0.074273 0.399497 0.525387
Si Si6 0.574273 0.899498 0.437899
Si Si7 0.166484 0.406342 0.678501
Si Si8 0.074642 0.599150 0.117526
O O1 0.617825 0.203933 0.798830
O O2 0.553235 0.273916 0.886998
O O3 0.500000 0.000000 0.824158
O O4 0.625217 0.931273 0.874041
O O5 0.750000 0.829157 0.280192
O O6 0.658499 0.087605 0.326311
O O7 0.638014 0.999999 0.231643
O O8 0.250000 0.260090 0.071198
O O9 0.374784 0.431272 0.089244
O O10 0.366224 0.077591 0.037823
O O11 0.341499 0.087607 0.136975
O O12 0.250000 0.239917 0.892086
O O13 0.133775 0.422407 0.925463
O O14 0.107607 0.249998 0.481643
O O15 0.053235 0.273919 0.576289
O O16 0.000000 0.500000 0.503698
O O17 0.500000 0.000000 0.459588
O O18 0.250000 0.329148 0.683096
O O19 0.117825 0.203931 0.664456
O O20 0.000000 0.500000 0.139128
#
# Coordination Sequence:
#
# PCOD8184375 Si02
#       8
#     8   8   8   8   8   8   8   8
#     4  11  21  38  62  87 123 163 203 257 313 361
#     4   9  20  39  62  87 121 164 207 252 305 367
#     4  10  22  40  62  91 123 159 202 255 308 363
#     4  10  22  40  62  91 123 159 202 255 308 363
#     4  11  23  39  64  90 119 163 207 249 306 374
#     4  11  23  39  64  90 119 163 207 249 306 374
#     4   9  20  39  62  87 121 164 207 252 305 367
#     4  11  21  38  62  87 123 163 203 257 313 361
#
# _framework density 20.899169000000001
#
# number of rings (size 3 to 8) (size 9 to 14) (size 15 to 20)
#    0.000    1.750    2.500    1.500    0.000    2.500 
#    0.000    8.750    0.000    0.000    0.000    0.000 
#    0.000    0.000    0.000    0.000    0.000    0.000 
#
# Total GULP energy -396981.228182 kJ/mol
# GULP energy per Si atom -12405.663381 kJ/mol
# Density = 2.085160 g / cm^3
# Si number density = 20.899169 Si / 1000 Ang^3
#
#
#
# Elastic Constant Matrix: (Units=GPa)
#
#
# Indices 1 2 3 4 5 6 
#
# 1 128.7580 57.1694 31.1268 0.0000 0.0000 0.0000
# 2 57.1694 108.5777 31.7864 0.0000 0.0000 0.0000
# 3 31.1268 31.7864 89.1701 0.0000 0.0000 0.0000
# 4 0.0000 0.0000 0.0000 35.7813 0.0000 0.0000
# 5 0.0000 0.0000 0.0000 0.0000 26.7718 0.0000
# 6 0.0000 0.0000 0.0000 0.0000 0.0000 36.4014
#
#
#
# Elastic Compliance Matrix: (Units=1/GPa)
#
#
# Indices 1 2 3 4 5 6 
#
# 1 0.010410 -0.004932 -0.001876 0.000000 0.000000 0.000000
# 2 -0.004932 0.012620 -0.002777 0.000000 0.000000 0.000000
# 3 -0.001876 -0.002777 0.012859 0.000000 0.000000 0.000000
# 4 0.000000 0.000000 0.000000 0.027948 0.000000 0.000000
# 5 0.000000 0.000000 0.000000 0.000000 0.037353 0.000000
# 6 0.000000 0.000000 0.000000 0.000000 0.000000 0.027471
#
#
# Mechanical properties :
#
#
# Convention : Reuss Voigt Hill
#
# Bulk Modulus (GPa) = 59.81020 62.96344 61.38682
# Shear Modulus (GPa) = 32.59396 33.55247 33.07322
#
# Velocity S-wave (km/s) = 3.95344 4.01115 3.98240
# Velocity P-wave (km/s) = 7.03706 7.18645 7.11214
#
# Compressibility (1/GPa) = 0.01671956
#
# Stress axis : x y z
#
# Youngs Moduli (GPa) = 96.06380 79.24083 77.76558
#
# Poissons Ratio (x) = 0.39081 0.14586
# Poissons Ratio (y) = 0.47378 0.21595
# Poissons Ratio (z) = 0.18018 0.22005
#
# Static dielectric constant tensor:
#      x y z
#    x 3.814590 0.000000 0.000000 
#    y 0.000000 3.846020 0.000000 
#    z 0.000000 0.000000 3.598530 
# 
# 
# High freq. dielectric constant tensor:
#      x y z
#    x 1.819820 0.000000 0.000000 
#    y 0.000000 1.827620 0.000000 
#    z 0.000000 0.000000 1.806240 
# 
# From -- ./inp_files/26687.got.cif
#   From: 2010.03.12/outbox.cif.g09.slc.cpg/sg40_14_cif.got.tgz:26687.got - 2010.04.14 01:38:03.
