data_PCOD8184280
_publ_section_title
;
Structure prediction by ZEFSAII (Michael W. Deem and Ramdas Pophale) SiO2 
 PCOD8184280
Probable space group: A M A 2
;
_chemical_formula_sum "Si O2"
_cell_formula_units_Z 48
_cell_length_a 8.870222
_cell_length_b 27.377987
_cell_length_c 9.813664
_cell_angle_alpha 90.000000
_cell_angle_beta 90.000000
_cell_angle_gamma 90.000000
_cell_volume 2383.236748
_symmetry_space_group_name_H-M "A M A 2"
_symmetry_group_IT_number 40
_symmetry_cell_setting 'orthorhombic'
loop_
_space_group_symop_operation_xyz
x,y,z
-x,-y,z
1/2-x,y,z
1/2+x,-y,z
x,1/2+y,1/2+z
-x,1/2-y,1/2+z
1/2-x,1/2+y,1/2+z
1/2+x,1/2-y,1/2+z
loop_
_atom_site_type_symbol
_atom_site_label
_atom_site_fract_x
_atom_site_fract_y
_atom_site_fract_z
Si Si1 0.571776 0.300289 0.129360
Si Si2 0.571948 0.097911 0.713910
Si Si3 0.573104 0.951692 0.475120
Si Si4 0.423258 0.388443 0.761958
Si Si5 0.426598 0.947019 0.997777
Si Si6 0.076825 0.781459 0.343873
O O1 0.750000 0.308248 0.125870
O O2 0.492420 0.350308 0.169309
O O3 0.523010 0.261756 0.244919
O O4 0.521031 0.281496 0.981115
O O5 0.750000 0.098435 0.691441
O O6 0.498232 0.055401 0.623705
O O7 0.525154 0.084576 0.867146
O O8 0.750000 0.957782 0.486431
O O9 0.530765 0.905546 0.383490
O O10 0.500000 0.000000 0.408190
O O11 0.250000 0.402539 0.793927
O O12 0.479806 0.414013 0.624184
O O13 0.443500 0.330385 0.753834
O O14 0.250000 0.955986 0.999464
O O15 0.500000 0.000000 0.002117
O O16 0.250000 0.774932 0.388067
#
# Coordination Sequence:
#
# PCOD8184280 Si02
#       6
#     8   8   8   8   8   8
#     4  11  24  41  65  97 126 161 209 257 309 374
#     4  11  23  41  64  90 124 166 206 256 314 368
#     4  12  24  39  62  92 123 161 206 256 309 372
#     4  10  21  41  64  89 124 164 205 253 310 371
#     4  10  23  40  62  90 122 164 208 252 307 365
#     4  10  23  42  65  92 127 166 205 255 313 372
#
# _framework density 20.140675999999999
#
# number of rings (size 3 to 8) (size 9 to 14) (size 15 to 20)
#    0.000    1.333    1.667    3.500    2.333    6.000 
#    0.000    0.000    0.000    0.000    0.000    0.000 
#    0.000    0.000    0.000    0.000    0.000    0.000 
#
# Total GULP energy -297693.594767 kJ/mol
# GULP energy per Si atom -12403.899782 kJ/mol
# Density = 2.009483 g / cm^3
# Si number density = 20.140676 Si / 1000 Ang^3
#
#
#
# Elastic Constant Matrix: (Units=GPa)
#
#
# Indices 1 2 3 4 5 6 
#
# 1 87.6546 29.9173 47.6607 0.0000 0.0000 0.0000
# 2 29.9173 86.4460 30.1704 0.0000 0.0000 0.0000
# 3 47.6607 30.1704 116.3581 0.0000 0.0000 0.0000
# 4 0.0000 0.0000 0.0000 -26.7336 0.0000 0.0000
# 5 0.0000 0.0000 0.0000 0.0000 20.9915 0.0000
# 6 0.0000 0.0000 0.0000 0.0000 0.0000 24.0592
#
#
#
# Elastic Compliance Matrix: (Units=1/GPa)
#
#
# Indices 1 2 3 4 5 6 
#
# 1 0.015574 -0.003478 -0.005477 0.000000 0.000000 0.000000
# 2 -0.003478 0.013496 -0.002075 0.000000 0.000000 0.000000
# 3 -0.005477 -0.002075 0.011376 0.000000 0.000000 0.000000
# 4 0.000000 0.000000 0.000000 -0.037406 0.000000 0.000000
# 5 0.000000 0.000000 0.000000 0.000000 0.047638 0.000000
# 6 0.000000 0.000000 0.000000 0.000000 0.000000 0.041564
#
#
# Mechanical properties :
#
#
# Convention : Reuss Voigt Hill
#
# Bulk Modulus (GPa) = 54.39218 56.21728 55.30473
# Shear Modulus (GPa) = 41.51803 15.84410 28.68107
#
# Velocity S-wave (km/s) = 4.54519 2.80781 3.77774
# Velocity P-wave (km/s) = 7.38984 6.20360 6.82255
#
# Compressibility (1/GPa) = 0.01838500
#
# Stress axis : x y z
#
# Youngs Moduli (GPa) = 64.21099 74.09770 87.90780
#
# Poissons Ratio (x) = 0.25772 0.48149
# Poissons Ratio (y) = 0.22334 0.18238
# Poissons Ratio (z) = 0.35169 0.15372
#
# Static dielectric constant tensor:
#      x y z
#    x 3.619070 0.000000 0.000000 
#    y 0.000000 3.971990 0.000000 
#    z 0.000000 0.000000 3.862240 
# 
# 
# High freq. dielectric constant tensor:
#      x y z
#    x 1.784930 0.000000 0.000000 
#    y 0.000000 1.799700 0.000000 
#    z 0.000000 0.000000 1.795970 
# 
# From -- ./inp_files/4598.got.cif
#   From: 2010.03.12/outbox.cif.g09.slc.cpg/sg40_3_cif.got.tgz:4598.got - 2010.04.14 01:38:03.
