data_PCOD8184929
_publ_section_title
;
Structure prediction by ZEFSAII (Michael W. Deem and Ramdas Pophale) SiO2 
 PCOD8184929
Probable space group: A B A 2
;
_chemical_formula_sum "Si O2"
_cell_formula_units_Z 52
_cell_length_a 14.688519
_cell_length_b 12.579497
_cell_length_c 12.905518
_cell_angle_alpha 90.000000
_cell_angle_beta 90.000000
_cell_angle_gamma 90.000000
_cell_volume 2384.606515
_symmetry_space_group_name_H-M "A B A 2"
_symmetry_group_IT_number 41
_symmetry_cell_setting 'orthorhombic'
loop_
_space_group_symop_operation_xyz
x,y,z
-x,-y,z
1/2-x,y,1/2+z
1/2+x,-y,1/2+z
x,1/2+y,1/2+z
-x,1/2-y,1/2+z
1/2-x,1/2+y,z
1/2+x,1/2-y,z
loop_
_atom_site_type_symbol
_atom_site_label
_atom_site_fract_x
_atom_site_fract_y
_atom_site_fract_z
Si Si1 0.894355 0.968178 0.530640
Si Si2 0.915049 0.360867 0.592113
Si Si3 0.883895 0.730211 0.576091
Si Si4 0.097618 0.310417 0.348186
Si Si5 0.578835 0.918855 0.810218
Si Si6 0.000000 0.000000 0.930644
Si Si7 0.195948 0.834276 0.636593
O O1 0.885776 0.857276 0.591711
O O2 0.860867 0.954730 0.409836
O O3 0.831002 0.053545 0.586410
O O4 0.000000 0.000000 0.529861
O O5 0.872694 0.413427 0.697333
O O6 0.851027 0.259557 0.567074
O O7 0.019122 0.319901 0.607451
O O8 0.918214 0.450495 0.502126
O O9 0.853963 0.698813 0.459372
O O10 0.804334 0.679245 0.644770
O O11 0.041055 0.200970 0.331787
O O12 0.030372 0.409661 0.351424
O O13 0.167670 0.328880 0.256133
O O14 0.500000 0.000000 0.793038
#
# Coordination Sequence:
#
# PCOD8184929 Si02
#       7
#     8   8   8   8   8   4   8
#     4  10  20  40  67  92 125 171 217 269 317 387
#     4  10  20  39  65  93 126 173 210 266 331 383
#     4  10  22  42  61  96 133 164 221 270 324 391
#     4   9  22  40  59  93 131 161 219 266 320 393
#     4   9  18  36  63  90 119 162 215 261 315 382
#     4  10  20  36  64  88 132 168 206 274 326 382
#     4  11  23  41  66  91 130 173 218 268 322 387
#
# _framework density 21.806531
#
# number of rings (size 3 to 8) (size 9 to 14) (size 15 to 20)
#    0.000    2.154    2.308    0.000    3.231    2.462 
#    5.538    3.077    0.000    0.000    0.000    0.000 
#    0.000    0.000    0.000    0.000    0.000    0.000 
#
# Total GULP energy -322093.449151 kJ/mol
# GULP energy per Si atom -12388.209583 kJ/mol
# Density = 2.175690 g / cm^3
# Si number density = 21.806531 Si / 1000 Ang^3
#
#
#
# Elastic Constant Matrix: (Units=GPa)
#
#
# Indices 1 2 3 4 5 6 
#
# 1 75.9671 18.7576 9.0122 0.0000 0.0000 0.0000
# 2 18.7576 120.5051 22.2274 0.0000 0.0000 0.0000
# 3 9.0122 22.2274 83.3083 0.0000 0.0000 0.0000
# 4 0.0000 0.0000 0.0000 30.3372 0.0000 0.0000
# 5 0.0000 0.0000 0.0000 0.0000 20.7809 0.0000
# 6 0.0000 0.0000 0.0000 0.0000 0.0000 26.6363
#
#
#
# Elastic Compliance Matrix: (Units=1/GPa)
#
#
# Indices 1 2 3 4 5 6 
#
# 1 0.013763 -0.001964 -0.000965 0.000000 0.000000 0.000000
# 2 -0.001964 0.009008 -0.002191 0.000000 0.000000 0.000000
# 3 -0.000965 -0.002191 0.012693 0.000000 0.000000 0.000000
# 4 0.000000 0.000000 0.000000 0.032963 0.000000 0.000000
# 5 0.000000 0.000000 0.000000 0.000000 0.048121 0.000000
# 6 0.000000 0.000000 0.000000 0.000000 0.000000 0.037543
#
#
# Mechanical properties :
#
#
# Convention : Reuss Voigt Hill
#
# Bulk Modulus (GPa) = 39.64529 42.19719 40.92124
# Shear Modulus (GPa) = 28.94543 30.86977 29.90760
#
# Velocity S-wave (km/s) = 3.64727 3.76655 3.70739
# Velocity P-wave (km/s) = 5.99639 6.18940 6.09366
#
# Compressibility (1/GPa) = 0.02522368
#
# Stress axis : x y z
#
# Youngs Moduli (GPa) = 72.65814 111.00866 78.78637
#
# Poissons Ratio (x) = 0.21806 0.07601
# Poissons Ratio (y) = 0.14273 0.17262
# Poissons Ratio (z) = 0.07010 0.24322
#
# Static dielectric constant tensor:
#      x y z
#    x 3.360440 0.000000 0.000000 
#    y 0.000000 4.359060 0.000000 
#    z 0.000000 0.000000 4.230120 
# 
# 
# High freq. dielectric constant tensor:
#      x y z
#    x 1.801020 0.000000 0.000000 
#    y 0.000000 1.887790 0.000000 
#    z 0.000000 0.000000 1.860880 
# 
# From -- ./inp_files/8781.got.cif
#   From: 2010.03.12/outbox.cif.g09.slc.cpg/sg41_5_cif.got.tgz:8781.got - 2010.04.14 01:55:53.
