data_PCOD8184314
_publ_section_title
;
Structure prediction by ZEFSAII (Michael W. Deem and Ramdas Pophale) SiO2 
 PCOD8184314
Probable space group: A M A 2
;
_chemical_formula_sum "Si O2"
_cell_formula_units_Z 56
_cell_length_a 14.111839
_cell_length_b 12.970431
_cell_length_c 12.874482
_cell_angle_alpha 90.000000
_cell_angle_beta 90.000000
_cell_angle_gamma 90.000000
_cell_volume 2356.501850
_symmetry_space_group_name_H-M "A M A 2"
_symmetry_group_IT_number 40
_symmetry_cell_setting 'orthorhombic'
loop_
_space_group_symop_operation_xyz
x,y,z
-x,-y,z
1/2-x,y,z
1/2+x,-y,z
x,1/2+y,1/2+z
-x,1/2-y,1/2+z
1/2-x,1/2+y,1/2+z
1/2+x,1/2-y,1/2+z
loop_
_atom_site_type_symbol
_atom_site_label
_atom_site_fract_x
_atom_site_fract_y
_atom_site_fract_z
Si Si1 0.605095 0.535891 0.476850
Si Si2 0.639535 0.614883 0.857422
Si Si3 0.352286 0.556103 0.688405
Si Si4 0.003768 0.733375 0.746298
Si Si5 0.641277 0.979241 0.543427
Si Si6 0.141405 0.748108 0.064251
Si Si7 0.357805 0.923379 0.754790
O O1 0.500000 0.500000 0.492430
O O2 0.660130 0.476349 0.567708
O O3 0.617827 0.659486 0.486423
O O4 0.640422 0.507889 0.360506
O O5 0.750000 0.650250 0.870959
O O6 0.627584 0.547262 0.753329
O O7 0.564113 0.708336 0.845500
O O8 0.597278 0.553444 0.956321
O O9 0.250000 0.602412 0.722767
O O10 0.433997 0.637383 0.707999
O O11 0.072372 0.827550 0.771666
O O12 0.929647 0.759632 0.658267
O O13 0.750000 0.007035 0.544693
O O14 0.626296 0.861524 0.506647
O O15 0.602889 0.007136 0.658998
O O16 0.250000 0.757102 0.105130
O O17 0.250000 0.885309 0.734859
#
# Coordination Sequence:
#
# PCOD8184314 Si02
#       7
#     8   8   8   8   8   8   8
#     4  12  24  45  71 103 139 182 237 292 355 421
#     4  10  21  43  72 101 137 178 233 298 349 408
#     4  11  22  43  69  99 137 179 231 292 354 411
#     4  12  24  41  69 109 139 179 233 289 351 426
#     4   9  23  47  71  97 137 189 234 281 348 419
#     4  11  23  44  73 103 138 184 236 288 352 425
#     4  11  27  48  68 100 148 192 231 286 351 424
#
# _framework density 23.764040000000001
#
# number of rings (size 3 to 8) (size 9 to 14) (size 15 to 20)
#    0.000    1.143    2.857    2.571    4.000    1.143 
#    2.571    0.000    0.000    0.000    0.000    0.000 
#    0.000    0.000    0.000    0.000    0.000    0.000 
#
# Total GULP energy -347019.479794 kJ/mol
# GULP energy per Si atom -12393.552850 kJ/mol
# Density = 2.370995 g / cm^3
# Si number density = 23.764040 Si / 1000 Ang^3
#
#
#
# Elastic Constant Matrix: (Units=GPa)
#
#
# Indices 1 2 3 4 5 6 
#
# 1 140.3396 45.0107 12.1235 0.0000 0.0000 0.0000
# 2 45.0107 66.7094 -2.9647 0.0000 0.0000 0.0000
# 3 12.1235 -2.9647 103.9849 0.0000 0.0000 0.0000
# 4 0.0000 0.0000 0.0000 -39.3164 0.0000 0.0000
# 5 0.0000 0.0000 0.0000 0.0000 104.0210 0.0000
# 6 0.0000 0.0000 0.0000 0.0000 0.0000 179.2249
#
#
#
# Elastic Compliance Matrix: (Units=1/GPa)
#
#
# Indices 1 2 3 4 5 6 
#
# 1 0.009255 -0.006301 -0.001259 0.000000 0.000000 0.000000
# 2 -0.006301 0.019299 0.001285 0.000000 0.000000 0.000000
# 3 -0.001259 0.001285 0.009800 0.000000 0.000000 0.000000
# 4 0.000000 0.000000 0.000000 -0.025435 0.000000 0.000000
# 5 0.000000 0.000000 0.000000 0.000000 0.009613 0.000000
# 6 0.000000 0.000000 0.000000 0.000000 0.000000 0.005580
#
#
# Mechanical properties :
#
#
# Convention : Reuss Voigt Hill
#
# Bulk Modulus (GPa) = 38.75223 46.59701 42.67462
# Shear Modulus (GPa) = 101.49619 65.91018 83.70319
#
# Velocity S-wave (km/s) = 6.54238 5.27214 5.94130
# Velocity P-wave (km/s) = 8.56813 7.53070 8.06611
#
# Compressibility (1/GPa) = 0.02580497
#
# Stress axis : x y z
#
# Youngs Moduli (GPa) = 108.04874 51.81696 102.03915
#
# Poissons Ratio (x) = 0.32648 0.12843
# Poissons Ratio (y) = 0.68077 -0.13110
# Poissons Ratio (z) = 0.13600 -0.06657
#
# Static dielectric constant tensor:
#      x y z
#    x 4.486110 0.000000 0.000000 
#    y 0.000000 4.985700 0.000000 
#    z 0.000000 0.000000 4.634310 
# 
# 
# High freq. dielectric constant tensor:
#      x y z
#    x 1.965310 0.000000 0.000000 
#    y 0.000000 1.918890 0.000000 
#    z 0.000000 0.000000 1.942910 
# 
# From -- ./inp_files/12249.got.cif
#   From: 2010.03.12/outbox.cif.g09.slc.cpg/sg40_7_cif.got.tgz:12249.got - 2010.04.14 01:38:03.
