data_PCOD8184277
_publ_section_title
;
Structure prediction by ZEFSAII (Michael W. Deem and Ramdas Pophale) SiO2 
 PCOD8184277
Probable space group: A M A 2
;
_chemical_formula_sum "Si O2"
_cell_formula_units_Z 48
_cell_length_a 9.083018
_cell_length_b 27.271094
_cell_length_c 9.818212
_cell_angle_alpha 90.000000
_cell_angle_beta 90.000000
_cell_angle_gamma 90.000000
_cell_volume 2432.008792
_symmetry_space_group_name_H-M "A M A 2"
_symmetry_group_IT_number 40
_symmetry_cell_setting 'orthorhombic'
loop_
_space_group_symop_operation_xyz
x,y,z
-x,-y,z
1/2-x,y,z
1/2+x,-y,z
x,1/2+y,1/2+z
-x,1/2-y,1/2+z
1/2-x,1/2+y,1/2+z
1/2+x,1/2-y,1/2+z
loop_
_atom_site_type_symbol
_atom_site_label
_atom_site_fract_x
_atom_site_fract_y
_atom_site_fract_z
Si Si1 0.423706 0.297518 0.174020
Si Si2 0.577170 0.092256 0.742164
Si Si3 0.576039 0.951696 0.498180
Si Si4 0.419170 0.386471 0.792921
Si Si5 0.421056 0.948509 0.033131
Si Si6 0.080260 0.777984 0.367181
O O1 0.250000 0.292687 0.182070
O O2 0.472694 0.352605 0.209185
O O3 0.490305 0.263172 0.289410
O O4 0.479185 0.283506 0.022307
O O5 0.750000 0.084544 0.712723
O O6 0.482789 0.055117 0.651008
O O7 0.533678 0.079022 0.895611
O O8 0.750000 0.957819 0.496450
O O9 0.526460 0.905274 0.410459
O O10 0.500000 0.000000 0.434326
O O11 0.250000 0.398771 0.832079
O O12 0.466669 0.410955 0.651581
O O13 0.441109 0.328285 0.783573
O O14 0.250000 0.960365 0.036641
O O15 0.500000 0.000000 0.052805
O O16 0.250000 0.762271 0.369508
#
# Coordination Sequence:
#
# PCOD8184277 Si02
#       6
#     8   8   8   8   8   8
#     4  10  22  40  63  90 121 157 199 250 302 358
#     4  10  21  41  63  86 120 159 200 246 300 357
#     4  12  24  38  61  90 119 157 200 247 301 358
#     4  10  21  41  63  86 120 159 200 246 300 357
#     4  10  22  38  61  88 117 157 198 241 295 354
#     4  10  22  40  63  90 121 157 199 250 302 358
#
# _framework density 19.736771000000001
#
# number of rings (size 3 to 8) (size 9 to 14) (size 15 to 20)
#    0.000    1.667    1.667    2.500    2.333    6.000 
#    0.000    0.000    0.000    0.000    0.000    0.000 
#    0.000    0.000    0.000    0.000    0.000    0.000 
#
# Total GULP energy -297691.526247 kJ/mol
# GULP energy per Si atom -12403.813594 kJ/mol
# Density = 1.969185 g / cm^3
# Si number density = 19.736771 Si / 1000 Ang^3
#
#
#
# Elastic Constant Matrix: (Units=GPa)
#
#
# Indices 1 2 3 4 5 6 
#
# 1 60.7430 24.4122 23.6101 0.0000 0.0000 0.0000
# 2 24.4122 69.4570 7.6773 0.0000 0.0000 0.0000
# 3 23.6101 7.6773 88.3370 0.0000 0.0000 0.0000
# 4 0.0000 0.0000 0.0000 41.4363 0.0000 0.0000
# 5 0.0000 0.0000 0.0000 0.0000 27.1121 0.0000
# 6 0.0000 0.0000 0.0000 0.0000 0.0000 34.6098
#
#
#
# Elastic Compliance Matrix: (Units=1/GPa)
#
#
# Indices 1 2 3 4 5 6 
#
# 1 0.021202 -0.006892 -0.005068 0.000000 0.000000 0.000000
# 2 -0.006892 0.016777 0.000384 0.000000 0.000000 0.000000
# 3 -0.005068 0.000384 0.012641 0.000000 0.000000 0.000000
# 4 0.000000 0.000000 0.000000 0.024133 0.000000 0.000000
# 5 0.000000 0.000000 0.000000 0.000000 0.036884 0.000000
# 6 0.000000 0.000000 0.000000 0.000000 0.000000 0.028894
#
#
# Mechanical properties :
#
#
# Convention : Reuss Voigt Hill
#
# Bulk Modulus (GPa) = 36.40411 36.65959 36.53185
# Shear Modulus (GPa) = 28.92844 31.48745 30.20795
#
# Velocity S-wave (km/s) = 3.83262 3.99854 3.91646
# Velocity P-wave (km/s) = 6.17010 6.31921 6.24510
#
# Compressibility (1/GPa) = 0.02746942
#
# Stress axis : x y z
#
# Youngs Moduli (GPa) = 47.16439 59.60443 79.10501
#
# Poissons Ratio (x) = 0.41079 0.40089
# Poissons Ratio (y) = 0.32505 -0.03037
# Poissons Ratio (z) = 0.23902 -0.02288
#
# Static dielectric constant tensor:
#      x y z
#    x 3.435050 0.000000 0.000000 
#    y 0.000000 3.639600 0.000000 
#    z 0.000000 0.000000 3.791420 
# 
# 
# High freq. dielectric constant tensor:
#      x y z
#    x 1.754470 0.000000 0.000000 
#    y 0.000000 1.779060 0.000000 
#    z 0.000000 0.000000 1.781340 
# 
# From -- ./inp_files/4597.got.cif
#   From: 2010.03.12/outbox.cif.g09.slc.cpg/sg40_3_cif.got.tgz:4597.got - 2010.04.14 01:38:03.
