data_PCOD8184022
_publ_section_title
;
Structure prediction by ZEFSAII (Michael W. Deem and Ramdas Pophale) SiO2 
 PCOD8184022
Probable space group: A M A 2
;
_chemical_formula_sum "Si O2"
_cell_formula_units_Z 32
_cell_length_a 18.062565
_cell_length_b 7.485816
_cell_length_c 13.084883
_cell_angle_alpha 90.000000
_cell_angle_beta 90.000000
_cell_angle_gamma 90.000000
_cell_volume 1769.246783
_symmetry_space_group_name_H-M "A M A 2"
_symmetry_group_IT_number 40
_symmetry_cell_setting 'orthorhombic'
loop_
_space_group_symop_operation_xyz
x,y,z
-x,-y,z
1/2-x,y,z
1/2+x,-y,z
x,1/2+y,1/2+z
-x,1/2-y,1/2+z
1/2-x,1/2+y,1/2+z
1/2+x,1/2-y,1/2+z
loop_
_atom_site_type_symbol
_atom_site_label
_atom_site_fract_x
_atom_site_fract_y
_atom_site_fract_z
Si Si1 0.582672 0.935183 0.676750
Si Si2 0.665859 0.470222 0.965558
Si Si3 0.082786 0.938329 0.281030
Si Si4 0.333798 0.772433 0.787931
O O1 0.628936 0.962384 0.574882
O O2 0.584991 0.728623 0.706119
O O3 0.500000 0.000000 0.657697
O O4 0.619925 0.048730 0.767559
O O5 0.750000 0.538083 0.977600
O O6 0.621245 0.607421 0.890946
O O7 0.663869 0.274594 0.909647
O O8 0.128167 0.103301 0.228745
O O9 0.000000 0.000000 0.303652
O O10 0.250000 0.796128 0.748509
#
# Coordination Sequence:
#
# PCOD8184022 Si02
#       4
#     8   8   8   8
#     4  12  21  36  65  87 114 159 194 238 296 344
#     4   9  21  39  57  85 120 150 193 244 289 351
#     4  10  20  41  59  86 120 151 195 243 288 342
#     4   9  21  40  58  86 119 147 195 245 285 348
#
# _framework density 18.086793
#
# number of rings (size 3 to 8) (size 9 to 14) (size 15 to 20)
#    1.500    0.500    2.500    1.500    0.000    4.000 
#    4.500    1.250    0.000    0.000    0.000    0.000 
#    0.000    0.000    0.000    0.000    0.000    0.000 
#
# Total GULP energy -198225.803588 kJ/mol
# GULP energy per Si atom -12389.112724 kJ/mol
# Density = 1.804563 g / cm^3
# Si number density = 18.086793 Si / 1000 Ang^3
#
#
#
# Elastic Constant Matrix: (Units=GPa)
#
#
# Indices 1 2 3 4 5 6 
#
# 1 143.5293 21.4225 22.3348 0.0000 0.0000 0.0000
# 2 21.4225 61.4145 -1.2531 0.0000 0.0000 0.0000
# 3 22.3348 -1.2531 55.5199 0.0000 0.0000 0.0000
# 4 0.0000 0.0000 0.0000 15.4572 0.0000 0.0000
# 5 0.0000 0.0000 0.0000 0.0000 13.9718 0.0000
# 6 0.0000 0.0000 0.0000 0.0000 0.0000 18.1504
#
#
#
# Elastic Compliance Matrix: (Units=1/GPa)
#
#
# Indices 1 2 3 4 5 6 
#
# 1 0.007892 -0.002819 -0.003238 0.000000 0.000000 0.000000
# 2 -0.002819 0.017297 0.001524 0.000000 0.000000 0.000000
# 3 -0.003238 0.001524 0.019349 0.000000 0.000000 0.000000
# 4 0.000000 0.000000 0.000000 0.064695 0.000000 0.000000
# 5 0.000000 0.000000 0.000000 0.000000 0.071573 0.000000
# 6 0.000000 0.000000 0.000000 0.000000 0.000000 0.055095
#
#
# Mechanical properties :
#
#
# Convention : Reuss Voigt Hill
#
# Bulk Modulus (GPa) = 28.19126 38.38578 33.28852
# Shear Modulus (GPa) = 19.47116 24.04652 21.75884
#
# Velocity S-wave (km/s) = 3.28463 3.65020 3.47223
# Velocity P-wave (km/s) = 5.47773 6.24775 5.87537
#
# Compressibility (1/GPa) = 0.03547198
#
# Stress axis : x y z
#
# Youngs Moduli (GPa) = 126.71234 57.81289 51.68296
#
# Poissons Ratio (x) = 0.16297 0.16737
# Poissons Ratio (y) = 0.35719 -0.07879
# Poissons Ratio (z) = 0.41035 -0.08813
#
# Static dielectric constant tensor:
#      x y z
#    x 3.663690 0.000000 0.000000 
#    y 0.000000 3.171700 0.000000 
#    z 0.000000 0.000000 3.037030 
# 
# 
# High freq. dielectric constant tensor:
#      x y z
#    x 1.729290 0.000000 0.000000 
#    y 0.000000 1.678060 0.000000 
#    z 0.000000 0.000000 1.676540 
# 
# From -- ./inp_files/11783.got.cif
#   From: 2010.03.12/outbox.cif.g09.slc.cpg/sg40_6_cif.got.tgz:11783.got - 2010.04.14 01:38:03.
