data_PCOD8184384
_publ_section_title
;
Structure prediction by ZEFSAII (Michael W. Deem and Ramdas Pophale) SiO2 
 PCOD8184384
Probable space group: A M A 2
;
_chemical_formula_sum "Si O2"
_cell_formula_units_Z 48
_cell_length_a 16.277231
_cell_length_b 4.835867
_cell_length_c 26.534748
_cell_angle_alpha 90.000000
_cell_angle_beta 90.000000
_cell_angle_gamma 90.000000
_cell_volume 2088.670065
_symmetry_space_group_name_H-M "A M A 2"
_symmetry_group_IT_number 40
_symmetry_cell_setting 'orthorhombic'
loop_
_space_group_symop_operation_xyz
x,y,z
-x,-y,z
1/2-x,y,z
1/2+x,-y,z
x,1/2+y,1/2+z
-x,1/2-y,1/2+z
1/2-x,1/2+y,1/2+z
1/2+x,1/2-y,1/2+z
loop_
_atom_site_type_symbol
_atom_site_label
_atom_site_fract_x
_atom_site_fract_y
_atom_site_fract_z
Si Si1 0.443792 0.737487 0.482140
Si Si2 0.444663 0.267121 0.229237
Si Si3 0.656867 0.369164 0.822718
Si Si4 0.910934 0.870021 0.876365
Si Si5 0.658553 0.934832 0.644039
Si Si6 0.159440 0.561482 0.576471
O O1 0.500000 0.500000 0.459729
O O2 0.389004 0.772751 0.431466
O O3 0.398038 0.591135 0.528241
O O4 0.500000 0.000000 0.497869
O O5 0.500000 0.500000 0.256722
O O6 0.369586 0.197152 0.265595
O O7 0.406915 0.429069 0.181203
O O8 0.500000 0.000000 0.213859
O O9 0.750000 0.476302 0.821409
O O10 0.596173 0.613093 0.838797
O O11 0.653217 0.107897 0.860618
O O12 0.000000 0.000000 0.868998
O O13 0.750000 0.889811 0.668653
O O14 0.624811 0.645033 0.620182
O O15 0.667849 0.131892 0.596565
O O16 0.250000 0.451721 0.560017
#
# Coordination Sequence:
#
# PCOD8184384 Si02
#       6
#     8   8   8   8   8   8
#     4  11  23  40  64  94 129 170 214 265 322 382
#     4  12  25  41  65  94 127 170 219 271 329 396
#     4  12  25  42  66  97 131 172 219 274 333 398
#     4  11  23  43  66  93 132 175 219 271 329 392
#     4  10  22  42  63  89 125 165 209 265 325 382
#     4  10  22  40  64  91 125 164 207 262 323 382
#
# _framework density 22.98113
#
# number of rings (size 3 to 8) (size 9 to 14) (size 15 to 20)
#    0.000    1.000    0.000    8.000    0.000    4.000 
#    0.000    6.667    0.000    0.000    0.000    0.000 
#    0.000    0.000    0.000    0.000    0.000    0.000 
#
# Total GULP energy -297362.629591 kJ/mol
# GULP energy per Si atom -12390.109566 kJ/mol
# Density = 2.292882 g / cm^3
# Si number density = 22.981130 Si / 1000 Ang^3
#
#
#
# Elastic Constant Matrix: (Units=GPa)
#
#
# Indices 1 2 3 4 5 6 
#
# 1 91.5445 33.7285 55.1064 0.0000 0.0000 0.0000
# 2 33.7285 134.0629 35.1416 0.0000 0.0000 0.0000
# 3 55.1064 35.1416 109.1559 0.0000 0.0000 0.0000
# 4 0.0000 0.0000 0.0000 39.6672 0.0000 0.0000
# 5 0.0000 0.0000 0.0000 0.0000 23.9595 0.0000
# 6 0.0000 0.0000 0.0000 0.0000 0.0000 36.9192
#
#
#
# Elastic Compliance Matrix: (Units=1/GPa)
#
#
# Indices 1 2 3 4 5 6 
#
# 1 0.016223 -0.002113 -0.007510 0.000000 0.000000 0.000000
# 2 -0.002113 0.008422 -0.001645 0.000000 0.000000 0.000000
# 3 -0.007510 -0.001645 0.013482 0.000000 0.000000 0.000000
# 4 0.000000 0.000000 0.000000 0.025210 0.000000 0.000000
# 5 0.000000 0.000000 0.000000 0.000000 0.041737 0.000000
# 6 0.000000 0.000000 0.000000 0.000000 0.000000 0.027086
#
#
# Mechanical properties :
#
#
# Convention : Reuss Voigt Hill
#
# Bulk Modulus (GPa) = 64.13550 64.74624 64.44087
# Shear Modulus (GPa) = 31.27127 34.16163 32.71645
#
# Velocity S-wave (km/s) = 3.69282 3.85971 3.77719
# Velocity P-wave (km/s) = 6.79345 6.93527 6.86473
#
# Compressibility (1/GPa) = 0.01559199
#
# Stress axis : x y z
#
# Youngs Moduli (GPa) = 61.64216 118.73836 74.17379
#
# Poissons Ratio (x) = 0.25089 0.55702
# Poissons Ratio (y) = 0.13025 0.12199
# Poissons Ratio (z) = 0.46291 0.19528
#
# Static dielectric constant tensor:
#      x y z
#    x 4.140440 0.000000 0.000000 
#    y 0.000000 4.398330 0.000000 
#    z 0.000000 0.000000 3.966950 
# 
# 
# High freq. dielectric constant tensor:
#      x y z
#    x 1.896020 0.000000 0.000000 
#    y 0.000000 1.927300 0.000000 
#    z 0.000000 0.000000 1.907760 
# 
# From -- ./inp_files/26575.got.cif
#   From: 2010.03.12/outbox.cif.g09.slc.cpg/sg40_14_cif.got.tgz:26575.got - 2010.04.14 01:38:03.
