data_PCOD8184307
_publ_section_title
;
Structure prediction by ZEFSAII (Michael W. Deem and Ramdas Pophale) SiO2 
 PCOD8184307
Probable space group: A M A 2
;
_chemical_formula_sum "Si O2"
_cell_formula_units_Z 64
_cell_length_a 27.661943
_cell_length_b 11.753319
_cell_length_c 8.668749
_cell_angle_alpha 90.000000
_cell_angle_beta 90.000000
_cell_angle_gamma 90.000000
_cell_volume 2818.380556
_symmetry_space_group_name_H-M "A M A 2"
_symmetry_group_IT_number 40
_symmetry_cell_setting 'orthorhombic'
loop_
_space_group_symop_operation_xyz
x,y,z
-x,-y,z
1/2-x,y,z
1/2+x,-y,z
x,1/2+y,1/2+z
-x,1/2-y,1/2+z
1/2-x,1/2+y,1/2+z
1/2+x,1/2-y,1/2+z
loop_
_atom_site_type_symbol
_atom_site_label
_atom_site_fract_x
_atom_site_fract_y
_atom_site_fract_z
Si Si1 0.193752 0.050297 0.923530
Si Si2 0.104447 0.622530 0.876776
Si Si3 0.449856 0.749926 0.381845
Si Si4 0.125298 0.355229 0.444677
Si Si5 0.153691 0.778700 0.268746
Si Si6 0.804239 0.984323 0.283206
Si Si7 0.054562 0.529901 0.584356
Si Si8 0.980636 0.380931 0.097295
O O1 0.250000 0.031961 0.887566
O O2 0.174994 0.161332 0.834725
O O3 0.164283 0.939018 0.864177
O O4 0.183581 0.055512 0.107384
O O5 0.106573 0.757038 0.827901
O O6 0.159486 0.579406 0.899121
O O7 0.081182 0.546503 0.744785
O O8 0.073833 0.605016 0.033183
O O9 0.398625 0.806453 0.341985
O O10 0.439044 0.639896 0.481592
O O11 0.482981 0.842952 0.463405
O O12 0.479557 0.713556 0.229845
O O13 0.148468 0.279542 0.583470
O O14 0.078305 0.423960 0.497502
O O15 0.190315 0.880584 0.308809
O O16 0.750000 0.948680 0.327174
O O17 0.000000 0.500000 0.621718
O O18 0.000000 0.500000 0.166475
#
# Coordination Sequence:
#
# PCOD8184307 Si02
#       8
#     8   8   8   8   8   8   8   8
#     4  10  21  42  71  97 130 179 229 281 346 410
#     4  12  23  42  71 100 137 181 226 285 340 417
#     4  12  25  45  67 100 139 183 234 286 338 412
#     4  11  24  43  67 102 135 175 231 281 344 410
#     4  11  20  43  67  97 135 176 225 285 339 408
#     4  10  22  41  68 101 132 176 228 283 350 414
#     4  12  25  45  70  96 138 186 229 277 340 408
#     4  12  27  43  66 103 138 185 234 281 344 409
#
# _framework density 22.708076999999999
#
# number of rings (size 3 to 8) (size 9 to 14) (size 15 to 20)
#    0.000    0.750    5.000    3.375    1.750    2.000 
#    0.000    2.500    0.000    0.000    0.000    0.000 
#    0.000    0.000    0.000    0.000    0.000    0.000 
#
# Total GULP energy -396857.290645 kJ/mol
# GULP energy per Si atom -12401.790333 kJ/mol
# Density = 2.265639 g / cm^3
# Si number density = 22.708077 Si / 1000 Ang^3
#
#
#
# Elastic Constant Matrix: (Units=GPa)
#
#
# Indices 1 2 3 4 5 6 
#
# 1 129.0768 42.1913 12.9917 0.0000 0.0000 0.0000
# 2 42.1913 110.5584 9.3437 0.0000 0.0000 0.0000
# 3 12.9917 9.3437 39.3598 0.0000 0.0000 0.0000
# 4 0.0000 0.0000 0.0000 43.7462 0.0000 0.0000
# 5 0.0000 0.0000 0.0000 0.0000 16.2503 0.0000
# 6 0.0000 0.0000 0.0000 0.0000 0.0000 35.7482
#
#
#
# Elastic Compliance Matrix: (Units=1/GPa)
#
#
# Indices 1 2 3 4 5 6 
#
# 1 0.009036 -0.003262 -0.002208 0.000000 0.000000 0.000000
# 2 -0.003262 0.010408 -0.001394 0.000000 0.000000 0.000000
# 3 -0.002208 -0.001394 0.026466 0.000000 0.000000 0.000000
# 4 0.000000 0.000000 0.000000 0.022859 0.000000 0.000000
# 5 0.000000 0.000000 0.000000 0.000000 0.061537 0.000000
# 6 0.000000 0.000000 0.000000 0.000000 0.000000 0.027973
#
#
# Mechanical properties :
#
#
# Convention : Reuss Voigt Hill
#
# Bulk Modulus (GPa) = 31.07335 45.33871 38.20603
# Shear Modulus (GPa) = 27.36209 33.44683 30.40446
#
# Velocity S-wave (km/s) = 3.47500 3.84201 3.66311
# Velocity P-wave (km/s) = 5.46026 6.30005 5.89513
#
# Compressibility (1/GPa) = 0.03218191
#
# Stress axis : x y z
#
# Youngs Moduli (GPa) = 110.67222 96.08453 37.78371
#
# Poissons Ratio (x) = 0.31339 0.08343
# Poissons Ratio (y) = 0.36097 0.05267
# Poissons Ratio (z) = 0.24438 0.13395
#
# Static dielectric constant tensor:
#      x y z
#    x 4.360320 0.000000 0.000000 
#    y 0.000000 4.239530 0.000000 
#    z 0.000000 0.000000 3.989180 
# 
# 
# High freq. dielectric constant tensor:
#      x y z
#    x 1.909190 0.000000 0.000000 
#    y 0.000000 1.910920 0.000000 
#    z 0.000000 0.000000 1.869660 
# 
# From -- ./inp_files/9419.got.cif
#   From: 2010.03.12/outbox.cif.g09.slc.cpg/sg40_5_cif.got.tgz:9419.got - 2010.04.14 01:38:03.
