data_PCOD8184540
_publ_section_title
;
Structure prediction by ZEFSAII (Michael W. Deem and Ramdas Pophale) SiO2 
 PCOD8184540
Probable space group: A M A 2
;
_chemical_formula_sum "Si O2"
_cell_formula_units_Z 64
_cell_length_a 30.437323
_cell_length_b 5.205370
_cell_length_c 18.451445
_cell_angle_alpha 90.000000
_cell_angle_beta 90.000000
_cell_angle_gamma 90.000000
_cell_volume 2923.401334
_symmetry_space_group_name_H-M "A M A 2"
_symmetry_group_IT_number 40
_symmetry_cell_setting 'orthorhombic'
loop_
_space_group_symop_operation_xyz
x,y,z
-x,-y,z
1/2-x,y,z
1/2+x,-y,z
x,1/2+y,1/2+z
-x,1/2-y,1/2+z
1/2-x,1/2+y,1/2+z
1/2+x,1/2-y,1/2+z
loop_
_atom_site_type_symbol
_atom_site_label
_atom_site_fract_x
_atom_site_fract_y
_atom_site_fract_z
Si Si1 0.044792 0.156944 0.091710
Si Si2 0.570791 0.644647 0.943248
Si Si3 0.372459 0.353851 0.440895
Si Si4 0.665902 0.143820 0.790360
Si Si5 0.912082 0.525496 0.201002
Si Si6 0.366962 0.825763 0.098777
Si Si7 0.973350 0.739942 0.795286
Si Si8 0.799803 0.123770 0.219169
O O1 0.046707 0.325555 0.165347
O O2 0.088335 0.985761 0.093168
O O3 0.045101 0.334792 0.019762
O O4 0.000000 0.000000 0.092841
O O5 0.589591 0.358956 0.932514
O O6 0.536890 0.686403 0.878707
O O7 0.608338 0.859633 0.938793
O O8 0.336845 0.340239 0.377163
O O9 0.348091 0.295806 0.517446
O O10 0.617080 0.195798 0.756572
O O11 0.698955 0.369468 0.768332
O O12 0.682391 0.865787 0.764370
O O13 0.880118 0.446204 0.134434
O O14 0.929940 0.277634 0.245447
O O15 0.328620 0.944451 0.148196
O O16 0.000000 0.500000 0.762765
O O17 0.000000 0.000000 0.791132
O O18 0.750000 0.178131 0.195096
#
# Coordination Sequence:
#
# PCOD8184540 Si02
#       8
#     8   8   8   8   8   8   8   8
#     4  11  24  41  67  95 142 185 239 290 339 406
#     4  11  23  44  62  93 130 186 231 288 343 402
#     4  11  22  42  70  97 129 178 231 277 338 415
#     4  11  23  43  75 100 136 177 227 282 348 417
#     4  11  24  43  62  97 130 181 230 288 341 406
#     4  10  24  42  67  98 136 184 229 278 348 413
#     4  12  28  41  62  89 134 179 236 291 347 399
#     4  11  24  45  73 108 142 176 221 285 359 431
#
# _framework density 21.892305
#
# number of rings (size 3 to 8) (size 9 to 14) (size 15 to 20)
#    0.000    1.000    3.750    2.250    5.250    1.000 
#    0.000    1.250    0.000    0.000    0.000    0.000 
#    0.000    0.000    0.000    0.000    0.000    0.000 
#
# Total GULP energy -396782.821050 kJ/mol
# GULP energy per Si atom -12399.463158 kJ/mol
# Density = 2.184248 g / cm^3
# Si number density = 21.892305 Si / 1000 Ang^3
#
#
#
# Elastic Constant Matrix: (Units=GPa)
#
#
# Indices 1 2 3 4 5 6 
#
# 1 103.1322 20.5070 52.2431 0.0000 0.0000 0.0000
# 2 20.5070 93.6464 34.3998 0.0000 0.0000 0.0000
# 3 52.2431 34.3998 155.5571 0.0000 0.0000 0.0000
# 4 0.0000 0.0000 0.0000 31.4661 0.0000 0.0000
# 5 0.0000 0.0000 0.0000 0.0000 16.1918 0.0000
# 6 0.0000 0.0000 0.0000 0.0000 0.0000 28.2692
#
#
#
# Elastic Compliance Matrix: (Units=1/GPa)
#
#
# Indices 1 2 3 4 5 6 
#
# 1 0.011813 -0.001229 -0.003695 0.000000 0.000000 0.000000
# 2 -0.001229 0.011751 -0.002186 0.000000 0.000000 0.000000
# 3 -0.003695 -0.002186 0.008153 0.000000 0.000000 0.000000
# 4 0.000000 0.000000 0.000000 0.031780 0.000000 0.000000
# 5 0.000000 0.000000 0.000000 0.000000 0.061760 0.000000
# 6 0.000000 0.000000 0.000000 0.000000 0.000000 0.035374
#
#
# Mechanical properties :
#
#
# Convention : Reuss Voigt Hill
#
# Bulk Modulus (GPa) = 57.15777 62.95948 60.05862
# Shear Modulus (GPa) = 27.67278 31.53112 29.60195
#
# Velocity S-wave (km/s) = 3.55919 3.79922 3.68117
# Velocity P-wave (km/s) = 6.56169 6.93301 6.74990
#
# Compressibility (1/GPa) = 0.01749543
#
# Stress axis : x y z
#
# Youngs Moduli (GPa) = 84.65475 85.10251 122.65553
#
# Poissons Ratio (x) = 0.10462 0.45326
# Poissons Ratio (y) = 0.10407 0.26808
# Poissons Ratio (z) = 0.31283 0.18600
#
# Static dielectric constant tensor:
#      x y z
#    x 3.607480 0.000000 0.000000 
#    y 0.000000 3.982750 0.000000 
#    z 0.000000 0.000000 4.547460 
# 
# 
# High freq. dielectric constant tensor:
#      x y z
#    x 1.822390 0.000000 0.000000 
#    y 0.000000 1.869100 0.000000 
#    z 0.000000 0.000000 1.881970 
# 
# From -- ./inp_files/21681.got.cif
#   From: 2010.03.12/outbox.cif.g09.slc.cpg/sg40_11_cif.got.tgz:21681.got - 2010.04.14 01:38:03.
