data_PCOD8184833
_publ_section_title
;
Structure prediction by ZEFSAII (Michael W. Deem and Ramdas Pophale) SiO2 
 PCOD8184833
Probable space group: A B A 2
;
_chemical_formula_sum "Si O2"
_cell_formula_units_Z 64
_cell_length_a 21.792567
_cell_length_b 8.510958
_cell_length_c 17.653885
_cell_angle_alpha 90.000000
_cell_angle_beta 90.000000
_cell_angle_gamma 90.000000
_cell_volume 3274.365309
_symmetry_space_group_name_H-M "A B A 2"
_symmetry_group_IT_number 41
_symmetry_cell_setting 'orthorhombic'
loop_
_space_group_symop_operation_xyz
x,y,z
-x,-y,z
1/2-x,y,1/2+z
1/2+x,-y,1/2+z
x,1/2+y,1/2+z
-x,1/2-y,1/2+z
1/2-x,1/2+y,z
1/2+x,1/2-y,z
loop_
_atom_site_type_symbol
_atom_site_label
_atom_site_fract_x
_atom_site_fract_y
_atom_site_fract_z
Si Si1 0.560456 0.077205 0.623040
Si Si2 0.324459 0.625472 0.151999
Si Si3 0.680373 0.373029 0.480049
Si Si4 0.555867 0.102602 0.797337
Si Si5 0.983681 0.177215 0.879013
Si Si6 0.861799 0.333714 0.821622
Si Si7 0.547545 0.365984 0.522403
Si Si8 0.249928 0.379823 0.569732
O O1 0.550071 0.121445 0.708953
O O2 0.571123 0.246238 0.586261
O O3 0.500000 0.000000 0.586930
O O4 0.613552 0.946214 0.616319
O O5 0.330316 0.686907 0.238968
O O6 0.274179 0.486863 0.139970
O O7 0.305429 0.775867 0.102465
O O8 0.686269 0.318282 0.391441
O O9 0.611227 0.438322 0.491722
O O10 0.726264 0.513800 0.500174
O O11 0.695358 0.224632 0.534244
O O12 0.544795 0.273312 0.832461
O O13 0.500000 0.000000 0.831167
O O14 0.617877 0.017166 0.822566
O O15 0.919505 0.212543 0.833087
O O16 0.985474 0.268011 0.957610
O O17 0.000000 0.000000 0.896750
O O18 0.500000 0.500000 0.551964
#
# Coordination Sequence:
#
# PCOD8184833 Si02
#       8
#     8   8   8   8   8   8   8   8
#     4  10  20  35  57  87 115 149 190 242 294 359
#     4  10  21  41  61  86 119 158 198 242 306 346
#     4  10  21  40  58  87 113 155 202 243 301 347
#     4   8  16  34  53  75 115 152 179 227 297 345
#     4  10  19  35  53  82 121 155 191 238 299 354
#     4   9  19  37  61  82 115 156 197 242 289 363
#     4  11  22  36  57  86 119 152 196 244 299 365
#     4  10  22  40  62  80 121 158 196 257 291 354
#
# _framework density 19.545773000000001
#
# number of rings (size 3 to 8) (size 9 to 14) (size 15 to 20)
#    0.000    2.250    1.250    3.000    1.750    1.500 
#    4.500    0.000    0.000    0.000    0.000    0.000 
#    0.000    0.000    0.000    0.000    0.000    0.000 
#
# Total GULP energy -396421.255373 kJ/mol
# GULP energy per Si atom -12388.164230 kJ/mol
# Density = 1.950129 g / cm^3
# Si number density = 19.545773 Si / 1000 Ang^3
#
#
#
# Elastic Constant Matrix: (Units=GPa)
#
#
# Indices 1 2 3 4 5 6 
#
# 1 75.8514 33.0088 26.9186 0.0000 0.0000 0.0000
# 2 33.0088 76.8913 38.4646 0.0000 0.0000 0.0000
# 3 26.9186 38.4646 94.8704 0.0000 0.0000 0.0000
# 4 0.0000 0.0000 0.0000 23.9279 0.0000 0.0000
# 5 0.0000 0.0000 0.0000 0.0000 31.3990 0.0000
# 6 0.0000 0.0000 0.0000 0.0000 0.0000 28.1488
#
#
#
# Elastic Compliance Matrix: (Units=1/GPa)
#
#
# Indices 1 2 3 4 5 6 
#
# 1 0.016598 -0.005983 -0.002284 0.000000 0.000000 0.000000
# 2 -0.005983 0.018471 -0.005791 0.000000 0.000000 0.000000
# 3 -0.002284 -0.005791 0.013537 0.000000 0.000000 0.000000
# 4 0.000000 0.000000 0.000000 0.041792 0.000000 0.000000
# 5 0.000000 0.000000 0.000000 0.000000 0.031848 0.000000
# 6 0.000000 0.000000 0.000000 0.000000 0.000000 0.035525
#
#
# Mechanical properties :
#
#
# Convention : Reuss Voigt Hill
#
# Bulk Modulus (GPa) = 48.80542 49.37744 49.09143
# Shear Modulus (GPa) = 25.94481 26.64321 26.29401
#
# Velocity S-wave (km/s) = 3.64729 3.69605 3.67175
# Velocity P-wave (km/s) = 6.53918 6.59785 6.56858
#
# Compressibility (1/GPa) = 0.02048953
#
# Stress axis : x y z
#
# Youngs Moduli (GPa) = 60.24918 54.13942 73.87307
#
# Poissons Ratio (x) = 0.32391 0.16871
# Poissons Ratio (y) = 0.36046 0.42782
# Poissons Ratio (z) = 0.13759 0.31354
#
# Static dielectric constant tensor:
#      x y z
#    x 3.524810 0.000000 0.000000 
#    y 0.000000 3.562360 0.000000 
#    z 0.000000 0.000000 3.614890 
# 
# 
# High freq. dielectric constant tensor:
#      x y z
#    x 1.747140 0.000000 0.000000 
#    y 0.000000 1.752400 0.000000 
#    z 0.000000 0.000000 1.762730 
# 
# From -- ./inp_files/10693.got.cif
#   From: 2010.03.12/outbox.cif.g09.slc.cpg/sg41_6_cif.got.tgz:10693.got - 2010.04.14 01:55:53.
