data_PCOD8184368
_publ_section_title
;
Structure prediction by ZEFSAII (Michael W. Deem and Ramdas Pophale) SiO2 
 PCOD8184368
Probable space group: A M A 2
;
_chemical_formula_sum "Si O2"
_cell_formula_units_Z 48
_cell_length_a 9.229619
_cell_length_b 27.587581
_cell_length_c 9.614868
_cell_angle_alpha 90.000000
_cell_angle_beta 90.000000
_cell_angle_gamma 90.000000
_cell_volume 2448.165206
_symmetry_space_group_name_H-M "A M A 2"
_symmetry_group_IT_number 40
_symmetry_cell_setting 'orthorhombic'
loop_
_space_group_symop_operation_xyz
x,y,z
-x,-y,z
1/2-x,y,z
1/2+x,-y,z
x,1/2+y,1/2+z
-x,1/2-y,1/2+z
1/2-x,1/2+y,1/2+z
1/2+x,1/2-y,1/2+z
loop_
_atom_site_type_symbol
_atom_site_label
_atom_site_fract_x
_atom_site_fract_y
_atom_site_fract_z
Si Si1 0.416104 0.402856 0.284100
Si Si2 0.913412 0.455135 0.057954
Si Si3 0.579860 0.287076 0.899616
Si Si4 0.582566 0.550249 0.575191
Si Si5 0.420472 0.796578 0.689757
Si Si6 0.413260 0.609587 0.798806
O O1 0.250000 0.410134 0.238693
O O2 0.513806 0.441127 0.203034
O O3 0.438094 0.413710 0.446068
O O4 0.468022 0.348568 0.250165
O O5 0.750000 0.471622 0.088231
O O6 0.000000 0.500000 0.990430
O O7 0.920073 0.409959 0.955367
O O8 0.750000 0.286631 0.932749
O O9 0.530907 0.241864 0.806179
O O10 0.538054 0.334646 0.809969
O O11 0.497799 0.284910 0.045362
O O12 0.500000 0.500000 0.551694
O O13 0.750000 0.537757 0.602243
O O14 0.523026 0.579246 0.706537
O O15 0.250000 0.793746 0.662550
O O16 0.250000 0.604617 0.738648
#
# Coordination Sequence:
#
# PCOD8184368 Si02
#       6
#     8   8   8   8   8   8
#     4  10  22  40  60  87 121 156 198 246 295 352
#     4  11  22  37  60  88 116 154 196 243 298 353
#     4  10  22  41  63  91 125 157 198 247 296 355
#     4  11  24  40  60  88 120 160 202 247 298 354
#     4  10  22  40  63  91 123 158 198 245 298 355
#     4  10  22  40  60  87 121 157 198 246 295 351
#
# _framework density 19.606521999999998
#
# number of rings (size 3 to 8) (size 9 to 14) (size 15 to 20)
#    0.000    1.667    1.667    2.000    2.333    6.667 
#    0.000    0.000    0.000    0.000    0.000    0.000 
#    0.000    0.000    0.000    0.000    0.000    0.000 
#
# Total GULP energy -297703.031303 kJ/mol
# GULP energy per Si atom -12404.292971 kJ/mol
# Density = 1.956190 g / cm^3
# Si number density = 19.606522 Si / 1000 Ang^3
#
#
#
# Elastic Constant Matrix: (Units=GPa)
#
#
# Indices 1 2 3 4 5 6 
#
# 1 95.9603 49.8460 52.3395 0.0000 0.0000 0.0000
# 2 49.8460 125.2711 46.3355 0.0000 0.0000 0.0000
# 3 52.3395 46.3355 101.6171 0.0000 0.0000 0.0000
# 4 0.0000 0.0000 0.0000 36.0140 0.0000 0.0000
# 5 0.0000 0.0000 0.0000 0.0000 32.3675 0.0000
# 6 0.0000 0.0000 0.0000 0.0000 0.0000 24.3453
#
#
#
# Elastic Compliance Matrix: (Units=1/GPa)
#
#
# Indices 1 2 3 4 5 6 
#
# 1 0.015995 -0.003990 -0.006419 0.000000 0.000000 0.000000
# 2 -0.003990 0.010598 -0.002777 0.000000 0.000000 0.000000
# 3 -0.006419 -0.002777 0.014413 0.000000 0.000000 0.000000
# 4 0.000000 0.000000 0.000000 0.027767 0.000000 0.000000
# 5 0.000000 0.000000 0.000000 0.000000 0.030895 0.000000
# 6 0.000000 0.000000 0.000000 0.000000 0.000000 0.041076
#
#
# Mechanical properties :
#
#
# Convention : Reuss Voigt Hill
#
# Bulk Modulus (GPa) = 68.33724 68.87673 68.60699
# Shear Modulus (GPa) = 29.07085 30.16718 29.61902
#
# Velocity S-wave (km/s) = 3.85478 3.92679 3.89095
# Velocity P-wave (km/s) = 7.39881 7.46762 7.43330
#
# Compressibility (1/GPa) = 0.01463331
#
# Stress axis : x y z
#
# Youngs Moduli (GPa) = 62.52078 94.36109 69.38020
#
# Poissons Ratio (x) = 0.37651 0.44534
# Poissons Ratio (y) = 0.24947 0.19268
# Poissons Ratio (z) = 0.40131 0.26205
#
# Static dielectric constant tensor:
#      x y z
#    x 3.639300 0.000000 0.000000 
#    y 0.000000 3.784220 0.000000 
#    z 0.000000 0.000000 3.389020 
# 
# 
# High freq. dielectric constant tensor:
#      x y z
#    x 1.763890 0.000000 0.000000 
#    y 0.000000 1.779540 0.000000 
#    z 0.000000 0.000000 1.763060 
# 
# From -- ./inp_files/4581.got.cif
#   From: 2010.03.12/outbox.cif.g09.slc.cpg/sg40_3_cif.got.tgz:4581.got - 2010.04.14 01:38:03.
