data_PCOD8184787
_publ_section_title
;
Structure prediction by ZEFSAII (Michael W. Deem and Ramdas Pophale) SiO2 
 PCOD8184787
Probable space group: A B A 2
;
_chemical_formula_sum "Si O2"
_cell_formula_units_Z 60
_cell_length_a 12.386278
_cell_length_b 17.825637
_cell_length_c 13.914208
_cell_angle_alpha 90.000000
_cell_angle_beta 90.000000
_cell_angle_gamma 90.000000
_cell_volume 3072.163837
_symmetry_space_group_name_H-M "A B A 2"
_symmetry_group_IT_number 41
_symmetry_cell_setting 'orthorhombic'
loop_
_space_group_symop_operation_xyz
x,y,z
-x,-y,z
1/2-x,y,1/2+z
1/2+x,-y,1/2+z
x,1/2+y,1/2+z
-x,1/2-y,1/2+z
1/2-x,1/2+y,z
1/2+x,1/2-y,z
loop_
_atom_site_type_symbol
_atom_site_label
_atom_site_fract_x
_atom_site_fract_y
_atom_site_fract_z
Si Si1 0.072942 0.206863 0.338050
Si Si2 0.817326 0.443924 0.810814
Si Si3 0.599622 0.443669 0.106809
Si Si4 0.497860 0.285137 0.128682
Si Si5 0.171276 0.327752 0.478212
Si Si6 0.623726 0.006626 0.415642
Si Si7 0.000000 0.000000 0.452025
Si Si8 0.923336 0.654288 0.000786
O O1 0.166768 0.145681 0.318142
O O2 0.006152 0.229963 0.242433
O O3 0.133335 0.273466 0.392464
O O4 0.976364 0.173285 0.399573
O O5 0.835386 0.468272 0.700739
O O6 0.697205 0.473857 0.830559
O O7 0.899385 0.483756 0.882903
O O8 0.500000 0.500000 0.099677
O O9 0.573186 0.355803 0.105053
O O10 0.663674 0.458080 0.008177
O O11 0.381009 0.305032 0.081847
O O12 0.535076 0.206914 0.084851
O O13 0.136033 0.407381 0.440577
O O14 0.297779 0.329422 0.493080
O O15 0.500000 0.000000 0.383487
O O16 0.959969 0.068099 0.520997
#
# Coordination Sequence:
#
# PCOD8184787 Si02
#       8
#     8   8   8   8   8   8   4   8
#     4   9  23  39  63  91 124 163 210 263 310 381
#     4  10  20  37  64  91 120 159 211 261 307 367
#     4  10  19  37  66  89 115 162 212 251 299 378
#     4  10  21  41  60  92 122 159 212 255 310 382
#     4  11  21  39  63  89 122 169 201 260 320 368
#     4  11  22  37  63  91 126 160 208 257 311 375
#     4  10  18  38  62  92 122 160 212 262 308 364
#     4  10  22  37  64  92 125 160 211 259 315 376
#
# _framework density 19.530207999999998
#
# number of rings (size 3 to 8) (size 9 to 14) (size 15 to 20)
#    0.000    1.867    4.667    0.000    1.867    1.067 
#    2.400    1.333    2.933    0.000    0.000    0.000 
#    0.000    0.000    0.000    0.000    0.000    0.000 
#
# Total GULP energy -371732.232588 kJ/mol
# GULP energy per Si atom -12391.074420 kJ/mol
# Density = 1.948576 g / cm^3
# Si number density = 19.530208 Si / 1000 Ang^3
#
#
#
# Elastic Constant Matrix: (Units=GPa)
#
#
# Indices 1 2 3 4 5 6 
#
# 1 117.2863 32.9035 33.3531 0.0000 0.0000 0.0000
# 2 32.9035 106.0965 47.0680 0.0000 0.0000 0.0000
# 3 33.3531 47.0680 77.6476 0.0000 0.0000 0.0000
# 4 0.0000 0.0000 0.0000 23.5701 0.0000 0.0000
# 5 0.0000 0.0000 0.0000 0.0000 19.4657 0.0000
# 6 0.0000 0.0000 0.0000 0.0000 0.0000 23.2380
#
#
#
# Elastic Compliance Matrix: (Units=1/GPa)
#
#
# Indices 1 2 3 4 5 6 
#
# 1 0.009912 -0.001621 -0.003275 0.000000 0.000000 0.000000
# 2 -0.001621 0.013158 -0.007279 0.000000 0.000000 0.000000
# 3 -0.003275 -0.007279 0.018698 0.000000 0.000000 0.000000
# 4 0.000000 0.000000 0.000000 0.042427 0.000000 0.000000
# 5 0.000000 0.000000 0.000000 0.000000 0.051372 0.000000
# 6 0.000000 0.000000 0.000000 0.000000 0.000000 0.043033
#
#
# Mechanical properties :
#
#
# Convention : Reuss Voigt Hill
#
# Bulk Modulus (GPa) = 57.41631 58.63105 58.02368
# Shear Modulus (GPa) = 23.95134 25.76850 24.85992
#
# Velocity S-wave (km/s) = 3.50576 3.63632 3.57164
# Velocity P-wave (km/s) = 6.77124 6.90770 6.83981
#
# Compressibility (1/GPa) = 0.01741665
#
# Stress axis : x y z
#
# Youngs Moduli (GPa) = 100.88490 76.00210 53.48139
#
# Poissons Ratio (x) = 0.12321 0.17516
# Poissons Ratio (y) = 0.16355 0.38931
# Poissons Ratio (z) = 0.33041 0.55325
#
# Static dielectric constant tensor:
#      x y z
#    x 3.263710 0.000000 0.000000 
#    y 0.000000 3.852760 0.000000 
#    z 0.000000 0.000000 3.786210 
# 
# 
# High freq. dielectric constant tensor:
#      x y z
#    x 1.749130 0.000000 0.000000 
#    y 0.000000 1.776840 0.000000 
#    z 0.000000 0.000000 1.756570 
# 
# From -- ./inp_files/8054.got.cif
#   From: 2010.03.12/outbox.cif.g09.slc.cpg/sg41_5_cif.got.tgz:8054.got - 2010.04.14 01:55:53.
