data_PCOD8184395
_publ_section_title
;
Structure prediction by ZEFSAII (Michael W. Deem and Ramdas Pophale) SiO2 
 PCOD8184395
Probable space group: A M A 2
;
_chemical_formula_sum "Si O2"
_cell_formula_units_Z 64
_cell_length_a 14.981411
_cell_length_b 18.210586
_cell_length_c 11.398373
_cell_angle_alpha 90.000000
_cell_angle_beta 90.000000
_cell_angle_gamma 90.000000
_cell_volume 3109.707238
_symmetry_space_group_name_H-M "A M A 2"
_symmetry_group_IT_number 40
_symmetry_cell_setting 'orthorhombic'
loop_
_space_group_symop_operation_xyz
x,y,z
-x,-y,z
1/2-x,y,z
1/2+x,-y,z
x,1/2+y,1/2+z
-x,1/2-y,1/2+z
1/2-x,1/2+y,1/2+z
1/2+x,1/2-y,1/2+z
loop_
_atom_site_type_symbol
_atom_site_label
_atom_site_fract_x
_atom_site_fract_y
_atom_site_fract_z
Si Si1 0.146452 0.353597 0.212520
Si Si2 0.648732 0.626577 0.781650
Si Si3 0.151586 0.209482 0.747840
Si Si4 0.083184 0.208850 0.491766
Si Si5 0.998009 0.648555 0.395241
Si Si6 0.950837 0.576754 0.004482
Si Si7 0.150261 0.688579 0.741675
Si Si8 0.004321 0.583601 0.632187
O O1 0.250000 0.363547 0.243365
O O2 0.124664 0.267564 0.183731
O O3 0.089827 0.377599 0.326119
O O4 0.121630 0.406419 0.105161
O O5 0.750000 0.599100 0.762040
O O6 0.646386 0.712524 0.815251
O O7 0.601976 0.578032 0.881975
O O8 0.592437 0.617494 0.662159
O O9 0.250000 0.175183 0.766895
O O10 0.138343 0.223440 0.609640
O O11 0.079211 0.154800 0.803073
O O12 0.149450 0.197628 0.382284
O O13 0.016404 0.275611 0.464633
O O14 0.027239 0.136293 0.510658
O O15 0.022119 0.588126 0.492984
O O16 0.000000 0.500000 0.024643
O O17 0.250000 0.665263 0.703093
O O18 0.081515 0.626314 0.702472
O O19 0.000000 0.500000 0.673717
#
# Coordination Sequence:
#
# PCOD8184395 Si02
#       8
#     8   8   8   8   8   8   8   8
#     4  10  22  42  69  96 122 164 218 269 323 383
#     4  11  23  40  63  93 125 165 213 264 318 383
#     4  11  22  39  67  97 125 163 216 275 325 375
#     4  11  20  40  65  93 127 158 213 265 317 377
#     4  11  22  40  66  90 127 169 213 265 318 378
#     4  12  23  39  64  92 129 172 208 261 330 382
#     4  10  22  40  68  97 126 163 214 273 321 377
#     4  12  25  42  61  90 129 173 213 254 318 387
#
# _framework density 20.580717
#
# number of rings (size 3 to 8) (size 9 to 14) (size 15 to 20)
#    0.000    1.000    5.000    2.625    0.000    2.500 
#    0.000    1.875    0.000    0.000    0.000    0.000 
#    0.000    0.000    0.000    0.000    0.000    0.000 
#
# Total GULP energy -396847.495266 kJ/mol
# GULP energy per Si atom -12401.484227 kJ/mol
# Density = 2.053387 g / cm^3
# Si number density = 20.580717 Si / 1000 Ang^3
#
#
#
# Elastic Constant Matrix: (Units=GPa)
#
#
# Indices 1 2 3 4 5 6 
#
# 1 141.4882 38.3272 50.2594 0.0000 0.0000 0.0000
# 2 38.3272 65.3485 29.6090 0.0000 0.0000 0.0000
# 3 50.2594 29.6090 118.2166 0.0000 0.0000 0.0000
# 4 0.0000 0.0000 0.0000 13.9631 0.0000 0.0000
# 5 0.0000 0.0000 0.0000 0.0000 19.9694 0.0000
# 6 0.0000 0.0000 0.0000 0.0000 0.0000 22.9877
#
#
#
# Elastic Compliance Matrix: (Units=1/GPa)
#
#
# Indices 1 2 3 4 5 6 
#
# 1 0.009201 -0.004088 -0.002888 0.000000 0.000000 0.000000
# 2 -0.004088 0.019078 -0.003040 0.000000 0.000000 0.000000
# 3 -0.002888 -0.003040 0.010448 0.000000 0.000000 0.000000
# 4 0.000000 0.000000 0.000000 0.071618 0.000000 0.000000
# 5 0.000000 0.000000 0.000000 0.000000 0.050077 0.000000
# 6 0.000000 0.000000 0.000000 0.000000 0.000000 0.043501
#
#
# Mechanical properties :
#
#
# Convention : Reuss Voigt Hill
#
# Bulk Modulus (GPa) = 53.49099 62.38272 57.93686
# Shear Modulus (GPa) = 21.72155 25.17456 23.44805
#
# Velocity S-wave (km/s) = 3.25227 3.50124 3.37905
# Velocity P-wave (km/s) = 6.33642 6.83534 6.59061
#
# Compressibility (1/GPa) = 0.01869474
#
# Stress axis : x y z
#
# Youngs Moduli (GPa) = 108.68493 52.41723 95.70927
#
# Poissons Ratio (x) = 0.21428 0.27640
# Poissons Ratio (y) = 0.44429 0.29099
# Poissons Ratio (z) = 0.31387 0.15937
#
# Static dielectric constant tensor:
#      x y z
#    x 3.767440 0.000000 0.000000 
#    y 0.000000 3.513380 0.000000 
#    z 0.000000 0.000000 3.829280 
# 
# 
# High freq. dielectric constant tensor:
#      x y z
#    x 1.811640 0.000000 0.000000 
#    y 0.000000 1.777440 0.000000 
#    z 0.000000 0.000000 1.809570 
# 
# From -- ./inp_files/12470.got.cif
#   From: 2010.03.12/outbox.cif.g09.slc.cpg/sg40_7_cif.got.tgz:12470.got - 2010.04.14 01:38:03.
