data_PCOD8184349
_publ_section_title
;
Structure prediction by ZEFSAII (Michael W. Deem and Ramdas Pophale) SiO2 
 PCOD8184349
Probable space group: A M A 2
;
_chemical_formula_sum "Si O2"
_cell_formula_units_Z 56
_cell_length_a 18.710811
_cell_length_b 15.879624
_cell_length_c 9.643672
_cell_angle_alpha 90.000000
_cell_angle_beta 90.000000
_cell_angle_gamma 90.000000
_cell_volume 2865.334030
_symmetry_space_group_name_H-M "A M A 2"
_symmetry_group_IT_number 40
_symmetry_cell_setting 'orthorhombic'
loop_
_space_group_symop_operation_xyz
x,y,z
-x,-y,z
1/2-x,y,z
1/2+x,-y,z
x,1/2+y,1/2+z
-x,1/2-y,1/2+z
1/2-x,1/2+y,1/2+z
1/2+x,1/2-y,1/2+z
loop_
_atom_site_type_symbol
_atom_site_label
_atom_site_fract_x
_atom_site_fract_y
_atom_site_fract_z
Si Si1 0.331123 0.914889 0.617340
Si Si2 0.332566 0.228618 0.206196
Si Si3 0.571460 0.036724 0.852720
Si Si4 0.908666 0.428001 0.623871
Si Si5 0.445553 0.268767 0.415386
Si Si6 0.958187 0.675090 0.706539
Si Si7 0.665222 0.062647 0.302197
O O1 0.250000 0.933598 0.651043
O O2 0.347842 0.816158 0.630052
O O3 0.371436 0.970362 0.730894
O O4 0.351806 0.943630 0.464367
O O5 0.250000 0.211192 0.235561
O O6 0.366223 0.159608 0.103006
O O7 0.373136 0.227291 0.354924
O O8 0.557015 0.131307 0.898643
O O9 0.500000 0.000000 0.786651
O O10 0.595477 0.981364 0.983906
O O11 0.864789 0.475780 0.742813
O O12 0.990353 0.405278 0.668670
O O13 0.453485 0.256733 0.580949
O O14 0.512982 0.226378 0.338908
O O15 0.878767 0.640444 0.736456
O O16 0.750000 0.075193 0.271914
#
# Coordination Sequence:
#
# PCOD8184349 Si02
#       7
#     8   8   8   8   8   8   8
#     4   9  22  40  58  85 121 159 199 244 305 368
#     4   9  20  39  63  88 119 162 202 242 300 366
#     4  11  20  37  61  90 117 152 205 253 296 359
#     4  11  21  39  63  91 123 155 203 256 299 365
#     4  10  22  38  61  87 120 158 201 254 295 365
#     4  11  23  40  63  90 122 162 208 254 308 368
#     4  11  23  39  61  89 124 160 199 251 310 367
#
# _framework density 19.543969000000001
#
# number of rings (size 3 to 8) (size 9 to 14) (size 15 to 20)
#    0.000    1.714    2.857    0.857    6.000    2.857 
#    2.571    0.000    0.000    0.857    0.000    0.000 
#    0.000    0.000    0.000    0.000    0.000    0.000 
#
# Total GULP energy -347155.325296 kJ/mol
# GULP energy per Si atom -12398.404475 kJ/mol
# Density = 1.949949 g / cm^3
# Si number density = 19.543969 Si / 1000 Ang^3
#
#
#
# Elastic Constant Matrix: (Units=GPa)
#
#
# Indices 1 2 3 4 5 6 
#
# 1 128.8435 46.6809 66.6710 0.0000 0.0000 0.0000
# 2 46.6809 78.6026 61.8221 0.0000 0.0000 0.0000
# 3 66.6710 61.8221 132.1160 0.0000 0.0000 0.0000
# 4 0.0000 0.0000 0.0000 31.8145 0.0000 0.0000
# 5 0.0000 0.0000 0.0000 0.0000 29.1711 0.0000
# 6 0.0000 0.0000 0.0000 0.0000 0.0000 32.7749
#
#
#
# Elastic Compliance Matrix: (Units=1/GPa)
#
#
# Indices 1 2 3 4 5 6 
#
# 1 0.011065 -0.003449 -0.003970 0.000000 0.000000 0.000000
# 2 -0.003449 0.021206 -0.008183 0.000000 0.000000 0.000000
# 3 -0.003970 -0.008183 0.013402 0.000000 0.000000 0.000000
# 4 0.000000 0.000000 0.000000 0.031432 0.000000 0.000000
# 5 0.000000 0.000000 0.000000 0.000000 0.034280 0.000000
# 6 0.000000 0.000000 0.000000 0.000000 0.000000 0.030511
#
#
# Mechanical properties :
#
#
# Convention : Reuss Voigt Hill
#
# Bulk Modulus (GPa) = 69.11040 76.65668 72.88354
# Shear Modulus (GPa) = 28.10188 29.71130 28.90659
#
# Velocity S-wave (km/s) = 3.79605 3.90324 3.85002
# Velocity P-wave (km/s) = 7.39267 7.72150 7.55887
#
# Compressibility (1/GPa) = 0.01446960
#
# Stress axis : x y z
#
# Youngs Moduli (GPa) = 90.37262 47.15558 74.61802
#
# Poissons Ratio (x) = 0.16264 0.29624
# Poissons Ratio (y) = 0.31169 0.61058
# Poissons Ratio (z) = 0.35879 0.38586
#
# Static dielectric constant tensor:
#      x y z
#    x 3.788590 0.000000 0.000000 
#    y 0.000000 3.621840 0.000000 
#    z 0.000000 0.000000 3.691680 
# 
# 
# High freq. dielectric constant tensor:
#      x y z
#    x 1.768890 0.000000 0.000000 
#    y 0.000000 1.759530 0.000000 
#    z 0.000000 0.000000 1.758030 
# 
# From -- ./inp_files/8332.got.cif
#   From: 2010.03.12/outbox.cif.g09.slc.cpg/sg40_5_cif.got.tgz:8332.got - 2010.04.14 01:38:03.
