data_PCOD8184177
_publ_section_title
;
Structure prediction by ZEFSAII (Michael W. Deem and Ramdas Pophale) SiO2 
 PCOD8184177
Probable space group: A M A 2
;
_chemical_formula_sum "Si O2"
_cell_formula_units_Z 48
_cell_length_a 14.438394
_cell_length_b 18.906379
_cell_length_c 8.782740
_cell_angle_alpha 90.000000
_cell_angle_beta 90.000000
_cell_angle_gamma 90.000000
_cell_volume 2397.492596
_symmetry_space_group_name_H-M "A M A 2"
_symmetry_group_IT_number 40
_symmetry_cell_setting 'orthorhombic'
loop_
_space_group_symop_operation_xyz
x,y,z
-x,-y,z
1/2-x,y,z
1/2+x,-y,z
x,1/2+y,1/2+z
-x,1/2-y,1/2+z
1/2-x,1/2+y,1/2+z
1/2+x,1/2-y,1/2+z
loop_
_atom_site_type_symbol
_atom_site_label
_atom_site_fract_x
_atom_site_fract_y
_atom_site_fract_z
Si Si1 0.568252 0.201168 0.324760
Si Si2 0.750000 0.912650 0.140801
Si Si3 0.064022 0.675314 0.562252
Si Si4 0.438013 0.438478 0.017237
Si Si5 0.750000 0.153069 0.199981
Si Si6 0.250000 0.982795 0.412788
Si Si7 0.250000 0.447702 0.439170
Si Si8 0.452365 0.429588 0.356572
O O1 0.585293 0.261896 0.446953
O O2 0.479527 0.210206 0.214641
O O3 0.556005 0.126746 0.405866
O O4 0.660640 0.201732 0.224170
O O5 0.841956 0.865999 0.107542
O O6 0.750000 0.943657 0.314213
O O7 0.750000 0.979273 0.030240
O O8 0.986232 0.628332 0.477372
O O9 0.500000 0.500000 0.944467
O O10 0.479153 0.413861 0.181215
O O11 0.337259 0.475186 0.024608
O O12 0.750000 0.083899 0.302953
O O13 0.750000 0.125299 0.030604
O O14 0.342847 0.442062 0.342449
O O15 0.500000 0.500000 0.417804
#
# Coordination Sequence:
#
# PCOD8184177 Si02
#       8
#     8   4   8   8   4   4   4   8
#     4  11  23  41  62  89 125 169 215 262 316 383
#     4  11  23  38  66  96 127 166 215 265 321 390
#     4  12  24  41  63  91 130 173 217 266 322 385
#     4  10  21  38  62  92 126 160 207 260 316 371
#     4   9  19  36  61  86 118 156 206 259 312 365
#     4   9  19  36  60  90 121 160 202 263 309 374
#     4  11  19  38  63  98 122 156 213 261 316 383
#     4  11  22  37  63  95 128 166 206 266 319 379
#
# _framework density 20.020918000000002
#
# number of rings (size 3 to 8) (size 9 to 14) (size 15 to 20)
#    0.000    1.333    3.333    3.000    0.000    0.667 
#    0.000    3.333    0.000    0.000    0.000    0.000 
#    0.000    0.000    0.000    0.000    0.000    0.000 
#
# Total GULP energy -297430.308024 kJ/mol
# GULP energy per Si atom -12392.929501 kJ/mol
# Density = 1.997535 g / cm^3
# Si number density = 20.020918 Si / 1000 Ang^3
#
#
#
# Elastic Constant Matrix: (Units=GPa)
#
#
# Indices 1 2 3 4 5 6 
#
# 1 122.3268 35.2279 18.5623 0.0000 0.0000 0.0000
# 2 35.2279 82.4044 31.7031 0.0000 0.0000 0.0000
# 3 18.5623 31.7031 77.5637 0.0000 0.0000 0.0000
# 4 0.0000 0.0000 0.0000 33.6655 0.0000 0.0000
# 5 0.0000 0.0000 0.0000 0.0000 0.8130 0.0000
# 6 0.0000 0.0000 0.0000 0.0000 0.0000 24.2308
#
#
#
# Elastic Compliance Matrix: (Units=1/GPa)
#
#
# Indices 1 2 3 4 5 6 
#
# 1 0.009356 -0.003724 -0.000717 0.000000 0.000000 0.000000
# 2 -0.003724 0.015882 -0.005600 0.000000 0.000000 0.000000
# 3 -0.000717 -0.005600 0.015353 0.000000 0.000000 0.000000
# 4 0.000000 0.000000 0.000000 0.029704 0.000000 0.000000
# 5 0.000000 0.000000 0.000000 0.000000 1.230037 0.000000
# 6 0.000000 0.000000 0.000000 0.000000 0.000000 0.041270
#
#
# Mechanical properties :
#
#
# Convention : Reuss Voigt Hill
#
# Bulk Modulus (GPa) = 48.75947 50.36459 49.56203
# Shear Modulus (GPa) = 3.65358 24.86198 14.25778
#
# Velocity S-wave (km/s) = 1.35235 3.52774 2.67150
# Velocity P-wave (km/s) = 5.18127 6.46559 5.85873
#
# Compressibility (1/GPa) = 0.02050884
#
# Stress axis : x y z
#
# Youngs Moduli (GPa) = 106.88302 62.96520 65.13279
#
# Poissons Ratio (x) = 0.23447 0.04670
# Poissons Ratio (y) = 0.39802 0.36476
# Poissons Ratio (z) = 0.07663 0.35262
#
# Static dielectric constant tensor:
#      x y z
#    x 3.909700 0.000000 0.000000 
#    y 0.000000 3.560480 0.000000 
#    z 0.000000 0.000000 3.527890 
# 
# 
# High freq. dielectric constant tensor:
#      x y z
#    x 1.794380 0.000000 0.000000 
#    y 0.000000 1.772980 0.000000 
#    z 0.000000 0.000000 1.781990 
# 
# From -- ./inp_files/6505.got.cif
#   From: 2010.03.12/outbox.cif.g09.slc.cpg/sg40_4_cif.got.tgz:6505.got - 2010.04.14 01:38:03.
