data_PCOD8184591
_publ_section_title
;
Structure prediction by ZEFSAII (Michael W. Deem and Ramdas Pophale) SiO2 
 PCOD8184591
Probable space group: A M A 2
;
_chemical_formula_sum "Si O2"
_cell_formula_units_Z 64
_cell_length_a 9.095044
_cell_length_b 22.434219
_cell_length_c 20.359641
_cell_angle_alpha 90.000000
_cell_angle_beta 90.000000
_cell_angle_gamma 90.000000
_cell_volume 4154.185403
_symmetry_space_group_name_H-M "A M A 2"
_symmetry_group_IT_number 40
_symmetry_cell_setting 'orthorhombic'
loop_
_space_group_symop_operation_xyz
x,y,z
-x,-y,z
1/2-x,y,z
1/2+x,-y,z
x,1/2+y,1/2+z
-x,1/2-y,1/2+z
1/2-x,1/2+y,1/2+z
1/2+x,1/2-y,1/2+z
loop_
_atom_site_type_symbol
_atom_site_label
_atom_site_fract_x
_atom_site_fract_y
_atom_site_fract_z
Si Si1 0.911112 0.832216 0.956900
Si Si2 0.586177 0.248544 0.331169
Si Si3 0.913954 0.841065 0.406236
Si Si4 0.925939 0.366846 0.104229
Si Si5 0.090103 0.244657 0.528945
Si Si6 0.574845 0.937532 0.870499
Si Si7 0.575578 0.358201 0.252465
Si Si8 0.426978 0.936747 0.490041
O O1 0.750000 0.845314 0.984621
O O2 0.903222 0.785231 0.898249
O O3 0.978952 0.893843 0.929211
O O4 0.998624 0.805071 0.018662
O O5 0.750000 0.226817 0.311335
O O6 0.484147 0.190245 0.341580
O O7 0.517559 0.292746 0.275447
O O8 0.750000 0.865484 0.389365
O O9 0.899732 0.791493 0.461694
O O10 0.020022 0.893693 0.431332
O O11 0.750000 0.375158 0.093257
O O12 0.975783 0.299924 0.083825
O O13 0.975569 0.375317 0.179400
O O14 0.013482 0.414515 0.060663
O O15 0.250000 0.265991 0.552000
O O16 0.750000 0.944015 0.870710
O O17 0.519412 0.910158 0.801094
O O18 0.500000 0.000000 0.882766
O O19 0.750000 0.354213 0.257237
O O20 0.250000 0.940290 0.491169
O O21 0.500000 0.000000 0.475580
#
# Coordination Sequence:
#
# PCOD8184591 Si02
#       8
#     8   8   8   8   8   8   8   8
#     4   8  14  24  38  54  74  98 127 162 202 242
#     4   8  13  24  42  61  78 103 135 165 200 244
#     4   9  16  27  42  61  82 103 129 168 213 252
#     4   9  17  30  44  60  84 113 142 173 205 241
#     4   8  14  23  38  58  77  98 128 164 204 241
#     4   9  17  28  40  56  77 106 139 169 199 233
#     4   8  15  28  44  59  82 114 144 170 200 240
#     4  11  21  32  44  59  81 111 145 179 211 249
#
# _framework density 15.406148999999999
#
# number of rings (size 3 to 8) (size 9 to 14) (size 15 to 20)
#    0.000    3.250    0.000    3.750    0.000    4.000 
#    0.000    4.375    0.000    0.000    0.000    0.000 
#    0.000    1.000    0.000    4.250    0.000    4.125 
#
# Total GULP energy -396468.980446 kJ/mol
# GULP energy per Si atom -12389.655639 kJ/mol
# Density = 1.537108 g / cm^3
# Si number density = 15.406149 Si / 1000 Ang^3
#
#
#
# Elastic Constant Matrix: (Units=GPa)
#
#
# Indices 1 2 3 4 5 6 
#
# 1 68.3377 40.9678 15.2412 0.0000 0.0000 0.0000
# 2 40.9678 99.9644 33.6443 0.0000 0.0000 0.0000
# 3 15.2412 33.6443 13.1380 0.0000 0.0000 0.0000
# 4 0.0000 0.0000 0.0000 15.4234 0.0000 0.0000
# 5 0.0000 0.0000 0.0000 0.0000 14.3087 0.0000
# 6 0.0000 0.0000 0.0000 0.0000 0.0000 25.7784
#
#
#
# Elastic Compliance Matrix: (Units=1/GPa)
#
#
# Indices 1 2 3 4 5 6 
#
# 1 0.019847 -0.002785 -0.015891 0.000000 0.000000 0.000000
# 2 -0.002785 0.072816 -0.183239 0.000000 0.000000 0.000000
# 3 -0.015891 -0.183239 0.563792 0.000000 0.000000 0.000000
# 4 0.000000 0.000000 0.000000 0.064836 0.000000 0.000000
# 5 0.000000 0.000000 0.000000 0.000000 0.069888 0.000000
# 6 0.000000 0.000000 0.000000 0.000000 0.000000 0.038792
#
#
# Mechanical properties :
#
#
# Convention : Reuss Voigt Hill
#
# Bulk Modulus (GPa) = 3.95843 40.12739 22.04291
# Shear Modulus (GPa) = 3.79359 17.20791 10.50075
#
# Velocity S-wave (km/s) = 1.57090 3.34571 2.61357
# Velocity P-wave (km/s) = 2.42183 6.40530 4.84217
#
# Compressibility (1/GPa) = 0.25262518
#
# Stress axis : x y z
#
# Youngs Moduli (GPa) = 50.38476 13.73317 1.77370
#
# Poissons Ratio (x) = 0.03825 0.02819
# Poissons Ratio (y) = 0.14035 0.32501
# Poissons Ratio (z) = 0.80068 2.51645
#
# Static dielectric constant tensor:
#      x y z
#    x 3.075590 0.000000 0.000000 
#    y 0.000000 2.936330 0.000000 
#    z 0.000000 0.000000 2.848750 
# 
# 
# High freq. dielectric constant tensor:
#      x y z
#    x 1.583160 0.000000 0.000000 
#    y 0.000000 1.576520 0.000000 
#    z 0.000000 0.000000 1.550210 
# 
# From -- ./inp_files/22512.got.cif
#   From: 2010.03.12/outbox.cif.g09.slc.cpg/sg40_12_cif.got.tgz:22512.got - 2010.04.14 01:38:03.
