data_PCOD8184070
_publ_section_title
;
Structure prediction by ZEFSAII (Michael W. Deem and Ramdas Pophale) SiO2 
 PCOD8184070
Probable space group: A M A 2
;
_chemical_formula_sum "Si O2"
_cell_formula_units_Z 64
_cell_length_a 8.791480
_cell_length_b 20.707054
_cell_length_c 19.419133
_cell_angle_alpha 90.000000
_cell_angle_beta 90.000000
_cell_angle_gamma 90.000000
_cell_volume 3535.168711
_symmetry_space_group_name_H-M "A M A 2"
_symmetry_group_IT_number 40
_symmetry_cell_setting 'orthorhombic'
loop_
_space_group_symop_operation_xyz
x,y,z
-x,-y,z
1/2-x,y,z
1/2+x,-y,z
x,1/2+y,1/2+z
-x,1/2-y,1/2+z
1/2-x,1/2+y,1/2+z
1/2+x,1/2-y,1/2+z
loop_
_atom_site_type_symbol
_atom_site_label
_atom_site_fract_x
_atom_site_fract_y
_atom_site_fract_z
Si Si1 0.925132 0.886427 0.096730
Si Si2 0.070906 0.933223 0.962757
Si Si3 0.569554 0.377869 0.747615
Si Si4 0.428953 0.065737 0.388165
Si Si5 0.571462 0.232789 0.750921
Si Si6 0.570749 0.814242 0.883056
Si Si7 0.422635 0.766198 0.595410
Si Si8 0.572135 0.804706 0.462207
O O1 0.750000 0.906925 0.084864
O O2 0.984260 0.905361 0.173535
O O3 0.943752 0.810114 0.087370
O O4 0.030120 0.923700 0.042988
O O5 0.250000 0.935386 0.953729
O O6 0.004624 0.875799 0.917715
O O7 0.000000 0.000000 0.935746
O O8 0.750000 0.371948 0.744938
O O9 0.512459 0.423100 0.809671
O O10 0.508941 0.305540 0.760899
O O11 0.250000 0.058280 0.389362
O O12 0.480761 0.125334 0.435368
O O13 0.500000 0.000000 0.417438
O O14 0.750000 0.228228 0.767808
O O15 0.479555 0.187307 0.803236
O O16 0.537970 0.210584 0.672686
O O17 0.750000 0.821296 0.889508
O O18 0.519411 0.749597 0.921565
O O19 0.250000 0.785184 0.577060
O O20 0.535737 0.802133 0.543282
O O21 0.750000 0.793458 0.448766
#
# Coordination Sequence:
#
# PCOD8184070 Si02
#       8
#     8   8   8   8   8   8   8   8
#     4   9  17  32  54  80 111 147 184 223 269 327
#     4  12  25  40  57  79 111 150 188 232 280 336
#     4   8  15  31  53  76 110 149 183 220 269 325
#     4  10  21  36  53  76 108 148 187 226 273 322
#     4   9  17  34  57  82 112 146 179 222 281 333
#     4  12  23  36  57  85 113 144 186 234 277 328
#     4   9  18  32  56  85 114 144 179 226 278 329
#     4  11  21  35  57  81 110 147 187 231 281 332
#
# _framework density 18.103804
#
# number of rings (size 3 to 8) (size 9 to 14) (size 15 to 20)
#    0.000    2.000    2.500    4.125    0.000    2.000 
#    0.000    3.750    0.000    0.750    0.000    1.750 
#    0.000    0.000    0.000    0.000    0.000    0.000 
#
# Total GULP energy -396791.592288 kJ/mol
# GULP energy per Si atom -12399.737259 kJ/mol
# Density = 1.806260 g / cm^3
# Si number density = 18.103804 Si / 1000 Ang^3
#
#
#
# Elastic Constant Matrix: (Units=GPa)
#
#
# Indices 1 2 3 4 5 6 
#
# 1 92.5744 47.0737 40.2694 0.0000 0.0000 0.0000
# 2 47.0737 105.6603 51.3146 0.0000 0.0000 0.0000
# 3 40.2694 51.3146 100.6049 0.0000 0.0000 0.0000
# 4 0.0000 0.0000 0.0000 17.1581 0.0000 0.0000
# 5 0.0000 0.0000 0.0000 0.0000 24.0200 0.0000
# 6 0.0000 0.0000 0.0000 0.0000 0.0000 26.0946
#
#
#
# Elastic Compliance Matrix: (Units=1/GPa)
#
#
# Indices 1 2 3 4 5 6 
#
# 1 0.014793 -0.004938 -0.003403 0.000000 0.000000 0.000000
# 2 -0.004938 0.014229 -0.005281 0.000000 0.000000 0.000000
# 3 -0.003403 -0.005281 0.013995 0.000000 0.000000 0.000000
# 4 0.000000 0.000000 0.000000 0.058281 0.000000 0.000000
# 5 0.000000 0.000000 0.000000 0.000000 0.041632 0.000000
# 6 0.000000 0.000000 0.000000 0.000000 0.000000 0.038322
#
#
# Mechanical properties :
#
#
# Convention : Reuss Voigt Hill
#
# Bulk Modulus (GPa) = 63.39465 64.01720 63.70592
# Shear Modulus (GPa) = 23.39124 24.13335 23.76229
#
# Velocity S-wave (km/s) = 3.59843 3.65506 3.62685
# Velocity P-wave (km/s) = 7.23590 7.29730 7.26666
#
# Compressibility (1/GPa) = 0.01577420
#
# Stress axis : x y z
#
# Youngs Moduli (GPa) = 67.59833 70.27821 71.45155
#
# Poissons Ratio (x) = 0.34705 0.24312
# Poissons Ratio (y) = 0.33381 0.37734
# Poissons Ratio (z) = 0.23001 0.37115
#
# Static dielectric constant tensor:
#      x y z
#    x 3.189460 0.000000 0.000000 
#    y 0.000000 3.225910 0.000000 
#    z 0.000000 0.000000 3.617130 
# 
# 
# High freq. dielectric constant tensor:
#      x y z
#    x 1.689120 0.000000 0.000000 
#    y 0.000000 1.678800 0.000000 
#    z 0.000000 0.000000 1.707870 
# 
# From -- ./inp_files/19607.got.cif
#   From: 2010.03.12/outbox.cif.g09.slc.cpg/sg40_10_cif.got.tgz:19607.got - 2010.04.14 01:38:03.
