data_PCOD8184028
_publ_section_title
;
Structure prediction by ZEFSAII (Michael W. Deem and Ramdas Pophale) SiO2 
 PCOD8184028
Probable space group: A M A 2
;
_chemical_formula_sum "Si O2"
_cell_formula_units_Z 48
_cell_length_a 17.134020
_cell_length_b 9.526058
_cell_length_c 14.929777
_cell_angle_alpha 90.000000
_cell_angle_beta 90.000000
_cell_angle_gamma 90.000000
_cell_volume 2436.833250
_symmetry_space_group_name_H-M "A M A 2"
_symmetry_group_IT_number 40
_symmetry_cell_setting 'orthorhombic'
loop_
_space_group_symop_operation_xyz
x,y,z
-x,-y,z
1/2-x,y,z
1/2+x,-y,z
x,1/2+y,1/2+z
-x,1/2-y,1/2+z
1/2-x,1/2+y,1/2+z
1/2+x,1/2-y,1/2+z
loop_
_atom_site_type_symbol
_atom_site_label
_atom_site_fract_x
_atom_site_fract_y
_atom_site_fract_z
Si Si1 0.838675 0.974512 0.221680
Si Si2 0.425482 0.239740 0.117092
Si Si3 0.661389 0.518637 0.198423
Si Si4 0.163849 0.773573 0.859790
Si Si5 0.504418 0.164740 0.937110
Si Si6 0.434209 0.246234 0.750099
O O1 0.750000 0.018575 0.201975
O O2 0.887304 0.110301 0.247174
O O3 0.871498 0.898117 0.132057
O O4 0.844248 0.869876 0.305251
O O5 0.374727 0.381850 0.121596
O O6 0.485226 0.237486 0.199108
O O7 0.467474 0.240607 0.022303
O O8 0.750000 0.486171 0.171585
O O9 0.655580 0.594340 0.293924
O O10 0.615154 0.374156 0.202222
O O11 0.250000 0.778446 0.906112
O O12 0.094670 0.784803 0.932142
O O13 0.453566 0.208379 0.851934
O O14 0.500000 0.000000 0.951794
#
# Coordination Sequence:
#
# PCOD8184028 Si02
#       6
#     8   8   8   8   8   8
#     4  10  21  40  63  90 125 167 208 261 324 382
#     4  11  23  40  64  91 126 170 214 260 319 382
#     4  10  20  41  65  89 124 165 206 260 319 376
#     4   9  19  38  63  87 120 164 205 254 322 378
#     4  12  22  39  65  98 126 164 223 269 315 381
#     4  12  21  40  64  95 125 162 217 267 316 376
#
# _framework density 19.697696000000001
#
# number of rings (size 3 to 8) (size 9 to 14) (size 15 to 20)
#    0.000    1.333    5.000    4.000    0.000    0.000 
#    6.000    8.333    0.000    0.000    0.000    0.000 
#    0.000    0.000    0.000    0.000    0.000    0.000 
#
# Total GULP energy -297649.688045 kJ/mol
# GULP energy per Si atom -12402.070335 kJ/mol
# Density = 1.965286 g / cm^3
# Si number density = 19.697696 Si / 1000 Ang^3
#
#
#
# Elastic Constant Matrix: (Units=GPa)
#
#
# Indices 1 2 3 4 5 6 
#
# 1 129.5660 29.4368 25.1463 0.0000 0.0000 0.0000
# 2 29.4368 91.3512 1.4750 0.0000 0.0000 0.0000
# 3 25.1463 1.4750 82.5288 0.0000 0.0000 0.0000
# 4 0.0000 0.0000 0.0000 26.9956 0.0000 0.0000
# 5 0.0000 0.0000 0.0000 0.0000 35.0817 0.0000
# 6 0.0000 0.0000 0.0000 0.0000 0.0000 132.4148
#
#
#
# Elastic Compliance Matrix: (Units=1/GPa)
#
#
# Indices 1 2 3 4 5 6 
#
# 1 0.008873 -0.002816 -0.002653 0.000000 0.000000 0.000000
# 2 -0.002816 0.011844 0.000646 0.000000 0.000000 0.000000
# 3 -0.002653 0.000646 0.012914 0.000000 0.000000 0.000000
# 4 0.000000 0.000000 0.000000 0.037043 0.000000 0.000000
# 5 0.000000 0.000000 0.000000 0.000000 0.028505 0.000000
# 6 0.000000 0.000000 0.000000 0.000000 0.000000 0.007552
#
#
# Mechanical properties :
#
#
# Convention : Reuss Voigt Hill
#
# Bulk Modulus (GPa) = 41.69379 46.17360 43.93370
# Shear Modulus (GPa) = 40.20208 55.39093 47.79651
#
# Velocity S-wave (km/s) = 4.52259 5.30863 4.93130
# Velocity P-wave (km/s) = 6.96309 7.81456 7.40108
#
# Compressibility (1/GPa) = 0.02398439
#
# Stress axis : x y z
#
# Youngs Moduli (GPa) = 112.70306 84.43193 77.43625
#
# Poissons Ratio (x) = 0.23779 0.20545
# Poissons Ratio (y) = 0.31741 -0.05006
# Poissons Ratio (z) = 0.29902 -0.05458
#
# Static dielectric constant tensor:
#      x y z
#    x 3.957140 0.000000 0.000000 
#    y 0.000000 3.623010 0.000000 
#    z 0.000000 0.000000 3.254350 
# 
# 
# High freq. dielectric constant tensor:
#      x y z
#    x 1.792320 0.000000 0.000000 
#    y 0.000000 1.776050 0.000000 
#    z 0.000000 0.000000 1.733330 
# 
# From -- ./inp_files/17602.got.cif
#   From: 2010.03.12/outbox.cif.g09.slc.cpg/sg40_9_cif.got.tgz:17602.got - 2010.04.14 01:38:03.
