data_PCOD8184610
_publ_section_title
;
Structure prediction by ZEFSAII (Michael W. Deem and Ramdas Pophale) SiO2 
 PCOD8184610
Probable space group: A M A 2
;
_chemical_formula_sum "Si O2"
_cell_formula_units_Z 64
_cell_length_a 18.777065
_cell_length_b 14.641275
_cell_length_c 11.847776
_cell_angle_alpha 90.000000
_cell_angle_beta 90.000000
_cell_angle_gamma 90.000000
_cell_volume 3257.192620
_symmetry_space_group_name_H-M "A M A 2"
_symmetry_group_IT_number 40
_symmetry_cell_setting 'orthorhombic'
loop_
_space_group_symop_operation_xyz
x,y,z
-x,-y,z
1/2-x,y,z
1/2+x,-y,z
x,1/2+y,1/2+z
-x,1/2-y,1/2+z
1/2-x,1/2+y,1/2+z
1/2+x,1/2-y,1/2+z
loop_
_atom_site_type_symbol
_atom_site_label
_atom_site_fract_x
_atom_site_fract_y
_atom_site_fract_z
Si Si1 0.076695 0.220095 0.267370
Si Si2 0.421877 0.203339 0.805769
Si Si3 0.665997 0.103506 0.801922
Si Si4 0.578874 0.968650 0.388209
Si Si5 0.078512 0.532325 0.155135
Si Si6 0.396606 0.931638 0.039664
Si Si7 0.051626 0.629344 0.540873
Si Si8 0.167551 0.878326 0.266895
O O1 0.137018 0.294026 0.291747
O O2 0.096496 0.129619 0.336402
O O3 0.075423 0.202709 0.133408
O O4 0.999920 0.254068 0.305592
O O5 0.408798 0.133272 0.703770
O O6 0.363253 0.281214 0.802229
O O7 0.410929 0.151138 0.923144
O O8 0.750000 0.105857 0.787446
O O9 0.645162 0.062032 0.922629
O O10 0.634474 0.039714 0.704140
O O11 0.587766 0.962966 0.521911
O O12 0.500000 0.000000 0.352556
O O13 0.633389 0.041965 0.340566
O O14 0.000000 0.500000 0.191912
O O15 0.466032 0.867563 0.027587
O O16 0.344663 0.891474 0.133833
O O17 0.421717 0.030762 0.080943
O O18 0.250000 0.878104 0.294596
#
# Coordination Sequence:
#
# PCOD8184610 Si02
#       8
#     8   8   8   8   8   8   8   8
#     4  12  24  41  70 102 130 172 226 275 324 395
#     4  12  24  41  70 102 130 172 226 275 324 395
#     4  12  27  45  66  99 139 176 215 273 343 397
#     4  11  24  44  70  99 131 174 225 273 324 392
#     4  11  24  44  70  99 131 174 225 273 324 392
#     4  11  21  44  70  97 129 172 224 277 332 390
#     4  11  22  40  74  98 124 171 235 279 316 389
#     4  12  27  45  66  99 139 176 215 273 343 397
#
# _framework density 19.648823
#
# number of rings (size 3 to 8) (size 9 to 14) (size 15 to 20)
#    0.000    0.500    7.500    0.375    5.250    1.500 
#    0.000    0.000    0.000    0.000    0.000    0.000 
#    0.000    0.000    0.000    0.000    0.000    0.000 
#
# Total GULP energy -397028.381863 kJ/mol
# GULP energy per Si atom -12407.136933 kJ/mol
# Density = 1.960410 g / cm^3
# Si number density = 19.648823 Si / 1000 Ang^3
#
#
#
# Elastic Constant Matrix: (Units=GPa)
#
#
# Indices 1 2 3 4 5 6 
#
# 1 154.0516 61.6355 37.3639 0.0000 0.0000 0.0000
# 2 61.6355 133.5916 34.0111 0.0000 0.0000 0.0000
# 3 37.3639 34.0111 94.6849 0.0000 0.0000 0.0000
# 4 0.0000 0.0000 0.0000 32.6708 0.0000 0.0000
# 5 0.0000 0.0000 0.0000 0.0000 9.0795 0.0000
# 6 0.0000 0.0000 0.0000 0.0000 0.0000 30.4778
#
#
#
# Elastic Compliance Matrix: (Units=1/GPa)
#
#
# Indices 1 2 3 4 5 6 
#
# 1 0.008323 -0.003306 -0.002097 0.000000 0.000000 0.000000
# 2 -0.003306 0.009552 -0.002127 0.000000 0.000000 0.000000
# 3 -0.002097 -0.002127 0.012153 0.000000 0.000000 0.000000
# 4 0.000000 0.000000 0.000000 0.030608 0.000000 0.000000
# 5 0.000000 0.000000 0.000000 0.000000 0.110138 0.000000
# 6 0.000000 0.000000 0.000000 0.000000 0.000000 0.032811
#
#
# Mechanical properties :
#
#
# Convention : Reuss Voigt Hill
#
# Bulk Modulus (GPa) = 66.80541 72.03878 69.42209
# Shear Modulus (GPa) = 22.35807 31.06680 26.71244
#
# Velocity S-wave (km/s) = 3.37691 3.98062 3.69113
# Velocity P-wave (km/s) = 7.01985 7.60723 7.31943
#
# Compressibility (1/GPa) = 0.01496885
#
# Stress axis : x y z
#
# Youngs Moduli (GPa) = 120.15494 104.68771 82.28702
#
# Poissons Ratio (x) = 0.34610 0.17253
# Poissons Ratio (y) = 0.39724 0.17499
# Poissons Ratio (z) = 0.25192 0.22263
#
# Static dielectric constant tensor:
#      x y z
#    x 3.426480 0.000000 0.000000 
#    y 0.000000 3.727580 0.000000 
#    z 0.000000 0.000000 3.674510 
# 
# 
# High freq. dielectric constant tensor:
#      x y z
#    x 1.746850 0.000000 0.000000 
#    y 0.000000 1.779800 0.000000 
#    z 0.000000 0.000000 1.782950 
# 
# From -- ./inp_files/13124.got.cif
#   From: 2010.03.12/outbox.cif.g09.slc.cpg/sg40_7_cif.got.tgz:13124.got - 2010.04.14 01:38:03.
