data_PCOD8184007
_publ_section_title
;
Structure prediction by ZEFSAII (Michael W. Deem and Ramdas Pophale) SiO2 
 PCOD8184007
Probable space group: A M A 2
;
_chemical_formula_sum "Si O2"
_cell_formula_units_Z 48
_cell_length_a 9.996007
_cell_length_b 8.497492
_cell_length_c 27.239042
_cell_angle_alpha 90.000000
_cell_angle_beta 90.000000
_cell_angle_gamma 90.000000
_cell_volume 2313.711181
_symmetry_space_group_name_H-M "A M A 2"
_symmetry_group_IT_number 40
_symmetry_cell_setting 'orthorhombic'
loop_
_space_group_symop_operation_xyz
x,y,z
-x,-y,z
1/2-x,y,z
1/2+x,-y,z
x,1/2+y,1/2+z
-x,1/2-y,1/2+z
1/2-x,1/2+y,1/2+z
1/2+x,1/2-y,1/2+z
loop_
_atom_site_type_symbol
_atom_site_label
_atom_site_fract_x
_atom_site_fract_y
_atom_site_fract_z
Si Si1 0.017945 0.319304 0.870170
Si Si2 0.903766 0.853554 0.967916
Si Si3 0.750000 0.308901 0.192162
Si Si4 0.402390 0.355956 0.059636
Si Si5 0.750000 0.781198 0.319424
Si Si6 0.020119 0.184222 0.154678
Si Si7 0.250000 0.857588 0.296882
Si Si8 0.250000 0.329139 0.215753
O O1 0.876498 0.248263 0.853959
O O2 0.000000 0.500000 0.886448
O O3 0.075396 0.221158 0.914889
O O4 0.117842 0.299930 0.824635
O O5 0.750000 0.908699 0.973634
O O6 0.940813 0.723314 0.008199
O O7 0.000000 0.000000 0.976135
O O8 0.621631 0.267834 0.160152
O O9 0.750000 0.213330 0.242851
O O10 0.750000 0.494582 0.197168
O O11 0.500000 0.500000 0.069983
O O12 0.250000 0.418050 0.058780
O O13 0.416967 0.226754 0.102280
O O14 0.750000 0.659657 0.274660
O O15 0.750000 0.953733 0.294977
O O16 0.117829 0.238949 0.198069
O O17 0.000000 0.000000 0.158857
#
# Coordination Sequence:
#
# PCOD8184007 Si02
#       8
#     8   8   4   8   4   8   4   4
#     4  10  21  40  65  94 128 172 218 270 329 391
#     4  11  25  44  66  96 134 173 219 270 327 395
#     4  12  26  40  69  96 135 178 220 281 331 389
#     4  11  25  46  71 100 133 169 216 273 332 397
#     4  10  22  36  65  94 131 172 222 271 325 403
#     4  12  25  44  68  97 134 178 220 272 333 396
#     4  10  20  40  61  94 129 176 222 269 333 389
#     4  12  24  44  63 100 135 172 230 275 331 393
#
# _framework density 20.745892000000001
#
# number of rings (size 3 to 8) (size 9 to 14) (size 15 to 20)
#    0.000    1.000    1.667    5.000    2.333    3.333 
#    0.000    0.000    0.000    0.000    0.000    0.000 
#    0.000    0.000    0.000    0.000    0.000    0.000 
#
# Total GULP energy -297780.348919 kJ/mol
# GULP energy per Si atom -12407.514538 kJ/mol
# Density = 2.069867 g / cm^3
# Si number density = 20.745892 Si / 1000 Ang^3
#
#
#
# Elastic Constant Matrix: (Units=GPa)
#
#
# Indices 1 2 3 4 5 6 
#
# 1 127.9762 31.6709 19.4139 0.0000 0.0000 0.0000
# 2 31.6709 103.3801 14.3734 0.0000 0.0000 0.0000
# 3 19.4139 14.3734 83.7674 0.0000 0.0000 0.0000
# 4 0.0000 0.0000 0.0000 27.8383 0.0000 0.0000
# 5 0.0000 0.0000 0.0000 0.0000 27.7100 0.0000
# 6 0.0000 0.0000 0.0000 0.0000 0.0000 34.3953
#
#
#
# Elastic Compliance Matrix: (Units=1/GPa)
#
#
# Indices 1 2 3 4 5 6 
#
# 1 0.008657 -0.002431 -0.001589 0.000000 0.000000 0.000000
# 2 -0.002431 0.010592 -0.001254 0.000000 0.000000 0.000000
# 3 -0.001589 -0.001254 0.012521 0.000000 0.000000 0.000000
# 4 0.000000 0.000000 0.000000 0.035922 0.000000 0.000000
# 5 0.000000 0.000000 0.000000 0.000000 0.036088 0.000000
# 6 0.000000 0.000000 0.000000 0.000000 0.000000 0.029074
#
#
# Mechanical properties :
#
#
# Convention : Reuss Voigt Hill
#
# Bulk Modulus (GPa) = 47.12175 49.56002 48.34089
# Shear Modulus (GPa) = 33.22790 34.63310 33.93050
#
# Velocity S-wave (km/s) = 4.00642 4.09026 4.04855
# Velocity P-wave (km/s) = 6.64567 6.80058 6.72357
#
# Compressibility (1/GPa) = 0.02122162
#
# Stress axis : x y z
#
# Youngs Moduli (GPa) = 115.51820 94.40947 79.86398
#
# Poissons Ratio (x) = 0.22951 0.12691
# Poissons Ratio (y) = 0.28083 0.10015
# Poissons Ratio (z) = 0.18357 0.11840
#
# Static dielectric constant tensor:
#      x y z
#    x 3.997580 0.000000 0.000000 
#    y 0.000000 3.686360 0.000000 
#    z 0.000000 0.000000 3.749800 
# 
# 
# High freq. dielectric constant tensor:
#      x y z
#    x 1.832620 0.000000 0.000000 
#    y 0.000000 1.808010 0.000000 
#    z 0.000000 0.000000 1.822230 
# 
# From -- ./inp_files/26221.got.cif
#   From: 2010.03.12/outbox.cif.g09.slc.cpg/sg40_14_cif.got.tgz:26221.got - 2010.04.14 01:38:03.
