data_PCOD8184679
_publ_section_title
;
Structure prediction by ZEFSAII (Michael W. Deem and Ramdas Pophale) SiO2 
 PCOD8184679
Probable space group: A M A 2
;
_chemical_formula_sum "Si O2"
_cell_formula_units_Z 64
_cell_length_a 29.651254
_cell_length_b 11.357215
_cell_length_c 8.707883
_cell_angle_alpha 90.000000
_cell_angle_beta 90.000000
_cell_angle_gamma 90.000000
_cell_volume 2932.428945
_symmetry_space_group_name_H-M "A M A 2"
_symmetry_group_IT_number 40
_symmetry_cell_setting 'orthorhombic'
loop_
_space_group_symop_operation_xyz
x,y,z
-x,-y,z
1/2-x,y,z
1/2+x,-y,z
x,1/2+y,1/2+z
-x,1/2-y,1/2+z
1/2-x,1/2+y,1/2+z
1/2+x,1/2-y,1/2+z
loop_
_atom_site_type_symbol
_atom_site_label
_atom_site_fract_x
_atom_site_fract_y
_atom_site_fract_z
Si Si1 0.619882 0.584772 0.510220
Si Si2 0.340569 0.554729 0.068150
Si Si3 0.539168 0.195081 0.463070
Si Si4 0.699810 0.239426 0.912398
Si Si5 0.802111 0.693420 0.075755
Si Si6 0.871548 0.831576 0.875501
Si Si7 0.584638 0.495091 0.821225
Si Si8 0.550900 0.235749 0.809658
O O1 0.667108 0.651864 0.503184
O O2 0.628718 0.451739 0.466875
O O3 0.601755 0.579121 0.683391
O O4 0.585614 0.651441 0.396918
O O5 0.315449 0.438955 0.127123
O O6 0.363357 0.636276 0.198172
O O7 0.302845 0.631545 0.984304
O O8 0.378288 0.511580 0.951837
O O9 0.580508 0.270607 0.397350
O O10 0.541695 0.063935 0.391959
O O11 0.539726 0.179245 0.646168
O O12 0.493188 0.258421 0.414887
O O13 0.750000 0.187307 0.929760
O O14 0.688095 0.262207 0.733507
O O15 0.750000 0.700199 0.023775
O O16 0.831979 0.746848 0.939007
O O17 0.571061 0.364209 0.771539
#
# Coordination Sequence:
#
# PCOD8184679 Si02
#       8
#     8   8   8   8   8   8   8   8
#     4  12  24  47  74  98 142 190 225 286 354 411
#     4  12  24  44  73  99 137 183 231 285 347 415
#     4  12  26  47  71 104 138 185 230 294 347 418
#     4  11  24  44  70 102 138 179 231 285 343 413
#     4  11  25  46  70 101 140 181 229 288 346 412
#     4  12  25  45  73  99 140 184 231 280 354 413
#     4  12  25  46  73  99 137 185 230 288 348 416
#     4  12  27  47  70 102 144 177 239 288 349 418
#
# _framework density 21.824909999999999
#
# number of rings (size 3 to 8) (size 9 to 14) (size 15 to 20)
#    0.000    0.250    5.000    4.500    1.750    2.000 
#    2.250    0.625    0.000    0.000    0.000    0.000 
#    0.000    0.000    0.000    0.000    0.000    0.000 
#
# Total GULP energy -396871.842497 kJ/mol
# GULP energy per Si atom -12402.245078 kJ/mol
# Density = 2.177524 g / cm^3
# Si number density = 21.824910 Si / 1000 Ang^3
#
#
#
# Elastic Constant Matrix: (Units=GPa)
#
#
# Indices 1 2 3 4 5 6 
#
# 1 119.8587 32.1291 41.2097 0.0000 0.0000 0.0000
# 2 32.1291 86.8667 26.9979 0.0000 0.0000 0.0000
# 3 41.2097 26.9979 144.3438 0.0000 0.0000 0.0000
# 4 0.0000 0.0000 0.0000 38.7769 0.0000 0.0000
# 5 0.0000 0.0000 0.0000 0.0000 30.1950 0.0000
# 6 0.0000 0.0000 0.0000 0.0000 0.0000 22.5220
#
#
#
# Elastic Compliance Matrix: (Units=1/GPa)
#
#
# Indices 1 2 3 4 5 6 
#
# 1 0.009920 -0.002961 -0.002278 0.000000 0.000000 0.000000
# 2 -0.002961 0.013106 -0.001606 0.000000 0.000000 0.000000
# 3 -0.002278 -0.001606 0.007879 0.000000 0.000000 0.000000
# 4 0.000000 0.000000 0.000000 0.025789 0.000000 0.000000
# 5 0.000000 0.000000 0.000000 0.000000 0.033118 0.000000
# 6 0.000000 0.000000 0.000000 0.000000 0.000000 0.044401
#
#
# Mechanical properties :
#
#
# Convention : Reuss Voigt Hill
#
# Bulk Modulus (GPa) = 58.09097 61.30473 59.69785
# Shear Modulus (GPa) = 32.54321 35.01428 33.77875
#
# Velocity S-wave (km/s) = 3.86567 4.00975 3.93837
# Velocity P-wave (km/s) = 6.82636 7.04186 6.93495
#
# Compressibility (1/GPa) = 0.01721438
#
# Stress axis : x y z
#
# Youngs Moduli (GPa) = 100.80400 76.29962 126.92366
#
# Poissons Ratio (x) = 0.22593 0.28918
# Poissons Ratio (y) = 0.29849 0.20384
# Poissons Ratio (z) = 0.22967 0.12254
#
# Static dielectric constant tensor:
#      x y z
#    x 3.991300 0.000000 0.000000 
#    y 0.000000 4.346910 0.000000 
#    z 0.000000 0.000000 4.104100 
# 
# 
# High freq. dielectric constant tensor:
#      x y z
#    x 1.861260 0.000000 0.000000 
#    y 0.000000 1.872510 0.000000 
#    z 0.000000 0.000000 1.870630 
# 
# From -- ./inp_files/9445.got.cif
#   From: 2010.03.12/outbox.cif.g09.slc.cpg/sg40_5_cif.got.tgz:9445.got - 2010.04.14 01:38:03.
