data_PCOD8184225
_publ_section_title
;
Structure prediction by ZEFSAII (Michael W. Deem and Ramdas Pophale) SiO2 
 PCOD8184225
Probable space group: A M A 2
;
_chemical_formula_sum "Si O2"
_cell_formula_units_Z 48
_cell_length_a 18.294800
_cell_length_b 11.149702
_cell_length_c 11.247888
_cell_angle_alpha 90.000000
_cell_angle_beta 90.000000
_cell_angle_gamma 90.000000
_cell_volume 2294.361833
_symmetry_space_group_name_H-M "A M A 2"
_symmetry_group_IT_number 40
_symmetry_cell_setting 'orthorhombic'
loop_
_space_group_symop_operation_xyz
x,y,z
-x,-y,z
1/2-x,y,z
1/2+x,-y,z
x,1/2+y,1/2+z
-x,1/2-y,1/2+z
1/2-x,1/2+y,1/2+z
1/2+x,1/2-y,1/2+z
loop_
_atom_site_type_symbol
_atom_site_label
_atom_site_fract_x
_atom_site_fract_y
_atom_site_fract_z
Si Si1 0.834386 0.353295 0.266750
Si Si2 0.833968 0.651209 0.570347
Si Si3 0.915042 0.991118 0.238850
Si Si4 0.572088 0.250257 0.861003
Si Si5 0.584765 0.686736 0.931118
Si Si6 0.427941 0.434744 0.166614
O O1 0.750000 0.375317 0.296751
O O2 0.845807 0.257043 0.163574
O O3 0.873565 0.306992 0.387941
O O4 0.867809 0.476856 0.220339
O O5 0.750000 0.621730 0.546847
O O6 0.871332 0.529329 0.619927
O O7 0.867727 0.693137 0.446217
O O8 0.892901 0.079929 0.344062
O O9 0.893138 0.858726 0.283699
O O10 0.000000 0.000000 0.205987
O O11 0.502525 0.294292 0.935769
O O12 0.543020 0.150766 0.770405
O O13 0.608981 0.645236 0.062618
O O14 0.500000 0.500000 0.114934
#
# Coordination Sequence:
#
# PCOD8184225 Si02
#       6
#     8   8   8   8   8   8
#     4  10  22  42  64  94 126 163 215 263 321 389
#     4  10  22  40  64  88 122 163 207 261 315 378
#     4   9  20  38  60  91 119 159 211 259 306 370
#     4  11  23  37  61  92 125 164 210 262 313 374
#     4  10  21  39  64  90 124 164 215 265 312 374
#     4  12  23  39  63  93 129 169 213 266 319 378
#
# _framework density 20.920849
#
# number of rings (size 3 to 8) (size 9 to 14) (size 15 to 20)
#    0.000    1.667    1.667    3.500    4.667    4.000 
#    0.000    3.333    0.000    0.000    0.000    0.000 
#    0.000    0.000    0.000    0.000    0.000    0.000 
#
# Total GULP energy -297656.638445 kJ/mol
# GULP energy per Si atom -12402.359935 kJ/mol
# Density = 2.087323 g / cm^3
# Si number density = 20.920849 Si / 1000 Ang^3
#
#
#
# Elastic Constant Matrix: (Units=GPa)
#
#
# Indices 1 2 3 4 5 6 
#
# 1 86.6320 51.0046 57.4253 0.0000 0.0000 0.0000
# 2 51.0046 95.5828 72.4221 0.0000 0.0000 0.0000
# 3 57.4253 72.4221 115.4663 0.0000 0.0000 0.0000
# 4 0.0000 0.0000 0.0000 43.3851 0.0000 0.0000
# 5 0.0000 0.0000 0.0000 0.0000 28.3596 0.0000
# 6 0.0000 0.0000 0.0000 0.0000 0.0000 28.5614
#
#
#
# Elastic Compliance Matrix: (Units=1/GPa)
#
#
# Indices 1 2 3 4 5 6 
#
# 1 0.018659 -0.005575 -0.005783 0.000000 0.000000 0.000000
# 2 -0.005575 0.021602 -0.010777 0.000000 0.000000 0.000000
# 3 -0.005783 -0.010777 0.018296 0.000000 0.000000 0.000000
# 4 0.000000 0.000000 0.000000 0.023049 0.000000 0.000000
# 5 0.000000 0.000000 0.000000 0.000000 0.035261 0.000000
# 6 0.000000 0.000000 0.000000 0.000000 0.000000 0.035012
#
#
# Mechanical properties :
#
#
# Convention : Reuss Voigt Hill
#
# Bulk Modulus (GPa) = 69.98974 73.26500 71.62737
# Shear Modulus (GPa) = 24.88655 27.84984 26.36819
#
# Velocity S-wave (km/s) = 3.45274 3.65252 3.55403
# Velocity P-wave (km/s) = 7.03010 7.27214 7.15214
#
# Compressibility (1/GPa) = 0.01428781
#
# Stress axis : x y z
#
# Youngs Moduli (GPa) = 53.59471 46.29105 54.65705
#
# Poissons Ratio (x) = 0.25807 0.31607
# Poissons Ratio (y) = 0.29879 0.58903
# Poissons Ratio (z) = 0.30993 0.49887
#
# Static dielectric constant tensor:
#      x y z
#    x 3.616960 0.000000 0.000000 
#    y 0.000000 3.959570 0.000000 
#    z 0.000000 0.000000 3.695510 
# 
# 
# High freq. dielectric constant tensor:
#      x y z
#    x 1.800050 0.000000 0.000000 
#    y 0.000000 1.827620 0.000000 
#    z 0.000000 0.000000 1.819460 
# 
# From -- ./inp_files/12905.got.cif
#   From: 2010.03.12/outbox.cif.g09.slc.cpg/sg40_7_cif.got.tgz:12905.got - 2010.04.14 01:38:03.
