data_PCOD8184854
_publ_section_title
;
Structure prediction by ZEFSAII (Michael W. Deem and Ramdas Pophale) SiO2 
 PCOD8184854
Probable space group: A B A 2
;
_chemical_formula_sum "Si O2"
_cell_formula_units_Z 60
_cell_length_a 15.523093
_cell_length_b 12.988352
_cell_length_c 14.543966
_cell_angle_alpha 90.000000
_cell_angle_beta 90.000000
_cell_angle_gamma 90.000000
_cell_volume 2932.345641
_symmetry_space_group_name_H-M "A B A 2"
_symmetry_group_IT_number 41
_symmetry_cell_setting 'orthorhombic'
loop_
_space_group_symop_operation_xyz
x,y,z
-x,-y,z
1/2-x,y,1/2+z
1/2+x,-y,1/2+z
x,1/2+y,1/2+z
-x,1/2-y,1/2+z
1/2-x,1/2+y,z
1/2+x,1/2-y,z
loop_
_atom_site_type_symbol
_atom_site_label
_atom_site_fract_x
_atom_site_fract_y
_atom_site_fract_z
Si Si1 0.257661 0.354830 0.015190
Si Si2 0.533646 0.883572 0.318944
Si Si3 0.019802 0.807293 0.194627
Si Si4 0.718536 0.150839 0.719403
Si Si5 0.500000 0.000000 0.804381
Si Si6 0.461264 0.384841 0.007368
Si Si7 0.276864 0.187695 0.366631
Si Si8 0.680245 0.506294 0.373186
O O1 0.229811 0.350573 0.122940
O O2 0.358616 0.378392 0.009895
O O3 0.221682 0.255062 0.960214
O O4 0.211337 0.451625 0.970637
O O5 0.505728 0.806972 0.236067
O O6 0.486268 0.839934 0.408650
O O7 0.635081 0.875519 0.344625
O O8 0.500000 0.000000 0.295788
O O9 0.118277 0.840004 0.200864
O O10 0.969022 0.900267 0.245282
O O11 0.996520 0.811681 0.086173
O O12 0.750501 0.247012 0.778230
O O13 0.732370 0.050925 0.784272
O O14 0.420530 0.967547 0.868095
O O15 0.500000 0.500000 0.018563
O O16 0.196409 0.113788 0.378545
#
# Coordination Sequence:
#
# PCOD8184854 Si02
#       8
#     8   8   8   8   4   8   8   8
#     4  10  21  39  59  91 121 156 203 256 307 368
#     4  10  21  38  62  89 125 161 205 263 311 373
#     4   9  18  36  61  86 123 156 204 252 305 375
#     4   8  19  38  59  83 120 153 195 249 304 367
#     4  10  20  36  60  88 120 164 204 248 314 368
#     4  10  19  36  63  93 117 160 212 254 310 383
#     4  10  21  39  57  89 118 159 202 251 313 363
#     4  10  20  36  61  86 119 156 202 249 303 370
#
# _framework density 20.461435999999999
#
# number of rings (size 3 to 8) (size 9 to 14) (size 15 to 20)
#    0.000    2.400    0.667    2.400    1.867    1.067 
#    2.400    0.000    1.467    3.200    6.933    0.000 
#    0.000    0.000    0.000    0.000    0.000    0.000 
#
# Total GULP energy -371664.709300 kJ/mol
# GULP energy per Si atom -12388.823643 kJ/mol
# Density = 2.041486 g / cm^3
# Si number density = 20.461436 Si / 1000 Ang^3
#
#
#
# Elastic Constant Matrix: (Units=GPa)
#
#
# Indices 1 2 3 4 5 6 
#
# 1 60.7305 29.9709 28.9417 0.0000 0.0000 0.0000
# 2 29.9709 105.0177 49.8275 0.0000 0.0000 0.0000
# 3 28.9417 49.8275 159.6186 0.0000 0.0000 0.0000
# 4 0.0000 0.0000 0.0000 18.7541 0.0000 0.0000
# 5 0.0000 0.0000 0.0000 0.0000 -42.0135 0.0000
# 6 0.0000 0.0000 0.0000 0.0000 0.0000 -2.3911
#
#
#
# Elastic Compliance Matrix: (Units=1/GPa)
#
#
# Indices 1 2 3 4 5 6 
#
# 1 0.019769 -0.004626 -0.002140 0.000000 0.000000 0.000000
# 2 -0.004626 0.012260 -0.002988 0.000000 0.000000 0.000000
# 3 -0.002140 -0.002988 0.007586 0.000000 0.000000 0.000000
# 4 0.000000 0.000000 0.000000 0.053322 0.000000 0.000000
# 5 0.000000 0.000000 0.000000 0.000000 -0.023802 0.000000
# 6 0.000000 0.000000 0.000000 0.000000 0.000000 -0.418212
#
#
# Mechanical properties :
#
#
# Convention : Reuss Voigt Hill
#
# Bulk Modulus (GPa) = 49.73811 60.31635 55.02723
# Shear Modulus (GPa) = -15.48638 9.31168 -3.08735
#
# Velocity S-wave (km/s) = -2.75409 2.13558 -1.22969
# Velocity P-wave (km/s) = 3.77461 5.96850 4.99353
#
# Compressibility (1/GPa) = 0.02010531
#
# Stress axis : x y z
#
# Youngs Moduli (GPa) = 50.58325 81.56295 131.82348
#
# Poissons Ratio (x) = 0.37735 0.28214
# Poissons Ratio (y) = 0.23402 0.39395
# Poissons Ratio (z) = 0.10826 0.24375
#
# Static dielectric constant tensor:
#      x y z
#    x 3.556400 0.000000 0.000000 
#    y 0.000000 3.651900 0.000000 
#    z 0.000000 0.000000 4.182210 
# 
# 
# High freq. dielectric constant tensor:
#      x y z
#    x 1.782660 0.000000 0.000000 
#    y 0.000000 1.795610 0.000000 
#    z 0.000000 0.000000 1.803510 
# 
# From -- ./inp_files/8811.got.cif
#   From: 2010.03.12/outbox.cif.g09.slc.cpg/sg41_5_cif.got.tgz:8811.got - 2010.04.14 01:55:53.
