data_PCOD8184389
_publ_section_title
;
Structure prediction by ZEFSAII (Michael W. Deem and Ramdas Pophale) SiO2 
 PCOD8184389
Probable space group: A M A 2
;
_chemical_formula_sum "Si O2"
_cell_formula_units_Z 64
_cell_length_a 25.358601
_cell_length_b 13.986159
_cell_length_c 7.885214
_cell_angle_alpha 90.000000
_cell_angle_beta 90.000000
_cell_angle_gamma 90.000000
_cell_volume 2796.644320
_symmetry_space_group_name_H-M "A M A 2"
_symmetry_group_IT_number 40
_symmetry_cell_setting 'orthorhombic'
loop_
_space_group_symop_operation_xyz
x,y,z
-x,-y,z
1/2-x,y,z
1/2+x,-y,z
x,1/2+y,1/2+z
-x,1/2-y,1/2+z
1/2-x,1/2+y,1/2+z
1/2+x,1/2-y,1/2+z
loop_
_atom_site_type_symbol
_atom_site_label
_atom_site_fract_x
_atom_site_fract_y
_atom_site_fract_z
Si Si1 0.398151 0.707600 0.528050
Si Si2 0.808691 0.416827 0.379577
Si Si3 0.114120 0.820846 0.860594
Si Si4 0.808019 0.096768 0.094563
Si Si5 0.009010 0.146828 0.212908
Si Si6 0.395280 0.506322 0.170762
Si Si7 0.094761 0.395938 0.832784
Si Si8 0.044995 0.684387 0.073366
O O1 0.347135 0.667654 0.434931
O O2 0.377952 0.749725 0.705603
O O3 0.443441 0.626997 0.576966
O O4 0.420621 0.791352 0.407115
O O5 0.750000 0.379563 0.331058
O O6 0.804906 0.486807 0.539691
O O7 0.834389 0.468455 0.214706
O O8 0.082838 0.771823 0.015551
O O9 0.086386 0.920576 0.797027
O O10 0.172249 0.841726 0.933876
O O11 0.750000 0.133289 0.150405
O O12 0.848550 0.106189 0.247800
O O13 0.954699 0.082949 0.201211
O O14 0.025652 0.129316 0.406781
O O15 0.000433 0.262276 0.181592
O O16 0.401105 0.475908 0.976439
O O17 0.428893 0.604432 0.196762
#
# Coordination Sequence:
#
# PCOD8184389 Si02
#       8
#     8   8   8   8   8   8   8   8
#     4  10  22  41  64  94 128 169 219 273 326 402
#     4  10  23  45  68  92 126 173 221 279 344 399
#     4   9  21  42  64  92 129 170 216 271 335 396
#     4  10  22  40  64  93 130 165 216 282 330 393
#     4  11  22  39  64  94 134 175 210 273 327 395
#     4  10  24  42  64  93 130 173 223 272 327 412
#     4  11  22  41  63  97 134 172 223 269 336 401
#     4  11  22  42  65  90 135 175 214 272 328 389
#
# _framework density 22.88457
#
# number of rings (size 3 to 8) (size 9 to 14) (size 15 to 20)
#    0.000    1.750    2.500    0.750    3.500    2.000 
#    0.000    2.500    0.000    0.000    0.000    0.000 
#    0.000    0.000    0.000    0.000    0.000    0.000 
#
# Total GULP energy -396441.830143 kJ/mol
# GULP energy per Si atom -12388.807192 kJ/mol
# Density = 2.283248 g / cm^3
# Si number density = 22.884570 Si / 1000 Ang^3
#
#
#
# Elastic Constant Matrix: (Units=GPa)
#
#
# Indices 1 2 3 4 5 6 
#
# 1 126.6840 30.7782 26.0900 0.0000 0.0000 0.0000
# 2 30.7782 72.3767 17.7892 0.0000 0.0000 0.0000
# 3 26.0900 17.7892 55.0180 0.0000 0.0000 0.0000
# 4 0.0000 0.0000 0.0000 26.2500 0.0000 0.0000
# 5 0.0000 0.0000 0.0000 0.0000 34.4918 0.0000
# 6 0.0000 0.0000 0.0000 0.0000 0.0000 28.1779
#
#
#
# Elastic Compliance Matrix: (Units=1/GPa)
#
#
# Indices 1 2 3 4 5 6 
#
# 1 0.009362 -0.003139 -0.003424 0.000000 0.000000 0.000000
# 2 -0.003139 0.016062 -0.003705 0.000000 0.000000 0.000000
# 3 -0.003424 -0.003705 0.020998 0.000000 0.000000 0.000000
# 4 0.000000 0.000000 0.000000 0.038095 0.000000 0.000000
# 5 0.000000 0.000000 0.000000 0.000000 0.028992 0.000000
# 6 0.000000 0.000000 0.000000 0.000000 0.000000 0.035489
#
#
# Mechanical properties :
#
#
# Convention : Reuss Voigt Hill
#
# Bulk Modulus (GPa) = 38.63308 44.82150 41.72729
# Shear Modulus (GPa) = 28.06424 29.74537 28.90481
#
# Velocity S-wave (km/s) = 3.50571 3.60919 3.55782
# Velocity P-wave (km/s) = 5.77105 6.08249 5.92882
#
# Compressibility (1/GPa) = 0.02588455
#
# Stress axis : x y z
#
# Youngs Moduli (GPa) = 106.81947 62.25800 47.62462
#
# Poissons Ratio (x) = 0.19545 0.16308
# Poissons Ratio (y) = 0.33535 0.17644
# Poissons Ratio (z) = 0.36578 0.23065
#
# Static dielectric constant tensor:
#      x y z
#    x 4.274400 0.000000 0.000000 
#    y 0.000000 4.023120 0.000000 
#    z 0.000000 0.000000 4.183060 
# 
# 
# High freq. dielectric constant tensor:
#      x y z
#    x 1.895040 0.000000 0.000000 
#    y 0.000000 1.893350 0.000000 
#    z 0.000000 0.000000 1.905580 
# 
# From -- ./inp_files/8921.got.cif
#   From: 2010.03.12/outbox.cif.g09.slc.cpg/sg40_5_cif.got.tgz:8921.got - 2010.04.14 01:38:03.
