data_PCOD8184040
_publ_section_title
;
Structure prediction by ZEFSAII (Michael W. Deem and Ramdas Pophale) SiO2 
 PCOD8184040
Probable space group: A M A 2
;
_chemical_formula_sum "Si O2"
_cell_formula_units_Z 24
_cell_length_a 8.841672
_cell_length_b 8.073194
_cell_length_c 11.568392
_cell_angle_alpha 90.000000
_cell_angle_beta 90.000000
_cell_angle_gamma 90.000000
_cell_volume 825.757991
_symmetry_space_group_name_H-M "A M A 2"
_symmetry_group_IT_number 40
_symmetry_cell_setting 'orthorhombic'
loop_
_space_group_symop_operation_xyz
x,y,z
-x,-y,z
1/2-x,y,z
1/2+x,-y,z
x,1/2+y,1/2+z
-x,1/2-y,1/2+z
1/2-x,1/2+y,1/2+z
1/2+x,1/2-y,1/2+z
loop_
_atom_site_type_symbol
_atom_site_label
_atom_site_fract_x
_atom_site_fract_y
_atom_site_fract_z
Si Si1 0.750000 0.421073 0.443751
Si Si2 0.750000 0.270016 0.828743
Si Si3 0.500000 0.000000 0.106955
Si Si4 0.000000 0.000000 0.427852
Si Si5 0.250000 0.921072 0.591057
Si Si6 0.750000 0.229985 0.206064
O O1 0.750000 0.614734 0.413483
O O2 0.604800 0.387703 0.523809
O O3 0.750000 0.295972 0.336778
O O4 0.899212 0.379680 0.847054
O O5 0.750000 0.204028 0.698029
O O6 0.399212 0.879679 0.187753
O O7 0.104800 0.887703 0.510998
O O8 0.250000 0.114734 0.621324
#
# Coordination Sequence:
#
# PCOD8184040 Si02
#       6
#     4   4   4   4   4   4
#     4  10  23  47  82 114 160 212 262 329 406 475
#     4  10  23  45  80 121 159 212 266 327 403 478
#     4  10  20  45  84 119 156 206 268 328 396 478
#     4  10  20  45  84 119 156 206 268 328 396 478
#     4  10  23  47  82 114 160 212 262 329 406 475
#     4  10  23  45  80 121 159 212 266 327 403 478
#
# _framework density 29.064202999999999
#
# number of rings (size 3 to 8) (size 9 to 14) (size 15 to 20)
#    0.000    2.000    0.000    4.000    0.000    5.333 
#    0.000   40.000    0.000  124.000    0.000   14.000 
#    0.000    0.000    0.000    0.000    0.000    0.000 
#
# Total GULP energy -148795.694451 kJ/mol
# GULP energy per Si atom -12399.641204 kJ/mol
# Density = 2.899805 g / cm^3
# Si number density = 29.064203 Si / 1000 Ang^3
#
#
#
# Elastic Constant Matrix: (Units=GPa)
#
#
# Indices 1 2 3 4 5 6 
#
# 1 261.0902 94.0397 119.7589 0.0000 0.0000 0.0000
# 2 94.0397 245.2357 114.9063 0.0000 0.0000 0.0000
# 3 119.7589 114.9063 106.0526 0.0000 0.0000 0.0000
# 4 0.0000 0.0000 0.0000 98.4642 0.0000 0.0000
# 5 0.0000 0.0000 0.0000 0.0000 -292.2113 0.0000
# 6 0.0000 0.0000 0.0000 0.0000 0.0000 19.4474
#
#
#
# Elastic Compliance Matrix: (Units=1/GPa)
#
#
# Indices 1 2 3 4 5 6 
#
# 1 0.008674 0.002566 -0.012575 0.000000 0.000000 0.000000
# 2 0.002566 0.009042 -0.012694 0.000000 0.000000 0.000000
# 3 -0.012575 -0.012694 0.037384 0.000000 0.000000 0.000000
# 4 0.000000 0.000000 0.000000 0.010156 0.000000 0.000000
# 5 0.000000 0.000000 0.000000 0.000000 -0.003422 0.000000
# 6 0.000000 0.000000 0.000000 0.000000 0.000000 0.051421
#
#
# Mechanical properties :
#
#
# Convention : Reuss Voigt Hill
#
# Bulk Modulus (GPa) = 103.17192 141.08759 122.12976
# Shear Modulus (GPa) = 30.88497 -15.94837 7.46830
#
# Velocity S-wave (km/s) = 3.26336 -2.34504 1.60473
# Velocity P-wave (km/s) = 7.05510 6.42779 6.74874
#
# Compressibility (1/GPa) = 0.00969256
#
# Stress axis : x y z
#
# Youngs Moduli (GPa) = 115.28734 110.60007 26.74973
#
# Poissons Ratio (x) = -0.28380 0.33638
# Poissons Ratio (y) = -0.29583 0.33956
# Poissons Ratio (z) = 1.44977 1.40396
#
# Static dielectric constant tensor:
#      x y z
#    x 5.774980 0.000000 0.000000 
#    y 0.000000 5.541310 0.000000 
#    z 0.000000 0.000000 5.701940 
# 
# 
# High freq. dielectric constant tensor:
#      x y z
#    x 2.190730 0.000000 0.000000 
#    y 0.000000 2.223980 0.000000 
#    z 0.000000 0.000000 2.213200 
# 
# From -- ./inp_files/9777.got.cif
#   From: 2010.03.12/outbox.cif.g09.slc.cpg/sg40_5_cif.got.tgz:9777.got - 2010.04.14 01:38:03.
