data_PCOD8184529
_publ_section_title
;
Structure prediction by ZEFSAII (Michael W. Deem and Ramdas Pophale) SiO2 
 PCOD8184529
Probable space group: A M A 2
;
_chemical_formula_sum "Si O2"
_cell_formula_units_Z 40
_cell_length_a 9.941800
_cell_length_b 7.526519
_cell_length_c 26.360394
_cell_angle_alpha 90.000000
_cell_angle_beta 90.000000
_cell_angle_gamma 90.000000
_cell_volume 1972.473066
_symmetry_space_group_name_H-M "A M A 2"
_symmetry_group_IT_number 40
_symmetry_cell_setting 'orthorhombic'
loop_
_space_group_symop_operation_xyz
x,y,z
-x,-y,z
1/2-x,y,z
1/2+x,-y,z
x,1/2+y,1/2+z
-x,1/2-y,1/2+z
1/2-x,1/2+y,1/2+z
1/2+x,1/2-y,1/2+z
loop_
_atom_site_type_symbol
_atom_site_label
_atom_site_fract_x
_atom_site_fract_y
_atom_site_fract_z
Si Si1 0.902820 0.835667 0.803830
Si Si2 0.408761 0.677419 0.416261
Si Si3 0.250000 0.324650 0.628571
Si Si4 0.000000 0.500000 0.983289
Si Si5 0.489400 0.211223 0.699138
Si Si6 0.250000 0.518947 0.055515
Si Si7 0.250000 0.214910 0.141139
O O1 0.750000 0.898804 0.792689
O O2 0.910869 0.742419 0.858841
O O3 0.953201 0.716916 0.755960
O O4 0.000000 0.000000 0.807785
O O5 0.500000 0.500000 0.421763
O O6 0.250000 0.644052 0.431594
O O7 0.483613 0.824451 0.449652
O O8 0.379852 0.275694 0.660117
O O9 0.250000 0.529582 0.610843
O O10 0.250000 0.216470 0.576915
O O11 0.124047 0.501832 0.020220
O O12 0.627718 0.289815 0.680080
O O13 0.500000 0.000000 0.699987
O O14 0.250000 0.375833 0.101340
#
# Coordination Sequence:
#
# PCOD8184529 Si02
#       7
#     8   8   4   4   8   4   4
#     4   9  19  36  64  98 134 176 215 259 330 399
#     4  10  23  45  70 101 137 172 223 282 334 402
#     4  12  24  44  67  93 129 171 224 276 326 395
#     4  12  26  46  72  96 130 180 230 280 344 392
#     4  11  20  40  66  95 135 179 210 265 331 392
#     4  12  26  46  68  94 130 178 228 284 340 386
#     4  12  26  42  65  95 133 173 222 278 328 395
#
# _framework density 20.279111
#
# number of rings (size 3 to 8) (size 9 to 14) (size 15 to 20)
#    0.000    1.200    4.000    1.800    5.600    1.600 
#    3.600    0.000    0.000    0.000    0.000    0.000 
#    0.000    0.000    0.000    0.000    0.000    0.000 
#
# Total GULP energy -247814.552278 kJ/mol
# GULP energy per Si atom -12390.727614 kJ/mol
# Density = 2.023295 g / cm^3
# Si number density = 20.279111 Si / 1000 Ang^3
#
#
#
# Elastic Constant Matrix: (Units=GPa)
#
#
# Indices 1 2 3 4 5 6 
#
# 1 162.6792 27.9643 60.7554 0.0000 0.0000 0.0000
# 2 27.9643 101.7263 39.3477 0.0000 0.0000 0.0000
# 3 60.7554 39.3477 125.3078 0.0000 0.0000 0.0000
# 4 0.0000 0.0000 0.0000 20.2450 0.0000 0.0000
# 5 0.0000 0.0000 0.0000 0.0000 20.7127 0.0000
# 6 0.0000 0.0000 0.0000 0.0000 0.0000 41.1244
#
#
#
# Elastic Compliance Matrix: (Units=1/GPa)
#
#
# Indices 1 2 3 4 5 6 
#
# 1 0.007556 -0.000751 -0.003428 0.000000 0.000000 0.000000
# 2 -0.000751 0.011264 -0.003173 0.000000 0.000000 0.000000
# 3 -0.003428 -0.003173 0.010639 0.000000 0.000000 0.000000
# 4 0.000000 0.000000 0.000000 0.049395 0.000000 0.000000
# 5 0.000000 0.000000 0.000000 0.000000 0.048280 0.000000
# 6 0.000000 0.000000 0.000000 0.000000 0.000000 0.024316
#
#
# Mechanical properties :
#
#
# Convention : Reuss Voigt Hill
#
# Bulk Modulus (GPa) = 67.77225 71.76089 69.76657
# Shear Modulus (GPa) = 29.22746 33.85948 31.54347
#
# Velocity S-wave (km/s) = 3.80051 4.09060 3.94822
# Velocity P-wave (km/s) = 7.26297 7.60093 7.43387
#
# Compressibility (1/GPa) = 0.01475530
#
# Stress axis : x y z
#
# Youngs Moduli (GPa) = 132.33831 88.77798 93.99763
#
# Poissons Ratio (x) = 0.06670 0.32220
# Poissons Ratio (y) = 0.09943 0.29823
# Poissons Ratio (z) = 0.45363 0.28167
#
# Static dielectric constant tensor:
#      x y z
#    x 3.936550 0.000000 0.000000 
#    y 0.000000 3.610170 0.000000 
#    z 0.000000 0.000000 4.320270 
# 
# 
# High freq. dielectric constant tensor:
#      x y z
#    x 1.817750 0.000000 0.000000 
#    y 0.000000 1.769130 0.000000 
#    z 0.000000 0.000000 1.808760 
# 
# From -- ./inp_files/23879.got.cif
#   From: 2010.03.12/outbox.cif.g09.slc.cpg/sg40_12_cif.got.tgz:23879.got - 2010.04.14 01:38:03.
