data_PCOD8184666
_publ_section_title
;
Structure prediction by ZEFSAII (Michael W. Deem and Ramdas Pophale) SiO2 
 PCOD8184666
Probable space group: A M A 2
;
_chemical_formula_sum "Si O2"
_cell_formula_units_Z 64
_cell_length_a 18.480873
_cell_length_b 9.319259
_cell_length_c 19.879097
_cell_angle_alpha 90.000000
_cell_angle_beta 90.000000
_cell_angle_gamma 90.000000
_cell_volume 3423.737954
_symmetry_space_group_name_H-M "A M A 2"
_symmetry_group_IT_number 40
_symmetry_cell_setting 'orthorhombic'
loop_
_space_group_symop_operation_xyz
x,y,z
-x,-y,z
1/2-x,y,z
1/2+x,-y,z
x,1/2+y,1/2+z
-x,1/2-y,1/2+z
1/2-x,1/2+y,1/2+z
1/2+x,1/2-y,1/2+z
loop_
_atom_site_type_symbol
_atom_site_label
_atom_site_fract_x
_atom_site_fract_y
_atom_site_fract_z
Si Si1 0.021906 0.158896 0.517280
Si Si2 0.021906 0.841104 0.365433
Si Si3 0.668397 0.519800 0.665444
Si Si4 0.167256 0.808449 0.297223
Si Si5 0.537602 0.151532 0.750947
Si Si6 0.331603 0.519800 0.217269
Si Si7 0.537602 0.348468 0.631766
Si Si8 0.332744 0.191551 0.585491
O O1 0.108972 0.173146 0.525781
O O2 1.000000 0.191907 0.441357
O O3 0.976809 0.271987 0.561243
O O4 0.000000 0.000000 0.539593
O O5 0.108972 0.826854 0.356932
O O6 0.976809 0.728013 0.321470
O O7 0.000000 0.000000 0.343120
O O8 0.750000 0.470190 0.654956
O O9 0.654893 0.565734 0.742716
O O10 0.622260 0.380892 0.643842
O O11 0.650662 0.655206 0.618460
O O12 0.250000 0.814729 0.324925
O O13 0.150661 0.655206 0.264253
O O14 0.622260 0.119108 0.738872
O O15 0.505816 0.250000 0.691357
O O16 0.500000 0.000000 0.746997
O O17 0.250000 0.470190 0.227757
O O18 0.345107 0.565734 0.139998
O O19 0.500000 0.500000 0.635716
O O20 0.250000 0.185271 0.557788
#
# Coordination Sequence:
#
# PCOD8184666 Si02
#       8
#     8   8   8   8   8   8   8   8
#     4  11  24  41  58  85 120 156 201 248 294 354
#     4  11  24  41  58  85 120 156 201 248 294 354
#     4   9  18  33  57  89 119 149 193 243 291 352
#     4   9  17  36  61  84 117 158 195 236 297 357
#     4  12  22  35  59  87 118 151 195 246 300 347
#     4   9  18  33  57  89 119 149 193 243 291 352
#     4  12  22  35  59  87 118 151 195 246 300 347
#     4   9  17  36  61  84 117 158 195 236 297 357
#
# _framework density 18.693020000000001
#
# number of rings (size 3 to 8) (size 9 to 14) (size 15 to 20)
#    0.000    1.750    2.500    5.250    0.000    1.000 
#    0.000    5.000    0.000    3.000    0.000    0.000 
#    0.000    0.000    0.000    0.000    0.000    0.000 
#
# Total GULP energy -396762.680571 kJ/mol
# GULP energy per Si atom -12398.833768 kJ/mol
# Density = 1.865047 g / cm^3
# Si number density = 18.693020 Si / 1000 Ang^3
#
#
#
# Elastic Constant Matrix: (Units=GPa)
#
#
# Indices 1 2 3 4 5 6 
#
# 1 132.8721 51.0486 77.8117 0.0000 0.0000 0.0000
# 2 51.0486 112.2196 58.1585 0.0000 0.0000 0.0000
# 3 77.8117 58.1585 104.9253 0.0000 0.0000 0.0000
# 4 0.0000 0.0000 0.0000 28.5799 0.0000 0.0000
# 5 0.0000 0.0000 0.0000 0.0000 32.6491 0.0000
# 6 0.0000 0.0000 0.0000 0.0000 0.0000 32.9104
#
#
#
# Elastic Compliance Matrix: (Units=1/GPa)
#
#
# Indices 1 2 3 4 5 6 
#
# 1 0.013444 -0.001331 -0.009232 0.000000 0.000000 0.000000
# 2 -0.001331 0.012634 -0.006016 0.000000 0.000000 0.000000
# 3 -0.009232 -0.006016 0.019712 0.000000 0.000000 0.000000
# 4 0.000000 0.000000 0.000000 0.034990 0.000000 0.000000
# 5 0.000000 0.000000 0.000000 0.000000 0.030629 0.000000
# 6 0.000000 0.000000 0.000000 0.000000 0.000000 0.030386
#
#
# Mechanical properties :
#
#
# Convention : Reuss Voigt Hill
#
# Bulk Modulus (GPa) = 79.16607 80.45051 79.80829
# Shear Modulus (GPa) = 27.90764 29.69441 28.80103
#
# Velocity S-wave (km/s) = 3.86806 3.98996 3.92948
# Velocity P-wave (km/s) = 7.89884 8.02231 7.96082
#
# Compressibility (1/GPa) = 0.01263167
#
# Stress axis : x y z
#
# Youngs Moduli (GPa) = 74.38365 79.14898 50.73163
#
# Poissons Ratio (x) = 0.10535 0.46836
# Poissons Ratio (y) = 0.09901 0.30520
# Poissons Ratio (z) = 0.68671 0.47616
#
# Static dielectric constant tensor:
#      x y z
#    x 3.826990 0.000000 0.000000 
#    y 0.000000 3.568310 0.000000 
#    z 0.000000 0.000000 3.098890 
# 
# 
# High freq. dielectric constant tensor:
#      x y z
#    x 1.744970 0.000000 0.000000 
#    y 0.000000 1.727940 0.000000 
#    z 0.000000 0.000000 1.691540 
# 
# From -- ./inp_files/23362.got.cif
#   From: 2010.03.12/outbox.cif.g09.slc.cpg/sg40_12_cif.got.tgz:23362.got - 2010.04.14 01:38:03.
