data_PCOD8184005
_publ_section_title
;
Structure prediction by ZEFSAII (Michael W. Deem and Ramdas Pophale) SiO2 
 PCOD8184005
Probable space group: A M A 2
;
_chemical_formula_sum "Si O2"
_cell_formula_units_Z 36
_cell_length_a 14.573601
_cell_length_b 16.640254
_cell_length_c 7.942365
_cell_angle_alpha 90.000000
_cell_angle_beta 90.000000
_cell_angle_gamma 90.000000
_cell_volume 1926.090406
_symmetry_space_group_name_H-M "A M A 2"
_symmetry_group_IT_number 40
_symmetry_cell_setting 'orthorhombic'
loop_
_space_group_symop_operation_xyz
x,y,z
-x,-y,z
1/2-x,y,z
1/2+x,-y,z
x,1/2+y,1/2+z
-x,1/2-y,1/2+z
1/2-x,1/2+y,1/2+z
1/2+x,1/2-y,1/2+z
loop_
_atom_site_type_symbol
_atom_site_label
_atom_site_fract_x
_atom_site_fract_y
_atom_site_fract_z
Si Si1 0.500000 0.500000 0.318310
Si Si2 0.966671 0.316943 0.738963
Si Si3 0.145509 0.042909 0.083069
Si Si4 0.352198 0.390372 0.792617
Si Si5 0.032457 0.352465 0.085577
O O1 0.408639 0.500818 0.430965
O O2 0.505566 0.420845 0.205666
O O3 0.897495 0.372028 0.633802
O O4 0.072533 0.338622 0.687605
O O5 0.944610 0.225320 0.696535
O O6 0.956607 0.331428 0.940711
O O7 0.250000 0.056964 0.025100
O O8 0.139758 0.983913 0.243292
O O9 0.250000 0.357254 0.755216
O O10 0.374721 0.383166 0.992181
#
# Coordination Sequence:
#
# PCOD8184005 Si02
#       5
#     4   8   8   8   8
#     4  12  20  40  58  92 122 158 202 240 302 352
#     4  10  20  40  57  90 119 155 193 247 304 341
#     4  11  22  38  63  87 119 159 199 245 300 360
#     4   9  20  38  62  86 114 156 197 241 297 354
#     4  10  22  35  66  83 122 160 191 249 297 353
#
# _framework density 18.690712000000001
#
# number of rings (size 3 to 8) (size 9 to 14) (size 15 to 20)
#    1.333    0.444    2.222    2.667    0.000    1.778 
#    0.000    2.222    0.000    0.000    0.000    0.000 
#    0.000    0.000    0.000    0.000    0.000    0.000 
#
# Total GULP energy -223076.722984 kJ/mol
# GULP energy per Si atom -12393.151277 kJ/mol
# Density = 1.864817 g / cm^3
# Si number density = 18.690712 Si / 1000 Ang^3
#
#
#
# Elastic Constant Matrix: (Units=GPa)
#
#
# Indices 1 2 3 4 5 6 
#
# 1 133.5412 41.7079 42.4224 0.0000 0.0000 0.0000
# 2 41.7079 129.6985 55.6172 0.0000 0.0000 0.0000
# 3 42.4224 55.6172 101.1530 0.0000 0.0000 0.0000
# 4 0.0000 0.0000 0.0000 43.1900 0.0000 0.0000
# 5 0.0000 0.0000 0.0000 0.0000 13.7934 0.0000
# 6 0.0000 0.0000 0.0000 0.0000 0.0000 15.9216
#
#
#
# Elastic Compliance Matrix: (Units=1/GPa)
#
#
# Indices 1 2 3 4 5 6 
#
# 1 0.008902 -0.001651 -0.002825 0.000000 0.000000 0.000000
# 2 -0.001651 0.010395 -0.005023 0.000000 0.000000 0.000000
# 3 -0.002825 -0.005023 0.013833 0.000000 0.000000 0.000000
# 4 0.000000 0.000000 0.000000 0.023154 0.000000 0.000000
# 5 0.000000 0.000000 0.000000 0.000000 0.072498 0.000000
# 6 0.000000 0.000000 0.000000 0.000000 0.000000 0.062808
#
#
# Mechanical properties :
#
#
# Convention : Reuss Voigt Hill
#
# Bulk Modulus (GPa) = 70.76948 71.54308 71.15628
# Shear Modulus (GPa) = 23.22356 29.55734 26.39045
#
# Velocity S-wave (km/s) = 3.52876 3.98099 3.76168
# Velocity P-wave (km/s) = 7.38570 7.71307 7.55116
#
# Compressibility (1/GPa) = 0.01413039
#
# Stress axis : x y z
#
# Youngs Moduli (GPa) = 112.34047 96.19888 72.29132
#
# Poissons Ratio (x) = 0.15881 0.20426
# Poissons Ratio (y) = 0.18546 0.36314
# Poissons Ratio (z) = 0.31742 0.48323
#
# Static dielectric constant tensor:
#      x y z
#    x 3.332820 0.000000 0.000000 
#    y 0.000000 3.301350 0.000000 
#    z 0.000000 0.000000 3.375060 
# 
# 
# High freq. dielectric constant tensor:
#      x y z
#    x 1.707830 0.000000 0.000000 
#    y 0.000000 1.727820 0.000000 
#    z 0.000000 0.000000 1.719330 
# 
# From -- ./inp_files/7248.got.cif
#   From: 2010.03.12/outbox.cif.g09.slc.cpg/sg40_4_cif.got.tgz:7248.got - 2010.04.14 01:38:03.
