data_PCOD8184955
_publ_section_title
;
Structure prediction by ZEFSAII (Michael W. Deem and Ramdas Pophale) SiO2 
 PCOD8184955
Probable space group: A B A 2
;
_chemical_formula_sum "Si O2"
_cell_formula_units_Z 64
_cell_length_a 18.717293
_cell_length_b 9.194727
_cell_length_c 19.014317
_cell_angle_alpha 90.000000
_cell_angle_beta 90.000000
_cell_angle_gamma 90.000000
_cell_volume 3272.371548
_symmetry_space_group_name_H-M "A B A 2"
_symmetry_group_IT_number 41
_symmetry_cell_setting 'orthorhombic'
loop_
_space_group_symop_operation_xyz
x,y,z
-x,-y,z
1/2-x,y,1/2+z
1/2+x,-y,1/2+z
x,1/2+y,1/2+z
-x,1/2-y,1/2+z
1/2-x,1/2+y,z
1/2+x,1/2-y,z
loop_
_atom_site_type_symbol
_atom_site_label
_atom_site_fract_x
_atom_site_fract_y
_atom_site_fract_z
Si Si1 0.972900 0.342101 0.068990
Si Si2 0.701883 0.487989 0.402511
Si Si3 0.509902 0.330569 0.929822
Si Si4 0.320002 0.555311 0.564235
Si Si5 0.547043 0.359854 0.168447
Si Si6 0.330800 0.192680 0.420338
Si Si7 0.560701 0.383312 0.332444
Si Si8 0.319575 0.713353 0.082410
O O1 0.889356 0.352509 0.084809
O O2 0.000000 0.500000 0.047245
O O3 0.007799 0.284872 0.140828
O O4 0.998477 0.237434 0.006576
O O5 0.682783 0.433650 0.480235
O O6 0.709547 0.659994 0.400919
O O7 0.781051 0.428599 0.382862
O O8 0.640253 0.439476 0.348813
O O9 0.500000 0.500000 0.938082
O O10 0.587649 0.303428 0.894304
O O11 0.452173 0.263115 0.876736
O O12 0.256909 0.644730 0.601813
O O13 0.321106 0.388518 0.591196
O O14 0.500000 0.500000 0.147845
O O15 0.556212 0.344802 0.251190
O O16 0.624752 0.367306 0.133086
O O17 0.337602 0.166213 0.503454
O O18 0.500000 0.500000 0.354748
#
# Coordination Sequence:
#
# PCOD8184955 Si02
#       8
#     8   8   8   8   8   8   8   8
#     4  12  21  40  67  94 123 165 210 262 318 376
#     4  10  20  38  61  90 125 162 206 257 321 386
#     4  12  24  37  66  99 126 156 214 272 311 375
#     4  10  21  35  65  91 122 161 204 265 324 374
#     4  11  25  41  63  91 128 172 214 264 315 384
#     4  10  21  36  63  93 123 158 204 264 319 375
#     4  11  23  44  64  85 128 175 213 258 325 383
#     4  10  21  39  57  95 125 159 207 260 319 383
#
# _framework density 19.557680000000001
#
# number of rings (size 3 to 8) (size 9 to 14) (size 15 to 20)
#    0.000    1.250    5.000    1.500    3.500    1.500 
#    0.000    2.500    0.000    0.000    0.000    0.000 
#    0.000    0.000    0.000    0.000    0.000    0.000 
#
# Total GULP energy -396805.282443 kJ/mol
# GULP energy per Si atom -12400.165076 kJ/mol
# Density = 1.951317 g / cm^3
# Si number density = 19.557680 Si / 1000 Ang^3
#
#
#
# Elastic Constant Matrix: (Units=GPa)
#
#
# Indices 1 2 3 4 5 6 
#
# 1 131.0536 34.3216 27.6750 0.0000 0.0000 0.0000
# 2 34.3216 106.9194 40.9981 0.0000 0.0000 0.0000
# 3 27.6750 40.9981 80.5069 0.0000 0.0000 0.0000
# 4 0.0000 0.0000 0.0000 17.4067 0.0000 0.0000
# 5 0.0000 0.0000 0.0000 0.0000 23.1084 0.0000
# 6 0.0000 0.0000 0.0000 0.0000 0.0000 42.4635
#
#
#
# Elastic Compliance Matrix: (Units=1/GPa)
#
#
# Indices 1 2 3 4 5 6 
#
# 1 0.008563 -0.002013 -0.001918 0.000000 0.000000 0.000000
# 2 -0.002013 0.012096 -0.005468 0.000000 0.000000 0.000000
# 3 -0.001918 -0.005468 0.015865 0.000000 0.000000 0.000000
# 4 0.000000 0.000000 0.000000 0.057449 0.000000 0.000000
# 5 0.000000 0.000000 0.000000 0.000000 0.043274 0.000000
# 6 0.000000 0.000000 0.000000 0.000000 0.000000 0.023550
#
#
# Mechanical properties :
#
#
# Convention : Reuss Voigt Hill
#
# Bulk Modulus (GPa) = 56.41652 58.27436 57.34544
# Shear Modulus (GPa) = 26.95370 30.96140 28.95755
#
# Velocity S-wave (km/s) = 3.71639 3.98311 3.85206
# Velocity P-wave (km/s) = 6.87926 7.14244 7.01209
#
# Compressibility (1/GPa) = 0.01772530
#
# Stress axis : x y z
#
# Youngs Moduli (GPa) = 116.78445 82.67448 63.03116
#
# Poissons Ratio (x) = 0.16643 0.12092
# Poissons Ratio (y) = 0.23510 0.34463
# Poissons Ratio (z) = 0.22404 0.45204
#
# Static dielectric constant tensor:
#      x y z
#    x 3.936230 0.000000 0.000000 
#    y 0.000000 3.646250 0.000000 
#    z 0.000000 0.000000 3.225520 
# 
# 
# High freq. dielectric constant tensor:
#      x y z
#    x 1.780220 0.000000 0.000000 
#    y 0.000000 1.768520 0.000000 
#    z 0.000000 0.000000 1.724400 
# 
# From -- ./inp_files/11649.got.cif
#   From: 2010.03.12/outbox.cif.g09.slc.cpg/sg41_6_cif.got.tgz:11649.got - 2010.04.14 01:55:53.
