data_PCOD8184406
_publ_section_title
;
Structure prediction by ZEFSAII (Michael W. Deem and Ramdas Pophale) SiO2 
 PCOD8184406
Probable space group: A M A 2
;
_chemical_formula_sum "Si O2"
_cell_formula_units_Z 48
_cell_length_a 16.721666
_cell_length_b 4.878673
_cell_length_c 26.155566
_cell_angle_alpha 90.000000
_cell_angle_beta 90.000000
_cell_angle_gamma 90.000000
_cell_volume 2133.759054
_symmetry_space_group_name_H-M "A M A 2"
_symmetry_group_IT_number 40
_symmetry_cell_setting 'orthorhombic'
loop_
_space_group_symop_operation_xyz
x,y,z
-x,-y,z
1/2-x,y,z
1/2+x,-y,z
x,1/2+y,1/2+z
-x,1/2-y,1/2+z
1/2-x,1/2+y,1/2+z
1/2+x,1/2-y,1/2+z
loop_
_atom_site_type_symbol
_atom_site_label
_atom_site_fract_x
_atom_site_fract_y
_atom_site_fract_z
Si Si1 0.660379 0.287694 0.532010
Si Si2 0.947148 0.263028 0.871450
Si Si3 0.661522 0.951034 0.712190
Si Si4 0.338783 0.048023 0.280689
Si Si5 0.446891 0.762603 0.627716
Si Si6 0.160474 0.694718 0.964240
O O1 0.750000 0.185342 0.544926
O O2 0.614472 0.329791 0.584815
O O3 0.660571 0.585273 0.508549
O O4 0.622146 0.075900 0.490827
O O5 0.902942 0.424724 0.825590
O O6 0.886041 0.179880 0.915861
O O7 0.000000 0.500000 0.896693
O O8 0.000000 0.000000 0.853774
O O9 0.750000 0.911770 0.686363
O O10 0.670210 0.148023 0.760036
O O11 0.597918 0.085425 0.674237
O O12 0.631225 0.660127 0.735713
O O13 0.250000 0.949961 0.299829
O O14 0.500000 0.500000 0.645664
O O15 0.500000 0.000000 0.602376
O O16 0.250000 0.628476 0.944776
#
# Coordination Sequence:
#
# PCOD8184406 Si02
#       6
#     8   8   8   8   8   8
#     4  10  22  41  64  89 122 167 215 260 307 370
#     4  12  25  39  61  94 130 165 203 258 325 385
#     4  10  22  42  66  89 118 161 212 262 311 372
#     4  10  22  42  66  89 118 161 212 262 311 372
#     4  12  25  39  61  94 130 165 203 258 325 385
#     4  10  22  41  64  89 122 167 215 260 307 370
#
# _framework density 22.495508000000001
#
# number of rings (size 3 to 8) (size 9 to 14) (size 15 to 20)
#    0.000    1.333    0.000    5.000    0.000    6.667 
#    0.000   13.333    0.000    0.000    0.000    0.000 
#    0.000    0.000    0.000    0.000    0.000    0.000 
#
# Total GULP energy -297454.927803 kJ/mol
# GULP energy per Si atom -12393.955325 kJ/mol
# Density = 2.244431 g / cm^3
# Si number density = 22.495508 Si / 1000 Ang^3
#
#
#
# Elastic Constant Matrix: (Units=GPa)
#
#
# Indices 1 2 3 4 5 6 
#
# 1 104.9078 37.5071 60.8189 0.0000 0.0000 0.0000
# 2 37.5071 115.3485 19.6458 0.0000 0.0000 0.0000
# 3 60.8189 19.6458 96.3540 0.0000 0.0000 0.0000
# 4 0.0000 0.0000 0.0000 36.4961 0.0000 0.0000
# 5 0.0000 0.0000 0.0000 0.0000 21.3424 0.0000
# 6 0.0000 0.0000 0.0000 0.0000 0.0000 34.7085
#
#
#
# Elastic Compliance Matrix: (Units=1/GPa)
#
#
# Indices 1 2 3 4 5 6 
#
# 1 0.016432 -0.003705 -0.009616 0.000000 0.000000 0.000000
# 2 -0.003705 0.009817 0.000337 0.000000 0.000000 0.000000
# 3 -0.009616 0.000337 0.016380 0.000000 0.000000 0.000000
# 4 0.000000 0.000000 0.000000 0.027400 0.000000 0.000000
# 5 0.000000 0.000000 0.000000 0.000000 0.046855 0.000000
# 6 0.000000 0.000000 0.000000 0.000000 0.000000 0.028811
#
#
# Mechanical properties :
#
#
# Convention : Reuss Voigt Hill
#
# Bulk Modulus (GPa) = 60.02639 61.39488 60.71063
# Shear Modulus (GPa) = 28.21404 31.75196 29.98300
#
# Velocity S-wave (km/s) = 3.54532 3.76104 3.65477
# Velocity P-wave (km/s) = 6.59551 6.79793 6.69749
#
# Compressibility (1/GPa) = 0.01665934
#
# Stress axis : x y z
#
# Youngs Moduli (GPa) = 60.85740 101.86671 61.05179
#
# Poissons Ratio (x) = 0.37744 0.58710
# Poissons Ratio (y) = 0.22549 -0.02059
# Poissons Ratio (z) = 0.58523 -0.03435
#
# Static dielectric constant tensor:
#      x y z
#    x 4.440220 0.000000 0.000000 
#    y 0.000000 4.169460 0.000000 
#    z 0.000000 0.000000 3.635510 
# 
# 
# High freq. dielectric constant tensor:
#      x y z
#    x 1.891810 0.000000 0.000000 
#    y 0.000000 1.904850 0.000000 
#    z 0.000000 0.000000 1.869000 
# 
# From -- ./inp_files/25708.got.cif
#   From: 2010.03.12/outbox.cif.g09.slc.cpg/sg40_13_cif.got.tgz:25708.got - 2010.04.14 01:38:03.
