data_PCOD8184785
_publ_section_title
;
Structure prediction by ZEFSAII (Michael W. Deem and Ramdas Pophale) SiO2 
 PCOD8184785
Probable space group: A B A 2
;
_chemical_formula_sum "Si O2"
_cell_formula_units_Z 60
_cell_length_a 22.605967
_cell_length_b 13.954026
_cell_length_c 9.725039
_cell_angle_alpha 90.000000
_cell_angle_beta 90.000000
_cell_angle_gamma 90.000000
_cell_volume 3067.707646
_symmetry_space_group_name_H-M "A B A 2"
_symmetry_group_IT_number 41
_symmetry_cell_setting 'orthorhombic'
loop_
_space_group_symop_operation_xyz
x,y,z
-x,-y,z
1/2-x,y,1/2+z
1/2+x,-y,1/2+z
x,1/2+y,1/2+z
-x,1/2-y,1/2+z
1/2-x,1/2+y,z
1/2+x,1/2-y,z
loop_
_atom_site_type_symbol
_atom_site_label
_atom_site_fract_x
_atom_site_fract_y
_atom_site_fract_z
Si Si1 0.000000 0.000000 0.022581
Si Si2 0.391614 0.189158 0.216757
Si Si3 0.119265 0.019545 0.922029
Si Si4 0.714687 0.673068 0.180655
Si Si5 0.478620 0.861309 0.749018
Si Si6 0.366198 0.994095 0.736438
Si Si7 0.096743 0.158251 0.413959
Si Si8 0.681609 0.167378 0.375489
O O1 0.988285 0.903023 0.113581
O O2 0.946431 0.023491 0.921687
O O3 0.382700 0.119291 0.344035
O O4 0.330200 0.243611 0.215963
O O5 0.448122 0.258630 0.230844
O O6 0.401621 0.132168 0.074936
O O7 0.160285 0.941268 0.848030
O O8 0.135612 0.034471 0.081619
O O9 0.689972 0.575717 0.250437
O O10 0.778066 0.697693 0.246607
O O11 0.720189 0.667327 0.015624
O O12 0.427429 0.940120 0.778067
O O13 0.528555 0.849276 0.865588
O O14 0.359914 0.082909 0.839151
O O15 0.124403 0.263786 0.388285
#
# Coordination Sequence:
#
# PCOD8184785 Si02
#       8
#     4   8   8   8   8   8   8   8
#     4  10  18  38  62  80 116 158 190 224 292 364
#     4  10  24  36  59  88 122 145 195 241 290 334
#     4  10  21  39  58  86 114 157 189 234 288 350
#     4   9  21  43  58  84 113 157 193 244 281 347
#     4  10  19  37  60  83 115 155 187 230 284 358
#     4   9  19  39  64  78 112 157 196 227 294 345
#     4  11  20  37  59  90 113 151 190 241 288 345
#     4  10  23  39  62  82 119 152 200 237 293 338
#
# _framework density 19.558578000000001
#
# number of rings (size 3 to 8) (size 9 to 14) (size 15 to 20)
#    0.000    2.133    2.667    2.400    3.733    3.200 
#    2.400    6.667    0.000    0.000    0.000    0.000 
#    0.000    0.000    0.000    0.000    0.000    0.000 
#
# Total GULP energy -371787.618511 kJ/mol
# GULP energy per Si atom -12392.920617 kJ/mol
# Density = 1.951406 g / cm^3
# Si number density = 19.558578 Si / 1000 Ang^3
#
#
#
# Elastic Constant Matrix: (Units=GPa)
#
#
# Indices 1 2 3 4 5 6 
#
# 1 73.3271 16.3660 38.7077 0.0000 0.0000 0.0000
# 2 16.3660 96.6971 54.5563 0.0000 0.0000 0.0000
# 3 38.7077 54.5563 93.0331 0.0000 0.0000 0.0000
# 4 0.0000 0.0000 0.0000 32.5682 0.0000 0.0000
# 5 0.0000 0.0000 0.0000 0.0000 31.3408 0.0000
# 6 0.0000 0.0000 0.0000 0.0000 0.0000 21.8806
#
#
#
# Elastic Compliance Matrix: (Units=1/GPa)
#
#
# Indices 1 2 3 4 5 6 
#
# 1 0.017667 0.001729 -0.008365 0.000000 0.000000 0.000000
# 2 0.001729 0.015624 -0.009882 0.000000 0.000000 0.000000
# 3 -0.008365 -0.009882 0.020024 0.000000 0.000000 0.000000
# 4 0.000000 0.000000 0.000000 0.030705 0.000000 0.000000
# 5 0.000000 0.000000 0.000000 0.000000 0.031907 0.000000
# 6 0.000000 0.000000 0.000000 0.000000 0.000000 0.045703
#
#
# Mechanical properties :
#
#
# Convention : Reuss Voigt Hill
#
# Bulk Modulus (GPa) = 49.30790 53.59080 51.44935
# Shear Modulus (GPa) = 24.82321 27.38642 26.10481
#
# Velocity S-wave (km/s) = 3.56641 3.74602 3.65732
# Velocity P-wave (km/s) = 6.49801 6.79484 6.64808
#
# Compressibility (1/GPa) = 0.02028073
#
# Stress axis : x y z
#
# Youngs Moduli (GPa) = 56.60242 64.00352 49.94034
#
# Poissons Ratio (x) = -0.11067 0.41773
# Poissons Ratio (y) = -0.09787 0.49350
# Poissons Ratio (z) = 0.47346 0.63246
#
# Static dielectric constant tensor:
#      x y z
#    x 3.529840 0.000000 0.000000 
#    y 0.000000 3.570930 0.000000 
#    z 0.000000 0.000000 3.490480 
# 
# 
# High freq. dielectric constant tensor:
#      x y z
#    x 1.759510 0.000000 0.000000 
#    y 0.000000 1.761040 0.000000 
#    z 0.000000 0.000000 1.748770 
# 
# From -- ./inp_files/3669.got.cif
#   From: 2010.03.12/outbox.cif.g09.slc.cpg/sg41_2_cif.got.tgz:3669.got - 2010.04.14 01:55:53.
