data_PCOD8184864
_publ_section_title
;
Structure prediction by ZEFSAII (Michael W. Deem and Ramdas Pophale) SiO2 
 PCOD8184864
Probable space group: A B A 2
;
_chemical_formula_sum "Si O2"
_cell_formula_units_Z 56
_cell_length_a 22.172189
_cell_length_b 24.658664
_cell_length_c 5.186597
_cell_angle_alpha 90.000000
_cell_angle_beta 90.000000
_cell_angle_gamma 90.000000
_cell_volume 2835.702195
_symmetry_space_group_name_H-M "A B A 2"
_symmetry_group_IT_number 41
_symmetry_cell_setting 'orthorhombic'
loop_
_space_group_symop_operation_xyz
x,y,z
-x,-y,z
1/2-x,y,1/2+z
1/2+x,-y,1/2+z
x,1/2+y,1/2+z
-x,1/2-y,1/2+z
1/2-x,1/2+y,z
1/2+x,1/2-y,z
loop_
_atom_site_type_symbol
_atom_site_label
_atom_site_fract_x
_atom_site_fract_y
_atom_site_fract_z
Si Si1 0.589602 0.411908 0.359820
Si Si2 0.545899 0.805351 0.658234
Si Si3 0.409312 0.480031 0.079050
Si Si4 0.460442 0.926870 0.093390
Si Si5 0.219607 0.570733 0.045244
Si Si6 0.532253 0.688710 0.655568
Si Si7 0.727571 0.548477 0.029026
O O1 0.593638 0.352699 0.223237
O O2 0.588308 0.455859 0.129748
O O3 0.531688 0.419049 0.543487
O O4 0.648080 0.420162 0.537210
O O5 0.572665 0.743597 0.688804
O O6 0.520365 0.813371 0.370782
O O7 0.492698 0.810054 0.865337
O O8 0.430134 0.449510 0.336452
O O9 0.451778 0.466950 0.835208
O O10 0.342650 0.462158 0.003678
O O11 0.431191 0.868189 0.171655
O O12 0.252994 0.598207 0.801110
O O13 0.232634 0.506610 0.052098
O O14 0.753683 0.581776 0.785045
#
# Coordination Sequence:
#
# PCOD8184864 Si02
#       7
#     8   8   8   8   8   8   8
#     4  11  23  38  56  86 119 144 190 224 300 337
#     4   9  19  33  59  77 103 150 179 235 253 334
#     4  12  24  37  54  83 121 148 181 223 292 341
#     4  11  25  36  53  84 121 158 174 231 276 354
#     4  10  21  36  56  74 107 147 186 239 265 335
#     4   9  18  38  52  76 112 145 195 205 268 324
#     4  10  19  38  56  72 103 148 193 230 259 328
#
# _framework density 19.748196
#
# number of rings (size 3 to 8) (size 9 to 14) (size 15 to 20)
#    0.000    1.714    2.857    3.000    2.000    9.143 
#    0.000    0.000    0.000    0.000    0.000    6.000 
#    0.000    0.000    0.000    0.000    0.000    0.000 
#
# Total GULP energy -346894.467640 kJ/mol
# GULP energy per Si atom -12389.088130 kJ/mol
# Density = 1.970325 g / cm^3
# Si number density = 19.748196 Si / 1000 Ang^3
#
#
#
# Elastic Constant Matrix: (Units=GPa)
#
#
# Indices 1 2 3 4 5 6 
#
# 1 84.9364 28.7468 23.6690 0.0000 0.0000 0.0000
# 2 28.7468 78.5575 10.4239 0.0000 0.0000 0.0000
# 3 23.6690 10.4239 124.9705 0.0000 0.0000 0.0000
# 4 0.0000 0.0000 0.0000 19.8289 0.0000 0.0000
# 5 0.0000 0.0000 0.0000 0.0000-3992.4348 0.0000
# 6 0.0000 0.0000 0.0000 0.0000 0.0000 5.6293
#
#
#
# Elastic Compliance Matrix: (Units=1/GPa)
#
#
# Indices 1 2 3 4 5 6 
#
# 1 0.014040 -0.004838 -0.002255 0.000000 0.000000 0.000000
# 2 -0.004838 0.014539 -0.000296 0.000000 0.000000 0.000000
# 3 -0.002255 -0.000296 0.008454 0.000000 0.000000 0.000000
# 4 0.000000 0.000000 0.000000 0.050431 0.000000 0.000000
# 5 0.000000 0.000000 0.000000 0.000000 -0.000250 0.000000
# 6 0.000000 0.000000 0.000000 0.000000 0.000000 0.177643
#
#
# Mechanical properties :
#
#
# Convention : Reuss Voigt Hill
#
# Bulk Modulus (GPa) = 44.93889 46.01595 45.47742
# Shear Modulus (GPa) = 17.41833 -778.35368 -380.46768
#
# Velocity S-wave (km/s) = 2.97311 -19.87448 -13.89524
# Velocity P-wave (km/s) = 5.88143 22.43452 15.30877
#
# Compressibility (1/GPa) = 0.02225244
#
# Stress axis : x y z
#
# Youngs Moduli (GPa) = 71.22729 68.77889 118.29008
#
# Poissons Ratio (x) = 0.33277 0.26680
# Poissons Ratio (y) = 0.34462 0.03506
# Poissons Ratio (z) = 0.16065 0.02039
#
# Static dielectric constant tensor:
#      x y z
#    x 7.863830 0.000000 0.000000 
#    y 0.000000 4.086620 0.000000 
#    z 0.000000 0.000000 5.316370 
# 
# 
# High freq. dielectric constant tensor:
#      x y z
#    x 1.729820 0.000000 0.000000 
#    y 0.000000 1.741370 0.000000 
#    z 0.000000 0.000000 1.805660 
# 
# From -- ./inp_files/755.got.cif
#   From: 2010.03.12/outbox.cif.g09.slc.cpg/sg41_1_cif.got.tgz:755.got - 2010.04.14 01:55:53.
