data_PCOD8184258
_publ_section_title
;
Structure prediction by ZEFSAII (Michael W. Deem and Ramdas Pophale) SiO2 
 PCOD8184258
Probable space group: A M A 2
;
_chemical_formula_sum "Si O2"
_cell_formula_units_Z 48
_cell_length_a 16.259786
_cell_length_b 9.530580
_cell_length_c 14.842428
_cell_angle_alpha 90.000000
_cell_angle_beta 90.000000
_cell_angle_gamma 90.000000
_cell_volume 2300.059694
_symmetry_space_group_name_H-M "A M A 2"
_symmetry_group_IT_number 40
_symmetry_cell_setting 'orthorhombic'
loop_
_space_group_symop_operation_xyz
x,y,z
-x,-y,z
1/2-x,y,z
1/2+x,-y,z
x,1/2+y,1/2+z
-x,1/2-y,1/2+z
1/2-x,1/2+y,1/2+z
1/2+x,1/2-y,1/2+z
loop_
_atom_site_type_symbol
_atom_site_label
_atom_site_fract_x
_atom_site_fract_y
_atom_site_fract_z
Si Si1 0.889616 0.921157 0.522610
Si Si2 0.160115 0.246174 0.676569
Si Si3 0.965912 0.344318 0.327787
Si Si4 0.437954 0.774399 0.524358
Si Si5 0.921639 0.895500 0.326296
Si Si6 0.155108 0.551899 0.645016
O O1 0.825692 0.862184 0.594539
O O2 0.871418 0.882177 0.419200
O O3 0.974310 0.841134 0.551345
O O4 0.880641 0.089146 0.529124
O O5 0.250000 0.275750 0.719239
O O6 0.105364 0.178227 0.754851
O O7 0.127565 0.390382 0.629322
O O8 0.935021 0.294107 0.425496
O O9 0.000000 0.500000 0.331148
O O10 0.043677 0.254197 0.296371
O O11 0.406645 0.655192 0.593043
O O12 0.855696 0.937796 0.252430
O O13 0.000000 0.000000 0.339752
O O14 0.250000 0.581740 0.617635
#
# Coordination Sequence:
#
# PCOD8184258 Si02
#       6
#     8   8   8   8   8   8
#     4  10  21  40  65  93 120 156 207 258 305 361
#     4  11  25  42  61  91 130 166 201 251 312 370
#     4  11  24  40  66  95 119 161 208 261 307 359
#     4  10  22  40  64  94 119 157 210 256 304 362
#     4  11  20  42  66  91 119 158 213 254 304 363
#     4  11  25  41  62  92 128 167 203 249 310 373
#
# _framework density 20.869025000000001
#
# number of rings (size 3 to 8) (size 9 to 14) (size 15 to 20)
#    0.000    1.333    5.000    1.000    9.333    2.000 
#    0.000    0.000    0.000    0.000    0.000    0.000 
#    0.000    0.000    0.000    0.000    0.000    0.000 
#
# Total GULP energy -297358.462748 kJ/mol
# GULP energy per Si atom -12389.935948 kJ/mol
# Density = 2.082153 g / cm^3
# Si number density = 20.869025 Si / 1000 Ang^3
#
#
#
# Elastic Constant Matrix: (Units=GPa)
#
#
# Indices 1 2 3 4 5 6 
#
# 1 43.4908 43.2513 34.3812 0.0000 0.0000 0.0000
# 2 43.2513 178.5303 51.8927 0.0000 0.0000 0.0000
# 3 34.3812 51.8927 113.1366 0.0000 0.0000 0.0000
# 4 0.0000 0.0000 0.0000 36.0609 0.0000 0.0000
# 5 0.0000 0.0000 0.0000 0.0000 13.9033 0.0000
# 6 0.0000 0.0000 0.0000 0.0000 0.0000 20.6445
#
#
#
# Elastic Compliance Matrix: (Units=1/GPa)
#
#
# Indices 1 2 3 4 5 6 
#
# 1 0.035509 -0.006307 -0.007898 0.000000 0.000000 0.000000
# 2 -0.006307 0.007583 -0.001562 0.000000 0.000000 0.000000
# 3 -0.007898 -0.001562 0.011955 0.000000 0.000000 0.000000
# 4 0.000000 0.000000 0.000000 0.027731 0.000000 0.000000
# 5 0.000000 0.000000 0.000000 0.000000 0.071925 0.000000
# 6 0.000000 0.000000 0.000000 0.000000 0.000000 0.048439
#
#
# Mechanical properties :
#
#
# Convention : Reuss Voigt Hill
#
# Bulk Modulus (GPa) = 42.52692 66.02312 54.27502
# Shear Modulus (GPa) = 20.61735 27.83058 24.22396
#
# Velocity S-wave (km/s) = 3.14656 3.65579 3.41069
# Velocity P-wave (km/s) = 5.79857 7.03742 6.44782
#
# Compressibility (1/GPa) = 0.02351452
#
# Stress axis : x y z
#
# Youngs Moduli (GPa) = 28.16164 131.87211 83.64489
#
# Poissons Ratio (x) = 0.83170 0.66064
# Poissons Ratio (y) = 0.17761 0.13062
# Poissons Ratio (z) = 0.22243 0.20593
#
# Static dielectric constant tensor:
#      x y z
#    x 3.444010 0.000000 0.000000 
#    y 0.000000 4.360470 0.000000 
#    z 0.000000 0.000000 3.773520 
# 
# 
# High freq. dielectric constant tensor:
#      x y z
#    x 1.790300 0.000000 0.000000 
#    y 0.000000 1.835350 0.000000 
#    z 0.000000 0.000000 1.824480 
# 
# From -- ./inp_files/17651.got.cif
#   From: 2010.03.12/outbox.cif.g09.slc.cpg/sg40_9_cif.got.tgz:17651.got - 2010.04.14 01:38:03.
