data_PCOD8184530
_publ_section_title
;
Structure prediction by ZEFSAII (Michael W. Deem and Ramdas Pophale) SiO2 
 PCOD8184530
Probable space group: A M A 2
;
_chemical_formula_sum "Si O2"
_cell_formula_units_Z 64
_cell_length_a 18.822572
_cell_length_b 11.141108
_cell_length_c 14.153638
_cell_angle_alpha 90.000000
_cell_angle_beta 90.000000
_cell_angle_gamma 90.000000
_cell_volume 2968.078855
_symmetry_space_group_name_H-M "A M A 2"
_symmetry_group_IT_number 40
_symmetry_cell_setting 'orthorhombic'
loop_
_space_group_symop_operation_xyz
x,y,z
-x,-y,z
1/2-x,y,z
1/2+x,-y,z
x,1/2+y,1/2+z
-x,1/2-y,1/2+z
1/2-x,1/2+y,1/2+z
1/2+x,1/2-y,1/2+z
loop_
_atom_site_type_symbol
_atom_site_label
_atom_site_fract_x
_atom_site_fract_y
_atom_site_fract_z
Si Si1 0.331332 0.295529 0.036210
Si Si2 0.831657 0.935866 0.599689
Si Si3 0.423657 0.038040 0.765189
Si Si4 0.415819 0.254513 0.508015
Si Si5 0.667702 0.880160 0.199667
Si Si6 0.562721 0.090436 0.194266
Si Si7 0.445282 0.259479 0.884290
Si Si8 0.667328 0.172391 0.840877
O O1 0.250000 0.270567 0.008200
O O2 0.337891 0.422137 0.088721
O O3 0.360458 0.194331 0.108392
O O4 0.375034 0.298505 0.939646
O O5 0.750000 0.893841 0.607621
O O6 0.871198 0.869120 0.514377
O O7 0.876591 0.888826 0.689901
O O8 0.376943 0.921771 0.782030
O O9 0.500000 0.000000 0.722075
O O10 0.437420 0.119419 0.857209
O O11 0.429929 0.317882 0.607654
O O12 0.488095 0.224612 0.453195
O O13 0.363732 0.337422 0.446114
O O14 0.750000 0.904891 0.186187
O O15 0.653934 0.803093 0.294624
O O16 0.632719 0.010406 0.208136
O O17 0.544793 0.161975 0.290060
O O18 0.500000 0.000000 0.169319
O O19 0.750000 0.136613 0.838696
#
# Coordination Sequence:
#
# PCOD8184530 Si02
#       8
#     8   8   8   8   8   8   8   8
#     4  10  24  44  70 102 139 186 234 287 351 418
#     4  11  25  47  73 103 138 183 236 293 349 410
#     4  12  25  45  72 104 139 182 235 293 345 411
#     4  12  27  46  71 102 138 183 236 295 350 417
#     4  10  23  45  70 101 142 183 227 280 343 417
#     4  12  28  46  67  98 141 181 225 285 351 422
#     4  12  28  46  69 104 139 185 234 293 354 415
#     4  11  24  45  73 101 140 188 233 285 350 420
#
# _framework density 21.56277
#
# number of rings (size 3 to 8) (size 9 to 14) (size 15 to 20)
#    0.000    0.750    3.750    2.250    8.750    2.500 
#    0.000    0.000    0.000    0.000    0.000    0.000 
#    0.000    0.000    0.000    0.000    0.000    0.000 
#
# Total GULP energy -396806.997158 kJ/mol
# GULP energy per Si atom -12400.218661 kJ/mol
# Density = 2.151369 g / cm^3
# Si number density = 21.562770 Si / 1000 Ang^3
#
#
#
# Elastic Constant Matrix: (Units=GPa)
#
#
# Indices 1 2 3 4 5 6 
#
# 1 153.0276 52.7710 68.9288 0.0000 0.0000 0.0000
# 2 52.7710 83.6756 34.4160 0.0000 0.0000 0.0000
# 3 68.9288 34.4160 120.9032 0.0000 0.0000 0.0000
# 4 0.0000 0.0000 0.0000 31.5544 0.0000 0.0000
# 5 0.0000 0.0000 0.0000 0.0000 60.1693 0.0000
# 6 0.0000 0.0000 0.0000 0.0000 0.0000 22.1817
#
#
#
# Elastic Compliance Matrix: (Units=1/GPa)
#
#
# Indices 1 2 3 4 5 6 
#
# 1 0.010116 -0.004539 -0.004475 0.000000 0.000000 0.000000
# 2 -0.004539 0.015572 -0.001845 0.000000 0.000000 0.000000
# 3 -0.004475 -0.001845 0.011348 0.000000 0.000000 0.000000
# 4 0.000000 0.000000 0.000000 0.031691 0.000000 0.000000
# 5 0.000000 0.000000 0.000000 0.000000 0.016620 0.000000
# 6 0.000000 0.000000 0.000000 0.000000 0.000000 0.045082
#
#
# Mechanical properties :
#
#
# Convention : Reuss Voigt Hill
#
# Bulk Modulus (GPa) = 65.28496 74.42646 69.85571
# Shear Modulus (GPa) = 31.79590 36.21380 34.00485
#
# Velocity S-wave (km/s) = 3.84418 4.10257 3.97548
# Velocity P-wave (km/s) = 7.07433 7.55199 7.31706
#
# Compressibility (1/GPa) = 0.01531746
#
# Stress axis : x y z
#
# Youngs Moduli (GPa) = 98.85567 64.21629 88.12437
#
# Poissons Ratio (x) = 0.29148 0.39436
# Poissons Ratio (y) = 0.44871 0.16259
# Poissons Ratio (z) = 0.44239 0.11848
#
# Static dielectric constant tensor:
#      x y z
#    x 4.038360 0.000000 0.000000 
#    y 0.000000 3.622180 0.000000 
#    z 0.000000 0.000000 4.304290 
# 
# 
# High freq. dielectric constant tensor:
#      x y z
#    x 1.862820 0.000000 0.000000 
#    y 0.000000 1.846410 0.000000 
#    z 0.000000 0.000000 1.851040 
# 
# From -- ./inp_files/17823.got.cif
#   From: 2010.03.12/outbox.cif.g09.slc.cpg/sg40_9_cif.got.tgz:17823.got - 2010.04.14 01:38:03.
