data_PCOD8184531
_publ_section_title
;
Structure prediction by ZEFSAII (Michael W. Deem and Ramdas Pophale) SiO2 
 PCOD8184531
Probable space group: A M A 2
;
_chemical_formula_sum "Si O2"
_cell_formula_units_Z 28
_cell_length_a 14.275838
_cell_length_b 5.461332
_cell_length_c 14.615752
_cell_angle_alpha 90.000000
_cell_angle_beta 90.000000
_cell_angle_gamma 90.000000
_cell_volume 1139.518433
_symmetry_space_group_name_H-M "A M A 2"
_symmetry_group_IT_number 40
_symmetry_cell_setting 'orthorhombic'
loop_
_space_group_symop_operation_xyz
x,y,z
-x,-y,z
1/2-x,y,z
1/2+x,-y,z
x,1/2+y,1/2+z
-x,1/2-y,1/2+z
1/2-x,1/2+y,1/2+z
1/2+x,1/2-y,1/2+z
loop_
_atom_site_type_symbol
_atom_site_label
_atom_site_fract_x
_atom_site_fract_y
_atom_site_fract_z
Si Si1 0.250000 0.114199 0.309070
Si Si2 0.250000 0.409897 0.617361
Si Si3 0.550008 0.747478 0.366383
Si Si4 0.408889 0.105169 0.559378
Si Si5 0.750000 0.210810 0.473906
O O1 0.342092 0.267001 0.334335
O O2 0.250000 0.100265 0.199304
O O3 0.250000 0.850096 0.364604
O O4 0.345425 0.256576 0.629816
O O5 0.250000 0.510227 0.511437
O O6 0.500000 0.500000 0.329709
O O7 0.548002 0.736139 0.476507
O O8 0.500000 0.000000 0.331004
O O9 0.500000 0.000000 0.613748
O O10 0.344664 0.895825 0.515797
#
# Coordination Sequence:
#
# PCOD8184531 Si02
#       5
#     4   4   8   8   4
#     4  10  24  48  69 110 148 181 253 313 363 463
#     4  11  23  43  73 101 141 195 234 313 384 436
#     4  10  23  45  74 106 141 196 243 297 374 442
#     4   9  21  41  67 101 139 183 243 297 356 450
#     4   9  21  43  66  97 137 188 237 288 373 435
#
# _framework density 24.571783
#
# number of rings (size 3 to 8) (size 9 to 14) (size 15 to 20)
#    0.000    2.286    0.000    0.857   12.000    1.143 
#   15.429    0.000    6.286    0.000    0.000    0.000 
#    0.000    0.000    0.000    0.000    0.000    0.000 
#
# Total GULP energy -173437.374303 kJ/mol
# GULP energy per Si atom -12388.383879 kJ/mol
# Density = 2.451586 g / cm^3
# Si number density = 24.571783 Si / 1000 Ang^3
#
#
#
# Elastic Constant Matrix: (Units=GPa)
#
#
# Indices 1 2 3 4 5 6 
#
# 1 222.4563 77.8087 25.6489 0.0000 0.0000 0.0000
# 2 77.8087 122.5631 19.9440 0.0000 0.0000 0.0000
# 3 25.6489 19.9440 60.7909 0.0000 0.0000 0.0000
# 4 0.0000 0.0000 0.0000 17.3171 0.0000 0.0000
# 5 0.0000 0.0000 0.0000 0.0000 9.9999 0.0000
# 6 0.0000 0.0000 0.0000 0.0000 0.0000 17.6322
#
#
#
# Elastic Compliance Matrix: (Units=1/GPa)
#
#
# Indices 1 2 3 4 5 6 
#
# 1 0.005878 -0.003516 -0.001327 0.000000 0.000000 0.000000
# 2 -0.003516 0.010722 -0.002034 0.000000 0.000000 0.000000
# 3 -0.001327 -0.002034 0.017677 0.000000 0.000000 0.000000
# 4 0.000000 0.000000 0.000000 0.057746 0.000000 0.000000
# 5 0.000000 0.000000 0.000000 0.000000 0.100001 0.000000
# 6 0.000000 0.000000 0.000000 0.000000 0.000000 0.056714
#
#
# Mechanical properties :
#
#
# Convention : Reuss Voigt Hill
#
# Bulk Modulus (GPa) = 48.72413 72.51261 60.61837
# Shear Modulus (GPa) = 18.56438 27.81710 23.19074
#
# Velocity S-wave (km/s) = 2.75165 3.36828 3.07546
# Velocity P-wave (km/s) = 5.47428 6.68593 6.11021
#
# Compressibility (1/GPa) = 0.02052371
#
# Stress axis : x y z
#
# Youngs Moduli (GPa) = 170.12867 93.26608 56.57088
#
# Poissons Ratio (x) = 0.32789 0.07505
# Poissons Ratio (y) = 0.59812 0.11508
# Poissons Ratio (z) = 0.22569 0.18973
#
# Static dielectric constant tensor:
#      x y z
#    x 3.236510 0.000000 0.000000 
#    y 0.000000 4.173530 0.000000 
#    z 0.000000 0.000000 3.897430 
# 
# 
# High freq. dielectric constant tensor:
#      x y z
#    x 2.012690 0.000000 0.000000 
#    y 0.000000 1.953250 0.000000 
#    z 0.000000 0.000000 1.930320 
# 
# From -- ./inp_files/20255.got.cif
#   From: 2010.03.12/outbox.cif.g09.slc.cpg/sg40_11_cif.got.tgz:20255.got - 2010.04.14 01:38:03.
