data_PCOD8184045
_publ_section_title
;
Structure prediction by ZEFSAII (Michael W. Deem and Ramdas Pophale) SiO2 
 PCOD8184045
Probable space group: A M A 2
;
_chemical_formula_sum "Si O2"
_cell_formula_units_Z 64
_cell_length_a 19.257256
_cell_length_b 13.325552
_cell_length_c 13.767684
_cell_angle_alpha 90.000000
_cell_angle_beta 90.000000
_cell_angle_gamma 90.000000
_cell_volume 3532.974490
_symmetry_space_group_name_H-M "A M A 2"
_symmetry_group_IT_number 40
_symmetry_cell_setting 'orthorhombic'
loop_
_space_group_symop_operation_xyz
x,y,z
-x,-y,z
1/2-x,y,z
1/2+x,-y,z
x,1/2+y,1/2+z
-x,1/2-y,1/2+z
1/2-x,1/2+y,1/2+z
1/2+x,1/2-y,1/2+z
loop_
_atom_site_type_symbol
_atom_site_label
_atom_site_fract_x
_atom_site_fract_y
_atom_site_fract_z
Si Si1 0.949817 0.243493 0.358880
Si Si2 0.173869 0.015804 0.129623
Si Si3 0.527191 0.891023 0.503591
Si Si4 0.552752 0.911536 0.013070
Si Si5 0.672650 0.397547 0.935744
Si Si6 0.325089 0.719877 0.747101
Si Si7 0.467619 0.761399 0.665630
Si Si8 0.170459 0.901404 0.314879
O O1 0.937546 0.347912 0.415027
O O2 0.876033 0.188031 0.356186
O O3 0.007893 0.178669 0.412935
O O4 0.976611 0.259044 0.250673
O O5 0.250000 0.988028 0.088536
O O6 0.123710 0.030272 0.038386
O O7 0.178319 0.116432 0.190724
O O8 0.148285 0.928916 0.204087
O O9 0.611300 0.886796 0.515503
O O10 0.488783 0.855520 0.600422
O O11 0.500000 0.000000 0.477245
O O12 0.529232 0.841682 0.103637
O O13 0.500000 0.000000 0.991582
O O14 0.750000 0.394917 0.983815
O O15 0.665451 0.305177 0.860625
O O16 0.660213 0.502549 0.882571
O O17 0.250000 0.775712 0.731751
O O18 0.389955 0.783992 0.706490
O O19 0.250000 0.865023 0.317452
#
# Coordination Sequence:
#
# PCOD8184045 Si02
#       8
#     8   8   8   8   8   8   8   8
#     4  11  21  34  53  78 110 144 182 228 277 325
#     4   8  15  29  51  78 105 133 173 219 269 320
#     4  11  21  34  53  81 111 143 183 226 281 331
#     4  10  21  34  52  76 106 145 184 219 265 326
#     4   9  16  30  54  80 107 140 179 224 277 331
#     4   8  14  28  51  78 104 136 177 225 273 315
#     4  10  21  34  52  80 108 142 185 230 273 328
#     4   9  17  30  53  84 108 134 174 227 285 328
#
# _framework density 18.115047000000001
#
# number of rings (size 3 to 8) (size 9 to 14) (size 15 to 20)
#    0.000    2.500    2.500    2.250    0.000    1.500 
#    0.000    3.125    0.000    3.750    0.000    1.750 
#    0.000    0.000    0.000    0.000    0.000    0.000 
#
# Total GULP energy -396605.543810 kJ/mol
# GULP energy per Si atom -12393.923244 kJ/mol
# Density = 1.807382 g / cm^3
# Si number density = 18.115047 Si / 1000 Ang^3
#
#
#
# Elastic Constant Matrix: (Units=GPa)
#
#
# Indices 1 2 3 4 5 6 
#
# 1 148.4929 41.7716 37.2602 0.0000 0.0000 0.0000
# 2 41.7716 56.6666 23.8072 0.0000 0.0000 0.0000
# 3 37.2602 23.8072 60.7537 0.0000 0.0000 0.0000
# 4 0.0000 0.0000 0.0000 18.0663 0.0000 0.0000
# 5 0.0000 0.0000 0.0000 0.0000 16.6713 0.0000
# 6 0.0000 0.0000 0.0000 0.0000 0.0000 23.4477
#
#
#
# Elastic Compliance Matrix: (Units=1/GPa)
#
#
# Indices 1 2 3 4 5 6 
#
# 1 0.009087 -0.005216 -0.003529 0.000000 0.000000 0.000000
# 2 -0.005216 0.024119 -0.006252 0.000000 0.000000 0.000000
# 3 -0.003529 -0.006252 0.021074 0.000000 0.000000 0.000000
# 4 0.000000 0.000000 0.000000 0.055352 0.000000 0.000000
# 5 0.000000 0.000000 0.000000 0.000000 0.059984 0.000000
# 6 0.000000 0.000000 0.000000 0.000000 0.000000 0.042648
#
#
# Mechanical properties :
#
#
# Convention : Reuss Voigt Hill
#
# Bulk Modulus (GPa) = 41.17703 52.39904 46.78803
# Shear Modulus (GPa) = 19.97174 22.50866 21.24020
#
# Velocity S-wave (km/s) = 3.32399 3.52879 3.42792
# Velocity P-wave (km/s) = 6.12471 6.75216 6.44607
#
# Compressibility (1/GPa) = 0.02428539
#
# Stress axis : x y z
#
# Youngs Moduli (GPa) = 110.04588 41.46157 47.45079
#
# Poissons Ratio (x) = 0.21626 0.16746
# Poissons Ratio (y) = 0.57398 0.29668
# Poissons Ratio (z) = 0.38838 0.25924
#
# Static dielectric constant tensor:
#      x y z
#    x 4.360070 0.000000 0.000000 
#    y 0.000000 3.020210 0.000000 
#    z 0.000000 0.000000 3.136380 
# 
# 
# High freq. dielectric constant tensor:
#      x y z
#    x 1.719120 0.000000 0.000000 
#    y 0.000000 1.665850 0.000000 
#    z 0.000000 0.000000 1.675280 
# 
# From -- ./inp_files/17942.got.cif
#   From: 2010.03.12/outbox.cif.g09.slc.cpg/sg40_9_cif.got.tgz:17942.got - 2010.04.14 01:38:03.
