data_PCOD8184575
_publ_section_title
;
Structure prediction by ZEFSAII (Michael W. Deem and Ramdas Pophale) SiO2 
 PCOD8184575
Probable space group: A M A 2
;
_chemical_formula_sum "Si O2"
_cell_formula_units_Z 56
_cell_length_a 8.959021
_cell_length_b 22.136081
_cell_length_c 17.734770
_cell_angle_alpha 90.000000
_cell_angle_beta 90.000000
_cell_angle_gamma 90.000000
_cell_volume 3517.117281
_symmetry_space_group_name_H-M "A M A 2"
_symmetry_group_IT_number 40
_symmetry_cell_setting 'orthorhombic'
loop_
_space_group_symop_operation_xyz
x,y,z
-x,-y,z
1/2-x,y,z
1/2+x,-y,z
x,1/2+y,1/2+z
-x,1/2-y,1/2+z
1/2-x,1/2+y,1/2+z
1/2+x,1/2-y,1/2+z
loop_
_atom_site_type_symbol
_atom_site_label
_atom_site_fract_x
_atom_site_fract_y
_atom_site_fract_z
Si Si1 0.582028 0.320485 0.157170
Si Si2 0.428744 0.565051 0.423049
Si Si3 0.577152 0.713326 0.016726
Si Si4 0.584613 0.680086 0.696679
Si Si5 0.427613 0.349117 0.305405
Si Si6 0.424242 0.151968 0.054968
Si Si7 0.574960 0.725934 0.849764
O O1 0.750000 0.346286 0.159311
O O2 0.514744 0.329889 0.073205
O O3 0.578767 0.249968 0.174779
O O4 0.481268 0.354636 0.218708
O O5 0.500000 0.500000 0.431688
O O6 0.250000 0.562156 0.416474
O O7 0.495916 0.595805 0.348907
O O8 0.482982 0.602090 0.496692
O O9 0.750000 0.706815 0.038018
O O10 0.525029 0.782777 0.024621
O O11 0.545262 0.694194 0.930256
O O12 0.750000 0.653511 0.689690
O O13 0.485709 0.640574 0.639628
O O14 0.530157 0.677752 0.784215
O O15 0.250000 0.354422 0.309138
O O16 0.478673 0.286487 0.343046
O O17 0.250000 0.147405 0.061525
O O18 0.750000 0.744427 0.841458
#
# Coordination Sequence:
#
# PCOD8184575 Si02
#       7
#     8   8   8   8   8   8   8
#     4   9  17  28  41  60  86 115 146 182 220 260
#     4  11  22  36  49  65  86 115 152 194 234 268
#     4   9  15  26  43  63  88 118 148 177 217 265
#     4   8  15  25  40  60  84 113 146 178 214 259
#     4  11  20  30  45  63  84 116 153 186 223 268
#     4   9  17  29  44  58  82 115 145 180 223 261
#     4   9  16  28  43  63  91 121 147 182 222 260
#
# _framework density 15.922129999999999
#
# number of rings (size 3 to 8) (size 9 to 14) (size 15 to 20)
#    0.000    2.571    1.429    3.000    0.000    5.143 
#    0.000    0.000    0.000    0.000    0.000    0.000 
#    0.000    1.143    0.000    7.429    0.000    6.286 
#
# Total GULP energy -347051.061035 kJ/mol
# GULP energy per Si atom -12394.680751 kJ/mol
# Density = 1.588589 g / cm^3
# Si number density = 15.922130 Si / 1000 Ang^3
#
#
#
# Elastic Constant Matrix: (Units=GPa)
#
#
# Indices 1 2 3 4 5 6 
#
# 1 70.0152 26.6295 47.8220 0.0000 0.0000 0.0000
# 2 26.6295 42.4424 37.7048 0.0000 0.0000 0.0000
# 3 47.8220 37.7048 153.1168 0.0000 0.0000 0.0000
# 4 0.0000 0.0000 0.0000 15.3503 0.0000 0.0000
# 5 0.0000 0.0000 0.0000 0.0000 30.3244 0.0000
# 6 0.0000 0.0000 0.0000 0.0000 0.0000 17.3511
#
#
#
# Elastic Compliance Matrix: (Units=1/GPa)
#
#
# Indices 1 2 3 4 5 6 
#
# 1 0.020650 -0.009251 -0.004172 0.000000 0.000000 0.000000
# 2 -0.009251 0.034303 -0.005558 0.000000 0.000000 0.000000
# 3 -0.004172 -0.005558 0.009202 0.000000 0.000000 0.000000
# 4 0.000000 0.000000 0.000000 0.065145 0.000000 0.000000
# 5 0.000000 0.000000 0.000000 0.000000 0.032977 0.000000
# 6 0.000000 0.000000 0.000000 0.000000 0.000000 0.057633
#
#
# Mechanical properties :
#
#
# Convention : Reuss Voigt Hill
#
# Bulk Modulus (GPa) = 38.17447 54.43186 46.30316
# Shear Modulus (GPa) = 18.75448 22.83303 20.79376
#
# Velocity S-wave (km/s) = 3.43576 3.79099 3.61774
# Velocity P-wave (km/s) = 6.30611 7.30908 6.82604
#
# Compressibility (1/GPa) = 0.02619552
#
# Stress axis : x y z
#
# Youngs Moduli (GPa) = 48.42551 29.15212 108.66638
#
# Poissons Ratio (x) = 0.26967 0.45332
# Poissons Ratio (y) = 0.44796 0.60395
# Poissons Ratio (z) = 0.20201 0.16202
#
# Static dielectric constant tensor:
#      x y z
#    x 3.087190 0.000000 0.000000 
#    y 0.000000 2.534300 0.000000 
#    z 0.000000 0.000000 3.497510 
# 
# 
# High freq. dielectric constant tensor:
#      x y z
#    x 1.616770 0.000000 0.000000 
#    y 0.000000 1.535590 0.000000 
#    z 0.000000 0.000000 1.631430 
# 
# From -- ./inp_files/19469.got.cif
#   From: 2010.03.12/outbox.cif.g09.slc.cpg/sg40_10_cif.got.tgz:19469.got - 2010.04.14 01:38:03.
