data_PCOD8184549
_publ_section_title
;
Structure prediction by ZEFSAII (Michael W. Deem and Ramdas Pophale) SiO2 
 PCOD8184549
Probable space group: A M A 2
;
_chemical_formula_sum "Si O2"
_cell_formula_units_Z 56
_cell_length_a 18.636677
_cell_length_b 14.854847
_cell_length_c 9.931231
_cell_angle_alpha 90.000000
_cell_angle_beta 90.000000
_cell_angle_gamma 90.000000
_cell_volume 2749.411501
_symmetry_space_group_name_H-M "A M A 2"
_symmetry_group_IT_number 40
_symmetry_cell_setting 'orthorhombic'
loop_
_space_group_symop_operation_xyz
x,y,z
-x,-y,z
1/2-x,y,z
1/2+x,-y,z
x,1/2+y,1/2+z
-x,1/2-y,1/2+z
1/2-x,1/2+y,1/2+z
1/2+x,1/2-y,1/2+z
loop_
_atom_site_type_symbol
_atom_site_label
_atom_site_fract_x
_atom_site_fract_y
_atom_site_fract_z
Si Si1 0.331817 0.111348 0.232200
Si Si2 0.167706 0.924577 0.366816
Si Si3 0.667132 0.202645 0.863284
Si Si4 0.943033 0.383179 0.232570
Si Si5 0.100328 0.925198 0.653643
Si Si6 0.908498 0.192507 0.141148
Si Si7 0.038859 0.595343 0.543548
O O1 0.250000 0.122007 0.179673
O O2 0.358481 0.200606 0.308447
O O3 0.381400 0.091307 0.103704
O O4 0.338371 0.030230 0.337064
O O5 0.250000 0.894370 0.382452
O O6 0.125755 0.905948 0.503381
O O7 0.132438 0.867548 0.248799
O O8 0.750000 0.205596 0.901543
O O9 0.653424 0.127063 0.752181
O O10 0.624554 0.174506 0.995499
O O11 0.895639 0.469975 0.195000
O O12 0.900440 0.296552 0.180520
O O13 0.955018 0.372671 0.391003
O O14 0.019799 0.388566 0.161017
O O15 0.992147 0.165016 0.132109
O O16 0.000000 0.500000 0.550394
#
# Coordination Sequence:
#
# PCOD8184549 Si02
#       7
#     8   8   8   8   8   8   8
#     4  10  24  44  68  97 134 177 226 273 338 405
#     4  11  25  44  65  98 135 172 221 275 331 397
#     4  11  23  44  69  95 131 181 226 272 336 400
#     4  11  25  42  67  98 133 169 225 275 333 393
#     4  11  23  44  66  96 134 171 217 276 330 400
#     4  12  25  41  69  98 134 173 221 282 330 395
#     4  12  22  44  67 102 136 171 224 280 333 396
#
# _framework density 20.367995000000001
#
# number of rings (size 3 to 8) (size 9 to 14) (size 15 to 20)
#    0.000    0.857    4.286    2.571    4.000    2.286 
#    0.000    3.571    0.000    0.000    0.000    0.000 
#    0.000    0.000    0.000    0.000    0.000    0.000 
#
# Total GULP energy -347391.314600 kJ/mol
# GULP energy per Si atom -12406.832664 kJ/mol
# Density = 2.032164 g / cm^3
# Si number density = 20.367995 Si / 1000 Ang^3
#
#
#
# Elastic Constant Matrix: (Units=GPa)
#
#
# Indices 1 2 3 4 5 6 
#
# 1 78.2405 -0.6206 54.6331 0.0000 0.0000 0.0000
# 2 -0.6206 79.5192 27.7895 0.0000 0.0000 0.0000
# 3 54.6331 27.7895 143.0385 0.0000 0.0000 0.0000
# 4 0.0000 0.0000 0.0000 28.7023 0.0000 0.0000
# 5 0.0000 0.0000 0.0000 0.0000 20.8185 0.0000
# 6 0.0000 0.0000 0.0000 0.0000 0.0000 26.3107
#
#
#
# Elastic Compliance Matrix: (Units=1/GPa)
#
#
# Indices 1 2 3 4 5 6 
#
# 1 0.017963 0.002723 -0.007390 0.000000 0.000000 0.000000
# 2 0.002723 0.013904 -0.003741 0.000000 0.000000 0.000000
# 3 -0.007390 -0.003741 0.010540 0.000000 0.000000 0.000000
# 4 0.000000 0.000000 0.000000 0.034840 0.000000 0.000000
# 5 0.000000 0.000000 0.000000 0.000000 0.048034 0.000000
# 6 0.000000 0.000000 0.000000 0.000000 0.000000 0.038007
#
#
# Mechanical properties :
#
#
# Convention : Reuss Voigt Hill
#
# Bulk Modulus (GPa) = 39.07646 51.60025 45.33835
# Shear Modulus (GPa) = 26.50598 29.76602 28.13600
#
# Velocity S-wave (km/s) = 3.61134 3.82699 3.72073
# Velocity P-wave (km/s) = 6.05111 6.70200 6.38485
#
# Compressibility (1/GPa) = 0.02559086
#
# Stress axis : x y z
#
# Youngs Moduli (GPa) = 55.67061 71.92028 94.87227
#
# Poissons Ratio (x) = -0.19582 0.70109
# Poissons Ratio (y) = -0.15157 0.35494
# Poissons Ratio (z) = 0.41139 0.26907
#
# Static dielectric constant tensor:
#      x y z
#    x 3.731940 0.000000 0.000000 
#    y 0.000000 3.902030 0.000000 
#    z 0.000000 0.000000 3.704740 
# 
# 
# High freq. dielectric constant tensor:
#      x y z
#    x 1.798020 0.000000 0.000000 
#    y 0.000000 1.810920 0.000000 
#    z 0.000000 0.000000 1.801550 
# 
# From -- ./inp_files/8334.got.cif
#   From: 2010.03.12/outbox.cif.g09.slc.cpg/sg40_5_cif.got.tgz:8334.got - 2010.04.14 01:38:03.
