data_PCOD8184893
_publ_section_title
;
Structure prediction by ZEFSAII (Michael W. Deem and Ramdas Pophale) SiO2 
 PCOD8184893
Probable space group: A B A 2
;
_chemical_formula_sum "Si O2"
_cell_formula_units_Z 60
_cell_length_a 8.130050
_cell_length_b 18.702744
_cell_length_c 16.908954
_cell_angle_alpha 90.000000
_cell_angle_beta 90.000000
_cell_angle_gamma 90.000000
_cell_volume 2571.078215
_symmetry_space_group_name_H-M "A B A 2"
_symmetry_group_IT_number 41
_symmetry_cell_setting 'orthorhombic'
loop_
_space_group_symop_operation_xyz
x,y,z
-x,-y,z
1/2-x,y,1/2+z
1/2+x,-y,1/2+z
x,1/2+y,1/2+z
-x,1/2-y,1/2+z
1/2-x,1/2+y,z
1/2+x,1/2-y,z
loop_
_atom_site_type_symbol
_atom_site_label
_atom_site_fract_x
_atom_site_fract_y
_atom_site_fract_z
Si Si1 0.872409 0.157943 0.815310
Si Si2 0.029368 0.298303 0.794895
Si Si3 0.348562 0.777303 0.038926
Si Si4 0.646576 0.829802 0.949027
Si Si5 0.098594 0.563786 0.408864
Si Si6 0.175604 0.488640 0.243622
Si Si7 0.448510 0.844736 0.621407
Si Si8 0.000000 0.000000 0.144664
O O1 0.704603 0.197862 0.839345
O O2 0.816017 0.096185 0.755847
O O3 0.992663 0.215379 0.773267
O O4 0.967169 0.127238 0.892047
O O5 0.026126 0.344527 0.715532
O O6 0.895788 0.328373 0.856302
O O7 0.236854 0.822223 0.099248
O O8 0.421560 0.708621 0.083324
O O9 0.485857 0.831746 0.005131
O O10 0.242002 0.743814 0.967822
O O11 0.755591 0.901993 0.961809
O O12 0.169401 0.531626 0.326776
O O13 0.000000 0.500000 0.454485
O O14 0.335171 0.513166 0.196241
O O15 0.000000 0.500000 0.198385
O O16 0.479158 0.927108 0.593061
#
# Coordination Sequence:
#
# PCOD8184893 Si02
#       8
#     8   8   8   8   8   8   8   4
#     4  10  20  33  56 103 140 164 219 292 360 410
#     4  12  21  36  71 106 128 175 240 295 342 423
#     4  10  25  46  66  99 144 189 232 297 357 438
#     4  11  22  42  69  98 134 185 234 291 360 420
#     4   9  20  38  60  94 140 177 219 296 365 418
#     4   9  21  39  59 100 146 171 221 301 364 412
#     4  11  25  44  72 101 143 183 245 294 364 432
#     4  12  22  44  72  96 138 200 236 288 370 430
#
# _framework density 23.336514000000001
#
# number of rings (size 3 to 8) (size 9 to 14) (size 15 to 20)
#    0.000    1.867    1.333    4.000    0.000    4.267 
#    3.600    0.000    5.867    0.000    0.000    0.000 
#    0.000    0.000    0.000    0.000    0.000    0.000 
#
# Total GULP energy -371794.186656 kJ/mol
# GULP energy per Si atom -12393.139555 kJ/mol
# Density = 2.328340 g / cm^3
# Si number density = 23.336514 Si / 1000 Ang^3
#
#
#
# Elastic Constant Matrix: (Units=GPa)
#
#
# Indices 1 2 3 4 5 6 
#
# 1 161.3916 67.8900 37.5047 0.0000 0.0000 0.0000
# 2 67.8900 154.7425 32.6327 0.0000 0.0000 0.0000
# 3 37.5047 32.6327 70.5424 0.0000 0.0000 0.0000
# 4 0.0000 0.0000 0.0000 23.5534 0.0000 0.0000
# 5 0.0000 0.0000 0.0000 0.0000 25.2135 0.0000
# 6 0.0000 0.0000 0.0000 0.0000 0.0000 49.6500
#
#
#
# Elastic Compliance Matrix: (Units=1/GPa)
#
#
# Indices 1 2 3 4 5 6 
#
# 1 0.008119 -0.002939 -0.002957 0.000000 0.000000 0.000000
# 2 -0.002939 0.008224 -0.002242 0.000000 0.000000 0.000000
# 3 -0.002957 -0.002242 0.016785 0.000000 0.000000 0.000000
# 4 0.000000 0.000000 0.000000 0.042457 0.000000 0.000000
# 5 0.000000 0.000000 0.000000 0.000000 0.039661 0.000000
# 6 0.000000 0.000000 0.000000 0.000000 0.000000 0.020141
#
#
# Mechanical properties :
#
#
# Convention : Reuss Voigt Hill
#
# Bulk Modulus (GPa) = 59.33714 73.63679 66.48697
# Shear Modulus (GPa) = 31.78988 36.25998 34.02493
#
# Velocity S-wave (km/s) = 3.69485 3.94609 3.82254
# Velocity P-wave (km/s) = 6.60943 7.23775 6.93071
#
# Compressibility (1/GPa) = 0.01685285
#
# Stress axis : x y z
#
# Youngs Moduli (GPa) = 123.16037 121.58876 59.57523
#
# Poissons Ratio (x) = 0.35730 0.17619
# Poissons Ratio (y) = 0.36192 0.13358
# Poissons Ratio (z) = 0.36424 0.27263
#
# Static dielectric constant tensor:
#      x y z
#    x 4.510070 0.000000 0.000000 
#    y 0.000000 4.337190 0.000000 
#    z 0.000000 0.000000 3.727110 
# 
# 
# High freq. dielectric constant tensor:
#      x y z
#    x 1.939760 0.000000 0.000000 
#    y 0.000000 1.929350 0.000000 
#    z 0.000000 0.000000 1.892410 
# 
# From -- ./inp_files/9760.got.cif
#   From: 2010.03.12/outbox.cif.g09.slc.cpg/sg41_5_cif.got.tgz:9760.got - 2010.04.14 01:55:53.
