data_PCOD8184179
_publ_section_title
;
Structure prediction by ZEFSAII (Michael W. Deem and Ramdas Pophale) SiO2 
 PCOD8184179
Probable space group: A M A 2
;
_chemical_formula_sum "Si O2"
_cell_formula_units_Z 40
_cell_length_a 15.382978
_cell_length_b 5.081166
_cell_length_c 23.996992
_cell_angle_alpha 90.000000
_cell_angle_beta 90.000000
_cell_angle_gamma 90.000000
_cell_volume 1875.688039
_symmetry_space_group_name_H-M "A M A 2"
_symmetry_group_IT_number 40
_symmetry_cell_setting 'orthorhombic'
loop_
_space_group_symop_operation_xyz
x,y,z
-x,-y,z
1/2-x,y,z
1/2+x,-y,z
x,1/2+y,1/2+z
-x,1/2-y,1/2+z
1/2-x,1/2+y,1/2+z
1/2+x,1/2-y,1/2+z
loop_
_atom_site_type_symbol
_atom_site_label
_atom_site_fract_x
_atom_site_fract_y
_atom_site_fract_z
Si Si1 0.599779 0.481302 0.094520
Si Si2 0.250000 0.011452 0.362068
Si Si3 0.904494 0.050690 0.277008
Si Si4 0.100604 0.017667 0.022514
Si Si5 0.652413 0.051245 0.716123
Si Si6 0.750000 0.987008 0.935295
O O1 0.500000 0.500000 0.112690
O O2 0.621407 0.198257 0.069190
O O3 0.655864 0.516054 0.149825
O O4 0.623112 0.699731 0.048564
O O5 0.163448 0.965672 0.326771
O O6 0.250000 0.809461 0.413017
O O7 0.250000 0.308750 0.384417
O O8 0.904901 0.333383 0.247263
O O9 0.884481 0.838586 0.229187
O O10 0.000000 0.000000 0.302400
O O11 0.000000 0.000000 0.002857
O O12 0.162308 0.967645 0.970171
O O13 0.750000 0.026099 0.739498
#
# Coordination Sequence:
#
# PCOD8184179 Si02
#       6
#     8   4   8   8   8   4
#     4  10  21  38  62  94 131 167 205 247 306 386
#     4  12  26  46  63  96 119 162 224 278 318 378
#     4  12  25  45  68  94 133 173 213 264 326 384
#     4  10  23  41  62  93 127 163 210 257 311 381
#     4  12  23  40  67 101 137 170 213 258 314 390
#     4  12  26  42  69  86 125 162 214 276 330 364
#
# _framework density 21.325507000000002
#
# number of rings (size 3 to 8) (size 9 to 14) (size 15 to 20)
#    0.000    0.800    2.000    5.400    2.800    3.200 
#    0.000    0.000    0.000    0.000    0.000    0.000 
#    0.000    0.000    0.000    0.000    0.000    0.000 
#
# Total GULP energy -248159.477541 kJ/mol
# GULP energy per Si atom -12407.973877 kJ/mol
# Density = 2.127697 g / cm^3
# Si number density = 21.325507 Si / 1000 Ang^3
#
#
#
# Elastic Constant Matrix: (Units=GPa)
#
#
# Indices 1 2 3 4 5 6 
#
# 1 128.9194 14.3144 45.8416 0.0000 0.0000 0.0000
# 2 14.3144 87.7932 8.7374 0.0000 0.0000 0.0000
# 3 45.8416 8.7374 85.7072 0.0000 0.0000 0.0000
# 4 0.0000 0.0000 0.0000 33.7443 0.0000 0.0000
# 5 0.0000 0.0000 0.0000 0.0000 9.8345 0.0000
# 6 0.0000 0.0000 0.0000 0.0000 0.0000 24.8523
#
#
#
# Elastic Compliance Matrix: (Units=1/GPa)
#
#
# Indices 1 2 3 4 5 6 
#
# 1 0.009678 -0.001074 -0.005067 0.000000 0.000000 0.000000
# 2 -0.001074 0.011626 -0.000611 0.000000 0.000000 0.000000
# 3 -0.005067 -0.000611 0.014440 0.000000 0.000000 0.000000
# 4 0.000000 0.000000 0.000000 0.029635 0.000000 0.000000
# 5 0.000000 0.000000 0.000000 0.000000 0.101683 0.000000
# 6 0.000000 0.000000 0.000000 0.000000 0.000000 0.040238
#
#
# Mechanical properties :
#
#
# Convention : Reuss Voigt Hill
#
# Bulk Modulus (GPa) = 44.96189 48.91185 46.93687
# Shear Modulus (GPa) = 21.90909 29.25466 25.58187
#
# Velocity S-wave (km/s) = 3.20873 3.70782 3.46727
# Velocity P-wave (km/s) = 5.90401 6.42777 6.17145
#
# Compressibility (1/GPa) = 0.02224106
#
# Stress axis : x y z
#
# Youngs Moduli (GPa) = 103.33089 86.01218 69.25239
#
# Poissons Ratio (x) = 0.09235 0.35089
# Poissons Ratio (y) = 0.11094 0.04231
# Poissons Ratio (z) = 0.52355 0.05255
#
# Static dielectric constant tensor:
#      x y z
#    x 4.024960 0.000000 0.000000 
#    y 0.000000 4.040630 0.000000 
#    z 0.000000 0.000000 3.579030 
# 
# 
# High freq. dielectric constant tensor:
#      x y z
#    x 1.847490 0.000000 0.000000 
#    y 0.000000 1.855750 0.000000 
#    z 0.000000 0.000000 1.825770 
# 
# From -- ./inp_files/24690.got.cif
#   From: 2010.03.12/outbox.cif.g09.slc.cpg/sg40_13_cif.got.tgz:24690.got - 2010.04.14 01:38:03.
