data_PCOD8184673
_publ_section_title
;
Structure prediction by ZEFSAII (Michael W. Deem and Ramdas Pophale) SiO2 
 PCOD8184673
Probable space group: A M A 2
;
_chemical_formula_sum "Si O2"
_cell_formula_units_Z 48
_cell_length_a 14.644625
_cell_length_b 19.101756
_cell_length_c 7.756234
_cell_angle_alpha 90.000000
_cell_angle_beta 90.000000
_cell_angle_gamma 90.000000
_cell_volume 2169.713801
_symmetry_space_group_name_H-M "A M A 2"
_symmetry_group_IT_number 40
_symmetry_cell_setting 'orthorhombic'
loop_
_space_group_symop_operation_xyz
x,y,z
-x,-y,z
1/2-x,y,z
1/2+x,-y,z
x,1/2+y,1/2+z
-x,1/2-y,1/2+z
1/2-x,1/2+y,1/2+z
1/2+x,1/2-y,1/2+z
loop_
_atom_site_type_symbol
_atom_site_label
_atom_site_fract_x
_atom_site_fract_y
_atom_site_fract_z
Si Si1 0.250000 0.575082 0.439590
Si Si2 0.750000 0.270672 0.489439
Si Si3 0.750000 0.146941 0.208407
Si Si4 0.067429 0.560682 0.925556
Si Si5 0.550071 0.430154 0.316414
Si Si6 0.915530 0.293686 0.742276
Si Si7 0.250000 0.008356 0.318626
Si Si8 0.070259 0.316934 0.517821
O O1 0.250000 0.656700 0.390963
O O2 0.344536 0.550477 0.355227
O O3 0.250000 0.552100 0.639998
O O4 0.840490 0.271687 0.603762
O O5 0.750000 0.208384 0.350311
O O6 0.840085 0.145381 0.089720
O O7 0.750000 0.074333 0.304062
O O8 0.079177 0.624455 0.792181
O O9 0.165774 0.526226 0.940342
O O10 0.000000 0.500000 0.852166
O O11 0.035399 0.586803 0.113810
O O12 0.500000 0.500000 0.372188
O O13 0.503349 0.367648 0.424476
O O14 0.016183 0.277319 0.669932
O O15 0.892110 0.244939 0.901100
#
# Coordination Sequence:
#
# PCOD8184673 Si02
#       8
#     4   4   4   8   8   8   4   8
#     4  12  23  45  71 101 139 183 239 279 352 436
#     4  12  25  45  67 103 133 185 239 291 352 430
#     4  12  29  43  71 104 142 186 235 304 361 430
#     4  11  24  43  68 102 134 181 235 290 355 428
#     4  11  25  44  71 104 141 184 234 294 354 424
#     4  12  24  44  69  96 138 183 237 294 355 430
#     4  12  23  45  69  98 136 180 229 294 357 422
#     4  12  25  44  67 102 138 185 234 291 361 423
#
# _framework density 22.122733
#
# number of rings (size 3 to 8) (size 9 to 14) (size 15 to 20)
#    0.000    0.333    3.333    5.000    2.333    4.000 
#    0.000    2.500    0.000    0.000    0.000    0.000 
#    0.000    0.000    0.000    0.000    0.000    0.000 
#
# Total GULP energy -297471.786729 kJ/mol
# GULP energy per Si atom -12394.657780 kJ/mol
# Density = 2.207238 g / cm^3
# Si number density = 22.122733 Si / 1000 Ang^3
#
#
#
# Elastic Constant Matrix: (Units=GPa)
#
#
# Indices 1 2 3 4 5 6 
#
# 1 164.9681 34.4279 31.3769 0.0000 0.0000 0.0000
# 2 34.4279 118.7326 41.3062 0.0000 0.0000 0.0000
# 3 31.3769 41.3062 79.0608 0.0000 0.0000 0.0000
# 4 0.0000 0.0000 0.0000 33.1862 0.0000 0.0000
# 5 0.0000 0.0000 0.0000 0.0000 61.0443 0.0000
# 6 0.0000 0.0000 0.0000 0.0000 0.0000 35.4301
#
#
#
# Elastic Compliance Matrix: (Units=1/GPa)
#
#
# Indices 1 2 3 4 5 6 
#
# 1 0.006704 -0.001244 -0.002010 0.000000 0.000000 0.000000
# 2 -0.001244 0.010524 -0.005005 0.000000 0.000000 0.000000
# 3 -0.002010 -0.005005 0.016061 0.000000 0.000000 0.000000
# 4 0.000000 0.000000 0.000000 0.030133 0.000000 0.000000
# 5 0.000000 0.000000 0.000000 0.000000 0.016382 0.000000
# 6 0.000000 0.000000 0.000000 0.000000 0.000000 0.028225
#
#
# Mechanical properties :
#
#
# Convention : Reuss Voigt Hill
#
# Bulk Modulus (GPa) = 59.62943 64.10927 61.86935
# Shear Modulus (GPa) = 38.42099 42.97548 40.69823
#
# Velocity S-wave (km/s) = 4.17192 4.41227 4.29378
# Velocity P-wave (km/s) = 7.08653 7.41615 7.25322
#
# Compressibility (1/GPa) = 0.01677024
#
# Stress axis : x y z
#
# Youngs Moduli (GPa) = 149.16762 95.01919 62.26242
#
# Poissons Ratio (x) = 0.11825 0.12517
# Poissons Ratio (y) = 0.18563 0.31160
# Poissons Ratio (z) = 0.29988 0.47553
#
# Static dielectric constant tensor:
#      x y z
#    x 4.117690 0.000000 0.000000 
#    y 0.000000 3.978250 0.000000 
#    z 0.000000 0.000000 3.946850 
# 
# 
# High freq. dielectric constant tensor:
#      x y z
#    x 1.893890 0.000000 0.000000 
#    y 0.000000 1.874840 0.000000 
#    z 0.000000 0.000000 1.873440 
# 
# From -- ./inp_files/6501.got.cif
#   From: 2010.03.12/outbox.cif.g09.slc.cpg/sg40_4_cif.got.tgz:6501.got - 2010.04.14 01:38:03.
