data_PCOD8184422
_publ_section_title
;
Structure prediction by ZEFSAII (Michael W. Deem and Ramdas Pophale) SiO2 
 PCOD8184422
Probable space group: A M A 2
;
_chemical_formula_sum "Si O2"
_cell_formula_units_Z 32
_cell_length_a 18.917484
_cell_length_b 11.843828
_cell_length_c 6.837993
_cell_angle_alpha 90.000000
_cell_angle_beta 90.000000
_cell_angle_gamma 90.000000
_cell_volume 1532.089439
_symmetry_space_group_name_H-M "A M A 2"
_symmetry_group_IT_number 40
_symmetry_cell_setting 'orthorhombic'
loop_
_space_group_symop_operation_xyz
x,y,z
-x,-y,z
1/2-x,y,z
1/2+x,-y,z
x,1/2+y,1/2+z
-x,1/2-y,1/2+z
1/2-x,1/2+y,1/2+z
1/2+x,1/2-y,1/2+z
loop_
_atom_site_type_symbol
_atom_site_label
_atom_site_fract_x
_atom_site_fract_y
_atom_site_fract_z
Si Si1 0.833426 0.499998 0.671590
Si Si2 0.930481 0.194461 0.241909
Si Si3 0.930469 0.867599 0.428127
Si Si4 0.430477 0.062078 0.844727
O O1 0.750000 0.500025 0.671575
O O2 0.862381 0.614888 0.771325
O O3 0.862360 0.392681 0.794087
O O4 0.862372 0.492403 0.449380
O O5 0.928888 0.302511 0.388245
O O6 0.000011 0.120197 0.291765
O O7 0.928879 0.240407 0.017032
O O8 0.928881 0.957064 0.609485
O O9 0.500000 0.000000 0.931197
#
# Coordination Sequence:
#
# PCOD8184422 Si02
#       4
#     8   8   8   8
#     4  12  25  41  58  90 136 170 202 252 316 389
#     4  10  22  41  69  92 122 158 216 270 310 362
#     4  10  22  41  69  92 122 158 216 270 310 362
#     4  10  22  41  69  92 122 158 216 270 310 362
#
# _framework density 20.886507999999999
#
# number of rings (size 3 to 8) (size 9 to 14) (size 15 to 20)
#    1.500    0.000    0.000    6.750    0.000    3.000 
#    4.500    0.000    0.000    0.000    0.000    0.000 
#    0.000    0.000    0.000    0.000    0.000    0.000 
#
# Total GULP energy -198235.433287 kJ/mol
# GULP energy per Si atom -12389.714580 kJ/mol
# Density = 2.083897 g / cm^3
# Si number density = 20.886508 Si / 1000 Ang^3
#
#
#
# Elastic Constant Matrix: (Units=GPa)
#
#
# Indices 1 2 3 4 5 6 
#
# 1 226.0379 69.4673 69.4550 0.0000 0.0000 0.0000
# 2 69.4673 102.4439 44.7644 0.0000 0.0000 0.0000
# 3 69.4550 44.7644 102.4376 0.0000 0.0000 0.0000
# 4 0.0000 0.0000 0.0000 28.8395 0.0000 0.0000
# 5 0.0000 0.0000 0.0000 0.0000 19.4236 0.0000
# 6 0.0000 0.0000 0.0000 0.0000 0.0000 19.4131
#
#
#
# Elastic Compliance Matrix: (Units=1/GPa)
#
#
# Indices 1 2 3 4 5 6 
#
# 1 0.006231 -0.002941 -0.002940 0.000000 0.000000 0.000000
# 2 -0.002941 0.013453 -0.003885 0.000000 0.000000 0.000000
# 3 -0.002940 -0.003885 0.013453 0.000000 0.000000 0.000000
# 4 0.000000 0.000000 0.000000 0.034675 0.000000 0.000000
# 5 0.000000 0.000000 0.000000 0.000000 0.051484 0.000000
# 6 0.000000 0.000000 0.000000 0.000000 0.000000 0.051512
#
#
# Mechanical properties :
#
#
# Convention : Reuss Voigt Hill
#
# Bulk Modulus (GPa) = 73.49585 88.69919 81.09752
# Shear Modulus (GPa) = 25.65763 30.01742 27.83753
#
# Velocity S-wave (km/s) = 3.50870 3.79511 3.65471
# Velocity P-wave (km/s) = 7.18883 7.85896 7.53135
#
# Compressibility (1/GPa) = 0.01360621
#
# Stress axis : x y z
#
# Youngs Moduli (GPa) = 160.48510 74.33179 74.33289
#
# Poissons Ratio (x) = 0.21859 0.21852
# Poissons Ratio (y) = 0.47195 0.28879
# Poissons Ratio (z) = 0.47179 0.28878
#
# Static dielectric constant tensor:
#      x y z
#    x 3.262510 0.000000 0.000000 
#    y 0.000000 3.664290 0.000000 
#    z 0.000000 0.000000 3.664200 
# 
# 
# High freq. dielectric constant tensor:
#      x y z
#    x 1.777770 0.000000 0.000000 
#    y 0.000000 1.820910 0.000000 
#    z 0.000000 0.000000 1.820910 
# 
# From -- ./inp_files/2110.got.cif
#   From: 2010.03.12/outbox.cif.g09.slc.cpg/sg40_2_cif.got.tgz:2110.got - 2010.04.14 01:38:03.
