data_PCOD8184410
_publ_section_title
;
Structure prediction by ZEFSAII (Michael W. Deem and Ramdas Pophale) SiO2 
 PCOD8184410
Probable space group: A M A 2
;
_chemical_formula_sum "Si O2"
_cell_formula_units_Z 44
_cell_length_a 19.540474
_cell_length_b 6.504106
_cell_length_c 16.423459
_cell_angle_alpha 90.000000
_cell_angle_beta 90.000000
_cell_angle_gamma 90.000000
_cell_volume 2087.311835
_symmetry_space_group_name_H-M "A M A 2"
_symmetry_group_IT_number 40
_symmetry_cell_setting 'orthorhombic'
loop_
_space_group_symop_operation_xyz
x,y,z
-x,-y,z
1/2-x,y,z
1/2+x,-y,z
x,1/2+y,1/2+z
-x,1/2-y,1/2+z
1/2-x,1/2+y,1/2+z
1/2+x,1/2-y,1/2+z
loop_
_atom_site_type_symbol
_atom_site_label
_atom_site_fract_x
_atom_site_fract_y
_atom_site_fract_z
Si Si1 0.442431 0.153067 0.408990
Si Si2 0.075982 0.429441 0.263840
Si Si3 0.673282 0.003568 0.526641
Si Si4 0.327106 0.242277 0.688641
Si Si5 0.881246 0.356880 0.625645
Si Si6 0.500000 0.500000 0.518060
O O1 0.403182 0.284079 0.339576
O O2 0.488702 0.297042 0.465699
O O3 0.500000 0.000000 0.371248
O O4 0.383173 0.030921 0.457028
O O5 0.125356 0.628129 0.255494
O O6 0.077500 0.304361 0.180362
O O7 0.000000 0.500000 0.281784
O O8 0.750000 0.979010 0.490280
O O9 0.668476 0.232703 0.564833
O O10 0.660454 0.839490 0.597751
O O11 0.250000 0.200811 0.717800
O O12 0.340529 0.486957 0.684832
O O13 0.933909 0.485677 0.573610
#
# Coordination Sequence:
#
# PCOD8184410 Si02
#       6
#     8   8   8   8   8   4
#     4  12  25  42  64  97 133 168 214 272 326 390
#     4  11  26  40  65  95 132 168 216 268 325 382
#     4  10  22  41  65  96 130 167 215 267 325 391
#     4  10  22  42  66  94 128 171 217 265 320 393
#     4  11  22  39  68  95 125 172 218 266 318 384
#     4  12  22  38  66  94 128 168 216 262 322 378
#
# _framework density 21.079744999999999
#
# number of rings (size 3 to 8) (size 9 to 14) (size 15 to 20)
#    0.000    1.091    4.545    1.636    6.364    1.455 
#    0.000    0.000    0.000    0.000    0.000    0.000 
#    0.000    0.000    0.000    0.000    0.000    0.000 
#
# Total GULP energy -272814.742497 kJ/mol
# GULP energy per Si atom -12400.670114 kJ/mol
# Density = 2.103177 g / cm^3
# Si number density = 21.079745 Si / 1000 Ang^3
#
#
#
# Elastic Constant Matrix: (Units=GPa)
#
#
# Indices 1 2 3 4 5 6 
#
# 1 122.6909 43.8169 39.1124 0.0000 0.0000 0.0000
# 2 43.8169 116.9300 30.5828 0.0000 0.0000 0.0000
# 3 39.1124 30.5828 72.4562 0.0000 0.0000 0.0000
# 4 0.0000 0.0000 0.0000 40.2603 0.0000 0.0000
# 5 0.0000 0.0000 0.0000 0.0000 16.0100 0.0000
# 6 0.0000 0.0000 0.0000 0.0000 0.0000 26.8826
#
#
#
# Elastic Compliance Matrix: (Units=1/GPa)
#
#
# Indices 1 2 3 4 5 6 
#
# 1 0.010592 -0.002781 -0.004544 0.000000 0.000000 0.000000
# 2 -0.002781 0.010343 -0.002865 0.000000 0.000000 0.000000
# 3 -0.004544 -0.002865 0.017464 0.000000 0.000000 0.000000
# 4 0.000000 0.000000 0.000000 0.024838 0.000000 0.000000
# 5 0.000000 0.000000 0.000000 0.000000 0.062461 0.000000
# 6 0.000000 0.000000 0.000000 0.000000 0.000000 0.037199
#
#
# Mechanical properties :
#
#
# Convention : Reuss Voigt Hill
#
# Bulk Modulus (GPa) = 55.49359 59.90014 57.69687
# Shear Modulus (GPa) = 26.41548 29.86827 28.14187
#
# Velocity S-wave (km/s) = 3.54379 3.76828 3.65776
# Velocity P-wave (km/s) = 6.56713 6.88556 6.72823
#
# Compressibility (1/GPa) = 0.01802010
#
# Stress axis : x y z
#
# Youngs Moduli (GPa) = 94.40879 96.67997 57.26214
#
# Poissons Ratio (x) = 0.26884 0.26020
# Poissons Ratio (y) = 0.26252 0.16404
# Poissons Ratio (z) = 0.42900 0.27697
#
# Static dielectric constant tensor:
#      x y z
#    x 3.746510 0.000000 0.000000 
#    y 0.000000 4.004050 0.000000 
#    z 0.000000 0.000000 3.624810 
# 
# 
# High freq. dielectric constant tensor:
#      x y z
#    x 1.824040 0.000000 0.000000 
#    y 0.000000 1.841550 0.000000 
#    z 0.000000 0.000000 1.806300 
# 
# From -- ./inp_files/21468.got.cif
#   From: 2010.03.12/outbox.cif.g09.slc.cpg/sg40_11_cif.got.tgz:21468.got - 2010.04.14 01:38:03.
