data_PCOD8184477
_publ_section_title
;
Structure prediction by ZEFSAII (Michael W. Deem and Ramdas Pophale) SiO2 
 PCOD8184477
Probable space group: A M A 2
;
_chemical_formula_sum "Si O2"
_cell_formula_units_Z 64
_cell_length_a 18.440150
_cell_length_b 11.866165
_cell_length_c 14.596799
_cell_angle_alpha 90.000000
_cell_angle_beta 90.000000
_cell_angle_gamma 90.000000
_cell_volume 3193.981970
_symmetry_space_group_name_H-M "A M A 2"
_symmetry_group_IT_number 40
_symmetry_cell_setting 'orthorhombic'
loop_
_space_group_symop_operation_xyz
x,y,z
-x,-y,z
1/2-x,y,z
1/2+x,-y,z
x,1/2+y,1/2+z
-x,1/2-y,1/2+z
1/2-x,1/2+y,1/2+z
1/2+x,1/2-y,1/2+z
loop_
_atom_site_type_symbol
_atom_site_label
_atom_site_fract_x
_atom_site_fract_y
_atom_site_fract_z
Si Si1 0.667146 0.606331 0.768920
Si Si2 0.334771 0.180964 0.991942
Si Si3 0.560476 0.298248 0.216939
Si Si4 0.668441 0.874255 0.187538
Si Si5 0.915132 0.229611 0.830802
Si Si6 0.081660 0.019919 0.850743
Si Si7 0.943146 0.353283 0.008708
Si Si8 0.398664 0.917293 0.455676
O O1 0.750000 0.638129 0.795602
O O2 0.628632 0.716805 0.730411
O O3 0.665187 0.509203 0.693327
O O4 0.622522 0.552237 0.852414
O O5 0.250000 0.151566 0.983998
O O6 0.369256 0.153834 0.090999
O O7 0.376177 0.103900 0.918455
O O8 0.345480 0.315021 0.981700
O O9 0.493602 0.260845 0.281480
O O10 0.581828 0.423013 0.250313
O O11 0.543141 0.301424 0.108963
O O12 0.750000 0.829970 0.183308
O O13 0.635096 0.811427 0.273501
O O14 0.883104 0.102423 0.833269
O O15 0.910174 0.263881 0.937764
O O16 0.000000 0.000000 0.888926
O O17 0.892445 0.466332 0.014664
O O18 0.019102 0.379164 0.961314
#
# Coordination Sequence:
#
# PCOD8184477 Si02
#       8
#     8   8   8   8   8   8   8   8
#     4  11  22  43  65  88 127 169 217 270 319 379
#     4  11  23  43  66  91 125 171 219 260 316 387
#     4  11  24  40  63  95 126 167 211 263 322 382
#     4  10  24  41  61  91 124 164 209 261 319 379
#     4  11  22  41  62  89 130 161 204 263 320 380
#     4  10  23  39  60  90 128 163 204 260 316 376
#     4  11  24  38  64  98 126 160 210 263 325 382
#     4  11  21  40  65  93 124 160 212 268 313 380
#
# _framework density 20.037683999999999
#
# number of rings (size 3 to 8) (size 9 to 14) (size 15 to 20)
#    0.000    1.250    3.750    1.875    8.750    1.000 
#    0.000    1.875    0.000    0.000    0.000    0.000 
#    0.000    0.000    0.000    0.000    0.000    0.000 
#
# Total GULP energy -396563.567749 kJ/mol
# GULP energy per Si atom -12392.611492 kJ/mol
# Density = 1.999208 g / cm^3
# Si number density = 20.037684 Si / 1000 Ang^3
#
#
#
# Elastic Constant Matrix: (Units=GPa)
#
#
# Indices 1 2 3 4 5 6 
#
# 1 68.7935 37.3827 32.5192 0.0000 0.0000 0.0000
# 2 37.3827 116.9685 40.2690 0.0000 0.0000 0.0000
# 3 32.5192 40.2690 135.2020 0.0000 0.0000 0.0000
# 4 0.0000 0.0000 0.0000 25.8774 0.0000 0.0000
# 5 0.0000 0.0000 0.0000 0.0000 23.9806 0.0000
# 6 0.0000 0.0000 0.0000 0.0000 0.0000 27.1137
#
#
#
# Elastic Compliance Matrix: (Units=1/GPa)
#
#
# Indices 1 2 3 4 5 6 
#
# 1 0.018634 -0.004917 -0.003018 0.000000 0.000000 0.000000
# 2 -0.004917 0.010823 -0.002041 0.000000 0.000000 0.000000
# 3 -0.003018 -0.002041 0.008730 0.000000 0.000000 0.000000
# 4 0.000000 0.000000 0.000000 0.038644 0.000000 0.000000
# 5 0.000000 0.000000 0.000000 0.000000 0.041700 0.000000
# 6 0.000000 0.000000 0.000000 0.000000 0.000000 0.036882
#
#
# Mechanical properties :
#
#
# Convention : Reuss Voigt Hill
#
# Bulk Modulus (GPa) = 54.83308 60.14507 57.48907
# Shear Modulus (GPa) = 27.55682 29.44723 28.50202
#
# Velocity S-wave (km/s) = 3.71246 3.83769 3.77559
# Velocity P-wave (km/s) = 6.76763 7.05112 6.91083
#
# Compressibility (1/GPa) = 0.01823717
#
# Stress axis : x y z
#
# Youngs Moduli (GPa) = 53.66417 92.39306 114.54657
#
# Poissons Ratio (x) = 0.45426 0.34566
# Poissons Ratio (y) = 0.26385 0.23380
# Poissons Ratio (z) = 0.16194 0.18858
#
# Static dielectric constant tensor:
#      x y z
#    x 3.340440 0.000000 0.000000 
#    y 0.000000 3.928560 0.000000 
#    z 0.000000 0.000000 3.705770 
# 
# 
# High freq. dielectric constant tensor:
#      x y z
#    x 1.763860 0.000000 0.000000 
#    y 0.000000 1.797310 0.000000 
#    z 0.000000 0.000000 1.784560 
# 
# From -- ./inp_files/17829.got.cif
#   From: 2010.03.12/outbox.cif.g09.slc.cpg/sg40_9_cif.got.tgz:17829.got - 2010.04.14 01:38:03.
