data_PCOD8184044
_publ_section_title
;
Structure prediction by ZEFSAII (Michael W. Deem and Ramdas Pophale) SiO2 
 PCOD8184044
Probable space group: A M A 2
;
_chemical_formula_sum "Si O2"
_cell_formula_units_Z 64
_cell_length_a 21.046553
_cell_length_b 18.279276
_cell_length_c 9.071340
_cell_angle_alpha 90.000000
_cell_angle_beta 90.000000
_cell_angle_gamma 90.000000
_cell_volume 3489.887382
_symmetry_space_group_name_H-M "A M A 2"
_symmetry_group_IT_number 40
_symmetry_cell_setting 'orthorhombic'
loop_
_space_group_symop_operation_xyz
x,y,z
-x,-y,z
1/2-x,y,z
1/2+x,-y,z
x,1/2+y,1/2+z
-x,1/2-y,1/2+z
1/2-x,1/2+y,1/2+z
1/2+x,1/2-y,1/2+z
loop_
_atom_site_type_symbol
_atom_site_label
_atom_site_fract_x
_atom_site_fract_y
_atom_site_fract_z
Si Si1 0.179368 0.016650 0.181180
Si Si2 0.820630 0.016642 0.501235
Si Si3 0.180388 0.635435 0.159440
Si Si4 0.081843 0.749994 0.091185
Si Si5 0.893453 0.077379 0.761724
Si Si6 0.999997 0.682418 0.341193
Si Si7 0.180387 0.864569 0.022979
Si Si8 0.106544 0.577392 0.420677
O O1 0.250000 0.052378 0.199010
O O2 0.149035 0.000023 0.341217
O O3 0.133158 0.068511 0.086458
O O4 0.186916 0.941974 0.096617
O O5 0.750000 0.052370 0.483364
O O6 0.866840 0.068515 0.595935
O O7 0.813074 0.941989 0.585884
O O8 0.250000 0.673767 0.161897
O O9 0.128759 0.681262 0.066142
O O10 0.158130 0.622884 0.327220
O O11 0.038413 0.736149 0.233424
O O12 0.128757 0.818726 0.116237
O O13 0.038418 0.763839 0.948938
O O14 0.841863 0.122854 0.855201
O O15 0.955555 0.128006 0.746598
O O16 0.909594 0.999991 0.841187
O O17 0.044438 0.628013 0.435812
O O18 0.250000 0.826242 0.020507
#
# Coordination Sequence:
#
# PCOD8184044 Si02
#       8
#     8   8   8   8   8   8   8   8
#     4   9  17  29  49  78 103 120 147 195 252 297
#     4   9  17  29  49  78 103 120 147 195 252 297
#     4   9  17  31  51  72  95 124 160 199 238 286
#     4  10  21  34  48  68  93 130 168 200 236 280
#     4   9  17  31  51  71  94 126 161 199 243 288
#     4  10  21  34  48  66  95 132 170 204 236 286
#     4   9  17  31  51  72  95 124 160 199 238 286
#     4   9  17  31  51  71  94 126 161 199 243 288
#
# _framework density 18.338699999999999
#
# number of rings (size 3 to 8) (size 9 to 14) (size 15 to 20)
#    0.000    2.750    0.000    1.500    0.000    5.000 
#    0.000    0.000    0.000   13.500    0.000   17.500 
#    0.000    0.000    0.000    0.000    0.000    0.000 
#
# Total GULP energy -396580.189317 kJ/mol
# GULP energy per Si atom -12393.130916 kJ/mol
# Density = 1.829696 g / cm^3
# Si number density = 18.338700 Si / 1000 Ang^3
#
#
#
# Elastic Constant Matrix: (Units=GPa)
#
#
# Indices 1 2 3 4 5 6 
#
# 1 133.0789 48.2194 63.5220 0.0000 0.0000 0.0000
# 2 48.2194 54.8892 28.6726 0.0000 0.0000 0.0000
# 3 63.5220 28.6726 123.2295 0.0000 0.0000 0.0000
# 4 0.0000 0.0000 0.0000 26.8342 0.0000 0.0000
# 5 0.0000 0.0000 0.0000 0.0000 31.0018 0.0000
# 6 0.0000 0.0000 0.0000 0.0000 0.0000 27.0161
#
#
#
# Elastic Compliance Matrix: (Units=1/GPa)
#
#
# Indices 1 2 3 4 5 6 
#
# 1 0.012963 -0.008990 -0.004590 0.000000 0.000000 0.000000
# 2 -0.008990 0.026974 -0.001642 0.000000 0.000000 0.000000
# 3 -0.004590 -0.001642 0.010863 0.000000 0.000000 0.000000
# 4 0.000000 0.000000 0.000000 0.037266 0.000000 0.000000
# 5 0.000000 0.000000 0.000000 0.000000 0.032256 0.000000
# 6 0.000000 0.000000 0.000000 0.000000 0.000000 0.037015
#
#
# Mechanical properties :
#
#
# Convention : Reuss Voigt Hill
#
# Bulk Modulus (GPa) = 49.12727 65.78064 57.45395
# Shear Modulus (GPa) = 25.69824 28.35601 27.02712
#
# Velocity S-wave (km/s) = 3.74747 3.93649 3.84314
# Velocity P-wave (km/s) = 6.75068 7.52389 7.14775
#
# Compressibility (1/GPa) = 0.02035529
#
# Stress axis : x y z
#
# Youngs Moduli (GPa) = 77.14445 37.07323 92.05373
#
# Poissons Ratio (x) = 0.33328 0.42255
# Poissons Ratio (y) = 0.69350 0.15117
# Poissons Ratio (z) = 0.35412 0.06088
#
# Static dielectric constant tensor:
#      x y z
#    x 3.795140 0.000000 0.000000 
#    y 0.000000 3.252240 0.000000 
#    z 0.000000 0.000000 3.518300 
# 
# 
# High freq. dielectric constant tensor:
#      x y z
#    x 1.720870 0.000000 0.000000 
#    y 0.000000 1.692410 0.000000 
#    z 0.000000 0.000000 1.696290 
# 
# From -- ./inp_files/8446.got.cif
#   From: 2010.03.12/outbox.cif.g09.slc.cpg/sg40_5_cif.got.tgz:8446.got - 2010.04.14 01:38:03.
