data_PCOD8184839
_publ_section_title
;
Structure prediction by ZEFSAII (Michael W. Deem and Ramdas Pophale) SiO2 
 PCOD8184839
Probable space group: A B A 2
;
_chemical_formula_sum "Si O2"
_cell_formula_units_Z 64
_cell_length_a 14.452989
_cell_length_b 17.892239
_cell_length_c 13.515302
_cell_angle_alpha 90.000000
_cell_angle_beta 90.000000
_cell_angle_gamma 90.000000
_cell_volume 3495.007543
_symmetry_space_group_name_H-M "A B A 2"
_symmetry_group_IT_number 41
_symmetry_cell_setting 'orthorhombic'
loop_
_space_group_symop_operation_xyz
x,y,z
-x,-y,z
1/2-x,y,1/2+z
1/2+x,-y,1/2+z
x,1/2+y,1/2+z
-x,1/2-y,1/2+z
1/2-x,1/2+y,z
1/2+x,1/2-y,z
loop_
_atom_site_type_symbol
_atom_site_label
_atom_site_fract_x
_atom_site_fract_y
_atom_site_fract_z
Si Si1 0.239155 0.589326 0.551350
Si Si2 0.409628 0.818272 0.985397
Si Si3 0.885396 0.320894 0.935095
Si Si4 0.107447 0.156613 0.901983
Si Si5 0.104131 0.849395 0.889360
Si Si6 0.816271 0.680908 0.180686
Si Si7 0.265353 0.660712 0.251739
Si Si8 0.249786 0.418631 0.019436
O O1 0.319782 0.646506 0.519817
O O2 0.145626 0.607484 0.492365
O O3 0.219429 0.599350 0.667247
O O4 0.271834 0.505389 0.532141
O O5 0.401096 0.801798 0.103834
O O6 0.334333 0.881657 0.955685
O O7 0.510730 0.848376 0.956270
O O8 0.385106 0.744227 0.925056
O O9 0.879505 0.231331 0.938683
O O10 0.851028 0.348489 0.827667
O O11 0.168288 0.142807 0.804469
O O12 0.003475 0.130113 0.883157
O O13 0.143557 0.856077 0.779152
O O14 0.154578 0.908709 0.960256
O O15 0.761972 0.756725 0.204941
O O16 0.746021 0.622568 0.127010
#
# Coordination Sequence:
#
# PCOD8184839 Si02
#       8
#     8   8   8   8   8   8   8   8
#     4  11  21  37  55  84 120 154 188 227 294 345
#     4   9  18  38  57  87 110 141 194 240 295 324
#     4   9  20  35  60  85 110 147 191 247 283 335
#     4  10  21  37  62  86 108 153 189 247 289 335
#     4  10  20  39  60  87 112 144 200 237 290 340
#     4   9  19  35  59  86 111 143 191 238 284 339
#     4  10  19  35  59  85 117 146 193 236 286 350
#     4  10  22  36  57  81 120 154 180 239 281 349
#
# _framework density 18.311834999999999
#
# number of rings (size 3 to 8) (size 9 to 14) (size 15 to 20)
#    0.750    1.500    1.250    3.000    1.750    3.000 
#    0.000    1.250    0.000    3.000    0.000    0.000 
#    0.000    0.000    0.000    0.000    0.000    0.000 
#
# Total GULP energy -396738.693496 kJ/mol
# GULP energy per Si atom -12398.084172 kJ/mol
# Density = 1.827016 g / cm^3
# Si number density = 18.311835 Si / 1000 Ang^3
#
#
#
# Elastic Constant Matrix: (Units=GPa)
#
#
# Indices 1 2 3 4 5 6 
#
# 1 110.2863 25.1255 53.4914 0.0000 0.0000 0.0000
# 2 25.1255 46.5534 28.4090 0.0000 0.0000 0.0000
# 3 53.4914 28.4090 113.8989 0.0000 0.0000 0.0000
# 4 0.0000 0.0000 0.0000 12.9479 0.0000 0.0000
# 5 0.0000 0.0000 0.0000 0.0000 19.9828 0.0000
# 6 0.0000 0.0000 0.0000 0.0000 0.0000 13.5378
#
#
#
# Elastic Compliance Matrix: (Units=1/GPa)
#
#
# Indices 1 2 3 4 5 6 
#
# 1 0.012248 -0.003657 -0.004840 0.000000 0.000000 0.000000
# 2 -0.003657 0.026429 -0.004875 0.000000 0.000000 0.000000
# 3 -0.004840 -0.004875 0.012269 0.000000 0.000000 0.000000
# 4 0.000000 0.000000 0.000000 0.077232 0.000000 0.000000
# 5 0.000000 0.000000 0.000000 0.000000 0.050043 0.000000
# 6 0.000000 0.000000 0.000000 0.000000 0.000000 0.073867
#
#
# Mechanical properties :
#
#
# Convention : Reuss Voigt Hill
#
# Bulk Modulus (GPa) = 41.31767 53.86560 47.59164
# Shear Modulus (GPa) = 17.42777 20.20790 18.81784
#
# Velocity S-wave (km/s) = 3.08835 3.32557 3.20915
# Velocity P-wave (km/s) = 5.94386 6.65022 6.30694
#
# Compressibility (1/GPa) = 0.02420272
#
# Stress axis : x y z
#
# Youngs Moduli (GPa) = 81.64648 37.83718 81.50868
#
# Poissons Ratio (x) = 0.13836 0.39450
# Poissons Ratio (y) = 0.29856 0.39733
# Poissons Ratio (z) = 0.39517 0.18444
#
# Static dielectric constant tensor:
#      x y z
#    x 3.355590 0.000000 0.000000 
#    y 0.000000 3.102290 0.000000 
#    z 0.000000 0.000000 3.395570 
# 
# 
# High freq. dielectric constant tensor:
#      x y z
#    x 1.702710 0.000000 0.000000 
#    y 0.000000 1.690680 0.000000 
#    z 0.000000 0.000000 1.712880 
# 
# From -- ./inp_files/8578.got.cif
#   From: 2010.03.12/outbox.cif.g09.slc.cpg/sg41_5_cif.got.tgz:8578.got - 2010.04.14 01:55:53.
