data_PCOD8184430
_publ_section_title
;
Structure prediction by ZEFSAII (Michael W. Deem and Ramdas Pophale) SiO2 
 PCOD8184430
Probable space group: A M A 2
;
_chemical_formula_sum "Si O2"
_cell_formula_units_Z 48
_cell_length_a 9.049455
_cell_length_b 27.449127
_cell_length_c 9.570271
_cell_angle_alpha 90.000000
_cell_angle_beta 90.000000
_cell_angle_gamma 90.000000
_cell_volume 2377.251867
_symmetry_space_group_name_H-M "A M A 2"
_symmetry_group_IT_number 40
_symmetry_cell_setting 'orthorhombic'
loop_
_space_group_symop_operation_xyz
x,y,z
-x,-y,z
1/2-x,y,z
1/2+x,-y,z
x,1/2+y,1/2+z
-x,1/2-y,1/2+z
1/2-x,1/2+y,1/2+z
1/2+x,1/2-y,1/2+z
loop_
_atom_site_type_symbol
_atom_site_label
_atom_site_fract_x
_atom_site_fract_y
_atom_site_fract_z
Si Si1 0.082180 0.099396 0.559580
Si Si2 0.419358 0.887128 0.075009
Si Si3 0.579241 0.949728 0.847648
Si Si4 0.583381 0.046291 0.331026
Si Si5 0.924355 0.289881 0.646130
Si Si6 0.076597 0.206927 0.471651
O O1 0.250000 0.092720 0.508690
O O2 0.064575 0.089186 0.723192
O O3 0.029173 0.153711 0.524599
O O4 0.984387 0.059953 0.479872
O O5 0.250000 0.880770 0.026027
O O6 0.429123 0.907162 0.231684
O O7 0.499947 0.835551 0.070590
O O8 0.500479 0.926205 0.979588
O O9 0.750000 0.960496 0.883241
O O10 0.500000 0.000000 0.807261
O O11 0.750000 0.029956 0.355777
O O12 0.500000 0.000000 0.264775
O O13 0.750000 0.295280 0.627233
O O14 0.967047 0.286604 0.809383
O O15 0.981184 0.242555 0.566825
O O16 0.250000 0.216882 0.495399
#
# Coordination Sequence:
#
# PCOD8184430 Si02
#       6
#     8   8   8   8   8   8
#     4  10  22  42  65  90 125 164 207 258 309 367
#     4  11  24  42  64  92 126 164 208 262 311 369
#     4  11  24  41  63  93 127 170 213 259 313 371
#     4  11  23  38  62  92 122 161 204 253 310 369
#     4  11  24  42  67  95 125 166 208 256 315 376
#     4  10  23  43  65  94 129 165 207 258 312 372
#
# _framework density 20.191382000000001
#
# number of rings (size 3 to 8) (size 9 to 14) (size 15 to 20)
#    0.000    1.333    1.667    3.000    2.333    8.000 
#    0.000    0.000    0.000    0.000    0.000    0.000 
#    0.000    0.000    0.000    0.000    0.000    0.000 
#
# Total GULP energy -297741.037175 kJ/mol
# GULP energy per Si atom -12405.876549 kJ/mol
# Density = 2.014543 g / cm^3
# Si number density = 20.191382 Si / 1000 Ang^3
#
#
#
# Elastic Constant Matrix: (Units=GPa)
#
#
# Indices 1 2 3 4 5 6 
#
# 1 129.4710 61.5257 46.7799 0.0000 0.0000 0.0000
# 2 61.5257 125.0397 39.9168 0.0000 0.0000 0.0000
# 3 46.7799 39.9168 83.0907 0.0000 0.0000 0.0000
# 4 0.0000 0.0000 0.0000 37.9121 0.0000 0.0000
# 5 0.0000 0.0000 0.0000 0.0000 31.3774 0.0000
# 6 0.0000 0.0000 0.0000 0.0000 0.0000 41.2338
#
#
#
# Elastic Compliance Matrix: (Units=1/GPa)
#
#
# Indices 1 2 3 4 5 6 
#
# 1 0.011270 -0.004158 -0.004348 0.000000 0.000000 0.000000
# 2 -0.004158 0.010980 -0.002934 0.000000 0.000000 0.000000
# 3 -0.004348 -0.002934 0.015892 0.000000 0.000000 0.000000
# 4 0.000000 0.000000 0.000000 0.026377 0.000000 0.000000
# 5 0.000000 0.000000 0.000000 0.000000 0.031870 0.000000
# 6 0.000000 0.000000 0.000000 0.000000 0.000000 0.024252
#
#
# Mechanical properties :
#
#
# Convention : Reuss Voigt Hill
#
# Bulk Modulus (GPa) = 65.51520 70.44959 67.98239
# Shear Modulus (GPa) = 33.64546 34.72992 34.18769
#
# Velocity S-wave (km/s) = 4.08650 4.15183 4.11929
# Velocity P-wave (km/s) = 7.40159 7.61251 7.50779
#
# Compressibility (1/GPa) = 0.01526363
#
# Stress axis : x y z
#
# Youngs Moduli (GPa) = 88.72774 91.07602 62.92316
#
# Poissons Ratio (x) = 0.37866 0.27358
# Poissons Ratio (y) = 0.36889 0.18462
# Poissons Ratio (z) = 0.38578 0.26722
#
# Static dielectric constant tensor:
#      x y z
#    x 3.781020 0.000000 0.000000 
#    y 0.000000 3.664570 0.000000 
#    z 0.000000 0.000000 3.558640 
# 
# 
# High freq. dielectric constant tensor:
#      x y z
#    x 1.797270 0.000000 0.000000 
#    y 0.000000 1.799660 0.000000 
#    z 0.000000 0.000000 1.790390 
# 
# From -- ./inp_files/4586.got.cif
#   From: 2010.03.12/outbox.cif.g09.slc.cpg/sg40_3_cif.got.tgz:4586.got - 2010.04.14 01:38:03.
