data_PCOD8184569
_publ_section_title
;
Structure prediction by ZEFSAII (Michael W. Deem and Ramdas Pophale) SiO2 
 PCOD8184569
Probable space group: A M A 2
;
_chemical_formula_sum "Si O2"
_cell_formula_units_Z 48
_cell_length_a 9.904441
_cell_length_b 12.079513
_cell_length_c 19.417223
_cell_angle_alpha 90.000000
_cell_angle_beta 90.000000
_cell_angle_gamma 90.000000
_cell_volume 2323.092556
_symmetry_space_group_name_H-M "A M A 2"
_symmetry_group_IT_number 40
_symmetry_cell_setting 'orthorhombic'
loop_
_space_group_symop_operation_xyz
x,y,z
-x,-y,z
1/2-x,y,z
1/2+x,-y,z
x,1/2+y,1/2+z
-x,1/2-y,1/2+z
1/2-x,1/2+y,1/2+z
1/2+x,1/2-y,1/2+z
loop_
_atom_site_type_symbol
_atom_site_label
_atom_site_fract_x
_atom_site_fract_y
_atom_site_fract_z
Si Si1 0.405889 0.893840 0.181090
Si Si2 0.750000 0.410079 0.144393
Si Si3 0.750000 0.639879 0.285378
Si Si4 0.531950 0.780028 0.573372
Si Si5 0.588093 0.394978 0.940928
Si Si6 0.250000 0.624782 0.296460
Si Si7 0.005479 0.765062 0.315240
Si Si8 0.750000 0.166984 0.633539
O O1 0.250000 0.926772 0.197080
O O2 0.411794 0.833095 0.106678
O O3 0.466524 0.815371 0.240157
O O4 0.500000 0.000000 0.176166
O O5 0.613430 0.382839 0.104603
O O6 0.750000 0.341003 0.215619
O O7 0.750000 0.539103 0.151859
O O8 0.750000 0.507725 0.294011
O O9 0.619907 0.684136 0.323236
O O10 0.750000 0.706590 0.212173
O O11 0.560566 0.790053 0.491641
O O12 0.375084 0.791229 0.589635
O O13 0.500000 0.500000 0.967871
O O14 0.750000 0.421047 0.935718
O O15 0.520264 0.365394 0.867798
O O16 0.124956 0.680908 0.335276
#
# Coordination Sequence:
#
# PCOD8184569 Si02
#       8
#     8   4   4   8   8   4   8   4
#     4  12  26  45  70  97 133 180 226 275 331 396
#     4  11  18  39  64  96 134 171 205 274 332 389
#     4  11  22  39  68 106 136 171 225 268 336 389
#     4  12  23  43  65  97 135 169 218 275 330 391
#     4  12  28  45  69  98 134 177 220 277 341 401
#     4  11  22  39  68 104 132 173 223 274 334 387
#     4  12  23  44  67  98 140 177 220 276 327 396
#     4  11  22  33  68 104 132 165 213 268 330 395
#
# _framework density 20.662112
#
# number of rings (size 3 to 8) (size 9 to 14) (size 15 to 20)
#    0.000    0.333    6.667    2.500    4.667    4.000 
#    0.000    1.667    0.000    0.000    0.000    0.000 
#    0.000    0.000    0.000    0.000    0.000    0.000 
#
# Total GULP energy -297449.575918 kJ/mol
# GULP energy per Si atom -12393.732330 kJ/mol
# Density = 2.061508 g / cm^3
# Si number density = 20.662112 Si / 1000 Ang^3
#
#
#
# Elastic Constant Matrix: (Units=GPa)
#
#
# Indices 1 2 3 4 5 6 
#
# 1 178.6886 46.5103 26.9766 0.0000 0.0000 0.0000
# 2 46.5103 88.1127 31.1552 0.0000 0.0000 0.0000
# 3 26.9766 31.1552 68.6371 0.0000 0.0000 0.0000
# 4 0.0000 0.0000 0.0000 30.7521 0.0000 0.0000
# 5 0.0000 0.0000 0.0000 0.0000 25.1024 0.0000
# 6 0.0000 0.0000 0.0000 0.0000 0.0000 56.4983
#
#
#
# Elastic Compliance Matrix: (Units=1/GPa)
#
#
# Indices 1 2 3 4 5 6 
#
# 1 0.006570 -0.003043 -0.001201 0.000000 0.000000 0.000000
# 2 -0.003043 0.014929 -0.005580 0.000000 0.000000 0.000000
# 3 -0.001201 -0.005580 0.017574 0.000000 0.000000 0.000000
# 4 0.000000 0.000000 0.000000 0.032518 0.000000 0.000000
# 5 0.000000 0.000000 0.000000 0.000000 0.039837 0.000000
# 6 0.000000 0.000000 0.000000 0.000000 0.000000 0.017700
#
#
# Mechanical properties :
#
#
# Convention : Reuss Voigt Hill
#
# Bulk Modulus (GPa) = 51.48223 60.52472 56.00348
# Shear Modulus (GPa) = 32.20613 37.85699 35.03156
#
# Velocity S-wave (km/s) = 3.95233 4.28506 4.12205
# Velocity P-wave (km/s) = 6.76744 7.33747 7.05821
#
# Compressibility (1/GPa) = 0.01942418
#
# Stress axis : x y z
#
# Youngs Moduli (GPa) = 152.21342 66.98585 56.90164
#
# Poissons Ratio (x) = 0.20386 0.06832
# Poissons Ratio (y) = 0.46323 0.31752
# Poissons Ratio (z) = 0.18277 0.37379
#
# Static dielectric constant tensor:
#      x y z
#    x 4.021290 0.000000 0.000000 
#    y 0.000000 3.622490 0.000000 
#    z 0.000000 0.000000 3.715410 
# 
# 
# High freq. dielectric constant tensor:
#      x y z
#    x 1.833590 0.000000 0.000000 
#    y 0.000000 1.798320 0.000000 
#    z 0.000000 0.000000 1.790780 
# 
# From -- ./inp_files/19264.got.cif
#   From: 2010.03.12/outbox.cif.g09.slc.cpg/sg40_10_cif.got.tgz:19264.got - 2010.04.14 01:38:03.
