data_PCOD8184902
_publ_section_title
;
Structure prediction by ZEFSAII (Michael W. Deem and Ramdas Pophale) SiO2 
 PCOD8184902
Probable space group: A B A 2
;
_chemical_formula_sum "Si O2"
_cell_formula_units_Z 60
_cell_length_a 32.537945
_cell_length_b 8.242906
_cell_length_c 11.681833
_cell_angle_alpha 90.000000
_cell_angle_beta 90.000000
_cell_angle_gamma 90.000000
_cell_volume 3133.151978
_symmetry_space_group_name_H-M "A B A 2"
_symmetry_group_IT_number 41
_symmetry_cell_setting 'orthorhombic'
loop_
_space_group_symop_operation_xyz
x,y,z
-x,-y,z
1/2-x,y,1/2+z
1/2+x,-y,1/2+z
x,1/2+y,1/2+z
-x,1/2-y,1/2+z
1/2-x,1/2+y,z
1/2+x,1/2-y,z
loop_
_atom_site_type_symbol
_atom_site_label
_atom_site_fract_x
_atom_site_fract_y
_atom_site_fract_z
Si Si1 0.934816 0.273866 0.141930
Si Si2 0.734350 0.494718 0.256870
Si Si3 0.869114 0.989081 0.753212
Si Si4 0.800139 0.797843 0.877240
Si Si5 0.523195 0.753731 0.366576
Si Si6 0.300882 0.808185 0.136685
Si Si7 0.439410 0.905233 0.407176
Si Si8 0.500000 0.500000 0.538667
O O1 0.891938 0.359769 0.171796
O O2 0.954535 0.184175 0.252672
O O3 0.928587 0.153807 0.035591
O O4 0.968349 0.411498 0.120234
O O5 0.705337 0.637925 0.300471
O O6 0.762069 0.421521 0.359691
O O7 0.705126 0.354188 0.210183
O O8 0.763796 0.564577 0.156733
O O9 0.843304 0.108228 0.672707
O O10 0.899609 0.103326 0.826409
O O11 0.841659 0.887973 0.841978
O O12 0.803193 0.742029 0.006325
O O13 0.474689 0.793401 0.350166
O O14 0.527908 0.616206 0.461107
O O15 0.546410 0.909721 0.416311
#
# Coordination Sequence:
#
# PCOD8184902 Si02
#       8
#     8   8   8   8   8   8   8   4
#     4  10  20  37  55  75 110 143 172 222 266 305
#     4   9  20  37  58  82 101 134 185 219 256 317
#     4  10  22  35  50  81 113 140 175 210 263 327
#     4  10  20  36  56  79 107 137 176 219 260 314
#     4   9  19  36  57  80 100 135 188 221 256 313
#     4  10  20  36  58  79 108 142 172 221 269 305
#     4   9  19  37  55  75 110 143 172 219 266 310
#     4  10  20  34  58  80  98 136 184 222 260 306
#
# _framework density 19.150044999999999
#
# number of rings (size 3 to 8) (size 9 to 14) (size 15 to 20)
#    0.000    2.400    0.000    2.400    0.000    6.400 
#    0.000    9.333    0.000    0.000    0.000    0.000 
#    0.000    0.000    0.000    0.000    0.000    0.000 
#
# Total GULP energy -372002.848777 kJ/mol
# GULP energy per Si atom -12400.094959 kJ/mol
# Density = 1.910646 g / cm^3
# Si number density = 19.150045 Si / 1000 Ang^3
#
#
#
# Elastic Constant Matrix: (Units=GPa)
#
#
# Indices 1 2 3 4 5 6 
#
# 1 86.7364 18.7877 41.7227 0.0000 0.0000 0.0000
# 2 18.7877 53.2201 18.8068 0.0000 0.0000 0.0000
# 3 41.7227 18.8068 106.4096 0.0000 0.0000 0.0000
# 4 0.0000 0.0000 0.0000 24.0992 0.0000 0.0000
# 5 0.0000 0.0000 0.0000 0.0000 24.2304 0.0000
# 6 0.0000 0.0000 0.0000 0.0000 0.0000 21.6237
#
#
#
# Elastic Compliance Matrix: (Units=1/GPa)
#
#
# Indices 1 2 3 4 5 6 
#
# 1 0.014757 -0.003376 -0.005189 0.000000 0.000000 0.000000
# 2 -0.003376 0.020814 -0.002355 0.000000 0.000000 0.000000
# 3 -0.005189 -0.002355 0.011849 0.000000 0.000000 0.000000
# 4 0.000000 0.000000 0.000000 0.041495 0.000000 0.000000
# 5 0.000000 0.000000 0.000000 0.000000 0.041270 0.000000
# 6 0.000000 0.000000 0.000000 0.000000 0.000000 0.046246
#
#
# Mechanical properties :
#
#
# Convention : Reuss Voigt Hill
#
# Bulk Modulus (GPa) = 39.09468 45.00007 42.04737
# Shear Modulus (GPa) = 24.17835 25.12725 24.65280
#
# Velocity S-wave (km/s) = 3.55713 3.62626 3.59186
# Velocity P-wave (km/s) = 6.10984 6.40958 6.26150
#
# Compressibility (1/GPa) = 0.02557893
#
# Stress axis : x y z
#
# Youngs Moduli (GPa) = 67.76631 48.04508 84.39801
#
# Poissons Ratio (x) = 0.16218 0.43797
# Poissons Ratio (y) = 0.22875 0.19876
# Poissons Ratio (z) = 0.35167 0.11315
#
# Static dielectric constant tensor:
#      x y z
#    x 3.546270 0.000000 0.000000 
#    y 0.000000 3.570480 0.000000 
#    z 0.000000 0.000000 3.460600 
# 
# 
# High freq. dielectric constant tensor:
#      x y z
#    x 1.741790 0.000000 0.000000 
#    y 0.000000 1.746990 0.000000 
#    z 0.000000 0.000000 1.746510 
# 
# From -- ./inp_files/6637.got.cif
#   From: 2010.03.12/outbox.cif.g09.slc.cpg/sg41_4_cif.got.tgz:6637.got - 2010.04.14 01:55:53.
