data_PCOD8184160
_publ_section_title
;
Structure prediction by ZEFSAII (Michael W. Deem and Ramdas Pophale) SiO2 
 PCOD8184160
Probable space group: A M A 2
;
_chemical_formula_sum "Si O2"
_cell_formula_units_Z 64
_cell_length_a 8.699305
_cell_length_b 30.911891
_cell_length_c 11.957715
_cell_angle_alpha 90.000000
_cell_angle_beta 90.000000
_cell_angle_gamma 90.000000
_cell_volume 3215.572673
_symmetry_space_group_name_H-M "A M A 2"
_symmetry_group_IT_number 40
_symmetry_cell_setting 'orthorhombic'
loop_
_space_group_symop_operation_xyz
x,y,z
-x,-y,z
1/2-x,y,z
1/2+x,-y,z
x,1/2+y,1/2+z
-x,1/2-y,1/2+z
1/2-x,1/2+y,1/2+z
1/2+x,1/2-y,1/2+z
loop_
_atom_site_type_symbol
_atom_site_label
_atom_site_fract_x
_atom_site_fract_y
_atom_site_fract_z
Si Si1 0.569770 0.377879 0.005170
Si Si2 0.433048 0.066691 0.875348
Si Si3 0.068197 0.956425 0.641403
Si Si4 0.568724 0.796371 0.103596
Si Si5 0.932626 0.335480 0.375386
Si Si6 0.431811 0.456433 0.609282
Si Si7 0.068704 0.703603 0.147157
Si Si8 0.069787 0.122097 0.245523
O O1 0.750000 0.385418 0.025900
O O2 0.479561 0.415170 0.069039
O O3 0.519231 0.331084 0.052880
O O4 0.525737 0.379113 0.875346
O O5 0.250000 0.062788 0.875150
O O6 0.500152 0.044449 0.765802
O O7 0.492226 0.115786 0.875454
O O8 0.499793 0.044427 0.984980
O O9 0.250000 0.959062 0.646090
O O10 0.000000 0.000000 0.584238
O O11 0.750000 0.791866 0.099721
O O12 0.499828 0.750013 0.125442
O O13 0.519440 0.831098 0.197808
O O14 0.502078 0.811895 0.984730
O O15 0.750000 0.335340 0.375402
O O16 0.997990 0.311934 0.266002
O O17 0.500000 0.500000 0.666516
O O18 0.250000 0.459078 0.604344
O O19 0.479381 0.415170 0.681695
O O20 0.250000 0.707990 0.151036
O O21 0.250000 0.114499 0.224790
#
# Coordination Sequence:
#
# PCOD8184160 Si02
#       8
#     8   8   8   8   8   8   8   8
#     4  10  22  42  65  88 120 163 209 255 309 367
#     4  11  20  40  67  91 126 164 202 251 307 363
#     4  12  25  41  63  93 125 160 204 252 308 369
#     4  10  21  38  60  89 121 160 202 250 305 363
#     4   9  18  36  62  85 117 160 201 243 304 361
#     4  12  25  41  63  93 125 160 204 252 308 369
#     4  10  21  38  60  89 121 160 202 250 305 363
#     4  10  22  42  65  88 120 163 209 255 309 367
#
# _framework density 19.903143
#
# number of rings (size 3 to 8) (size 9 to 14) (size 15 to 20)
#    0.000    1.500    2.500    3.000    1.750    2.000 
#    0.000    0.000    0.000    0.000    0.000    0.000 
#    0.000    0.000    0.000    0.000    0.000    0.000 
#
# Total GULP energy -396867.290046 kJ/mol
# GULP energy per Si atom -12402.102814 kJ/mol
# Density = 1.985784 g / cm^3
# Si number density = 19.903143 Si / 1000 Ang^3
#
#
#
# Elastic Constant Matrix: (Units=GPa)
#
#
# Indices 1 2 3 4 5 6 
#
# 1 91.5453 61.8993 50.6613 0.0000 0.0000 0.0000
# 2 61.8993 175.5518 59.8570 0.0000 0.0000 0.0000
# 3 50.6613 59.8570 132.9505 0.0000 0.0000 0.0000
# 4 0.0000 0.0000 0.0000 19.7231 0.0000 0.0000
# 5 0.0000 0.0000 0.0000 0.0000 22.8119 0.0000
# 6 0.0000 0.0000 0.0000 0.0000 0.0000 39.1621
#
#
#
# Elastic Compliance Matrix: (Units=1/GPa)
#
#
# Indices 1 2 3 4 5 6 
#
# 1 0.016140 -0.004246 -0.004239 0.000000 0.000000 0.000000
# 2 -0.004246 0.007846 -0.001915 0.000000 0.000000 0.000000
# 3 -0.004239 -0.001915 0.009999 0.000000 0.000000 0.000000
# 4 0.000000 0.000000 0.000000 0.050702 0.000000 0.000000
# 5 0.000000 0.000000 0.000000 0.000000 0.043837 0.000000
# 6 0.000000 0.000000 0.000000 0.000000 0.000000 0.025535
#
#
# Mechanical properties :
#
#
# Convention : Reuss Voigt Hill
#
# Bulk Modulus (GPa) = 75.83319 82.76476 79.29897
# Shear Modulus (GPa) = 27.89361 31.51476 29.70419
#
# Velocity S-wave (km/s) = 3.74768 3.98352 3.86740
# Velocity P-wave (km/s) = 7.54391 7.92666 7.73765
#
# Compressibility (1/GPa) = 0.01318684
#
# Stress axis : x y z
#
# Youngs Moduli (GPa) = 61.95775 127.45043 100.01200
#
# Poissons Ratio (x) = 0.54112 0.42392
# Poissons Ratio (y) = 0.26305 0.19149
# Poissons Ratio (z) = 0.26262 0.24403
#
# Static dielectric constant tensor:
#      x y z
#    x 3.414560 0.000000 0.000000 
#    y 0.000000 3.925600 0.000000 
#    z 0.000000 0.000000 3.899020 
# 
# 
# High freq. dielectric constant tensor:
#      x y z
#    x 1.759410 0.000000 0.000000 
#    y 0.000000 1.797130 0.000000 
#    z 0.000000 0.000000 1.782050 
# 
# From -- ./inp_files/10583.got.cif
#   From: 2010.03.12/outbox.cif.g09.slc.cpg/sg40_6_cif.got.tgz:10583.got - 2010.04.14 01:38:03.
