data_PCOD8184159
_publ_section_title
;
Structure prediction by ZEFSAII (Michael W. Deem and Ramdas Pophale) SiO2 
 PCOD8184159
Probable space group: A M A 2
;
_chemical_formula_sum "Si O2"
_cell_formula_units_Z 48
_cell_length_a 17.087238
_cell_length_b 8.079010
_cell_length_c 17.950318
_cell_angle_alpha 90.000000
_cell_angle_beta 90.000000
_cell_angle_gamma 90.000000
_cell_volume 2478.004901
_symmetry_space_group_name_H-M "A M A 2"
_symmetry_group_IT_number 40
_symmetry_cell_setting 'orthorhombic'
loop_
_space_group_symop_operation_xyz
x,y,z
-x,-y,z
1/2-x,y,z
1/2+x,-y,z
x,1/2+y,1/2+z
-x,1/2-y,1/2+z
1/2-x,1/2+y,1/2+z
1/2+x,1/2-y,1/2+z
loop_
_atom_site_type_symbol
_atom_site_label
_atom_site_fract_x
_atom_site_fract_y
_atom_site_fract_z
Si Si1 0.997875 0.319423 0.003360
Si Si2 0.569696 0.680634 0.167604
Si Si3 0.838610 0.634065 0.495634
Si Si4 0.337197 0.493583 0.654592
Si Si5 0.094474 0.665142 0.226149
Si Si6 0.421646 0.588328 0.386118
O O1 0.035545 0.321107 0.084774
O O2 0.000000 0.500000 0.967717
O O3 0.906533 0.269345 0.007463
O O4 0.052648 0.210492 0.951462
O O5 0.498447 0.689613 0.224783
O O6 0.617739 0.510249 0.185487
O O7 0.617882 0.846020 0.184309
O O8 0.750000 0.710663 0.490189
O O9 0.842681 0.508777 0.565221
O O10 0.857115 0.535125 0.420147
O O11 0.250000 0.517888 0.683301
O O12 0.365852 0.318349 0.685457
O O13 0.118863 0.669230 0.313516
O O14 0.500000 0.500000 0.357309
#
# Coordination Sequence:
#
# PCOD8184159 Si02
#       6
#     8   8   8   8   8   8
#     4  11  20  37  64  89 116 159 209 249 297 366
#     4  11  20  38  63  92 116 158 207 258 294 358
#     4  10  21  38  60  88 123 161 201 250 310 365
#     4  11  23  38  62  92 123 164 203 249 309 366
#     4  11  22  39  64  91 122 154 206 257 303 353
#     4  10  21  38  61  88 118 158 200 248 305 363
#
# _framework density 19.370421
#
# number of rings (size 3 to 8) (size 9 to 14) (size 15 to 20)
#    0.000    1.333    6.667    0.500    0.000    2.667 
#    0.000    1.667    0.000    0.000    0.000    0.000 
#    0.000    0.000    0.000    0.000    0.000    0.000 
#
# Total GULP energy -297437.344845 kJ/mol
# GULP energy per Si atom -12393.222702 kJ/mol
# Density = 1.932633 g / cm^3
# Si number density = 19.370421 Si / 1000 Ang^3
#
#
#
# Elastic Constant Matrix: (Units=GPa)
#
#
# Indices 1 2 3 4 5 6 
#
# 1 76.2367 45.3557 36.2311 0.0000 0.0000 0.0000
# 2 45.3557 112.6427 39.1205 0.0000 0.0000 0.0000
# 3 36.2311 39.1205 111.9956 0.0000 0.0000 0.0000
# 4 0.0000 0.0000 0.0000 20.6422 0.0000 0.0000
# 5 0.0000 0.0000 0.0000 0.0000 -0.7039 0.0000
# 6 0.0000 0.0000 0.0000 0.0000 0.0000 14.2185
#
#
#
# Elastic Compliance Matrix: (Units=1/GPa)
#
#
# Indices 1 2 3 4 5 6 
#
# 1 0.018618 -0.006151 -0.003874 0.000000 0.000000 0.000000
# 2 -0.006151 0.012135 -0.002249 0.000000 0.000000 0.000000
# 3 -0.003874 -0.002249 0.010968 0.000000 0.000000 0.000000
# 4 0.000000 0.000000 0.000000 0.048444 0.000000 0.000000
# 5 0.000000 0.000000 0.000000 0.000000 -1.420620 0.000000
# 6 0.000000 0.000000 0.000000 0.000000 0.000000 0.070331
#
#
# Mechanical properties :
#
#
# Convention : Reuss Voigt Hill
#
# Bulk Modulus (GPa) = 58.23338 60.25440 59.24389
# Shear Modulus (GPa) = -4.06553 18.84253 7.38850
#
# Velocity S-wave (km/s) = -1.45031 3.12227 1.95515
# Velocity P-wave (km/s) = 5.22722 6.64621 5.97896
#
# Compressibility (1/GPa) = 0.01717228
#
# Stress axis : x y z
#
# Youngs Moduli (GPa) = 53.71234 82.40361 91.17496
#
# Poissons Ratio (x) = 0.50685 0.35325
# Poissons Ratio (y) = 0.33038 0.20506
# Poissons Ratio (z) = 0.20810 0.18533
#
# Static dielectric constant tensor:
#      x y z
#    x 3.512480 0.000000 0.000000 
#    y 0.000000 3.917090 0.000000 
#    z 0.000000 0.000000 3.489580 
# 
# 
# High freq. dielectric constant tensor:
#      x y z
#    x 1.737990 0.000000 0.000000 
#    y 0.000000 1.752270 0.000000 
#    z 0.000000 0.000000 1.758470 
# 
# From -- ./inp_files/20554.got.cif
#   From: 2010.03.12/outbox.cif.g09.slc.cpg/sg40_11_cif.got.tgz:20554.got - 2010.04.14 01:38:03.
