data_PCOD8184497
_publ_section_title
;
Structure prediction by ZEFSAII (Michael W. Deem and Ramdas Pophale) SiO2 
 PCOD8184497
Probable space group: A M A 2
;
_chemical_formula_sum "Si O2"
_cell_formula_units_Z 48
_cell_length_a 22.323475
_cell_length_b 10.928126
_cell_length_c 8.828517
_cell_angle_alpha 90.000000
_cell_angle_beta 90.000000
_cell_angle_gamma 90.000000
_cell_volume 2153.749808
_symmetry_space_group_name_H-M "A M A 2"
_symmetry_group_IT_number 40
_symmetry_cell_setting 'orthorhombic'
loop_
_space_group_symop_operation_xyz
x,y,z
-x,-y,z
1/2-x,y,z
1/2+x,-y,z
x,1/2+y,1/2+z
-x,1/2-y,1/2+z
1/2-x,1/2+y,1/2+z
1/2+x,1/2-y,1/2+z
loop_
_atom_site_type_symbol
_atom_site_label
_atom_site_fract_x
_atom_site_fract_y
_atom_site_fract_z
Si Si1 0.180307 0.677228 0.392350
Si Si2 0.397789 0.040948 0.332018
Si Si3 0.066411 0.808911 0.487945
Si Si4 0.182560 0.176677 0.554972
Si Si5 0.363498 0.433263 0.507924
Si Si6 0.538780 0.199910 0.824679
O O1 0.250000 0.720045 0.413513
O O2 0.135257 0.758355 0.497337
O O3 0.154825 0.690012 0.222374
O O4 0.175323 0.534173 0.423729
O O5 0.345168 0.070951 0.450801
O O6 0.434717 0.164172 0.315934
O O7 0.439113 0.935768 0.400030
O O8 0.372512 0.987187 0.175694
O O9 0.038072 0.841724 0.650854
O O10 0.027118 0.707192 0.399013
O O11 0.250000 0.134578 0.571259
O O12 0.176475 0.312333 0.488474
O O13 0.426243 0.399539 0.426771
#
# Coordination Sequence:
#
# PCOD8184497 Si02
#       6
#     8   8   8   8   8   8
#     4  11  24  43  68  97 134 179 225 276 339 410
#     4  11  23  43  67  96 134 174 224 280 347 403
#     4  12  24  45  68 102 138 178 227 284 349 410
#     4  10  23  41  66  97 130 178 227 273 334 407
#     4  11  22  45  68  95 136 174 226 283 342 398
#     4  11  26  43  68 101 135 179 225 286 343 414
#
# _framework density 22.286712000000001
#
# number of rings (size 3 to 8) (size 9 to 14) (size 15 to 20)
#    0.000    1.000    3.333    3.000    2.333    2.667 
#    3.000    0.833    0.000    0.000    0.000    0.000 
#    0.000    0.000    0.000    0.000    0.000    0.000 
#
# Total GULP energy -297490.014650 kJ/mol
# GULP energy per Si atom -12395.417277 kJ/mol
# Density = 2.223599 g / cm^3
# Si number density = 22.286712 Si / 1000 Ang^3
#
#
#
# Elastic Constant Matrix: (Units=GPa)
#
#
# Indices 1 2 3 4 5 6 
#
# 1 82.4537 -8.3093 26.4421 0.0000 0.0000 0.0000
# 2 -8.3093 48.3831 6.6572 0.0000 0.0000 0.0000
# 3 26.4421 6.6572 76.5364 0.0000 0.0000 0.0000
# 4 0.0000 0.0000 0.0000 40.0330 0.0000 0.0000
# 5 0.0000 0.0000 0.0000 0.0000 32.2415 0.0000
# 6 0.0000 0.0000 0.0000 0.0000 0.0000 26.7268
#
#
#
# Elastic Compliance Matrix: (Units=1/GPa)
#
#
# Indices 1 2 3 4 5 6 
#
# 1 0.014092 0.003127 -0.005140 0.000000 0.000000 0.000000
# 2 0.003127 0.021613 -0.002960 0.000000 0.000000 0.000000
# 3 -0.005140 -0.002960 0.015099 0.000000 0.000000 0.000000
# 4 0.000000 0.000000 0.000000 0.024979 0.000000 0.000000
# 5 0.000000 0.000000 0.000000 0.000000 0.031016 0.000000
# 6 0.000000 0.000000 0.000000 0.000000 0.000000 0.037416
#
#
# Mechanical properties :
#
#
# Convention : Reuss Voigt Hill
#
# Bulk Modulus (GPa) = 24.47577 28.55036 26.51307
# Shear Modulus (GPa) = 29.80087 31.97247 30.88667
#
# Velocity S-wave (km/s) = 3.66068 3.79172 3.72678
# Velocity P-wave (km/s) = 5.37341 5.65754 5.51731
#
# Compressibility (1/GPa) = 0.04085673
#
# Stress axis : x y z
#
# Youngs Moduli (GPa) = 70.96384 46.26885 66.22900
#
# Poissons Ratio (x) = -0.14470 0.34045
# Poissons Ratio (y) = -0.22193 0.19606
# Poissons Ratio (z) = 0.36479 0.13697
#
# Static dielectric constant tensor:
#      x y z
#    x 3.889420 0.000000 0.000000 
#    y 0.000000 4.039730 0.000000 
#    z 0.000000 0.000000 4.261970 
# 
# 
# High freq. dielectric constant tensor:
#      x y z
#    x 1.870950 0.000000 0.000000 
#    y 0.000000 1.887540 0.000000 
#    z 0.000000 0.000000 1.885870 
# 
# From -- ./inp_files/8724.got.cif
#   From: 2010.03.12/outbox.cif.g09.slc.cpg/sg40_5_cif.got.tgz:8724.got - 2010.04.14 01:38:03.
