data_PCOD8184335
_publ_section_title
;
Structure prediction by ZEFSAII (Michael W. Deem and Ramdas Pophale) SiO2 
 PCOD8184335
Probable space group: A M A 2
;
_chemical_formula_sum "Si O2"
_cell_formula_units_Z 32
_cell_length_a 18.386089
_cell_length_b 13.425715
_cell_length_c 7.540523
_cell_angle_alpha 90.000000
_cell_angle_beta 90.000000
_cell_angle_gamma 90.000000
_cell_volume 1861.350888
_symmetry_space_group_name_H-M "A M A 2"
_symmetry_group_IT_number 40
_symmetry_cell_setting 'orthorhombic'
loop_
_space_group_symop_operation_xyz
x,y,z
-x,-y,z
1/2-x,y,z
1/2+x,-y,z
x,1/2+y,1/2+z
-x,1/2-y,1/2+z
1/2-x,1/2+y,1/2+z
1/2+x,1/2-y,1/2+z
loop_
_atom_site_type_symbol
_atom_site_label
_atom_site_fract_x
_atom_site_fract_y
_atom_site_fract_z
Si Si1 0.334605 0.678924 0.514680
Si Si2 0.068612 0.193526 0.327743
Si Si3 0.579608 0.494429 0.631698
Si Si4 0.909377 0.218414 0.204884
O O1 0.250000 0.677104 0.557804
O O2 0.376650 0.735818 0.675506
O O3 0.364906 0.564609 0.501669
O O4 0.348279 0.735340 0.330875
O O5 0.068709 0.072465 0.311488
O O6 0.096478 0.226094 0.518101
O O7 0.988156 0.236364 0.291992
O O8 0.500000 0.500000 0.537571
O O9 0.610192 0.602516 0.678524
#
# Coordination Sequence:
#
# PCOD8184335 Si02
#       4
#     8   8   8   8
#     4  10  22  37  55  88 119 139 190 246 275 327
#     4   9  19  35  59  83 110 142 195 228 268 343
#     4   8  18  36  56  82 109 145 189 229 272 339
#     4  11  17  38  61  79 109 157 184 228 285 331
#
# _framework density 17.191814000000001
#
# number of rings (size 3 to 8) (size 9 to 14) (size 15 to 20)
#    1.500    1.000    2.500    0.000    0.000    2.000 
#    4.500    1.250    0.000    0.000    0.000    0.000 
#    0.000    0.000    0.000    0.000    0.000    0.000 
#
# Total GULP energy -198239.429306 kJ/mol
# GULP energy per Si atom -12389.964332 kJ/mol
# Density = 1.715268 g / cm^3
# Si number density = 17.191814 Si / 1000 Ang^3
#
#
#
# Elastic Constant Matrix: (Units=GPa)
#
#
# Indices 1 2 3 4 5 6 
#
# 1 89.4677 26.4839 21.5283 0.0000 0.0000 0.0000
# 2 26.4839 92.0851 26.2021 0.0000 0.0000 0.0000
# 3 21.5283 26.2021 79.9667 0.0000 0.0000 0.0000
# 4 0.0000 0.0000 0.0000 20.2082 0.0000 0.0000
# 5 0.0000 0.0000 0.0000 0.0000 19.7218 0.0000
# 6 0.0000 0.0000 0.0000 0.0000 0.0000 18.8927
#
#
#
# Elastic Compliance Matrix: (Units=1/GPa)
#
#
# Indices 1 2 3 4 5 6 
#
# 1 0.012634 -0.002940 -0.002438 0.000000 0.000000 0.000000
# 2 -0.002940 0.012660 -0.003357 0.000000 0.000000 0.000000
# 3 -0.002438 -0.003357 0.014261 0.000000 0.000000 0.000000
# 4 0.000000 0.000000 0.000000 0.049485 0.000000 0.000000
# 5 0.000000 0.000000 0.000000 0.000000 0.050705 0.000000
# 6 0.000000 0.000000 0.000000 0.000000 0.000000 0.052931
#
#
# Mechanical properties :
#
#
# Convention : Reuss Voigt Hill
#
# Bulk Modulus (GPa) = 45.27683 45.54980 45.41331
# Shear Modulus (GPa) = 22.98764 24.25154 23.61959
#
# Velocity S-wave (km/s) = 3.66064 3.75993 3.71062
# Velocity P-wave (km/s) = 6.65286 6.73810 6.69561
#
# Compressibility (1/GPa) = 0.02208635
#
# Stress axis : x y z
#
# Youngs Moduli (GPa) = 79.15073 78.98771 70.11904
#
# Poissons Ratio (x) = 0.23222 0.17095
# Poissons Ratio (y) = 0.23269 0.23538
# Poissons Ratio (z) = 0.19297 0.26515
#
# Static dielectric constant tensor:
#      x y z
#    x 3.020660 0.000000 0.000000 
#    y 0.000000 3.127820 0.000000 
#    z 0.000000 0.000000 2.912970 
# 
# 
# High freq. dielectric constant tensor:
#      x y z
#    x 1.654400 0.000000 0.000000 
#    y 0.000000 1.655060 0.000000 
#    z 0.000000 0.000000 1.641430 
# 
# From -- ./inp_files/1641.got.cif
#   From: 2010.03.12/outbox.cif.g09.slc.cpg/sg40_1_cif.got.tgz:1641.got - 2010.04.14 01:38:03.
