data_PCOD8184870
_publ_section_title
;
Structure prediction by ZEFSAII (Michael W. Deem and Ramdas Pophale) SiO2 
 PCOD8184870
Probable space group: A B A 2
;
_chemical_formula_sum "Si O2"
_cell_formula_units_Z 48
_cell_length_a 18.329183
_cell_length_b 16.297150
_cell_length_c 8.359796
_cell_angle_alpha 90.000000
_cell_angle_beta 90.000000
_cell_angle_gamma 90.000000
_cell_volume 2497.183460
_symmetry_space_group_name_H-M "A B A 2"
_symmetry_group_IT_number 41
_symmetry_cell_setting 'orthorhombic'
loop_
_space_group_symop_operation_xyz
x,y,z
-x,-y,z
1/2-x,y,1/2+z
1/2+x,-y,1/2+z
x,1/2+y,1/2+z
-x,1/2-y,1/2+z
1/2-x,1/2+y,z
1/2+x,1/2-y,z
loop_
_atom_site_type_symbol
_atom_site_label
_atom_site_fract_x
_atom_site_fract_y
_atom_site_fract_z
Si Si1 0.665682 0.633379 0.872940
Si Si2 0.675798 0.152228 0.741616
Si Si3 0.049912 0.288104 0.150556
Si Si4 0.934024 0.553825 0.943582
Si Si5 0.410808 0.701160 0.854079
Si Si6 0.914529 0.482392 0.265251
O O1 0.743637 0.626673 0.790017
O O2 0.615954 0.696068 0.772678
O O3 0.630704 0.543225 0.877363
O O4 0.671125 0.664378 0.052882
O O5 0.621110 0.081096 0.804641
O O6 0.657891 0.240098 0.820407
O O7 0.977586 0.266417 0.247189
O O8 0.034670 0.366658 0.037299
O O9 0.068638 0.209305 0.041496
O O10 0.000000 0.500000 0.867665
O O11 0.893861 0.498144 0.078772
O O12 0.390784 0.608119 0.816155
O O13 0.000000 0.500000 0.292225
#
# Coordination Sequence:
#
# PCOD8184870 Si02
#       6
#     8   8   8   8   8   8
#     4  11  22  44  58  88 122 165 202 261 312 368
#     4  11  24  38  64  85 125 163 208 250 318 370
#     4  10  20  36  62  88 126 153 205 252 308 358
#     4   9  17  37  59  89 120 162 195 251 301 362
#     4  11  20  37  62  96 116 169 197 257 301 376
#     4  10  19  38  66  88 125 158 201 253 309 361
#
# _framework density 19.221654000000001
#
# number of rings (size 3 to 8) (size 9 to 14) (size 15 to 20)
#    0.000    1.667    5.000    4.000    0.000    0.667 
#    3.000    6.667    0.000    0.000    0.000    0.000 
#    0.000    0.000    0.000    0.000    0.000    0.000 
#
# Total GULP energy -297608.523903 kJ/mol
# GULP energy per Si atom -12400.355163 kJ/mol
# Density = 1.917790 g / cm^3
# Si number density = 19.221654 Si / 1000 Ang^3
#
#
#
# Elastic Constant Matrix: (Units=GPa)
#
#
# Indices 1 2 3 4 5 6 
#
# 1 84.6188 17.1582 16.1185 0.0000 0.0000 0.0000
# 2 17.1582 96.5214 24.0218 0.0000 0.0000 0.0000
# 3 16.1185 24.0218 95.2525 0.0000 0.0000 0.0000
# 4 0.0000 0.0000 0.0000 32.2786 0.0000 0.0000
# 5 0.0000 0.0000 0.0000 0.0000 31.7410 0.0000
# 6 0.0000 0.0000 0.0000 0.0000 0.0000 21.1221
#
#
#
# Elastic Compliance Matrix: (Units=1/GPa)
#
#
# Indices 1 2 3 4 5 6 
#
# 1 0.012501 -0.001809 -0.001659 0.000000 0.000000 0.000000
# 2 -0.001809 0.011316 -0.002548 0.000000 0.000000 0.000000
# 3 -0.001659 -0.002548 0.011422 0.000000 0.000000 0.000000
# 4 0.000000 0.000000 0.000000 0.030980 0.000000 0.000000
# 5 0.000000 0.000000 0.000000 0.000000 0.031505 0.000000
# 6 0.000000 0.000000 0.000000 0.000000 0.000000 0.047344
#
#
# Mechanical properties :
#
#
# Convention : Reuss Voigt Hill
#
# Bulk Modulus (GPa) = 43.09164 43.44331 43.26747
# Shear Modulus (GPa) = 30.33340 31.63461 30.98401
#
# Velocity S-wave (km/s) = 3.97682 4.06122 4.01924
# Velocity P-wave (km/s) = 6.59953 6.68144 6.64061
#
# Compressibility (1/GPa) = 0.02320636
#
# Stress axis : x y z
#
# Youngs Moduli (GPa) = 79.99613 88.36990 87.55304
#
# Poissons Ratio (x) = 0.15989 0.14526
# Poissons Ratio (y) = 0.14474 0.22305
# Poissons Ratio (z) = 0.13272 0.22513
#
# Static dielectric constant tensor:
#      x y z
#    x 3.447590 0.000000 0.000000 
#    y 0.000000 3.561650 0.000000 
#    z 0.000000 0.000000 3.650080 
# 
# 
# High freq. dielectric constant tensor:
#      x y z
#    x 1.736790 0.000000 0.000000 
#    y 0.000000 1.739460 0.000000 
#    z 0.000000 0.000000 1.753060 
# 
# From -- ./inp_files/3087.got.cif
#   From: 2010.03.12/outbox.cif.g09.slc.cpg/sg41_2_cif.got.tgz:3087.got - 2010.04.14 01:55:53.
