data_PCOD8184800
_publ_section_title
;
Structure prediction by ZEFSAII (Michael W. Deem and Ramdas Pophale) SiO2 
 PCOD8184800
Probable space group: A B A 2
;
_chemical_formula_sum "Si O2"
_cell_formula_units_Z 60
_cell_length_a 10.512339
_cell_length_b 15.357768
_cell_length_c 16.999057
_cell_angle_alpha 90.000000
_cell_angle_beta 90.000000
_cell_angle_gamma 90.000000
_cell_volume 2744.430836
_symmetry_space_group_name_H-M "A B A 2"
_symmetry_group_IT_number 41
_symmetry_cell_setting 'orthorhombic'
loop_
_space_group_symop_operation_xyz
x,y,z
-x,-y,z
1/2-x,y,1/2+z
1/2+x,-y,1/2+z
x,1/2+y,1/2+z
-x,1/2-y,1/2+z
1/2-x,1/2+y,z
1/2+x,1/2-y,z
loop_
_atom_site_type_symbol
_atom_site_label
_atom_site_fract_x
_atom_site_fract_y
_atom_site_fract_z
Si Si1 0.145179 0.496882 0.553710
Si Si2 0.757189 0.160823 0.153122
Si Si3 0.735886 0.846864 0.657761
Si Si4 0.000000 0.000000 0.530956
Si Si5 0.995923 0.405585 0.182036
Si Si6 0.638999 0.325346 0.320856
Si Si7 0.714779 0.002294 0.907009
Si Si8 0.153200 0.823337 0.317974
O O1 0.208342 0.409285 0.587869
O O2 0.215177 0.577350 0.595521
O O3 0.154120 0.501621 0.458137
O O4 0.000000 0.500000 0.578941
O O5 0.743173 0.255027 0.110926
O O6 0.625088 0.144487 0.200858
O O7 0.858700 0.166050 0.223650
O O8 0.868274 0.856540 0.707899
O O9 0.631778 0.843005 0.727018
O O10 0.015214 0.084567 0.586832
O O11 0.878862 0.016656 0.479205
O O12 0.000000 0.500000 0.224760
O O13 0.685290 0.413918 0.361836
O O14 0.742390 0.250184 0.342752
O O15 0.492496 0.303092 0.347806
O O16 0.705127 0.084576 0.850232
#
# Coordination Sequence:
#
# PCOD8184800 Si02
#       8
#     8   8   8   4   8   8   8   8
#     4  12  25  44  63 100 132 168 218 269 323 386
#     4  11  24  41  68  98 129 168 216 271 324 382
#     4  11  24  41  68  98 129 168 216 271 324 382
#     4  10  18  42  66  86 124 164 226 238 328 372
#     4  10  20  42  67  92 127 171 218 266 316 385
#     4  11  26  44  68  97 130 174 217 267 324 386
#     4  12  23  46  66  91 130 176 213 261 323 392
#     4  11  26  44  68  97 130 174 217 267 324 386
#
# _framework density 21.862456000000002
#
# number of rings (size 3 to 8) (size 9 to 14) (size 15 to 20)
#    0.400    0.533    5.333    1.600    9.333    2.133 
#    0.000    0.000    0.000    0.000    0.000    0.000 
#    0.000    0.000    0.000    0.000    0.000    0.000 
#
# Total GULP energy -371684.944028 kJ/mol
# GULP energy per Si atom -12389.498134 kJ/mol
# Density = 2.181270 g / cm^3
# Si number density = 21.862456 Si / 1000 Ang^3
#
#
#
# Elastic Constant Matrix: (Units=GPa)
#
#
# Indices 1 2 3 4 5 6 
#
# 1 127.6793 57.9325 6.3941 0.0000 0.0000 0.0000
# 2 57.9325 167.7825 38.3250 0.0000 0.0000 0.0000
# 3 6.3941 38.3250 69.3951 0.0000 0.0000 0.0000
# 4 0.0000 0.0000 0.0000 11.2060 0.0000 0.0000
# 5 0.0000 0.0000 0.0000 0.0000 31.0210 0.0000
# 6 0.0000 0.0000 0.0000 0.0000 0.0000 25.3185
#
#
#
# Elastic Compliance Matrix: (Units=1/GPa)
#
#
# Indices 1 2 3 4 5 6 
#
# 1 0.009354 -0.003471 0.001055 0.000000 0.000000 0.000000
# 2 -0.003471 0.008108 -0.004158 0.000000 0.000000 0.000000
# 3 0.001055 -0.004158 0.016609 0.000000 0.000000 0.000000
# 4 0.000000 0.000000 0.000000 0.089238 0.000000 0.000000
# 5 0.000000 0.000000 0.000000 0.000000 0.032236 0.000000
# 6 0.000000 0.000000 0.000000 0.000000 0.000000 0.039497
#
#
# Mechanical properties :
#
#
# Convention : Reuss Voigt Hill
#
# Bulk Modulus (GPa) = 47.79246 63.35111 55.57178
# Shear Modulus (GPa) = 23.23794 30.98946 27.11370
#
# Velocity S-wave (km/s) = 3.26378 3.76902 3.52546
# Velocity P-wave (km/s) = 6.00924 6.92681 6.48428
#
# Compressibility (1/GPa) = 0.02092380
#
# Stress axis : x y z
#
# Youngs Moduli (GPa) = 106.90498 123.33014 60.20655
#
# Poissons Ratio (x) = 0.42805 -0.06351
# Poissons Ratio (y) = 0.37104 0.25035
# Poissons Ratio (z) = -0.11278 0.51283
#
# Static dielectric constant tensor:
#      x y z
#    x 3.330580 0.000000 0.000000 
#    y 0.000000 3.702220 0.000000 
#    z 0.000000 0.000000 3.661660 
# 
# 
# High freq. dielectric constant tensor:
#      x y z
#    x 1.875300 0.000000 0.000000 
#    y 0.000000 1.866800 0.000000 
#    z 0.000000 0.000000 1.830020 
# 
# From -- ./inp_files/10093.got.cif
#   From: 2010.03.12/outbox.cif.g09.slc.cpg/sg41_6_cif.got.tgz:10093.got - 2010.04.14 01:55:53.
