data_PCOD8184707
_publ_section_title
;
Structure prediction by ZEFSAII (Michael W. Deem and Ramdas Pophale) SiO2 
 PCOD8184707
Probable space group: A M A 2
;
_chemical_formula_sum "Si O2"
_cell_formula_units_Z 36
_cell_length_a 17.470939
_cell_length_b 8.160859
_cell_length_c 12.891044
_cell_angle_alpha 90.000000
_cell_angle_beta 90.000000
_cell_angle_gamma 90.000000
_cell_volume 1837.977593
_symmetry_space_group_name_H-M "A M A 2"
_symmetry_group_IT_number 40
_symmetry_cell_setting 'orthorhombic'
loop_
_space_group_symop_operation_xyz
x,y,z
-x,-y,z
1/2-x,y,z
1/2+x,-y,z
x,1/2+y,1/2+z
-x,1/2-y,1/2+z
1/2-x,1/2+y,1/2+z
1/2+x,1/2-y,1/2+z
loop_
_atom_site_type_symbol
_atom_site_label
_atom_site_fract_x
_atom_site_fract_y
_atom_site_fract_z
Si Si1 0.622126 0.663329 0.858570
Si Si2 0.750000 0.563340 0.218599
Si Si3 0.377856 0.142794 0.649885
Si Si4 0.750000 0.931370 0.274791
Si Si5 0.750000 0.127128 0.076565
Si Si6 0.000000 0.000000 0.501347
Si Si7 0.750000 0.872001 0.914897
O O1 0.596637 0.773892 0.759239
O O2 0.673125 0.505171 0.826124
O O3 0.673490 0.769427 0.939009
O O4 0.548692 0.612484 0.923744
O O5 0.669812 0.530566 0.158084
O O6 0.750000 0.734375 0.279663
O O7 0.750000 0.400407 0.291202
O O8 0.325654 0.267693 0.586860
O O9 0.450936 0.114167 0.577701
O O10 0.750000 0.973483 0.153832
O O11 0.750000 0.050470 0.963391
#
# Coordination Sequence:
#
# PCOD8184707 Si02
#       7
#     8   4   8   4   4   4   4
#     4   9  22  42  56  89 123 153 205 251 294 366
#     4   9  19  36  67  87 113 153 205 268 290 333
#     4   9  22  42  56  89 123 153 205 251 294 366
#     4   9  19  36  67  87 113 153 205 268 290 333
#     4   9  19  38  63  87 112 148 212 255 288 350
#     4  12  24  38  66  82 136 170 182 244 320 372
#     4   9  19  38  63  87 112 148 212 255 288 350
#
# _framework density 19.586745000000001
#
# number of rings (size 3 to 8) (size 9 to 14) (size 15 to 20)
#    0.000    2.667    0.000    2.667    6.222    3.556 
#    8.000    0.000    0.000    0.000    0.000    0.000 
#    0.000    0.000    0.000    0.000    0.000    0.000 
#
# Total GULP energy -223036.665894 kJ/mol
# GULP energy per Si atom -12390.925883 kJ/mol
# Density = 1.954216 g / cm^3
# Si number density = 19.586745 Si / 1000 Ang^3
#
#
#
# Elastic Constant Matrix: (Units=GPa)
#
#
# Indices 1 2 3 4 5 6 
#
# 1 140.9113 55.9764 71.6917 0.0000 0.0000 0.0000
# 2 55.9764 112.9291 47.6744 0.0000 0.0000 0.0000
# 3 71.6917 47.6744 92.7860 0.0000 0.0000 0.0000
# 4 0.0000 0.0000 0.0000 37.3569 0.0000 0.0000
# 5 0.0000 0.0000 0.0000 0.0000 30.0804 0.0000
# 6 0.0000 0.0000 0.0000 0.0000 0.0000 14.6167
#
#
#
# Elastic Compliance Matrix: (Units=1/GPa)
#
#
# Indices 1 2 3 4 5 6 
#
# 1 0.012289 -0.002660 -0.008128 0.000000 0.000000 0.000000
# 2 -0.002660 0.011884 -0.004051 0.000000 0.000000 0.000000
# 3 -0.008128 -0.004051 0.019139 0.000000 0.000000 0.000000
# 4 0.000000 0.000000 0.000000 0.026769 0.000000 0.000000
# 5 0.000000 0.000000 0.000000 0.000000 0.033244 0.000000
# 6 0.000000 0.000000 0.000000 0.000000 0.000000 0.068415
#
#
# Mechanical properties :
#
#
# Convention : Reuss Voigt Hill
#
# Bulk Modulus (GPa) = 73.34763 77.47904 75.41333
# Shear Modulus (GPa) = 24.27633 27.82974 26.05304
#
# Velocity S-wave (km/s) = 3.52437 3.77350 3.65106
# Velocity P-wave (km/s) = 7.35462 7.65692 7.50729
#
# Compressibility (1/GPa) = 0.01363371
#
# Stress axis : x y z
#
# Youngs Moduli (GPa) = 81.37555 84.14961 52.24866
#
# Poissons Ratio (x) = 0.22382 0.42469
# Poissons Ratio (y) = 0.21644 0.21165
# Poissons Ratio (z) = 0.66145 0.34088
#
# Static dielectric constant tensor:
#      x y z
#    x 3.479460 0.000000 0.000000 
#    y 0.000000 3.373550 0.000000 
#    z 0.000000 0.000000 3.502060 
# 
# 
# High freq. dielectric constant tensor:
#      x y z
#    x 1.751990 0.000000 0.000000 
#    y 0.000000 1.760810 0.000000 
#    z 0.000000 0.000000 1.767220 
# 
# From -- ./inp_files/6116.got.cif
#   From: 2010.03.12/outbox.cif.g09.slc.cpg/sg40_4_cif.got.tgz:6116.got - 2010.04.14 01:38:03.
