data_PCOD8184652
_publ_section_title
;
Structure prediction by ZEFSAII (Michael W. Deem and Ramdas Pophale) SiO2 
 PCOD8184652
Probable space group: A M A 2
;
_chemical_formula_sum "Si O2"
_cell_formula_units_Z 52
_cell_length_a 23.909153
_cell_length_b 12.444324
_cell_length_c 8.478497
_cell_angle_alpha 90.000000
_cell_angle_beta 90.000000
_cell_angle_gamma 90.000000
_cell_volume 2522.634738
_symmetry_space_group_name_H-M "A M A 2"
_symmetry_group_IT_number 40
_symmetry_cell_setting 'orthorhombic'
loop_
_space_group_symop_operation_xyz
x,y,z
-x,-y,z
1/2-x,y,z
1/2+x,-y,z
x,1/2+y,1/2+z
-x,1/2-y,1/2+z
1/2-x,1/2+y,1/2+z
1/2+x,1/2-y,1/2+z
loop_
_atom_site_type_symbol
_atom_site_label
_atom_site_fract_x
_atom_site_fract_y
_atom_site_fract_z
Si Si1 0.750000 0.377894 0.618660
Si Si2 0.973450 0.383580 0.279110
Si Si3 0.364467 0.875671 0.361550
Si Si4 0.055275 0.741833 0.577572
Si Si5 0.250000 0.556643 0.274483
Si Si6 0.635880 0.889724 0.299587
Si Si7 0.250000 0.370270 0.035735
Si Si8 0.641807 0.324053 0.150828
O O1 0.750000 0.453494 0.463763
O O2 0.695500 0.403874 0.718078
O O3 0.750000 0.254208 0.572670
O O4 0.974422 0.338922 0.456473
O O5 0.910415 0.392323 0.215389
O O6 0.000000 0.500000 0.277641
O O7 0.006513 0.302971 0.166978
O O8 0.404730 0.825523 0.491282
O O9 0.303864 0.899781 0.433831
O O10 0.361347 0.799615 0.208019
O O11 0.390085 0.991283 0.317752
O O12 0.092477 0.676214 0.698303
O O13 0.250000 0.438353 0.197849
O O14 0.303725 0.622899 0.223178
O O15 0.643936 0.826265 0.462723
#
# Coordination Sequence:
#
# PCOD8184652 Si02
#       8
#     4   8   8   8   4   8   4   8
#     4  12  24  40  62 102 139 172 224 279 323 413
#     4  11  25  44  70  96 134 178 222 278 338 393
#     4  11  23  44  69  96 137 178 218 281 336 401
#     4  11  25  44  65  99 133 171 229 278 323 403
#     4  12  23  41  71  96 132 176 218 270 339 393
#     4  12  24  41  68  99 134 176 226 274 338 397
#     4  12  21  41  69  96 135 174 214 275 342 392
#     4  11  23  43  69  99 131 175 224 273 333 404
#
# _framework density 20.613368999999999
#
# number of rings (size 3 to 8) (size 9 to 14) (size 15 to 20)
#    0.000    0.615    4.615    3.692    0.000    4.923 
#    0.000    0.769    0.000    0.000    0.000    0.000 
#    0.000    0.000    0.000    0.000    0.000    0.000 
#
# Total GULP energy -322556.599496 kJ/mol
# GULP energy per Si atom -12406.023058 kJ/mol
# Density = 2.056645 g / cm^3
# Si number density = 20.613369 Si / 1000 Ang^3
#
#
#
# Elastic Constant Matrix: (Units=GPa)
#
#
# Indices 1 2 3 4 5 6 
#
# 1 134.6816 45.5112 57.0834 0.0000 0.0000 0.0000
# 2 45.5112 109.9483 57.2457 0.0000 0.0000 0.0000
# 3 57.0834 57.2457 171.7560 0.0000 0.0000 0.0000
# 4 0.0000 0.0000 0.0000 30.5065 0.0000 0.0000
# 5 0.0000 0.0000 0.0000 0.0000 49.7863 0.0000
# 6 0.0000 0.0000 0.0000 0.0000 0.0000 23.1100
#
#
#
# Elastic Compliance Matrix: (Units=1/GPa)
#
#
# Indices 1 2 3 4 5 6 
#
# 1 0.009260 -0.002699 -0.002178 0.000000 0.000000 0.000000
# 2 -0.002699 0.011792 -0.003033 0.000000 0.000000 0.000000
# 3 -0.002178 -0.003033 0.007557 0.000000 0.000000 0.000000
# 4 0.000000 0.000000 0.000000 0.032780 0.000000 0.000000
# 5 0.000000 0.000000 0.000000 0.000000 0.020086 0.000000
# 6 0.000000 0.000000 0.000000 0.000000 0.000000 0.043271
#
#
# Mechanical properties :
#
#
# Convention : Reuss Voigt Hill
#
# Bulk Modulus (GPa) = 78.19575 81.78516 79.99046
# Shear Modulus (GPa) = 34.52351 37.78360 36.15355
#
# Velocity S-wave (km/s) = 4.09689 4.28596 4.19249
# Velocity P-wave (km/s) = 7.77149 8.01589 7.89464
#
# Compressibility (1/GPa) = 0.01278842
#
# Stress axis : x y z
#
# Youngs Moduli (GPa) = 107.99014 84.80603 132.32772
#
# Poissons Ratio (x) = 0.22890 0.28821
# Poissons Ratio (y) = 0.29147 0.40136
# Poissons Ratio (z) = 0.23521 0.25722
#
# Static dielectric constant tensor:
#      x y z
#    x 3.911260 0.000000 0.000000 
#    y 0.000000 4.106640 0.000000 
#    z 0.000000 0.000000 4.097680 
# 
# 
# High freq. dielectric constant tensor:
#      x y z
#    x 1.821310 0.000000 0.000000 
#    y 0.000000 1.813750 0.000000 
#    z 0.000000 0.000000 1.819310 
# 
# From -- ./inp_files/9129.got.cif
#   From: 2010.03.12/outbox.cif.g09.slc.cpg/sg40_5_cif.got.tgz:9129.got - 2010.04.14 01:38:03.
