data_PCOD8184563
_publ_section_title
;
Structure prediction by ZEFSAII (Michael W. Deem and Ramdas Pophale) SiO2 
 PCOD8184563
Probable space group: A M A 2
;
_chemical_formula_sum "Si O2"
_cell_formula_units_Z 24
_cell_length_a 7.872107
_cell_length_b 24.378368
_cell_length_c 4.910898
_cell_angle_alpha 90.000000
_cell_angle_beta 90.000000
_cell_angle_gamma 90.000000
_cell_volume 942.446120
_symmetry_space_group_name_H-M "A M A 2"
_symmetry_group_IT_number 40
_symmetry_cell_setting 'orthorhombic'
loop_
_space_group_symop_operation_xyz
x,y,z
-x,-y,z
1/2-x,y,z
1/2+x,-y,z
x,1/2+y,1/2+z
-x,1/2-y,1/2+z
1/2-x,1/2+y,1/2+z
1/2+x,1/2-y,1/2+z
loop_
_atom_site_type_symbol
_atom_site_label
_atom_site_fract_x
_atom_site_fract_y
_atom_site_fract_z
Si Si1 0.941795 0.281359 0.587870
Si Si2 0.438886 0.105775 0.340109
Si Si3 0.250000 0.445138 0.050238
Si Si4 0.250000 0.018686 0.054087
O O1 0.750000 0.286560 0.484634
O O2 0.009461 0.340197 0.690175
O O3 0.051732 0.262851 0.330788
O O4 0.250000 0.117042 0.473631
O O5 0.417289 0.055959 0.120051
O O6 0.575808 0.090267 0.575983
O O7 0.250000 0.464703 0.738248
O O8 0.250000 0.498821 0.241252
#
# Coordination Sequence:
#
# PCOD8184563 Si02
#       4
#     8   8   4   4
#     4  11  25  46  76 109 147 192 244 306 370 438
#     4   9  25  49  69 110 145 191 241 303 363 436
#     4  12  24  46  74 100 142 196 238 298 355 438
#     4  10  26  46  68 106 142 190 244 288 363 430
#
# _framework density 25.465648999999999
#
# number of rings (size 3 to 8) (size 9 to 14) (size 15 to 20)
#    1.000    0.667    0.000    2.000    4.667   10.667 
#    3.000    0.000    0.000    0.000    0.000    0.000 
#    0.000    0.000    0.000    0.000    0.000    0.000 
#
# Total GULP energy -148752.642614 kJ/mol
# GULP energy per Si atom -12396.053551 kJ/mol
# Density = 2.540769 g / cm^3
# Si number density = 25.465649 Si / 1000 Ang^3
#
#
#
# Elastic Constant Matrix: (Units=GPa)
#
#
# Indices 1 2 3 4 5 6 
#
# 1 102.8420 -0.0684 22.4906 0.0000 0.0000 0.0000
# 2 -0.0684 48.0931 -3.1743 0.0000 0.0000 0.0000
# 3 22.4906 -3.1743 71.4014 0.0000 0.0000 0.0000
# 4 0.0000 0.0000 0.0000 41.6795 0.0000 0.0000
# 5 0.0000 0.0000 0.0000 0.0000 13.1964 0.0000
# 6 0.0000 0.0000 0.0000 0.0000 0.0000 42.6702
#
#
#
# Elastic Compliance Matrix: (Units=1/GPa)
#
#
# Indices 1 2 3 4 5 6 
#
# 1 0.010445 -0.000203 -0.003299 0.000000 0.000000 0.000000
# 2 -0.000203 0.020858 0.000991 0.000000 0.000000 0.000000
# 3 -0.003299 0.000991 0.015089 0.000000 0.000000 0.000000
# 4 0.000000 0.000000 0.000000 0.023993 0.000000 0.000000
# 5 0.000000 0.000000 0.000000 0.000000 0.075778 0.000000
# 6 0.000000 0.000000 0.000000 0.000000 0.000000 0.023436
#
#
# Mechanical properties :
#
#
# Convention : Reuss Voigt Hill
#
# Bulk Modulus (GPa) = 24.17201 28.98135 26.57668
# Shear Modulus (GPa) = 26.53794 33.04847 29.79320
#
# Velocity S-wave (km/s) = 3.23167 3.60636 3.42414
# Velocity P-wave (km/s) = 4.84123 5.36157 5.10803
#
# Compressibility (1/GPa) = 0.04137017
#
# Stress axis : x y z
#
# Youngs Moduli (GPa) = 95.73965 47.94297 66.27538
#
# Poissons Ratio (x) = 0.00973 0.21865
# Poissons Ratio (y) = 0.01942 -0.06569
# Poissons Ratio (z) = 0.31585 -0.04752
#
# Static dielectric constant tensor:
#      x y z
#    x 4.569060 0.000000 0.000000 
#    y 0.000000 4.613040 0.000000 
#    z 0.000000 0.000000 3.969800 
# 
# 
# High freq. dielectric constant tensor:
#      x y z
#    x 2.019240 0.000000 0.000000 
#    y 0.000000 2.023590 0.000000 
#    z 0.000000 0.000000 1.979660 
# 
# From -- ./inp_files/237.got.cif
#   From: 2010.03.12/outbox.cif.g09.slc.cpg/sg40_1_cif.got.tgz:237.got - 2010.04.14 01:38:03.
