data_PCOD8184925
_publ_section_title
;
Structure prediction by ZEFSAII (Michael W. Deem and Ramdas Pophale) SiO2 
 PCOD8184925
Probable space group: A B A 2
;
_chemical_formula_sum "Si O2"
_cell_formula_units_Z 52
_cell_length_a 18.558223
_cell_length_b 11.733817
_cell_length_c 12.134377
_cell_angle_alpha 90.000000
_cell_angle_beta 90.000000
_cell_angle_gamma 90.000000
_cell_volume 2642.367284
_symmetry_space_group_name_H-M "A B A 2"
_symmetry_group_IT_number 41
_symmetry_cell_setting 'orthorhombic'
loop_
_space_group_symop_operation_xyz
x,y,z
-x,-y,z
1/2-x,y,1/2+z
1/2+x,-y,1/2+z
x,1/2+y,1/2+z
-x,1/2-y,1/2+z
1/2-x,1/2+y,z
1/2+x,1/2-y,z
loop_
_atom_site_type_symbol
_atom_site_label
_atom_site_fract_x
_atom_site_fract_y
_atom_site_fract_z
Si Si1 0.251452 0.306914 0.315130
Si Si2 0.626792 0.833258 0.414420
Si Si3 0.478242 0.744346 0.349831
Si Si4 0.868404 0.599164 0.464452
Si Si5 0.861242 0.041024 0.206370
Si Si6 0.500000 0.500000 0.333055
Si Si7 0.365949 0.216051 0.663482
O O1 0.298963 0.197478 0.351582
O O2 0.202050 0.341794 0.416706
O O3 0.303883 0.411701 0.292369
O O4 0.201630 0.288775 0.207507
O O5 0.560429 0.787568 0.340484
O O6 0.622277 0.768184 0.532816
O O7 0.621988 0.969023 0.425694
O O8 0.439017 0.829509 0.432996
O O9 0.472743 0.612883 0.399009
O O10 0.439285 0.747901 0.229693
O O11 0.859540 0.611721 0.594302
O O12 0.940230 0.055149 0.255167
O O13 0.841122 0.911447 0.186447
#
# Coordination Sequence:
#
# PCOD8184925 Si02
#       7
#     8   8   8   8   8   4   8
#     4  11  20  38  58  86 122 149 188 244 295 342
#     4  11  21  37  63  85 114 157 192 238 298 344
#     4  10  21  37  60  83 116 149 195 243 281 346
#     4  10  23  36  61  89 115 152 196 238 290 348
#     4  10  20  36  61  83 114 154 198 228 288 356
#     4  10  20  38  58  84 112 158 194 244 282 350
#     4   9  22  37  56  86 119 147 197 241 284 353
#
# _framework density 19.679323
#
# number of rings (size 3 to 8) (size 9 to 14) (size 15 to 20)
#    0.000    1.846    1.538    2.308    6.462    0.000 
#    0.000    0.000   13.538    0.000    0.000    0.000 
#    0.000    0.000    0.000    0.000    0.000    0.000 
#
# Total GULP energy -322325.645607 kJ/mol
# GULP energy per Si atom -12397.140216 kJ/mol
# Density = 1.963453 g / cm^3
# Si number density = 19.679323 Si / 1000 Ang^3
#
#
#
# Elastic Constant Matrix: (Units=GPa)
#
#
# Indices 1 2 3 4 5 6 
#
# 1 134.0937 42.6112 35.9173 0.0000 0.0000 0.0000
# 2 42.6112 89.3285 19.1708 0.0000 0.0000 0.0000
# 3 35.9173 19.1708 57.1745 0.0000 0.0000 0.0000
# 4 0.0000 0.0000 0.0000 29.6630 0.0000 0.0000
# 5 0.0000 0.0000 0.0000 0.0000 21.8744 0.0000
# 6 0.0000 0.0000 0.0000 0.0000 0.0000 39.0968
#
#
#
# Elastic Compliance Matrix: (Units=1/GPa)
#
#
# Indices 1 2 3 4 5 6 
#
# 1 0.009974 -0.003678 -0.005033 0.000000 0.000000 0.000000
# 2 -0.003678 0.013419 -0.002189 0.000000 0.000000 0.000000
# 3 -0.005033 -0.002189 0.021386 0.000000 0.000000 0.000000
# 4 0.000000 0.000000 0.000000 0.033712 0.000000 0.000000
# 5 0.000000 0.000000 0.000000 0.000000 0.045716 0.000000
# 6 0.000000 0.000000 0.000000 0.000000 0.000000 0.025578
#
#
# Mechanical properties :
#
#
# Convention : Reuss Voigt Hill
#
# Bulk Modulus (GPa) = 43.51615 52.88836 48.20225
# Shear Modulus (GPa) = 27.89515 30.32000 29.10758
#
# Velocity S-wave (km/s) = 3.76904 3.92944 3.85007
# Velocity P-wave (km/s) = 6.41104 6.89353 6.65666
#
# Compressibility (1/GPa) = 0.02297997
#
# Stress axis : x y z
#
# Youngs Moduli (GPa) = 100.25887 74.52248 46.76003
#
# Poissons Ratio (x) = 0.27408 0.23533
# Poissons Ratio (y) = 0.36873 0.10235
# Poissons Ratio (z) = 0.50457 0.16313
#
# Static dielectric constant tensor:
#      x y z
#    x 3.696490 0.000000 0.000000 
#    y 0.000000 3.726310 0.000000 
#    z 0.000000 0.000000 3.505460 
# 
# 
# High freq. dielectric constant tensor:
#      x y z
#    x 1.782190 0.000000 0.000000 
#    y 0.000000 1.771980 0.000000 
#    z 0.000000 0.000000 1.746470 
# 
# From -- ./inp_files/5973.got.cif
#   From: 2010.03.12/outbox.cif.g09.slc.cpg/sg41_3_cif.got.tgz:5973.got - 2010.04.14 01:55:53.
