data_PCOD8184518
_publ_section_title
;
Structure prediction by ZEFSAII (Michael W. Deem and Ramdas Pophale) SiO2 
 PCOD8184518
Probable space group: A M A 2
;
_chemical_formula_sum "Si O2"
_cell_formula_units_Z 40
_cell_length_a 13.000650
_cell_length_b 29.336605
_cell_length_c 5.158048
_cell_angle_alpha 90.000000
_cell_angle_beta 90.000000
_cell_angle_gamma 90.000000
_cell_volume 1967.253375
_symmetry_space_group_name_H-M "A M A 2"
_symmetry_group_IT_number 40
_symmetry_cell_setting 'orthorhombic'
loop_
_space_group_symop_operation_xyz
x,y,z
-x,-y,z
1/2-x,y,z
1/2+x,-y,z
x,1/2+y,1/2+z
-x,1/2-y,1/2+z
1/2-x,1/2+y,1/2+z
1/2+x,1/2-y,1/2+z
loop_
_atom_site_type_symbol
_atom_site_label
_atom_site_fract_x
_atom_site_fract_y
_atom_site_fract_z
Si Si1 0.750000 0.267070 0.679190
Si Si2 0.364011 0.915582 0.502349
Si Si3 0.459206 0.771315 0.833249
Si Si4 0.466786 0.132449 0.773672
Si Si5 0.554264 0.047821 0.993189
Si Si6 0.250000 0.671487 0.172376
O O1 0.653189 0.233959 0.711043
O O2 0.750000 0.290192 0.396382
O O3 0.750000 0.306817 0.889415
O O4 0.250000 0.893108 0.510487
O O5 0.454157 0.877376 0.532677
O O6 0.374307 0.952090 0.737434
O O7 0.374468 0.943563 0.239383
O O8 0.536608 0.757566 0.599195
O O9 0.488542 0.822577 0.915087
O O10 0.470867 0.089296 0.969474
O O11 0.349750 0.139131 0.686032
O O12 0.500000 0.000000 0.028139
#
# Coordination Sequence:
#
# PCOD8184518 Si02
#       6
#     4   8   8   8   8   4
#     4  12  24  42  64  97 128 175 222 272 332 396
#     4  10  23  43  68  97 134 173 218 274 326 392
#     4  12  24  41  64  94 131 176 214 272 328 394
#     4  10  26  42  68  97 135 176 222 273 330 404
#     4  10  23  44  68  98 136 171 222 273 330 395
#     4  12  24  44  68  93 136 171 220 280 332 390
#
# _framework density 20.332919
#
# number of rings (size 3 to 8) (size 9 to 14) (size 15 to 20)
#    1.200    0.000    4.000    1.200    7.000    0.000 
#    3.600    0.000    0.000    0.000    0.000    0.000 
#    0.000    0.000    0.000    0.000    0.000    0.000 
#
# Total GULP energy -247855.438236 kJ/mol
# GULP energy per Si atom -12392.771912 kJ/mol
# Density = 2.028664 g / cm^3
# Si number density = 20.332919 Si / 1000 Ang^3
#
#
#
# Elastic Constant Matrix: (Units=GPa)
#
#
# Indices 1 2 3 4 5 6 
#
# 1 155.2597 44.2155 14.3903 0.0000 0.0000 0.0000
# 2 44.2155 110.9462 15.2275 0.0000 0.0000 0.0000
# 3 14.3903 15.2275 102.3873 0.0000 0.0000 0.0000
# 4 0.0000 0.0000 0.0000 13.2964 0.0000 0.0000
# 5 0.0000 0.0000 0.0000 0.0000 15.0037 0.0000
# 6 0.0000 0.0000 0.0000 0.0000 0.0000 20.2793
#
#
#
# Elastic Compliance Matrix: (Units=1/GPa)
#
#
# Indices 1 2 3 4 5 6 
#
# 1 0.007302 -0.002827 -0.000606 0.000000 0.000000 0.000000
# 2 -0.002827 0.010296 -0.001134 0.000000 0.000000 0.000000
# 3 -0.000606 -0.001134 0.010021 0.000000 0.000000 0.000000
# 4 0.000000 0.000000 0.000000 0.075209 0.000000 0.000000
# 5 0.000000 0.000000 0.000000 0.000000 0.066650 0.000000
# 6 0.000000 0.000000 0.000000 0.000000 0.000000 0.049311
#
#
# Mechanical properties :
#
#
# Convention : Reuss Voigt Hill
#
# Bulk Modulus (GPa) = 54.09810 57.36220 55.73015
# Shear Modulus (GPa) = 21.35992 29.36654 25.36323
#
# Velocity S-wave (km/s) = 3.24467 3.80450 3.53568
# Velocity P-wave (km/s) = 6.37974 6.89722 6.64352
#
# Compressibility (1/GPa) = 0.01848494
#
# Stress axis : x y z
#
# Youngs Moduli (GPa) = 136.94805 97.12861 99.79416
#
# Poissons Ratio (x) = 0.27458 0.06046
# Poissons Ratio (y) = 0.38714 0.11316
# Poissons Ratio (z) = 0.08297 0.11013
#
# Static dielectric constant tensor:
#      x y z
#    x 3.830710 0.000000 0.000000 
#    y 0.000000 3.396350 0.000000 
#    z 0.000000 0.000000 3.641080 
# 
# 
# High freq. dielectric constant tensor:
#      x y z
#    x 1.798240 0.000000 0.000000 
#    y 0.000000 1.771840 0.000000 
#    z 0.000000 0.000000 1.799560 
# 
# From -- ./inp_files/882.got.cif
#   From: 2010.03.12/outbox.cif.g09.slc.cpg/sg40_1_cif.got.tgz:882.got - 2010.04.14 01:38:03.
