data_PCOD8184748
_publ_section_title
;
Structure prediction by ZEFSAII (Michael W. Deem and Ramdas Pophale) SiO2 
 PCOD8184748
Probable space group: A B A 2
;
_chemical_formula_sum "Si O2"
_cell_formula_units_Z 64
_cell_length_a 13.792693
_cell_length_b 22.017095
_cell_length_c 11.926168
_cell_angle_alpha 90.000000
_cell_angle_beta 90.000000
_cell_angle_gamma 90.000000
_cell_volume 3621.679450
_symmetry_space_group_name_H-M "A B A 2"
_symmetry_group_IT_number 41
_symmetry_cell_setting 'orthorhombic'
loop_
_space_group_symop_operation_xyz
x,y,z
-x,-y,z
1/2-x,y,1/2+z
1/2+x,-y,1/2+z
x,1/2+y,1/2+z
-x,1/2-y,1/2+z
1/2-x,1/2+y,z
1/2+x,1/2-y,z
loop_
_atom_site_type_symbol
_atom_site_label
_atom_site_fract_x
_atom_site_fract_y
_atom_site_fract_z
Si Si1 0.094820 0.463312 0.500000
Si Si2 0.405437 0.526524 0.772808
Si Si3 0.838353 0.280832 0.127000
Si Si4 0.959412 0.172928 0.044954
Si Si5 0.196938 0.138337 0.427106
Si Si6 0.906643 0.837848 0.847480
Si Si7 0.247117 0.046277 0.086208
Si Si8 0.645181 0.838427 0.683998
O O1 0.118716 0.477395 0.369753
O O2 0.084494 0.393426 0.530192
O O3 0.186116 0.485534 0.572501
O O4 0.000000 0.500000 0.538417
O O5 0.500000 0.500000 0.708853
O O6 0.429502 0.590832 0.830971
O O7 0.320211 0.534134 0.686081
O O8 0.869175 0.214842 0.081678
O O9 0.906357 0.301987 0.230114
O O10 0.724817 0.284448 0.164559
O O11 0.859287 0.326314 0.024792
O O12 0.039162 0.179834 0.142648
O O13 0.010592 0.191419 0.927012
O O14 0.302920 0.168037 0.408116
O O15 0.203413 0.067578 0.468250
O O16 0.135357 0.143185 0.314001
O O17 0.179051 0.102963 0.115707
#
# Coordination Sequence:
#
# PCOD8184748 Si02
#       8
#     8   8   8   8   8   8   8   8
#     4  11  19  35  61  91 112 149 203 247 292 356
#     4  11  19  33  61  91 112 151 206 244 287 355
#     4  10  23  34  54  90 114 146 197 250 291 344
#     4  12  22  37  59  89 116 154 201 249 294 358
#     4  10  17  35  61  82 108 149 196 244 279 351
#     4  11  18  37  61  83 109 153 212 237 283 359
#     4  11  17  34  60  88 115 145 196 247 288 349
#     4  10  19  36  60  83 107 154 198 237 282 357
#
# _framework density 17.671358999999999
#
# number of rings (size 3 to 8) (size 9 to 14) (size 15 to 20)
#    0.000    1.250   11.250    0.000    1.750    0.000 
#    0.000    3.750    5.500    0.000    0.000    0.000 
#    0.000    0.000    0.000    0.000    0.000    0.000 
#
# Total GULP energy -396608.361556 kJ/mol
# GULP energy per Si atom -12394.011299 kJ/mol
# Density = 1.763114 g / cm^3
# Si number density = 17.671359 Si / 1000 Ang^3
#
#
#
# Elastic Constant Matrix: (Units=GPa)
#
#
# Indices 1 2 3 4 5 6 
#
# 1 53.7269 37.2285 27.8599 0.0000 0.0000 0.0000
# 2 37.2285 98.2955 39.4679 0.0000 0.0000 0.0000
# 3 27.8599 39.4679 109.2660 0.0000 0.0000 0.0000
# 4 0.0000 0.0000 0.0000 21.1983 0.0000 0.0000
# 5 0.0000 0.0000 0.0000 0.0000 20.8375 0.0000
# 6 0.0000 0.0000 0.0000 0.0000 0.0000 30.5175
#
#
#
# Elastic Compliance Matrix: (Units=1/GPa)
#
#
# Indices 1 2 3 4 5 6 
#
# 1 0.026425 -0.008542 -0.003652 0.000000 0.000000 0.000000
# 2 -0.008542 0.014660 -0.003117 0.000000 0.000000 0.000000
# 3 -0.003652 -0.003117 0.011209 0.000000 0.000000 0.000000
# 4 0.000000 0.000000 0.000000 0.047174 0.000000 0.000000
# 5 0.000000 0.000000 0.000000 0.000000 0.047990 0.000000
# 6 0.000000 0.000000 0.000000 0.000000 0.000000 0.032768
#
#
# Mechanical properties :
#
#
# Convention : Reuss Voigt Hill
#
# Bulk Modulus (GPa) = 46.14342 52.26676 49.20509
# Shear Modulus (GPa) = 22.92794 24.95945 23.94370
#
# Velocity S-wave (km/s) = 3.60594 3.76230 3.68495
# Velocity P-wave (km/s) = 6.59589 6.96524 6.78308
#
# Compressibility (1/GPa) = 0.02167156
#
# Stress axis : x y z
#
# Youngs Moduli (GPa) = 37.84238 68.21140 89.21164
#
# Poissons Ratio (x) = 0.58265 0.32583
# Poissons Ratio (y) = 0.32324 0.27812
# Poissons Ratio (z) = 0.13821 0.21265
#
# Static dielectric constant tensor:
#      x y z
#    x 3.172900 0.000000 0.000000 
#    y 0.000000 3.221270 0.000000 
#    z 0.000000 0.000000 3.490530 
# 
# 
# High freq. dielectric constant tensor:
#      x y z
#    x 1.663480 0.000000 0.000000 
#    y 0.000000 1.658330 0.000000 
#    z 0.000000 0.000000 1.697870 
# 
# From -- ./inp_files/5722.got.cif
#   From: 2010.03.12/outbox.cif.g09.slc.cpg/sg41_3_cif.got.tgz:5722.got - 2010.04.14 01:55:53.
