data_PCOD8184256
_publ_section_title
;
Structure prediction by ZEFSAII (Michael W. Deem and Ramdas Pophale) SiO2 
 PCOD8184256
Probable space group: A M A 2
;
_chemical_formula_sum "Si O2"
_cell_formula_units_Z 48
_cell_length_a 15.066428
_cell_length_b 21.056320
_cell_length_c 7.437460
_cell_angle_alpha 90.000000
_cell_angle_beta 90.000000
_cell_angle_gamma 90.000000
_cell_volume 2359.486059
_symmetry_space_group_name_H-M "A M A 2"
_symmetry_group_IT_number 40
_symmetry_cell_setting 'orthorhombic'
loop_
_space_group_symop_operation_xyz
x,y,z
-x,-y,z
1/2-x,y,z
1/2+x,-y,z
x,1/2+y,1/2+z
-x,1/2-y,1/2+z
1/2-x,1/2+y,1/2+z
1/2+x,1/2-y,1/2+z
loop_
_atom_site_type_symbol
_atom_site_label
_atom_site_fract_x
_atom_site_fract_y
_atom_site_fract_z
Si Si1 0.150986 0.864227 0.423760
Si Si2 0.482153 0.804825 0.143214
Si Si3 0.104808 0.004477 0.437422
Si Si4 0.425548 0.548338 0.310489
Si Si5 0.348976 0.107075 0.152449
Si Si6 0.037716 0.331799 0.243280
O O1 0.250000 0.838301 0.390665
O O2 0.083003 0.827721 0.297279
O O3 0.125131 0.850326 0.630924
O O4 0.149212 0.938756 0.378069
O O5 0.578963 0.836954 0.162243
O O6 0.491605 0.729650 0.157423
O O7 0.437521 0.821180 0.951845
O O8 0.128116 0.015856 0.647434
O O9 0.144688 0.061537 0.323241
O O10 0.000000 0.000000 0.407368
O O11 0.500000 0.500000 0.386611
O O12 0.361001 0.564908 0.473615
O O13 0.468651 0.611040 0.223948
O O14 0.250000 0.137131 0.148610
#
# Coordination Sequence:
#
# PCOD8184256 Si02
#       6
#     8   8   8   8   8   8
#     4  12  25  42  66 100 131 168 223 272 315 385
#     4  11  24  43  68  90 132 175 211 267 328 383
#     4  11  20  41  70  89 127 174 212 261 330 381
#     4  10  21  40  65  89 122 168 211 261 325 378
#     4  11  24  39  63  96 127 165 213 264 320 390
#     4  11  22  42  68  90 123 174 216 259 324 382
#
# _framework density 20.343413000000002
#
# number of rings (size 3 to 8) (size 9 to 14) (size 15 to 20)
#    0.000    1.000    6.667    1.000    2.333    2.667 
#    0.000    0.000    0.000    0.000    0.000    0.000 
#    0.000    0.000    0.000    0.000    0.000    0.000 
#
# Total GULP energy -297668.151374 kJ/mol
# GULP energy per Si atom -12402.839641 kJ/mol
# Density = 2.029711 g / cm^3
# Si number density = 20.343413 Si / 1000 Ang^3
#
#
#
# Elastic Constant Matrix: (Units=GPa)
#
#
# Indices 1 2 3 4 5 6 
#
# 1 128.9717 23.2386 45.1794 0.0000 0.0000 0.0000
# 2 23.2386 102.9277 9.4928 0.0000 0.0000 0.0000
# 3 45.1794 9.4928 87.2228 0.0000 0.0000 0.0000
# 4 0.0000 0.0000 0.0000 29.7953 0.0000 0.0000
# 5 0.0000 0.0000 0.0000 0.0000 -21.5434 0.0000
# 6 0.0000 0.0000 0.0000 0.0000 0.0000 4.2611
#
#
#
# Elastic Compliance Matrix: (Units=1/GPa)
#
#
# Indices 1 2 3 4 5 6 
#
# 1 0.009778 -0.001758 -0.004873 0.000000 0.000000 0.000000
# 2 -0.001758 0.010130 -0.000192 0.000000 0.000000 0.000000
# 3 -0.004873 -0.000192 0.014010 0.000000 0.000000 0.000000
# 4 0.000000 0.000000 0.000000 0.033562 0.000000 0.000000
# 5 0.000000 0.000000 0.000000 0.000000 -0.046418 0.000000
# 6 0.000000 0.000000 0.000000 0.000000 0.000000 0.234683
#
#
# Mechanical properties :
#
#
# Convention : Reuss Voigt Hill
#
# Bulk Modulus (GPa) = 49.33055 52.77152 51.05104
# Shear Modulus (GPa) = 18.10618 18.58336 18.34477
#
# Velocity S-wave (km/s) = 2.98657 3.02567 3.00618
# Velocity P-wave (km/s) = 6.01617 6.18085 6.09907
#
# Compressibility (1/GPa) = 0.02027141
#
# Stress axis : x y z
#
# Youngs Moduli (GPa) = 102.27545 98.71488 71.37776
#
# Poissons Ratio (x) = 0.17355 0.34784
# Poissons Ratio (y) = 0.17981 0.01369
# Poissons Ratio (z) = 0.49841 0.01894
#
# Static dielectric constant tensor:
#      x y z
#    x 3.604530 0.000000 0.000000 
#    y 0.000000 3.800130 0.000000 
#    z 0.000000 0.000000 3.916330 
# 
# 
# High freq. dielectric constant tensor:
#      x y z
#    x 1.770010 0.000000 0.000000 
#    y 0.000000 1.804360 0.000000 
#    z 0.000000 0.000000 1.808990 
# 
# From -- ./inp_files/6464.got.cif
#   From: 2010.03.12/outbox.cif.g09.slc.cpg/sg40_4_cif.got.tgz:6464.got - 2010.04.14 01:38:03.
