data_PCOD8184062
_publ_section_title
;
Structure prediction by ZEFSAII (Michael W. Deem and Ramdas Pophale) SiO2 
 PCOD8184062
Probable space group: A M A 2
;
_chemical_formula_sum "Si O2"
_cell_formula_units_Z 64
_cell_length_a 18.546354
_cell_length_b 5.379301
_cell_length_c 29.535695
_cell_angle_alpha 90.000000
_cell_angle_beta 90.000000
_cell_angle_gamma 90.000000
_cell_volume 2946.670571
_symmetry_space_group_name_H-M "A M A 2"
_symmetry_group_IT_number 40
_symmetry_cell_setting 'orthorhombic'
loop_
_space_group_symop_operation_xyz
x,y,z
-x,-y,z
1/2-x,y,z
1/2+x,-y,z
x,1/2+y,1/2+z
-x,1/2-y,1/2+z
1/2-x,1/2+y,1/2+z
1/2+x,1/2-y,1/2+z
loop_
_atom_site_type_symbol
_atom_site_label
_atom_site_fract_x
_atom_site_fract_y
_atom_site_fract_z
Si Si1 0.426462 0.414455 0.002270
Si Si2 0.663752 0.799143 0.276696
Si Si3 0.671098 0.031199 0.639589
Si Si4 0.069329 0.651014 0.592056
Si Si5 0.664340 0.815648 0.930065
Si Si6 0.834955 0.313168 0.878537
Si Si7 0.670999 0.233809 0.048986
Si Si8 0.333764 0.202889 0.730734
O O1 0.500000 0.500000 0.976356
O O2 0.455502 0.333809 0.051993
O O3 0.372034 0.647349 0.006987
O O4 0.382731 0.196348 0.976253
O O5 0.750000 0.799873 0.275248
O O6 0.633541 0.811973 0.327778
O O7 0.633485 0.545186 0.254240
O O8 0.632369 0.039928 0.249516
O O9 0.750000 0.151286 0.652925
O O10 0.604449 0.224277 0.636957
O O11 0.678307 0.928743 0.589399
O O12 0.652159 0.819795 0.676606
O O13 0.133178 0.503497 0.568730
O O14 0.000000 0.500000 0.609261
O O15 0.750000 0.817346 0.940225
O O16 0.640772 0.568275 0.902554
O O17 0.638731 0.064571 0.904383
O O18 0.750000 0.304289 0.875364
O O19 0.750000 0.159263 0.030445
O O20 0.250000 0.212141 0.742624
#
# Coordination Sequence:
#
# PCOD8184062 Si02
#       8
#     8   8   8   8   8   8   8   8
#     4  11  23  39  55  81 115 152 202 253 305 366
#     4   9  16  28  49  77 115 154 186 230 294 352
#     4   9  20  34  51  82 118 153 199 249 300 358
#     4  11  22  37  58  78 110 158 203 252 306 363
#     4  10  21  35  56  83 116 153 197 249 300 359
#     4   9  18  33  52  81 117 153 191 237 297 362
#     4  10  21  37  58  80 112 154 196 246 303 359
#     4   9  17  28  48  79 115 153 190 236 290 350
#
# _framework density 21.719428000000001
#
# number of rings (size 3 to 8) (size 9 to 14) (size 15 to 20)
#    0.000    2.250    1.250    1.500    3.500    4.500 
#    0.000    0.000    0.000    0.000    0.000    0.875 
#    3.750    0.000    0.000    0.000    0.000    0.000 
#
# Total GULP energy -396565.999342 kJ/mol
# GULP energy per Si atom -12392.687479 kJ/mol
# Density = 2.166999 g / cm^3
# Si number density = 21.719428 Si / 1000 Ang^3
#
#
#
# Elastic Constant Matrix: (Units=GPa)
#
#
# Indices 1 2 3 4 5 6 
#
# 1 90.8666 28.0368 22.3554 0.0000 0.0000 0.0000
# 2 28.0368 130.5442 27.9334 0.0000 0.0000 0.0000
# 3 22.3554 27.9334 80.0355 0.0000 0.0000 0.0000
# 4 0.0000 0.0000 0.0000 37.3483 0.0000 0.0000
# 5 0.0000 0.0000 0.0000 0.0000 3.3538 0.0000
# 6 0.0000 0.0000 0.0000 0.0000 0.0000 20.8719
#
#
#
# Elastic Compliance Matrix: (Units=1/GPa)
#
#
# Indices 1 2 3 4 5 6 
#
# 1 0.012310 -0.002062 -0.002719 0.000000 0.000000 0.000000
# 2 -0.002062 0.008624 -0.002434 0.000000 0.000000 0.000000
# 3 -0.002719 -0.002434 0.014103 0.000000 0.000000 0.000000
# 4 0.000000 0.000000 0.000000 0.026775 0.000000 0.000000
# 5 0.000000 0.000000 0.000000 0.000000 0.298174 0.000000
# 6 0.000000 0.000000 0.000000 0.000000 0.000000 0.047911
#
#
# Mechanical properties :
#
#
# Convention : Reuss Voigt Hill
#
# Bulk Modulus (GPa) = 48.52489 50.89972 49.71230
# Shear Modulus (GPa) = 11.64968 27.18950 19.41959
#
# Velocity S-wave (km/s) = 2.31848 3.54199 2.99341
# Velocity P-wave (km/s) = 5.43667 6.34142 5.90639
#
# Compressibility (1/GPa) = 0.02060798
#
# Stress axis : x y z
#
# Youngs Moduli (GPa) = 81.23282 115.95678 70.90533
#
# Poissons Ratio (x) = 0.23911 0.19278
# Poissons Ratio (y) = 0.16751 0.17257
# Poissons Ratio (z) = 0.22086 0.28222
#
# Static dielectric constant tensor:
#      x y z
#    x 3.616370 0.000000 0.000000 
#    y 0.000000 4.172580 0.000000 
#    z 0.000000 0.000000 4.014080 
# 
# 
# High freq. dielectric constant tensor:
#      x y z
#    x 1.804960 0.000000 0.000000 
#    y 0.000000 1.862750 0.000000 
#    z 0.000000 0.000000 1.843780 
# 
# From -- ./inp_files/26684.got.cif
#   From: 2010.03.12/outbox.cif.g09.slc.cpg/sg40_14_cif.got.tgz:26684.got - 2010.04.14 01:38:03.
