data_PCOD8184340
_publ_section_title
;
Structure prediction by ZEFSAII (Michael W. Deem and Ramdas Pophale) SiO2 
 PCOD8184340
Probable space group: A M A 2
;
_chemical_formula_sum "Si O2"
_cell_formula_units_Z 64
_cell_length_a 18.659331
_cell_length_b 15.104088
_cell_length_c 11.661714
_cell_angle_alpha 90.000000
_cell_angle_beta 90.000000
_cell_angle_gamma 90.000000
_cell_volume 3286.646249
_symmetry_space_group_name_H-M "A M A 2"
_symmetry_group_IT_number 40
_symmetry_cell_setting 'orthorhombic'
loop_
_space_group_symop_operation_xyz
x,y,z
-x,-y,z
1/2-x,y,z
1/2+x,-y,z
x,1/2+y,1/2+z
-x,1/2-y,1/2+z
1/2-x,1/2+y,1/2+z
1/2+x,1/2-y,1/2+z
loop_
_atom_site_type_symbol
_atom_site_label
_atom_site_fract_x
_atom_site_fract_y
_atom_site_fract_z
Si Si1 0.083261 0.016674 0.301950
Si Si2 0.671330 0.246229 0.010530
Si Si3 0.099028 0.829840 0.217090
Si Si4 0.329650 0.052832 0.523705
Si Si5 0.917951 0.170881 0.816641
Si Si6 0.420210 0.167088 0.878161
Si Si7 0.834497 0.495252 0.274603
Si Si8 0.436812 0.179346 0.146133
O O1 0.112883 0.035828 0.426899
O O2 0.099442 0.097470 0.214929
O O3 0.120064 0.927127 0.259328
O O4 0.000000 0.000000 0.317193
O O5 0.750000 0.223544 0.959351
O O6 0.609907 0.235551 0.916057
O O7 0.658496 0.187306 0.121975
O O8 0.668635 0.345066 0.057732
O O9 0.102442 0.760400 0.321850
O O10 0.022032 0.828300 0.155823
O O11 0.250000 0.024684 0.482046
O O12 0.351385 0.002158 0.639329
O O13 0.911558 0.226455 0.698641
O O14 0.999223 0.142303 0.841543
O O15 0.868702 0.084723 0.822431
O O16 0.368686 0.089065 0.836905
O O17 0.412466 0.176203 0.014823
O O18 0.750000 0.493683 0.299692
#
# Coordination Sequence:
#
# PCOD8184340 Si02
#       8
#     8   8   8   8   8   8   8   8
#     4  10  22  38  62  91 123 157 200 254 302 360
#     4  11  21  40  65  86 123 167 207 251 301 370
#     4  10  22  37  61  93 118 158 205 248 305 365
#     4  10  22  42  61  83 123 163 205 255 304 364
#     4  11  23  40  65  95 121 162 212 255 309 374
#     4  11  23  40  64  92 127 161 201 261 313 366
#     4  11  25  43  61  90 125 166 211 257 311 371
#     4  10  22  40  60  92 128 154 198 260 308 359
#
# _framework density 19.472736999999999
#
# number of rings (size 3 to 8) (size 9 to 14) (size 15 to 20)
#    0.000    1.500    3.750    0.750    3.500    2.500 
#    0.000    1.875    0.000    0.000    0.000    0.000 
#    0.000    0.000    0.000    0.000    0.000    0.000 
#
# Total GULP energy -396835.608429 kJ/mol
# GULP energy per Si atom -12401.112763 kJ/mol
# Density = 1.942842 g / cm^3
# Si number density = 19.472737 Si / 1000 Ang^3
#
#
#
# Elastic Constant Matrix: (Units=GPa)
#
#
# Indices 1 2 3 4 5 6 
#
# 1 69.7404 33.2871 32.6687 0.0000 0.0000 0.0000
# 2 33.2871 93.3361 27.8076 0.0000 0.0000 0.0000
# 3 32.6687 27.8076 115.3173 0.0000 0.0000 0.0000
# 4 0.0000 0.0000 0.0000 26.4379 0.0000 0.0000
# 5 0.0000 0.0000 0.0000 0.0000 27.1017 0.0000
# 6 0.0000 0.0000 0.0000 0.0000 0.0000 20.7127
#
#
#
# Elastic Compliance Matrix: (Units=1/GPa)
#
#
# Indices 1 2 3 4 5 6 
#
# 1 0.018856 -0.005531 -0.004008 0.000000 0.000000 0.000000
# 2 -0.005531 0.013165 -0.001608 0.000000 0.000000 0.000000
# 3 -0.004008 -0.001608 0.010195 0.000000 0.000000 0.000000
# 4 0.000000 0.000000 0.000000 0.037824 0.000000 0.000000
# 5 0.000000 0.000000 0.000000 0.000000 0.036898 0.000000
# 6 0.000000 0.000000 0.000000 0.000000 0.000000 0.048280
#
#
# Mechanical properties :
#
#
# Convention : Reuss Voigt Hill
#
# Bulk Modulus (GPa) = 50.19300 51.76897 50.98098
# Shear Modulus (GPa) = 25.75285 27.15917 26.45601
#
# Velocity S-wave (km/s) = 3.64058 3.73866 3.68994
# Velocity P-wave (km/s) = 6.59573 6.72903 6.66271
#
# Compressibility (1/GPa) = 0.01992310
#
# Stress axis : x y z
#
# Youngs Moduli (GPa) = 53.03283 75.95640 98.08770
#
# Poissons Ratio (x) = 0.42009 0.39316
# Poissons Ratio (y) = 0.29331 0.15772
# Poissons Ratio (z) = 0.21257 0.12213
#
# Static dielectric constant tensor:
#      x y z
#    x 3.478670 0.000000 0.000000 
#    y 0.000000 3.715480 0.000000 
#    z 0.000000 0.000000 3.471630 
# 
# 
# High freq. dielectric constant tensor:
#      x y z
#    x 1.750560 0.000000 0.000000 
#    y 0.000000 1.767780 0.000000 
#    z 0.000000 0.000000 1.761850 
# 
# From -- ./inp_files/13143.got.cif
#   From: 2010.03.12/outbox.cif.g09.slc.cpg/sg40_7_cif.got.tgz:13143.got - 2010.04.14 01:38:03.
