data_PCOD8184582
_publ_section_title
;
Structure prediction by ZEFSAII (Michael W. Deem and Ramdas Pophale) SiO2 
 PCOD8184582
Probable space group: A M A 2
;
_chemical_formula_sum "Si O2"
_cell_formula_units_Z 64
_cell_length_a 8.592491
_cell_length_b 15.424385
_cell_length_c 23.558384
_cell_angle_alpha 90.000000
_cell_angle_beta 90.000000
_cell_angle_gamma 90.000000
_cell_volume 3122.284257
_symmetry_space_group_name_H-M "A M A 2"
_symmetry_group_IT_number 40
_symmetry_cell_setting 'orthorhombic'
loop_
_space_group_symop_operation_xyz
x,y,z
-x,-y,z
1/2-x,y,z
1/2+x,-y,z
x,1/2+y,1/2+z
-x,1/2-y,1/2+z
1/2-x,1/2+y,1/2+z
1/2+x,1/2-y,1/2+z
loop_
_atom_site_type_symbol
_atom_site_label
_atom_site_fract_x
_atom_site_fract_y
_atom_site_fract_z
Si Si1 0.567568 0.749543 0.802810
Si Si2 0.433336 0.341774 0.120601
Si Si3 0.067891 0.742025 0.924294
Si Si4 0.433491 0.911146 0.228101
Si Si5 0.565840 0.591351 0.000099
Si Si6 0.565629 0.352810 0.612214
Si Si7 0.433180 0.910956 0.994462
Si Si8 0.433364 0.908633 0.739593
O O1 0.750000 0.762950 0.794156
O O2 0.530632 0.728705 0.867688
O O3 0.504370 0.670071 0.764679
O O4 0.479725 0.836678 0.785157
O O5 0.250000 0.334462 0.126964
O O6 0.501080 0.245168 0.113107
O O7 0.504055 0.384761 0.177497
O O8 0.479059 0.399275 0.066377
O O9 0.250000 0.736603 0.910536
O O10 0.022692 0.833979 0.951703
O O11 0.021057 0.666772 0.967137
O O12 0.250000 0.915074 0.230368
O O13 0.490910 0.904875 0.163767
O O14 0.500000 0.000000 0.254917
O O15 0.500000 0.500000 0.978120
O O16 0.750000 0.597867 0.989849
O O17 0.750000 0.355563 0.618247
O O18 0.516455 0.397835 0.554346
O O19 0.250000 0.916729 0.004108
O O20 0.500000 0.000000 0.967780
O O21 0.250000 0.915753 0.736951
O O22 0.500000 0.000000 0.760256
#
# Coordination Sequence:
#
# PCOD8184582 Si02
#       8
#     8   8   8   8   8   8   8   8
#     4  11  25  44  65  90 121 162 210 261 311 364
#     4   9  19  35  61  93 125 163 201 244 304 365
#     4  11  25  44  65  90 121 162 210 261 311 364
#     4  11  24  41  63  93 125 161 204 252 307 367
#     4  11  22  40  64  94 128 164 206 252 306 368
#     4  11  20  37  64  93 126 164 202 247 304 367
#     4  11  24  41  63  93 125 161 204 252 307 367
#     4  11  22  40  64  94 128 164 206 252 306 368
#
# _framework density 20.497812
#
# number of rings (size 3 to 8) (size 9 to 14) (size 15 to 20)
#    0.000    1.250    2.500    3.375    0.000    4.000 
#    0.000    4.375    0.000    0.000    0.000    0.000 
#    0.000    0.000    0.000    0.000    0.000    0.000 
#
# Total GULP energy -396984.576933 kJ/mol
# GULP energy per Si atom -12405.768029 kJ/mol
# Density = 2.045116 g / cm^3
# Si number density = 20.497812 Si / 1000 Ang^3
#
#
#
# Elastic Constant Matrix: (Units=GPa)
#
#
# Indices 1 2 3 4 5 6 
#
# 1 51.7662 38.5769 18.4641 0.0000 0.0000 0.0000
# 2 38.5769 141.4914 14.2406 0.0000 0.0000 0.0000
# 3 18.4641 14.2406 73.0740 0.0000 0.0000 0.0000
# 4 0.0000 0.0000 0.0000 6.9112 0.0000 0.0000
# 5 0.0000 0.0000 0.0000 0.0000 30.6137 0.0000
# 6 0.0000 0.0000 0.0000 0.0000 0.0000 33.3993
#
#
#
# Elastic Compliance Matrix: (Units=1/GPa)
#
#
# Indices 1 2 3 4 5 6 
#
# 1 0.026123 -0.006587 -0.005317 0.000000 0.000000 0.000000
# 2 -0.006587 0.008870 -0.000064 0.000000 0.000000 0.000000
# 3 -0.005317 -0.000064 0.015041 0.000000 0.000000 0.000000
# 4 0.000000 0.000000 0.000000 0.144693 0.000000 0.000000
# 5 0.000000 0.000000 0.000000 0.000000 0.032665 0.000000
# 6 0.000000 0.000000 0.000000 0.000000 0.000000 0.029941
#
#
# Mechanical properties :
#
#
# Convention : Reuss Voigt Hill
#
# Bulk Modulus (GPa) = 38.31840 45.43277 41.87558
# Shear Modulus (GPa) = 17.24326 27.18817 22.21571
#
# Velocity S-wave (km/s) = 2.90353 3.64592 3.29570
# Velocity P-wave (km/s) = 5.47496 6.31953 5.91234
#
# Compressibility (1/GPa) = 0.02609712
#
# Stress axis : x y z
#
# Youngs Moduli (GPa) = 38.28051 112.73986 66.48615
#
# Poissons Ratio (x) = 0.74264 0.35350
# Poissons Ratio (y) = 0.25216 0.00427
# Poissons Ratio (z) = 0.20354 0.00723
#
# Static dielectric constant tensor:
#      x y z
#    x 3.593750 0.000000 0.000000 
#    y 0.000000 3.981350 0.000000 
#    z 0.000000 0.000000 3.656910 
# 
# 
# High freq. dielectric constant tensor:
#      x y z
#    x 1.799150 0.000000 0.000000 
#    y 0.000000 1.819990 0.000000 
#    z 0.000000 0.000000 1.796510 
# 
# From -- ./inp_files/24297.got.cif
#   From: 2010.03.12/outbox.cif.g09.slc.cpg/sg40_13_cif.got.tgz:24297.got - 2010.04.14 01:38:03.
