data_PCOD8184792
_publ_section_title
;
Structure prediction by ZEFSAII (Michael W. Deem and Ramdas Pophale) SiO2 
 PCOD8184792
Probable space group: A B A 2
;
_chemical_formula_sum "Si O2"
_cell_formula_units_Z 44
_cell_length_a 13.117882
_cell_length_b 18.135233
_cell_length_c 10.034879
_cell_angle_alpha 90.000000
_cell_angle_beta 90.000000
_cell_angle_gamma 90.000000
_cell_volume 2387.256035
_symmetry_space_group_name_H-M "A B A 2"
_symmetry_group_IT_number 41
_symmetry_cell_setting 'orthorhombic'
loop_
_space_group_symop_operation_xyz
x,y,z
-x,-y,z
1/2-x,y,1/2+z
1/2+x,-y,1/2+z
x,1/2+y,1/2+z
-x,1/2-y,1/2+z
1/2-x,1/2+y,z
1/2+x,1/2-y,z
loop_
_atom_site_type_symbol
_atom_site_label
_atom_site_fract_x
_atom_site_fract_y
_atom_site_fract_z
Si Si1 0.000000 0.500000 0.320490
Si Si2 0.192961 0.353605 0.514360
Si Si3 0.698485 0.899705 0.731569
Si Si4 0.542302 0.878623 0.525125
Si Si5 0.205224 0.442793 0.248694
Si Si6 0.242954 0.186532 0.986742
O O1 0.057110 0.556771 0.417638
O O2 0.084937 0.460774 0.228406
O O3 0.220931 0.397356 0.382658
O O4 0.255501 0.392281 0.630549
O O5 0.225035 0.269944 0.501676
O O6 0.072580 0.352515 0.542412
O O7 0.583653 0.904729 0.670522
O O8 0.771206 0.860455 0.620210
O O9 0.732857 0.982075 0.762062
O O10 0.697767 0.850456 0.864019
O O11 0.618970 0.814917 0.469643
#
# Coordination Sequence:
#
# PCOD8184792 Si02
#       6
#     4   8   8   8   8   8
#     4  10  18  40  64  92 118 170 204 244 316 358
#     4  11  23  42  61  91 127 160 202 255 318 355
#     4  10  19  40  63  88 117 161 209 246 298 369
#     4   9  21  39  66  81 127 168 197 239 325 361
#     4  11  21  39  65  88 122 162 206 254 298 373
#     4  10  21  40  61  90 120 160 203 252 300 371
#
# _framework density 18.431201999999999
#
# number of rings (size 3 to 8) (size 9 to 14) (size 15 to 20)
#    1.091    0.727    1.818    4.364    0.000    0.000 
#    9.818    1.818    0.000    0.000    0.000    0.000 
#    0.000    0.000    0.000    0.000    0.000    0.000 
#
# Total GULP energy -272641.683119 kJ/mol
# GULP energy per Si atom -12392.803778 kJ/mol
# Density = 1.838925 g / cm^3
# Si number density = 18.431202 Si / 1000 Ang^3
#
#
#
# Elastic Constant Matrix: (Units=GPa)
#
#
# Indices 1 2 3 4 5 6 
#
# 1 115.8086 60.3185 57.8691 0.0000 0.0000 0.0000
# 2 60.3185 151.6052 60.9041 0.0000 0.0000 0.0000
# 3 57.8691 60.9041 111.3898 0.0000 0.0000 0.0000
# 4 0.0000 0.0000 0.0000 30.9387 0.0000 0.0000
# 5 0.0000 0.0000 0.0000 0.0000 38.5734 0.0000
# 6 0.0000 0.0000 0.0000 0.0000 0.0000 33.7682
#
#
#
# Elastic Compliance Matrix: (Units=1/GPa)
#
#
# Indices 1 2 3 4 5 6 
#
# 1 0.012691 -0.003076 -0.004911 0.000000 0.000000 0.000000
# 2 -0.003076 0.009198 -0.003431 0.000000 0.000000 0.000000
# 3 -0.004911 -0.003431 0.013405 0.000000 0.000000 0.000000
# 4 0.000000 0.000000 0.000000 0.032322 0.000000 0.000000
# 5 0.000000 0.000000 0.000000 0.000000 0.025925 0.000000
# 6 0.000000 0.000000 0.000000 0.000000 0.000000 0.029614
#
#
# Mechanical properties :
#
#
# Convention : Reuss Voigt Hill
#
# Bulk Modulus (GPa) = 80.27549 81.88744 81.08146
# Shear Modulus (GPa) = 33.30104 33.97021 33.63563
#
# Velocity S-wave (km/s) = 4.25523 4.29777 4.27655
# Velocity P-wave (km/s) = 8.23355 8.31582 8.27479
#
# Compressibility (1/GPa) = 0.01245710
#
# Stress axis : x y z
#
# Youngs Moduli (GPa) = 78.79295 108.71353 74.59883
#
# Poissons Ratio (x) = 0.33446 0.36638
# Poissons Ratio (y) = 0.24241 0.25596
# Poissons Ratio (z) = 0.38698 0.37301
#
# Static dielectric constant tensor:
#      x y z
#    x 3.392340 0.000000 0.000000 
#    y 0.000000 3.283520 0.000000 
#    z 0.000000 0.000000 3.486910 
# 
# 
# High freq. dielectric constant tensor:
#      x y z
#    x 1.707460 0.000000 0.000000 
#    y 0.000000 1.722900 0.000000 
#    z 0.000000 0.000000 1.715510 
# 
# From -- ./inp_files/2486.got.cif
#   From: 2010.03.12/outbox.cif.g09.slc.cpg/sg41_2_cif.got.tgz:2486.got - 2010.04.14 01:55:53.
