data_PCOD8184313
_publ_section_title
;
Structure prediction by ZEFSAII (Michael W. Deem and Ramdas Pophale) SiO2 
 PCOD8184313
Probable space group: A M A 2
;
_chemical_formula_sum "Si O2"
_cell_formula_units_Z 40
_cell_length_a 18.132461
_cell_length_b 10.038978
_cell_length_c 10.210802
_cell_angle_alpha 90.000000
_cell_angle_beta 90.000000
_cell_angle_gamma 90.000000
_cell_volume 1858.686349
_symmetry_space_group_name_H-M "A M A 2"
_symmetry_group_IT_number 40
_symmetry_cell_setting 'orthorhombic'
loop_
_space_group_symop_operation_xyz
x,y,z
-x,-y,z
1/2-x,y,z
1/2+x,-y,z
x,1/2+y,1/2+z
-x,1/2-y,1/2+z
1/2-x,1/2+y,1/2+z
1/2+x,1/2-y,1/2+z
loop_
_atom_site_type_symbol
_atom_site_label
_atom_site_fract_x
_atom_site_fract_y
_atom_site_fract_z
Si Si1 0.025957 0.349535 0.117190
Si Si2 0.334870 0.535385 0.451705
Si Si3 0.332844 0.798242 0.766364
Si Si4 0.334372 0.503300 0.747774
Si Si5 0.432377 0.767673 0.345385
O O1 0.113077 0.338391 0.148221
O O2 0.000000 0.500000 0.131056
O O3 0.982322 0.256529 0.218633
O O4 0.014554 0.295085 0.969888
O O5 0.250000 0.580935 0.446284
O O6 0.347262 0.389861 0.391532
O O7 0.363135 0.525286 0.599848
O O8 0.381678 0.639942 0.368807
O O9 0.250000 0.817553 0.709892
O O10 0.342976 0.646795 0.817501
O O11 0.250000 0.452667 0.747592
O O12 0.383472 0.398313 0.824196
#
# Coordination Sequence:
#
# PCOD8184313 Si02
#       5
#     8   8   8   8   8
#     4  12  28  44  67 102 137 183 230 279 345 405
#     4  10  21  43  72 100 133 178 225 278 340 406
#     4  10  22  45  70  96 134 174 222 279 337 403
#     4  10  23  43  71 104 133 175 230 284 340 401
#     4  12  27  43  70  97 144 179 231 280 341 408
#
# _framework density 21.520575999999998
#
# number of rings (size 3 to 8) (size 9 to 14) (size 15 to 20)
#    0.000    1.200    4.000    0.600    5.600    0.800 
#    0.000    0.000    0.000    0.000    0.000    0.000 
#    0.000    0.000    0.000    0.000    0.000    0.000 
#
# Total GULP energy -248088.472836 kJ/mol
# GULP energy per Si atom -12404.423642 kJ/mol
# Density = 2.147159 g / cm^3
# Si number density = 21.520576 Si / 1000 Ang^3
#
#
#
# Elastic Constant Matrix: (Units=GPa)
#
#
# Indices 1 2 3 4 5 6 
#
# 1 96.0716 59.6249 53.4679 0.0000 0.0000 0.0000
# 2 59.6249 154.0685 60.7426 0.0000 0.0000 0.0000
# 3 53.4679 60.7426 115.8894 0.0000 0.0000 0.0000
# 4 0.0000 0.0000 0.0000 38.6907 0.0000 0.0000
# 5 0.0000 0.0000 0.0000 0.0000 30.3823 0.0000
# 6 0.0000 0.0000 0.0000 0.0000 0.0000 26.5765
#
#
#
# Elastic Compliance Matrix: (Units=1/GPa)
#
#
# Indices 1 2 3 4 5 6 
#
# 1 0.015814 -0.004088 -0.005153 0.000000 0.000000 0.000000
# 2 -0.004088 0.009238 -0.002956 0.000000 0.000000 0.000000
# 3 -0.005153 -0.002956 0.012556 0.000000 0.000000 0.000000
# 4 0.000000 0.000000 0.000000 0.025846 0.000000 0.000000
# 5 0.000000 0.000000 0.000000 0.000000 0.032914 0.000000
# 6 0.000000 0.000000 0.000000 0.000000 0.000000 0.037627
#
#
# Mechanical properties :
#
#
# Convention : Reuss Voigt Hill
#
# Bulk Modulus (GPa) = 75.68253 79.30004 77.49129
# Shear Modulus (GPa) = 30.71342 31.94283 31.32812
#
# Velocity S-wave (km/s) = 3.78188 3.85683 3.81954
# Velocity P-wave (km/s) = 7.36981 7.53406 7.45238
#
# Compressibility (1/GPa) = 0.01321309
#
# Stress axis : x y z
#
# Youngs Moduli (GPa) = 63.23358 108.24577 79.64441
#
# Poissons Ratio (x) = 0.44256 0.41043
# Poissons Ratio (y) = 0.25853 0.23542
# Poissons Ratio (z) = 0.32586 0.31996
#
# Static dielectric constant tensor:
#      x y z
#    x 3.979780 0.000000 0.000000 
#    y 0.000000 4.001090 0.000000 
#    z 0.000000 0.000000 3.793500 
# 
# 
# High freq. dielectric constant tensor:
#      x y z
#    x 1.848620 0.000000 0.000000 
#    y 0.000000 1.858300 0.000000 
#    z 0.000000 0.000000 1.837740 
# 
# From -- ./inp_files/12706.got.cif
#   From: 2010.03.12/outbox.cif.g09.slc.cpg/sg40_7_cif.got.tgz:12706.got - 2010.04.14 01:38:03.
