data_PCOD8184997
_publ_section_title
;
Structure prediction by ZEFSAII (Michael W. Deem and Ramdas Pophale) SiO2 
 PCOD8184997
Probable space group: A B A 2
;
_chemical_formula_sum "Si O2"
_cell_formula_units_Z 52
_cell_length_a 14.542261
_cell_length_b 9.587658
_cell_length_c 17.078409
_cell_angle_alpha 90.000000
_cell_angle_beta 90.000000
_cell_angle_gamma 90.000000
_cell_volume 2381.178096
_symmetry_space_group_name_H-M "A B A 2"
_symmetry_group_IT_number 41
_symmetry_cell_setting 'orthorhombic'
loop_
_space_group_symop_operation_xyz
x,y,z
-x,-y,z
1/2-x,y,1/2+z
1/2+x,-y,1/2+z
x,1/2+y,1/2+z
-x,1/2-y,1/2+z
1/2-x,1/2+y,z
1/2+x,1/2-y,z
loop_
_atom_site_type_symbol
_atom_site_label
_atom_site_fract_x
_atom_site_fract_y
_atom_site_fract_z
Si Si1 0.756722 0.188454 0.996090
Si Si2 0.688142 0.396352 0.733779
Si Si3 0.198152 0.559671 0.890748
Si Si4 0.500000 0.000000 0.922523
Si Si5 0.553772 0.213858 0.049613
Si Si6 0.000000 0.500000 0.614486
Si Si7 0.000000 0.500000 0.181497
Si Si8 0.682529 0.102946 0.657342
O O1 0.804640 0.304973 0.944268
O O2 0.747067 0.056968 0.940966
O O3 0.661291 0.234920 0.034574
O O4 0.823795 0.154734 0.067960
O O5 0.741438 0.420122 0.814069
O O6 0.581446 0.442838 0.737595
O O7 0.695875 0.232743 0.715467
O O8 0.735846 0.490863 0.667193
O O9 0.092305 0.517091 0.869976
O O10 0.493084 0.862917 0.976520
O O11 0.512666 0.367128 0.058333
O O12 0.536962 0.126790 0.128881
O O13 0.086139 0.475369 0.672780
#
# Coordination Sequence:
#
# PCOD8184997 Si02
#       8
#     8   8   8   4   8   4   4   8
#     4  11  22  43  69 101 135 182 232 287 342 422
#     4  12  26  45  69  99 142 187 231 293 360 422
#     4  11  24  44  67 102 141 184 228 281 361 421
#     4   9  22  41  70  98 144 190 228 286 361 425
#     4  10  20  39  71 106 136 179 238 299 347 410
#     4  12  22  37  63 113 133 170 236 304 338 409
#     4  11  22  46  69  99 139 188 232 298 363 416
#     4  12  25  42  70 103 136 182 238 291 340 423
#
# _framework density 21.83793
#
# number of rings (size 3 to 8) (size 9 to 14) (size 15 to 20)
#    0.000    0.923    3.077    4.615    2.154    0.615 
#    0.000   10.769    0.000    0.000    0.000    0.000 
#    0.000    0.000    0.000    0.000    0.000    0.000 
#
# Total GULP energy -322454.862854 kJ/mol
# GULP energy per Si atom -12402.110110 kJ/mol
# Density = 2.178823 g / cm^3
# Si number density = 21.837930 Si / 1000 Ang^3
#
#
#
# Elastic Constant Matrix: (Units=GPa)
#
#
# Indices 1 2 3 4 5 6 
#
# 1 147.6561 40.9758 48.2166 0.0000 0.0000 0.0000
# 2 40.9758 125.8574 15.0392 0.0000 0.0000 0.0000
# 3 48.2166 15.0392 94.1575 0.0000 0.0000 0.0000
# 4 0.0000 0.0000 0.0000 23.2943 0.0000 0.0000
# 5 0.0000 0.0000 0.0000 0.0000 28.2980 0.0000
# 6 0.0000 0.0000 0.0000 0.0000 0.0000 31.1013
#
#
#
# Elastic Compliance Matrix: (Units=1/GPa)
#
#
# Indices 1 2 3 4 5 6 
#
# 1 0.008772 -0.002364 -0.004114 0.000000 0.000000 0.000000
# 2 -0.002364 0.008737 -0.000185 0.000000 0.000000 0.000000
# 3 -0.004114 -0.000185 0.012757 0.000000 0.000000 0.000000
# 4 0.000000 0.000000 0.000000 0.042929 0.000000 0.000000
# 5 0.000000 0.000000 0.000000 0.000000 0.035338 0.000000
# 6 0.000000 0.000000 0.000000 0.000000 0.000000 0.032153
#
#
# Mechanical properties :
#
#
# Convention : Reuss Voigt Hill
#
# Bulk Modulus (GPa) = 59.03442 64.01492 61.52467
# Shear Modulus (GPa) = 31.31651 34.10136 32.70893
#
# Velocity S-wave (km/s) = 3.79098 3.95595 3.87435
# Velocity P-wave (km/s) = 6.80101 7.08825 6.94612
#
# Compressibility (1/GPa) = 0.01693927
#
# Stress axis : x y z
#
# Youngs Moduli (GPa) = 113.99676 114.45122 78.38844
#
# Poissons Ratio (x) = 0.27060 0.32253
# Poissons Ratio (y) = 0.26953 0.01449
# Poissons Ratio (z) = 0.46904 0.02115
#
# Static dielectric constant tensor:
#      x y z
#    x 4.269310 0.000000 0.000000 
#    y 0.000000 4.099720 0.000000 
#    z 0.000000 0.000000 3.605750 
# 
# 
# High freq. dielectric constant tensor:
#      x y z
#    x 1.878330 0.000000 0.000000 
#    y 0.000000 1.874630 0.000000 
#    z 0.000000 0.000000 1.832030 
# 
# From -- ./inp_files/11527.got.cif
#   From: 2010.03.12/outbox.cif.g09.slc.cpg/sg41_6_cif.got.tgz:11527.got - 2010.04.14 01:55:53.
