data_PCOD8184903
_publ_section_title
;
Structure prediction by ZEFSAII (Michael W. Deem and Ramdas Pophale) SiO2 
 PCOD8184903
Probable space group: A B A 2
;
_chemical_formula_sum "Si O2"
_cell_formula_units_Z 40
_cell_length_a 21.008501
_cell_length_b 18.540334
_cell_length_c 5.085585
_cell_angle_alpha 90.000000
_cell_angle_beta 90.000000
_cell_angle_gamma 90.000000
_cell_volume 1980.858880
_symmetry_space_group_name_H-M "A B A 2"
_symmetry_group_IT_number 41
_symmetry_cell_setting 'orthorhombic'
loop_
_space_group_symop_operation_xyz
x,y,z
-x,-y,z
1/2-x,y,1/2+z
1/2+x,-y,1/2+z
x,1/2+y,1/2+z
-x,1/2-y,1/2+z
1/2-x,1/2+y,z
1/2+x,1/2-y,z
loop_
_atom_site_type_symbol
_atom_site_label
_atom_site_fract_x
_atom_site_fract_y
_atom_site_fract_z
Si Si1 0.710048 0.364248 0.134640
Si Si2 0.209836 0.968601 0.146687
Si Si3 0.020448 0.838473 0.605445
Si Si4 0.406375 0.721242 0.356689
Si Si5 0.908691 0.132150 0.091356
O O1 0.765204 0.345075 0.344196
O O2 0.690874 0.447679 0.142967
O O3 0.648747 0.317019 0.196259
O O4 0.235890 0.948832 0.434442
O O5 0.147510 0.924723 0.073007
O O6 0.043557 0.754678 0.643529
O O7 0.037072 0.884231 0.868458
O O8 0.945168 0.836270 0.537766
O O9 0.059683 0.875813 0.373491
O O10 0.379888 0.787388 0.536161
#
# Coordination Sequence:
#
# PCOD8184903 Si02
#       5
#     8   8   8   8   8
#     4  10  24  38  58  83 116 154 194 231 293 345
#     4  10  21  40  56  79 117 159 187 240 291 337
#     4  10  20  35  58  86 112 149 184 237 302 329
#     4  10  21  37  61  83 120 145 187 245 288 347
#     4  10  20  34  58  85 110 146 197 230 284 353
#
# _framework density 20.193259999999999
#
# number of rings (size 3 to 8) (size 9 to 14) (size 15 to 20)
#    1.200    0.800    2.000    1.200    2.800    1.600 
#    0.000    1.000    0.000    4.800    0.000    0.000 
#    0.000    0.000    0.000    0.000    0.000    0.000 
#
# Total GULP energy -247896.778763 kJ/mol
# GULP energy per Si atom -12394.838938 kJ/mol
# Density = 2.014730 g / cm^3
# Si number density = 20.193260 Si / 1000 Ang^3
#
#
#
# Elastic Constant Matrix: (Units=GPa)
#
#
# Indices 1 2 3 4 5 6 
#
# 1 62.9860 27.7606 -0.6502 0.0000 0.0000 0.0000
# 2 27.7606 38.5883 10.4961 0.0000 0.0000 0.0000
# 3 -0.6502 10.4961 92.8349 0.0000 0.0000 0.0000
# 4 0.0000 0.0000 0.0000 21.3695 0.0000 0.0000
# 5 0.0000 0.0000 0.0000 0.0000 24.0624 0.0000
# 6 0.0000 0.0000 0.0000 0.0000 0.0000 -306.6028
#
#
#
# Elastic Compliance Matrix: (Units=1/GPa)
#
#
# Indices 1 2 3 4 5 6 
#
# 1 0.023659 -0.017607 0.002156 0.000000 0.000000 0.000000
# 2 -0.017607 0.039840 -0.004628 0.000000 0.000000 0.000000
# 3 0.002156 -0.004628 0.011310 0.000000 0.000000 0.000000
# 4 0.000000 0.000000 0.000000 0.046796 0.000000 0.000000
# 5 0.000000 0.000000 0.000000 0.000000 0.041559 0.000000
# 6 0.000000 0.000000 0.000000 0.000000 0.000000 -0.003262
#
#
# Mechanical properties :
#
#
# Convention : Reuss Voigt Hill
#
# Bulk Modulus (GPa) = 28.85799 29.95804 29.40801
# Shear Modulus (GPa) = 23.62853 -41.78066 -9.07607
#
# Velocity S-wave (km/s) = 3.42441 -4.55360 -2.12235
# Velocity P-wave (km/s) = 5.47333 3.57480 2.93071
#
# Compressibility (1/GPa) = 0.03465245
#
# Stress axis : x y z
#
# Youngs Moduli (GPa) = 42.26744 25.10058 88.41631
#
# Poissons Ratio (x) = 0.44194 -0.19066
# Poissons Ratio (y) = 0.74419 0.40916
# Poissons Ratio (z) = -0.09114 0.11616
#
# Static dielectric constant tensor:
#      x y z
#    x 3.332060 0.000000 0.000000 
#    y 0.000000 3.333580 0.000000 
#    z 0.000000 0.000000 3.880380 
# 
# 
# High freq. dielectric constant tensor:
#      x y z
#    x 1.775400 0.000000 0.000000 
#    y 0.000000 1.754990 0.000000 
#    z 0.000000 0.000000 1.808130 
# 
# From -- ./inp_files/243.got.cif
#   From: 2010.03.12/outbox.cif.g09.slc.cpg/sg41_1_cif.got.tgz:243.got - 2010.04.14 01:55:53.
