data_PCOD8184859
_publ_section_title
;
Structure prediction by ZEFSAII (Michael W. Deem and Ramdas Pophale) SiO2 
 PCOD8184859
Probable space group: A B A 2
;
_chemical_formula_sum "Si O2"
_cell_formula_units_Z 48
_cell_length_a 27.831274
_cell_length_b 8.572391
_cell_length_c 10.949819
_cell_angle_alpha 90.000000
_cell_angle_beta 90.000000
_cell_angle_gamma 90.000000
_cell_volume 2612.413979
_symmetry_space_group_name_H-M "A B A 2"
_symmetry_group_IT_number 41
_symmetry_cell_setting 'orthorhombic'
loop_
_space_group_symop_operation_xyz
x,y,z
-x,-y,z
1/2-x,y,1/2+z
1/2+x,-y,1/2+z
x,1/2+y,1/2+z
-x,1/2-y,1/2+z
1/2-x,1/2+y,z
1/2+x,1/2-y,z
loop_
_atom_site_type_symbol
_atom_site_label
_atom_site_fract_x
_atom_site_fract_y
_atom_site_fract_z
Si Si1 0.516498 0.324292 0.183900
Si Si2 0.812950 0.541607 0.193080
Si Si3 0.312946 0.541726 0.419176
Si Si4 0.262343 0.250059 0.306126
Si Si5 0.483464 0.824334 0.428658
Si Si6 0.391407 0.250079 0.806162
O O1 0.500000 0.500000 0.179014
O O2 0.492274 0.249971 0.306301
O O3 0.574560 0.309972 0.195033
O O4 0.499950 0.241804 0.056297
O O5 0.771355 0.673889 0.200781
O O6 0.796444 0.382459 0.254727
O O7 0.860011 0.603982 0.261615
O O8 0.826411 0.499952 0.056125
O O9 0.296444 0.382586 0.357510
O O10 0.271347 0.673998 0.411484
O O11 0.360003 0.604126 0.350641
O O12 0.425405 0.810129 0.417366
O O13 0.500000 0.000000 0.433690
#
# Coordination Sequence:
#
# PCOD8184859 Si02
#       6
#     8   8   8   8   8   8
#     4   9  20  40  58  79 111 149 188 242 291 342
#     4  10  19  37  57  85 118 147 188 232 274 341
#     4  10  19  37  57  85 118 147 188 232 274 341
#     4   9  20  36  57  84 114 156 183 218 290 333
#     4   9  20  40  58  79 111 149 188 242 291 342
#     4   9  22  38  53  90 112 140 203 234 274 355
#
# _framework density 18.373812999999998
#
# number of rings (size 3 to 8) (size 9 to 14) (size 15 to 20)
#    1.000    1.667    0.000    1.000    0.000    3.333 
#   15.000    0.000    0.000    0.000    0.000    0.000 
#    0.000    0.000    0.000    0.000    0.000    0.000 
#
# Total GULP energy -297358.904528 kJ/mol
# GULP energy per Si atom -12389.954355 kJ/mol
# Density = 1.833199 g / cm^3
# Si number density = 18.373813 Si / 1000 Ang^3
#
#
#
# Elastic Constant Matrix: (Units=GPa)
#
#
# Indices 1 2 3 4 5 6 
#
# 1 133.2029 62.8100 62.9331 0.0000 0.0000 0.0000
# 2 62.8100 106.6549 46.0237 0.0000 0.0000 0.0000
# 3 62.9331 46.0237 160.7586 0.0000 0.0000 0.0000
# 4 0.0000 0.0000 0.0000 24.2870 0.0000 0.0000
# 5 0.0000 0.0000 0.0000 0.0000 35.6851 0.0000
# 6 0.0000 0.0000 0.0000 0.0000 0.0000 34.6368
#
#
#
# Elastic Compliance Matrix: (Units=1/GPa)
#
#
# Indices 1 2 3 4 5 6 
#
# 1 0.011481 -0.005501 -0.002919 0.000000 0.000000 0.000000
# 2 -0.005501 0.013334 -0.001664 0.000000 0.000000 0.000000
# 3 -0.002919 -0.001664 0.007840 0.000000 0.000000 0.000000
# 4 0.000000 0.000000 0.000000 0.041174 0.000000 0.000000
# 5 0.000000 0.000000 0.000000 0.000000 0.028023 0.000000
# 6 0.000000 0.000000 0.000000 0.000000 0.000000 0.028871
#
#
# Mechanical properties :
#
#
# Convention : Reuss Voigt Hill
#
# Bulk Modulus (GPa) = 80.09451 82.68333 81.38892
# Shear Modulus (GPa) = 32.24702 34.17841 33.21271
#
# Velocity S-wave (km/s) = 4.19388 4.31765 4.25621
# Velocity P-wave (km/s) = 8.19377 8.36388 8.27926
#
# Compressibility (1/GPa) = 0.01248525
#
# Stress axis : x y z
#
# Youngs Moduli (GPa) = 87.10247 74.99788 127.55583
#
# Poissons Ratio (x) = 0.41259 0.37239
# Poissons Ratio (y) = 0.47918 0.21221
# Poissons Ratio (z) = 0.25429 0.12477
#
# Static dielectric constant tensor:
#      x y z
#    x 3.320010 0.000000 0.000000 
#    y 0.000000 3.336210 0.000000 
#    z 0.000000 0.000000 4.137400 
# 
# 
# High freq. dielectric constant tensor:
#      x y z
#    x 1.704080 0.000000 0.000000 
#    y 0.000000 1.715230 0.000000 
#    z 0.000000 0.000000 1.709760 
# 
# From -- ./inp_files/3947.got.cif
#   From: 2010.03.12/outbox.cif.g09.slc.cpg/sg41_2_cif.got.tgz:3947.got - 2010.04.14 01:55:53.
