data_PCOD8184148
_publ_section_title
;
Structure prediction by ZEFSAII (Michael W. Deem and Ramdas Pophale) SiO2 
 PCOD8184148
Probable space group: A M A 2
;
_chemical_formula_sum "Si O2"
_cell_formula_units_Z 28
_cell_length_a 5.270836
_cell_length_b 7.846764
_cell_length_c 29.098274
_cell_angle_alpha 90.000000
_cell_angle_beta 90.000000
_cell_angle_gamma 90.000000
_cell_volume 1203.475694
_symmetry_space_group_name_H-M "A M A 2"
_symmetry_group_IT_number 40
_symmetry_cell_setting 'orthorhombic'
loop_
_space_group_symop_operation_xyz
x,y,z
-x,-y,z
1/2-x,y,z
1/2+x,-y,z
x,1/2+y,1/2+z
-x,1/2-y,1/2+z
1/2-x,1/2+y,1/2+z
1/2+x,1/2-y,1/2+z
loop_
_atom_site_type_symbol
_atom_site_label
_atom_site_fract_x
_atom_site_fract_y
_atom_site_fract_z
Si Si1 0.250000 0.399690 0.990710
Si Si2 0.750000 0.961551 0.885265
Si Si3 0.250000 0.407918 0.881528
Si Si4 0.250000 0.404016 0.287686
Si Si5 0.750000 0.885764 0.059630
Si Si6 0.250000 0.884085 0.640735
Si Si7 0.750000 0.886032 0.221747
O O1 0.500000 0.500000 0.007676
O O2 0.250000 0.381624 0.936077
O O3 0.250000 0.207859 0.010169
O O4 0.750000 0.779706 0.860274
O O5 0.500000 0.000000 0.915964
O O6 0.750000 0.097869 0.843476
O O7 0.500000 0.500000 0.863567
O O8 0.500000 0.500000 0.268461
O O9 0.250000 0.207225 0.271290
O O10 0.750000 0.735374 0.096378
O O11 0.500000 0.000000 0.065381
O O12 0.250000 0.764894 0.685029
O O13 0.500000 0.000000 0.640360
O O14 0.500000 0.000000 0.215794
#
# Coordination Sequence:
#
# PCOD8184148 Si02
#       7
#     4   4   4   4   4   4   4
#     4  10  21  39  60  85 121 162 202 243 299 359
#     4  10  21  38  59  83 117 153 193 243 298 362
#     4  10  21  38  61  88 117 155 203 252 297 350
#     4  10  21  41  60  84 117 155 194 238 297 363
#     4  12  24  39  60  93 127 157 202 250 292 344
#     4  12  24  42  66  89 122 165 200 239 299 359
#     4  12  24  41  64  92 121 153 200 253 298 349
#
# _framework density 23.265944000000001
#
# number of rings (size 3 to 8) (size 9 to 14) (size 15 to 20)
#    0.000    1.143    0.000    6.857    0.000    1.143 
#    0.000   17.143    0.000    0.000    0.000    0.000 
#    0.000    0.000    0.000    0.000    0.000    0.000 
#
# Total GULP energy -173559.597718 kJ/mol
# GULP energy per Si atom -12397.114123 kJ/mol
# Density = 2.321299 g / cm^3
# Si number density = 23.265944 Si / 1000 Ang^3
#
#
#
# Elastic Constant Matrix: (Units=GPa)
#
#
# Indices 1 2 3 4 5 6 
#
# 1 277.4900 87.5805 7.6432 0.0000 0.0000 0.0000
# 2 87.5805 115.4716 5.4841 0.0000 0.0000 0.0000
# 3 7.6432 5.4841 31.6308 0.0000 0.0000 0.0000
# 4 0.0000 0.0000 0.0000 36.9792 0.0000 0.0000
# 5 0.0000 0.0000 0.0000 0.0000 32.6236 0.0000
# 6 0.0000 0.0000 0.0000 0.0000 0.0000 65.8066
#
#
#
# Elastic Compliance Matrix: (Units=1/GPa)
#
#
# Indices 1 2 3 4 5 6 
#
# 1 0.004747 -0.003575 -0.000527 0.000000 0.000000 0.000000
# 2 -0.003575 0.011425 -0.001117 0.000000 0.000000 0.000000
# 3 -0.000527 -0.001117 0.031936 0.000000 0.000000 0.000000
# 4 0.000000 0.000000 0.000000 0.027042 0.000000 0.000000
# 5 0.000000 0.000000 0.000000 0.000000 0.030653 0.000000
# 6 0.000000 0.000000 0.000000 0.000000 0.000000 0.015196
#
#
# Mechanical properties :
#
#
# Convention : Reuss Voigt Hill
#
# Bulk Modulus (GPa) = 26.54714 69.55643 48.05179
# Shear Modulus (GPa) = 34.72402 48.67418 41.69910
#
# Velocity S-wave (km/s) = 3.86746 4.57889 4.23813
# Velocity P-wave (km/s) = 5.60161 7.61026 6.68185
#
# Compressibility (1/GPa) = 0.03766884
#
# Stress axis : x y z
#
# Youngs Moduli (GPa) = 210.67685 87.52939 31.31289
#
# Poissons Ratio (x) = 0.31292 0.01651
# Poissons Ratio (y) = 0.75319 0.03497
# Poissons Ratio (z) = 0.11105 0.09776
#
# Static dielectric constant tensor:
#      x y z
#    x 4.906230 0.000000 0.000000 
#    y 0.000000 4.349410 0.000000 
#    z 0.000000 0.000000 4.009230 
# 
# 
# High freq. dielectric constant tensor:
#      x y z
#    x 1.955600 0.000000 0.000000 
#    y 0.000000 1.935120 0.000000 
#    z 0.000000 0.000000 1.895700 
# 
# From -- ./inp_files/25888.got.cif
#   From: 2010.03.12/outbox.cif.g09.slc.cpg/sg40_13_cif.got.tgz:25888.got - 2010.04.14 01:38:03.
