data_PCOD8184245
_publ_section_title
;
Structure prediction by ZEFSAII (Michael W. Deem and Ramdas Pophale) SiO2 
 PCOD8184245
Probable space group: A M A 2
;
_chemical_formula_sum "Si O2"
_cell_formula_units_Z 64
_cell_length_a 22.164415
_cell_length_b 16.087762
_cell_length_c 8.892907
_cell_angle_alpha 90.000000
_cell_angle_beta 90.000000
_cell_angle_gamma 90.000000
_cell_volume 3170.995725
_symmetry_space_group_name_H-M "A M A 2"
_symmetry_group_IT_number 40
_symmetry_cell_setting 'orthorhombic'
loop_
_space_group_symop_operation_xyz
x,y,z
-x,-y,z
1/2-x,y,z
1/2+x,-y,z
x,1/2+y,1/2+z
-x,1/2-y,1/2+z
1/2-x,1/2+y,1/2+z
1/2+x,1/2-y,1/2+z
loop_
_atom_site_type_symbol
_atom_site_label
_atom_site_fract_x
_atom_site_fract_y
_atom_site_fract_z
Si Si1 0.399654 0.799715 0.865510
Si Si2 0.568869 0.500510 0.943636
Si Si3 0.317299 0.768236 0.277743
Si Si4 0.099244 0.158595 0.597486
Si Si5 0.068221 0.027957 0.093387
Si Si6 0.406016 0.312106 0.017432
Si Si7 0.819905 0.590858 0.544703
Si Si8 0.028711 0.669813 0.395924
O O1 0.398094 0.788448 0.689066
O O2 0.458273 0.855850 0.910749
O O3 0.411013 0.711940 0.946716
O O4 0.337462 0.844263 0.913139
O O5 0.500000 0.500000 0.996753
O O6 0.574161 0.469294 0.772628
O O7 0.606633 0.436987 0.047449
O O8 0.594466 0.591186 0.976560
O O9 0.250000 0.745306 0.313421
O O10 0.340679 0.692674 0.175325
O O11 0.349588 0.769604 0.436659
O O12 0.325241 0.858448 0.199949
O O13 0.044968 0.164213 0.718825
O O14 0.128039 0.978982 0.037298
O O15 0.071811 0.115889 0.006104
O O16 0.000000 0.000000 0.049601
O O17 0.464899 0.266476 0.948280
O O18 0.750000 0.559088 0.522122
#
# Coordination Sequence:
#
# PCOD8184245 Si02
#       8
#     8   8   8   8   8   8   8   8
#     4  11  21  37  62  91 126 165 211 258 318 382
#     4  11  22  36  58  93 130 157 206 264 319 377
#     4   9  20  43  66  85 122 170 215 261 322 388
#     4  10  23  38  59  93 127 163 206 264 316 375
#     4  11  22  38  63  92 127 168 213 266 321 380
#     4  11  23  38  62  93 127 169 208 263 318 383
#     4  10  21  40  63  90 123 165 212 264 319 379
#     4  11  22  37  61  90 130 169 208 254 327 377
#
# _framework density 20.182933999999999
#
# number of rings (size 3 to 8) (size 9 to 14) (size 15 to 20)
#    0.000    1.500    2.500    3.000    1.750    2.000 
#    0.000    3.750    0.000    1.500    0.000    0.000 
#    0.000    0.000    0.000    0.000    0.000    0.000 
#
# Total GULP energy -396473.900825 kJ/mol
# GULP energy per Si atom -12389.809401 kJ/mol
# Density = 2.013700 g / cm^3
# Si number density = 20.182934 Si / 1000 Ang^3
#
#
#
# Elastic Constant Matrix: (Units=GPa)
#
#
# Indices 1 2 3 4 5 6 
#
# 1 136.8025 38.8232 41.1087 0.0000 0.0000 0.0000
# 2 38.8232 114.2365 59.1910 0.0000 0.0000 0.0000
# 3 41.1087 59.1910 136.4959 0.0000 0.0000 0.0000
# 4 0.0000 0.0000 0.0000 20.9482 0.0000 0.0000
# 5 0.0000 0.0000 0.0000 0.0000 11.8432 0.0000
# 6 0.0000 0.0000 0.0000 0.0000 0.0000 17.6416
#
#
#
# Elastic Compliance Matrix: (Units=1/GPa)
#
#
# Indices 1 2 3 4 5 6 
#
# 1 0.008372 -0.001985 -0.001661 0.000000 0.000000 0.000000
# 2 -0.001985 0.011761 -0.004502 0.000000 0.000000 0.000000
# 3 -0.001661 -0.004502 0.009779 0.000000 0.000000 0.000000
# 4 0.000000 0.000000 0.000000 0.047737 0.000000 0.000000
# 5 0.000000 0.000000 0.000000 0.000000 0.084437 0.000000
# 6 0.000000 0.000000 0.000000 0.000000 0.000000 0.056684
#
#
# Mechanical properties :
#
#
# Convention : Reuss Voigt Hill
#
# Bulk Modulus (GPa) = 73.44159 73.97564 73.70861
# Shear Modulus (GPa) = 20.86772 26.64740 23.75756
#
# Velocity S-wave (km/s) = 3.21896 3.63753 3.43463
# Velocity P-wave (km/s) = 7.09102 7.37389 7.23384
#
# Compressibility (1/GPa) = 0.01361626
#
# Stress axis : x y z
#
# Youngs Moduli (GPa) = 119.44419 85.02525 102.26121
#
# Poissons Ratio (x) = 0.16875 0.16983
# Poissons Ratio (y) = 0.23707 0.46043
# Poissons Ratio (z) = 0.19837 0.38282
#
# Static dielectric constant tensor:
#      x y z
#    x 3.599830 0.000000 0.000000 
#    y 0.000000 3.610860 0.000000 
#    z 0.000000 0.000000 3.653780 
# 
# 
# High freq. dielectric constant tensor:
#      x y z
#    x 1.772810 0.000000 0.000000 
#    y 0.000000 1.781150 0.000000 
#    z 0.000000 0.000000 1.795670 
# 
# From -- ./inp_files/8900.got.cif
#   From: 2010.03.12/outbox.cif.g09.slc.cpg/sg40_5_cif.got.tgz:8900.got - 2010.04.14 01:38:03.
