data_PCOD8184015
_publ_section_title
;
Structure prediction by ZEFSAII (Michael W. Deem and Ramdas Pophale) SiO2 
 PCOD8184015
Probable space group: A M A 2
;
_chemical_formula_sum "Si O2"
_cell_formula_units_Z 40
_cell_length_a 18.312755
_cell_length_b 13.412240
_cell_length_c 7.302368
_cell_angle_alpha 90.000000
_cell_angle_beta 90.000000
_cell_angle_gamma 90.000000
_cell_volume 1793.571592
_symmetry_space_group_name_H-M "A M A 2"
_symmetry_group_IT_number 40
_symmetry_cell_setting 'orthorhombic'
loop_
_space_group_symop_operation_xyz
x,y,z
-x,-y,z
1/2-x,y,z
1/2+x,-y,z
x,1/2+y,1/2+z
-x,1/2-y,1/2+z
1/2-x,1/2+y,1/2+z
1/2+x,1/2-y,1/2+z
loop_
_atom_site_type_symbol
_atom_site_label
_atom_site_fract_x
_atom_site_fract_y
_atom_site_fract_z
Si Si1 0.167178 0.892441 0.721670
Si Si2 0.166773 0.220262 0.937506
Si Si3 0.103052 0.266021 0.546367
Si Si4 0.972639 0.393694 0.482284
Si Si5 0.061772 0.561006 0.090707
O O1 0.250000 0.926259 0.743681
O O2 0.155641 0.818576 0.554964
O O3 0.124688 0.994060 0.680263
O O4 0.144789 0.838508 0.909401
O O5 0.250000 0.180491 0.948560
O O6 0.147704 0.255709 0.733383
O O7 0.113193 0.132987 0.014595
O O8 0.094273 0.151615 0.469178
O O9 0.022010 0.309534 0.578419
O O10 0.984273 0.391151 0.261430
O O11 0.000000 0.500000 0.561994
O O12 0.000000 0.500000 0.975246
#
# Coordination Sequence:
#
# PCOD8184015 Si02
#       5
#     8   8   8   8   8
#     4  11  23  43  67  95 134 177 224 285 347 412
#     4  10  24  43  64  98 139 175 229 294 343 411
#     4  11  22  42  69  95 132 182 229 271 355 416
#     4  10  20  40  66  98 130 176 228 278 342 406
#     4  10  20  40  65  96 134 170 224 286 335 402
#
# _framework density 22.301870999999998
#
# number of rings (size 3 to 8) (size 9 to 14) (size 15 to 20)
#    0.000    1.600    4.000    1.800    2.800    4.000 
#    3.600    0.000    0.000    0.000    0.000    0.000 
#    0.000    0.000    0.000    0.000    0.000    0.000 
#
# Total GULP energy -247842.952695 kJ/mol
# GULP energy per Si atom -12392.147635 kJ/mol
# Density = 2.225111 g / cm^3
# Si number density = 22.301871 Si / 1000 Ang^3
#
#
#
# Elastic Constant Matrix: (Units=GPa)
#
#
# Indices 1 2 3 4 5 6 
#
# 1 143.8994 80.6805 30.6668 0.0000 0.0000 0.0000
# 2 80.6805 162.0523 32.0474 0.0000 0.0000 0.0000
# 3 30.6668 32.0474 41.9449 0.0000 0.0000 0.0000
# 4 0.0000 0.0000 0.0000 19.8437 0.0000 0.0000
# 5 0.0000 0.0000 0.0000 0.0000 142.0094 0.0000
# 6 0.0000 0.0000 0.0000 0.0000 0.0000 41.7664
#
#
#
# Elastic Compliance Matrix: (Units=1/GPa)
#
#
# Indices 1 2 3 4 5 6 
#
# 1 0.010240 -0.004262 -0.004231 0.000000 0.000000 0.000000
# 2 -0.004262 0.009043 -0.003793 0.000000 0.000000 0.000000
# 3 -0.004231 -0.003793 0.029832 0.000000 0.000000 0.000000
# 4 0.000000 0.000000 0.000000 0.050394 0.000000 0.000000
# 5 0.000000 0.000000 0.000000 0.000000 0.007042 0.000000
# 6 0.000000 0.000000 0.000000 0.000000 0.000000 0.023943
#
#
# Mechanical properties :
#
#
# Convention : Reuss Voigt Hill
#
# Bulk Modulus (GPa) = 40.74338 70.52065 55.63201
# Shear Modulus (GPa) = 30.62857 54.35737 42.49297
#
# Velocity S-wave (km/s) = 3.70991 4.94230 4.36977
# Velocity P-wave (km/s) = 6.05475 8.01611 7.10345
#
# Compressibility (1/GPa) = 0.02454387
#
# Stress axis : x y z
#
# Youngs Moduli (GPa) = 97.65311 110.58628 33.52082
#
# Poissons Ratio (x) = 0.47128 0.14182
# Poissons Ratio (y) = 0.41616 0.12715
# Poissons Ratio (z) = 0.41316 0.41947
#
# Static dielectric constant tensor:
#      x y z
#    x 3.888890 0.000000 0.000000 
#    y 0.000000 4.405290 0.000000 
#    z 0.000000 0.000000 3.679470 
# 
# 
# High freq. dielectric constant tensor:
#      x y z
#    x 1.889520 0.000000 0.000000 
#    y 0.000000 1.890560 0.000000 
#    z 0.000000 0.000000 1.848750 
# 
# From -- ./inp_files/7134.got.cif
#   From: 2010.03.12/outbox.cif.g09.slc.cpg/sg40_4_cif.got.tgz:7134.got - 2010.04.14 01:38:03.
