data_PCOD8184663
_publ_section_title
;
Structure prediction by ZEFSAII (Michael W. Deem and Ramdas Pophale) SiO2 
 PCOD8184663
Probable space group: A M A 2
;
_chemical_formula_sum "Si O2"
_cell_formula_units_Z 64
_cell_length_a 14.600959
_cell_length_b 23.856132
_cell_length_c 9.294443
_cell_angle_alpha 90.000000
_cell_angle_beta 90.000000
_cell_angle_gamma 90.000000
_cell_volume 3237.462741
_symmetry_space_group_name_H-M "A M A 2"
_symmetry_group_IT_number 40
_symmetry_cell_setting 'orthorhombic'
loop_
_space_group_symop_operation_xyz
x,y,z
-x,-y,z
1/2-x,y,z
1/2+x,-y,z
x,1/2+y,1/2+z
-x,1/2-y,1/2+z
1/2-x,1/2+y,1/2+z
1/2+x,1/2-y,1/2+z
loop_
_atom_site_type_symbol
_atom_site_label
_atom_site_fract_x
_atom_site_fract_y
_atom_site_fract_z
Si Si1 0.141855 0.503871 0.233810
Si Si2 0.141326 0.986692 0.047763
Si Si3 0.142911 0.627423 0.261637
Si Si4 0.642998 0.389174 0.594077
Si Si5 0.501266 0.694226 0.091124
Si Si6 0.853663 0.600160 0.056728
Si Si7 0.646462 0.616912 0.726167
Si Si8 0.983931 0.806229 0.253869
O O1 0.250000 0.507539 0.248504
O O2 0.102262 0.482657 0.386204
O O3 0.108553 0.567051 0.200021
O O4 0.109587 0.459776 0.114163
O O5 0.250000 0.983584 0.051609
O O6 0.110983 0.046241 0.115278
O O7 0.102166 0.933252 0.132748
O O8 0.250000 0.637191 0.232680
O O9 0.121745 0.631259 0.431718
O O10 0.089065 0.675108 0.175980
O O11 0.750000 0.382863 0.626748
O O12 0.590337 0.352710 0.711728
O O13 0.582439 0.649727 0.113121
O O14 0.537582 0.750779 0.163961
O O15 0.477626 0.704720 0.924346
O O16 0.750000 0.611777 0.112448
O O17 0.855553 0.594347 0.887135
O O18 0.750000 0.632528 0.678764
O O19 0.585222 0.672319 0.709999
#
# Coordination Sequence:
#
# PCOD8184663 Si02
#       8
#     8   8   8   8   8   8   8   8
#     4   8  15  30  54  83 110 137 173 215 263 323
#     4   8  15  30  54  83 110 137 173 215 263 323
#     4   9  19  37  59  82 111 145 177 216 270 325
#     4   9  19  37  59  82 111 145 177 216 270 325
#     4  11  24  39  55  78 107 142 188 233 272 320
#     4   9  19  36  56  78 107 142 176 216 270 325
#     4   9  19  36  56  78 107 142 176 216 270 325
#     4  11  24  39  55  78 107 142 188 233 272 320
#
# _framework density 19.768567000000001
#
# number of rings (size 3 to 8) (size 9 to 14) (size 15 to 20)
#    0.000    2.750    0.000    2.250    0.000    5.500 
#    0.000   10.000    0.000    0.000    0.000    0.000 
#    0.000    0.000    0.000    0.000    0.000    0.000 
#
# Total GULP energy -396725.678373 kJ/mol
# GULP energy per Si atom -12397.677449 kJ/mol
# Density = 1.972357 g / cm^3
# Si number density = 19.768567 Si / 1000 Ang^3
#
#
#
# Elastic Constant Matrix: (Units=GPa)
#
#
# Indices 1 2 3 4 5 6 
#
# 1 47.2211 1.5213 12.9166 0.0000 0.0000 0.0000
# 2 1.5213 58.7303 16.8529 0.0000 0.0000 0.0000
# 3 12.9166 16.8529 50.6332 0.0000 0.0000 0.0000
# 4 0.0000 0.0000 0.0000 39.5780 0.0000 0.0000
# 5 0.0000 0.0000 0.0000 0.0000 24.8661 0.0000
# 6 0.0000 0.0000 0.0000 0.0000 0.0000 27.3483
#
#
#
# Elastic Compliance Matrix: (Units=1/GPa)
#
#
# Indices 1 2 3 4 5 6 
#
# 1 0.022841 0.001194 -0.006224 0.000000 0.000000 0.000000
# 2 0.001194 0.018887 -0.006591 0.000000 0.000000 0.000000
# 3 -0.006224 -0.006591 0.023532 0.000000 0.000000 0.000000
# 4 0.000000 0.000000 0.000000 0.025267 0.000000 0.000000
# 5 0.000000 0.000000 0.000000 0.000000 0.040215 0.000000
# 6 0.000000 0.000000 0.000000 0.000000 0.000000 0.036565
#
#
# Mechanical properties :
#
#
# Convention : Reuss Voigt Hill
#
# Bulk Modulus (GPa) = 23.79947 24.35182 24.07564
# Shear Modulus (GPa) = 24.44323 26.71140 25.57731
#
# Velocity S-wave (km/s) = 3.52016 3.67986 3.60090
# Velocity P-wave (km/s) = 5.34670 5.51365 5.43082
#
# Compressibility (1/GPa) = 0.04201774
#
# Stress axis : x y z
#
# Youngs Moduli (GPa) = 43.78077 52.94527 42.49608
#
# Poissons Ratio (x) = -0.06324 0.26451
# Poissons Ratio (y) = -0.05229 0.28010
# Poissons Ratio (z) = 0.27251 0.34898
#
# Static dielectric constant tensor:
#      x y z
#    x 3.540510 0.000000 0.000000 
#    y 0.000000 3.620690 0.000000 
#    z 0.000000 0.000000 3.603260 
# 
# 
# High freq. dielectric constant tensor:
#      x y z
#    x 1.767430 0.000000 0.000000 
#    y 0.000000 1.768610 0.000000 
#    z 0.000000 0.000000 1.763090 
# 
# From -- ./inp_files/6871.got.cif
#   From: 2010.03.12/outbox.cif.g09.slc.cpg/sg40_4_cif.got.tgz:6871.got - 2010.04.14 01:38:03.
