data_PCOD8184906
_publ_section_title
;
Structure prediction by ZEFSAII (Michael W. Deem and Ramdas Pophale) SiO2 
 PCOD8184906
Probable space group: A B A 2
;
_chemical_formula_sum "Si O2"
_cell_formula_units_Z 60
_cell_length_a 13.868092
_cell_length_b 18.795071
_cell_length_c 9.438304
_cell_angle_alpha 90.000000
_cell_angle_beta 90.000000
_cell_angle_gamma 90.000000
_cell_volume 2460.110679
_symmetry_space_group_name_H-M "A B A 2"
_symmetry_group_IT_number 41
_symmetry_cell_setting 'orthorhombic'
loop_
_space_group_symop_operation_xyz
x,y,z
-x,-y,z
1/2-x,y,1/2+z
1/2+x,-y,1/2+z
x,1/2+y,1/2+z
-x,1/2-y,1/2+z
1/2-x,1/2+y,z
1/2+x,1/2-y,z
loop_
_atom_site_type_symbol
_atom_site_label
_atom_site_fract_x
_atom_site_fract_y
_atom_site_fract_z
Si Si1 0.000000 0.500000 0.087790
Si Si2 0.075719 0.887608 0.368029
Si Si3 0.279213 0.339098 0.938384
Si Si4 0.830377 0.234383 0.672277
Si Si5 0.540182 0.118538 0.555596
Si Si6 0.159555 0.599668 0.184742
Si Si7 0.170111 0.117588 0.004768
Si Si8 0.525161 0.786968 0.055185
O O1 0.078997 0.538069 0.187931
O O2 0.052087 0.444273 0.987572
O O3 0.189998 0.877368 0.364500
O O4 0.047616 0.913689 0.212310
O O5 0.012298 0.816185 0.401464
O O6 0.307233 0.270135 0.839887
O O7 0.250728 0.311600 0.093166
O O8 0.366021 0.398175 0.957123
O O9 0.835142 0.310666 0.597591
O O10 0.934929 0.197204 0.658923
O O11 0.439333 0.086753 0.498686
O O12 0.548501 0.204363 0.549428
O O13 0.199233 0.622357 0.339664
O O14 0.250007 0.571326 0.088980
O O15 0.118833 0.671338 0.111689
#
# Coordination Sequence:
#
# PCOD8184906 Si02
#       8
#     4   8   8   8   8   8   8   8
#     4  10  26  54  76  86 146 192 262 298 358 408
#     4  10  23  44  68 102 135 195 240 298 356 428
#     4  11  20  37  60 101 141 184 225 283 362 427
#     4  10  20  34  60 101 147 183 217 284 361 453
#     4  11  23  38  68 108 147 178 233 296 369 452
#     4  11  24  47  68 103 136 198 242 305 352 425
#     4  11  25  38  70 103 143 182 240 288 373 434
#     4   9  22  36  65  93 148 180 225 287 368 431
#
# _framework density 24.389147000000001
#
# number of rings (size 3 to 8) (size 9 to 14) (size 15 to 20)
#    0.000    1.600    1.333    2.400   13.067    0.000 
#    2.400    0.667    0.000    0.000    0.000    0.000 
#    0.000    0.000    0.000    0.000    0.000    0.000 
#
# Total GULP energy -371749.812488 kJ/mol
# GULP energy per Si atom -12391.660416 kJ/mol
# Density = 2.433364 g / cm^3
# Si number density = 24.389147 Si / 1000 Ang^3
#
#
#
# Elastic Constant Matrix: (Units=GPa)
#
#
# Indices 1 2 3 4 5 6 
#
# 1 137.3846 0.6532 39.0802 0.0000 0.0000 0.0000
# 2 0.6532 32.6833 -0.9256 0.0000 0.0000 0.0000
# 3 39.0802 -0.9256 139.4622 0.0000 0.0000 0.0000
# 4 0.0000 0.0000 0.0000 18.0091 0.0000 0.0000
# 5 0.0000 0.0000 0.0000 0.0000 26.1150 0.0000
# 6 0.0000 0.0000 0.0000 0.0000 0.0000 23.2451
#
#
#
# Elastic Compliance Matrix: (Units=1/GPa)
#
#
# Indices 1 2 3 4 5 6 
#
# 1 0.007911 -0.000221 -0.002218 0.000000 0.000000 0.000000
# 2 -0.000221 0.030609 0.000265 0.000000 0.000000 0.000000
# 3 -0.002218 0.000265 0.007794 0.000000 0.000000 0.000000
# 4 0.000000 0.000000 0.000000 0.055527 0.000000 0.000000
# 5 0.000000 0.000000 0.000000 0.000000 0.038292 0.000000
# 6 0.000000 0.000000 0.000000 0.000000 0.000000 0.043020
#
#
# Mechanical properties :
#
#
# Convention : Reuss Voigt Hill
#
# Bulk Modulus (GPa) = 23.82940 43.01617 33.42278
# Shear Modulus (GPa) = 24.81523 31.52201 28.16862
#
# Velocity S-wave (km/s) = 3.19324 3.59898 3.40216
# Velocity P-wave (km/s) = 4.83605 5.91151 5.40062
#
# Compressibility (1/GPa) = 0.04196498
#
# Stress axis : x y z
#
# Youngs Moduli (GPa) = 126.40800 32.67059 128.30770
#
# Poissons Ratio (x) = 0.00722 0.28462
# Poissons Ratio (y) = 0.02793 -0.03401
# Poissons Ratio (z) = 0.28041 -0.00866
#
# Static dielectric constant tensor:
#      x y z
#    x 5.232720 0.000000 0.000000 
#    y 0.000000 3.904670 0.000000 
#    z 0.000000 0.000000 4.281810 
# 
# 
# High freq. dielectric constant tensor:
#      x y z
#    x 2.002170 0.000000 0.000000 
#    y 0.000000 1.914510 0.000000 
#    z 0.000000 0.000000 1.971660 
# 
# From -- ./inp_files/2750.got.cif
#   From: 2010.03.12/outbox.cif.g09.slc.cpg/sg41_2_cif.got.tgz:2750.got - 2010.04.14 01:55:53.
