data_PCOD8184691
_publ_section_title
;
Structure prediction by ZEFSAII (Michael W. Deem and Ramdas Pophale) SiO2 
 PCOD8184691
Probable space group: A M A 2
;
_chemical_formula_sum "Si O2"
_cell_formula_units_Z 40
_cell_length_a 18.264529
_cell_length_b 7.782011
_cell_length_c 12.185752
_cell_angle_alpha 90.000000
_cell_angle_beta 90.000000
_cell_angle_gamma 90.000000
_cell_volume 1732.019004
_symmetry_space_group_name_H-M "A M A 2"
_symmetry_group_IT_number 40
_symmetry_cell_setting 'orthorhombic'
loop_
_space_group_symop_operation_xyz
x,y,z
-x,-y,z
1/2-x,y,z
1/2+x,-y,z
x,1/2+y,1/2+z
-x,1/2-y,1/2+z
1/2-x,1/2+y,1/2+z
1/2+x,1/2-y,1/2+z
loop_
_atom_site_type_symbol
_atom_site_label
_atom_site_fract_x
_atom_site_fract_y
_atom_site_fract_z
Si Si1 0.165837 0.806367 0.037870
Si Si2 0.335286 0.170437 0.773367
Si Si3 0.461413 0.316167 0.904162
Si Si4 0.570252 0.892582 0.109721
Si Si5 0.602290 0.200517 0.819372
O O1 0.250000 0.851659 0.028264
O O2 0.148501 0.691959 0.144049
O O3 0.124236 0.988008 0.040799
O O4 0.138271 0.708647 0.927713
O O5 0.250000 0.203071 0.800528
O O6 0.383361 0.309169 0.841425
O O7 0.357824 0.979487 0.804239
O O8 0.500000 0.500000 0.895613
O O9 0.515313 0.180310 0.842548
O O10 0.454184 0.263756 0.031421
O O11 0.614728 0.819257 0.213386
O O12 0.500000 0.000000 0.151939
#
# Coordination Sequence:
#
# PCOD8184691 Si02
#       5
#     8   8   8   8   8
#     4  11  25  47  71 103 147 190 238 295 359 429
#     4  11  25  49  76 107 148 191 238 299 366 433
#     4  12  26  45  77 110 144 192 245 302 358 431
#     4  12  25  47  73 105 143 190 241 301 361 422
#     4  12  25  44  75 107 145 185 242 294 362 430
#
# _framework density 23.094434
#
# number of rings (size 3 to 8) (size 9 to 14) (size 15 to 20)
#    0.000    0.400    4.000    4.200    2.800    1.600 
#    0.000    2.000    0.000    0.000    0.000    0.000 
#    0.000    0.000    0.000    0.000    0.000    0.000 
#
# Total GULP energy -248052.624730 kJ/mol
# GULP energy per Si atom -12402.631237 kJ/mol
# Density = 2.304187 g / cm^3
# Si number density = 23.094434 Si / 1000 Ang^3
#
#
#
# Elastic Constant Matrix: (Units=GPa)
#
#
# Indices 1 2 3 4 5 6 
#
# 1 144.3128 55.0015 59.4043 0.0000 0.0000 0.0000
# 2 55.0015 79.4914 59.3740 0.0000 0.0000 0.0000
# 3 59.4043 59.3740 170.8074 0.0000 0.0000 0.0000
# 4 0.0000 0.0000 0.0000 27.4470 0.0000 0.0000
# 5 0.0000 0.0000 0.0000 0.0000 44.6301 0.0000
# 6 0.0000 0.0000 0.0000 0.0000 0.0000 23.7170
#
#
#
# Elastic Compliance Matrix: (Units=1/GPa)
#
#
# Indices 1 2 3 4 5 6 
#
# 1 0.009652 -0.005634 -0.001399 0.000000 0.000000 0.000000
# 2 -0.005634 0.020280 -0.005090 0.000000 0.000000 0.000000
# 3 -0.001399 -0.005090 0.008110 0.000000 0.000000 0.000000
# 4 0.000000 0.000000 0.000000 0.036434 0.000000 0.000000
# 5 0.000000 0.000000 0.000000 0.000000 0.022406 0.000000
# 6 0.000000 0.000000 0.000000 0.000000 0.000000 0.042164
#
#
# Mechanical properties :
#
#
# Convention : Reuss Voigt Hill
#
# Bulk Modulus (GPa) = 72.47692 82.46347 77.47019
# Shear Modulus (GPa) = 29.78115 33.88095 31.83105
#
# Velocity S-wave (km/s) = 3.59491 3.83438 3.71657
# Velocity P-wave (km/s) = 6.97726 7.44230 7.21353
#
# Compressibility (1/GPa) = 0.01379750
#
# Stress axis : x y z
#
# Youngs Moduli (GPa) = 103.60167 49.30914 123.30006
#
# Poissons Ratio (x) = 0.27781 0.17244
# Poissons Ratio (y) = 0.58370 0.62761
# Poissons Ratio (z) = 0.14489 0.25099
#
# Static dielectric constant tensor:
#      x y z
#    x 4.365950 0.000000 0.000000 
#    y 0.000000 3.919870 0.000000 
#    z 0.000000 0.000000 4.515870 
# 
# 
# High freq. dielectric constant tensor:
#      x y z
#    x 1.916370 0.000000 0.000000 
#    y 0.000000 1.894800 0.000000 
#    z 0.000000 0.000000 1.937910 
# 
# From -- ./inp_files/12696.got.cif
#   From: 2010.03.12/outbox.cif.g09.slc.cpg/sg40_7_cif.got.tgz:12696.got - 2010.04.14 01:38:03.
