data_PCOD8184759
_publ_section_title
;
Structure prediction by ZEFSAII (Michael W. Deem and Ramdas Pophale) SiO2 
 PCOD8184759
Probable space group: A B A 2
;
_chemical_formula_sum "Si O2"
_cell_formula_units_Z 64
_cell_length_a 22.698316
_cell_length_b 8.959972
_cell_length_c 16.125738
_cell_angle_alpha 90.000000
_cell_angle_beta 90.000000
_cell_angle_gamma 90.000000
_cell_volume 3279.592539
_symmetry_space_group_name_H-M "A B A 2"
_symmetry_group_IT_number 41
_symmetry_cell_setting 'orthorhombic'
loop_
_space_group_symop_operation_xyz
x,y,z
-x,-y,z
1/2-x,y,1/2+z
1/2+x,-y,1/2+z
x,1/2+y,1/2+z
-x,1/2-y,1/2+z
1/2-x,1/2+y,z
1/2+x,1/2-y,z
loop_
_atom_site_type_symbol
_atom_site_label
_atom_site_fract_x
_atom_site_fract_y
_atom_site_fract_z
Si Si1 0.911052 0.850817 0.957740
Si Si2 0.195258 0.341525 0.891711
Si Si3 0.931068 0.362714 0.841649
Si Si4 0.488561 0.157523 0.018334
Si Si5 0.881798 0.131345 0.241898
Si Si6 0.525992 0.351854 0.786606
Si Si7 0.382663 0.353429 0.057153
Si Si8 0.814720 0.819633 0.427331
O O1 0.852133 0.760113 0.938179
O O2 0.950669 0.890454 0.878476
O O3 0.950547 0.748586 0.017347
O O4 0.893152 0.004673 0.999675
O O5 0.178055 0.353231 0.794639
O O6 0.258275 0.265230 0.893346
O O7 0.197435 0.503410 0.935671
O O8 0.924177 0.515927 0.790541
O O9 0.867096 0.290915 0.861071
O O10 0.969716 0.256079 0.785183
O O11 0.963396 0.391186 0.928506
O O12 0.442392 0.259083 0.067422
O O13 0.500000 0.000000 0.065363
O O14 0.919106 0.284655 0.236020
O O15 0.863590 0.088107 0.148339
O O16 0.500000 0.500000 0.744009
O O17 0.332154 0.248662 0.017020
#
# Coordination Sequence:
#
# PCOD8184759 Si02
#       8
#     8   8   8   8   8   8   8   8
#     4  10  19  33  56  84 111 149 193 227 268 332
#     4  10  21  40  63  81 104 147 192 227 275 340
#     4   9  18  34  55  78 109 150 188 222 269 332
#     4  10  18  32  55  82 114 153 191 224 267 332
#     4  10  22  37  55  82 115 146 181 231 286 331
#     4  10  18  31  54  82 112 149 190 224 264 327
#     4  11  22  36  56  85 117 144 183 238 286 327
#     4  10  20  37  60  82 106 144 188 229 273 333
#
# _framework density 19.514619
#
# number of rings (size 3 to 8) (size 9 to 14) (size 15 to 20)
#    0.000    2.000    0.000    7.500    0.000    3.500 
#    0.000    6.250    0.000    0.000    0.000    0.000 
#    0.000    0.000    0.000    0.000    0.000    0.000 
#
# Total GULP energy -396717.831053 kJ/mol
# GULP energy per Si atom -12397.432220 kJ/mol
# Density = 1.947020 g / cm^3
# Si number density = 19.514619 Si / 1000 Ang^3
#
#
#
# Elastic Constant Matrix: (Units=GPa)
#
#
# Indices 1 2 3 4 5 6 
#
# 1 118.6127 47.0162 22.6246 0.0000 0.0000 0.0000
# 2 47.0162 120.8158 35.5509 0.0000 0.0000 0.0000
# 3 22.6246 35.5509 86.9688 0.0000 0.0000 0.0000
# 4 0.0000 0.0000 0.0000 11.2848 0.0000 0.0000
# 5 0.0000 0.0000 0.0000 0.0000 4.2011 0.0000
# 6 0.0000 0.0000 0.0000 0.0000 0.0000 39.8777
#
#
#
# Elastic Compliance Matrix: (Units=1/GPa)
#
#
# Indices 1 2 3 4 5 6 
#
# 1 0.010070 -0.003578 -0.001157 0.000000 0.000000 0.000000
# 2 -0.003578 0.010680 -0.003435 0.000000 0.000000 0.000000
# 3 -0.001157 -0.003435 0.013203 0.000000 0.000000 0.000000
# 4 0.000000 0.000000 0.000000 0.088614 0.000000 0.000000
# 5 0.000000 0.000000 0.000000 0.000000 0.238033 0.000000
# 6 0.000000 0.000000 0.000000 0.000000 0.000000 0.025077
#
#
# Mechanical properties :
#
#
# Convention : Reuss Voigt Hill
#
# Bulk Modulus (GPa) = 56.77539 59.64229 58.20884
# Shear Modulus (GPa) = 12.25821 25.81978 19.03900
#
# Velocity S-wave (km/s) = 2.50902 3.64139 3.12689
# Velocity P-wave (km/s) = 6.12785 6.95046 6.55207
#
# Compressibility (1/GPa) = 0.01761327
#
# Stress axis : x y z
#
# Youngs Moduli (GPa) = 99.30626 93.62975 75.73757
#
# Poissons Ratio (x) = 0.33504 0.08762
# Poissons Ratio (y) = 0.35535 0.26016
# Poissons Ratio (z) = 0.11489 0.32162
#
# Static dielectric constant tensor:
#      x y z
#    x 3.579290 0.000000 0.000000 
#    y 0.000000 3.755940 0.000000 
#    z 0.000000 0.000000 3.227640 
# 
# 
# High freq. dielectric constant tensor:
#      x y z
#    x 1.757530 0.000000 0.000000 
#    y 0.000000 1.775160 0.000000 
#    z 0.000000 0.000000 1.727360 
# 
# From -- ./inp_files/10703.got.cif
#   From: 2010.03.12/outbox.cif.g09.slc.cpg/sg41_6_cif.got.tgz:10703.got - 2010.04.14 01:55:53.
