data_PCOD8184417
_publ_section_title
;
Structure prediction by ZEFSAII (Michael W. Deem and Ramdas Pophale) SiO2 
 PCOD8184417
Probable space group: A M A 2
;
_chemical_formula_sum "Si O2"
_cell_formula_units_Z 40
_cell_length_a 10.678818
_cell_length_b 8.868498
_cell_length_c 18.093051
_cell_angle_alpha 90.000000
_cell_angle_beta 90.000000
_cell_angle_gamma 90.000000
_cell_volume 1713.503771
_symmetry_space_group_name_H-M "A M A 2"
_symmetry_group_IT_number 40
_symmetry_cell_setting 'orthorhombic'
loop_
_space_group_symop_operation_xyz
x,y,z
-x,-y,z
1/2-x,y,z
1/2+x,-y,z
x,1/2+y,1/2+z
-x,1/2-y,1/2+z
1/2-x,1/2+y,1/2+z
1/2+x,1/2-y,1/2+z
loop_
_atom_site_type_symbol
_atom_site_label
_atom_site_fract_x
_atom_site_fract_y
_atom_site_fract_z
Si Si1 0.468528 0.664264 0.494820
Si Si2 0.885065 0.391515 0.074102
Si Si3 0.385065 0.108485 0.152890
Si Si4 0.968528 0.335736 0.232173
Si Si5 0.108832 0.873000 0.363496
O O1 0.500000 0.500000 0.461001
O O2 0.596744 0.740989 0.524969
O O3 0.379582 0.648066 0.566341
O O4 0.402152 0.766953 0.434533
O O5 0.750000 0.462424 0.052384
O O6 0.879583 0.351935 0.160651
O O7 0.000000 0.500000 0.053210
O O8 0.250000 0.037576 0.174609
O O9 0.403256 0.259011 0.202024
O O10 0.500000 0.000000 0.173782
O O11 0.902151 0.233047 0.292459
O O12 0.000000 0.500000 0.265991
O O13 0.250000 0.944472 0.363496
O O14 0.000000 0.000000 0.363496
#
# Coordination Sequence:
#
# PCOD8184417 Si02
#       5
#     8   8   8   8   8
#     4  10  23  41  66  96 128 165 212 262 313 372
#     4  10  22  41  67  98 131 167 208 256 312 376
#     4  10  22  41  67  98 131 167 208 256 312 376
#     4  10  23  41  66  96 128 165 212 262 313 372
#     4  12  27  46  66  90 126 170 215 264 320 378
#
# _framework density 23.343982
#
# number of rings (size 3 to 8) (size 9 to 14) (size 15 to 20)
#    0.000    1.600    0.000    3.000    0.000   24.000 
#    0.000    2.000    0.000    0.000    0.000    0.000 
#    0.000    0.000    0.000    0.000    0.000    0.000 
#
# Total GULP energy -247833.758095 kJ/mol
# GULP energy per Si atom -12391.687905 kJ/mol
# Density = 2.329085 g / cm^3
# Si number density = 23.343982 Si / 1000 Ang^3
#
#
#
# Elastic Constant Matrix: (Units=GPa)
#
#
# Indices 1 2 3 4 5 6 
#
# 1 224.4925 83.0955 22.4092 0.0000 0.0000 0.0000
# 2 83.0955 147.3170 45.5176 0.0000 0.0000 0.0000
# 3 22.4092 45.5176 77.7070 0.0000 0.0000 0.0000
# 4 0.0000 0.0000 0.0000 42.9870 0.0000 0.0000
# 5 0.0000 0.0000 0.0000 0.0000 -20.4433 0.0000
# 6 0.0000 0.0000 0.0000 0.0000 0.0000 31.7439
#
#
#
# Elastic Compliance Matrix: (Units=1/GPa)
#
#
# Indices 1 2 3 4 5 6 
#
# 1 0.005635 -0.003268 0.000289 0.000000 0.000000 0.000000
# 2 -0.003268 0.010183 -0.005023 0.000000 0.000000 0.000000
# 3 0.000289 -0.005023 0.015727 0.000000 0.000000 0.000000
# 4 0.000000 0.000000 0.000000 0.023263 0.000000 0.000000
# 5 0.000000 0.000000 0.000000 0.000000 -0.048916 0.000000
# 6 0.000000 0.000000 0.000000 0.000000 0.000000 0.031502
#
#
# Mechanical properties :
#
#
# Convention : Reuss Voigt Hill
#
# Bulk Modulus (GPa) = 64.33644 83.50678 73.92161
# Shear Modulus (GPa) = 85.35504 30.75713 58.05608
#
# Velocity S-wave (km/s) = 6.05338 3.63376 4.99238
# Velocity P-wave (km/s) = 8.74516 7.31133 8.06019
#
# Compressibility (1/GPa) = 0.01554329
#
# Stress axis : x y z
#
# Youngs Moduli (GPa) = 177.45415 98.20056 63.58309
#
# Poissons Ratio (x) = 0.32091 -0.01838
# Poissons Ratio (y) = 0.57991 0.31935
# Poissons Ratio (z) = -0.05131 0.49321
#
# Static dielectric constant tensor:
#      x y z
#    x 4.001450 0.000000 0.000000 
#    y 0.000000 4.442270 0.000000 
#    z 0.000000 0.000000 4.278790 
# 
# 
# High freq. dielectric constant tensor:
#      x y z
#    x 1.911170 0.000000 0.000000 
#    y 0.000000 1.928870 0.000000 
#    z 0.000000 0.000000 1.922110 
# 
# From -- ./inp_files/19877.got.cif
#   From: 2010.03.12/outbox.cif.g09.slc.cpg/sg40_10_cif.got.tgz:19877.got - 2010.04.14 01:38:03.
