data_PCOD8184320
_publ_section_title
;
Structure prediction by ZEFSAII (Michael W. Deem and Ramdas Pophale) SiO2 
 PCOD8184320
Probable space group: A M A 2
;
_chemical_formula_sum "Si O2"
_cell_formula_units_Z 40
_cell_length_a 20.595179
_cell_length_b 8.100166
_cell_length_c 11.124430
_cell_angle_alpha 90.000000
_cell_angle_beta 90.000000
_cell_angle_gamma 90.000000
_cell_volume 1855.826012
_symmetry_space_group_name_H-M "A M A 2"
_symmetry_group_IT_number 40
_symmetry_cell_setting 'orthorhombic'
loop_
_space_group_symop_operation_xyz
x,y,z
-x,-y,z
1/2-x,y,z
1/2+x,-y,z
x,1/2+y,1/2+z
-x,1/2-y,1/2+z
1/2-x,1/2+y,1/2+z
1/2+x,1/2-y,1/2+z
loop_
_atom_site_type_symbol
_atom_site_label
_atom_site_fract_x
_atom_site_fract_y
_atom_site_fract_z
Si Si1 0.452268 0.346646 0.968920
Si Si2 0.250000 0.142398 0.990689
Si Si3 0.500000 0.000000 0.051582
Si Si4 0.644895 0.705619 0.161722
Si Si5 0.114234 0.455810 0.735138
Si Si6 0.750000 0.656136 0.632229
Si Si7 0.250000 0.530255 0.237822
O O1 0.500000 0.500000 0.954115
O O2 0.405469 0.357512 0.854090
O O3 0.482122 0.160379 0.969901
O O4 0.415593 0.379342 0.095253
O O5 0.312995 0.218890 0.052495
O O6 0.250000 0.942160 0.007055
O O7 0.250000 0.161734 0.847471
O O8 0.560347 0.065110 0.130965
O O9 0.684990 0.577049 0.240852
O O10 0.621069 0.845995 0.254571
O O11 0.184782 0.389380 0.703037
O O12 0.750000 0.855327 0.617141
#
# Coordination Sequence:
#
# PCOD8184320 Si02
#       7
#     8   4   4   8   8   4   4
#     4  11  23  43  67  92 128 176 217 270 333 390
#     4   9  19  41  58  84 128 166 197 268 333 375
#     4  10  24  46  66  98 136 170 228 278 318 404
#     4   9  22  40  60  89 132 157 214 272 316 396
#     4  10  21  46  65  93 134 176 213 279 336 381
#     4  10  22  36  68  96 128 170 222 270 330 404
#     4  11  21  37  64 100 122 170 213 264 333 397
#
# _framework density 21.553742
#
# number of rings (size 3 to 8) (size 9 to 14) (size 15 to 20)
#    0.000    2.000    1.000    1.800    2.800    2.400 
#   12.600    2.000    0.000    0.000    0.000    0.000 
#    0.000    0.000    0.000    0.000    0.000    0.000 
#
# Total GULP energy -247818.367726 kJ/mol
# GULP energy per Si atom -12390.918386 kJ/mol
# Density = 2.150469 g / cm^3
# Si number density = 21.553742 Si / 1000 Ang^3
#
#
#
# Elastic Constant Matrix: (Units=GPa)
#
#
# Indices 1 2 3 4 5 6 
#
# 1 118.0934 26.4601 22.4589 0.0000 0.0000 0.0000
# 2 26.4601 90.5875 25.4036 0.0000 0.0000 0.0000
# 3 22.4589 25.4036 55.1858 0.0000 0.0000 0.0000
# 4 0.0000 0.0000 0.0000 34.6767 0.0000 0.0000
# 5 0.0000 0.0000 0.0000 0.0000 6.2515 0.0000
# 6 0.0000 0.0000 0.0000 0.0000 0.0000 22.3373
#
#
#
# Elastic Compliance Matrix: (Units=1/GPa)
#
#
# Indices 1 2 3 4 5 6 
#
# 1 0.009464 -0.001934 -0.002961 0.000000 0.000000 0.000000
# 2 -0.001934 0.013071 -0.005230 0.000000 0.000000 0.000000
# 3 -0.002961 -0.005230 0.021733 0.000000 0.000000 0.000000
# 4 0.000000 0.000000 0.000000 0.028838 0.000000 0.000000
# 5 0.000000 0.000000 0.000000 0.000000 0.159961 0.000000
# 6 0.000000 0.000000 0.000000 0.000000 0.000000 0.044768
#
#
# Mechanical properties :
#
#
# Convention : Reuss Voigt Hill
#
# Bulk Modulus (GPa) = 41.63562 45.83466 43.73514
# Shear Modulus (GPa) = 16.33498 25.28939 20.81218
#
# Velocity S-wave (km/s) = 2.75593 3.42909 3.11077
# Velocity P-wave (km/s) = 5.43010 6.08191 5.76522
#
# Compressibility (1/GPa) = 0.02401790
#
# Stress axis : x y z
#
# Youngs Moduli (GPa) = 105.65899 76.50803 46.01262
#
# Poissons Ratio (x) = 0.14797 0.13626
# Poissons Ratio (y) = 0.20435 0.24063
# Poissons Ratio (z) = 0.31290 0.40011
#
# Static dielectric constant tensor:
#      x y z
#    x 4.204750 0.000000 0.000000 
#    y 0.000000 4.111460 0.000000 
#    z 0.000000 0.000000 3.567390 
# 
# 
# High freq. dielectric constant tensor:
#      x y z
#    x 1.865820 0.000000 0.000000 
#    y 0.000000 1.853940 0.000000 
#    z 0.000000 0.000000 1.819330 
# 
# From -- ./inp_files/8629.got.cif
#   From: 2010.03.12/outbox.cif.g09.slc.cpg/sg40_5_cif.got.tgz:8629.got - 2010.04.14 01:38:03.
