data_PCOD8184441
_publ_section_title
;
Structure prediction by ZEFSAII (Michael W. Deem and Ramdas Pophale) SiO2 
 PCOD8184441
Probable space group: A M A 2
;
_chemical_formula_sum "Si O2"
_cell_formula_units_Z 40
_cell_length_a 14.546702
_cell_length_b 14.185204
_cell_length_c 9.174245
_cell_angle_alpha 90.000000
_cell_angle_beta 90.000000
_cell_angle_gamma 90.000000
_cell_volume 1893.086515
_symmetry_space_group_name_H-M "A M A 2"
_symmetry_group_IT_number 40
_symmetry_cell_setting 'orthorhombic'
loop_
_space_group_symop_operation_xyz
x,y,z
-x,-y,z
1/2-x,y,z
1/2+x,-y,z
x,1/2+y,1/2+z
-x,1/2-y,1/2+z
1/2-x,1/2+y,1/2+z
1/2+x,1/2-y,1/2+z
loop_
_atom_site_type_symbol
_atom_site_label
_atom_site_fract_x
_atom_site_fract_y
_atom_site_fract_z
Si Si1 0.250000 0.676745 0.826591
Si Si2 0.901499 0.272581 0.055348
Si Si3 0.750000 0.014071 0.142081
Si Si4 0.750000 0.168653 0.575858
Si Si5 0.079019 0.936057 0.963114
Si Si6 0.441861 0.414353 0.125114
Si Si7 0.750000 0.218724 0.267872
O O1 0.250000 0.580145 0.738048
O O2 0.250000 0.769873 0.723738
O O3 0.157987 0.680426 0.925190
O O4 0.839691 0.266730 0.199522
O O5 0.994769 0.324011 0.099647
O O6 0.935271 0.170713 0.008823
O O7 0.750000 0.105691 0.245142
O O8 0.832265 0.016160 0.029289
O O9 0.659055 0.103393 0.557476
O O10 0.750000 0.240478 0.439517
O O11 0.079636 0.941819 0.789878
O O12 0.000000 0.000000 0.031119
O O13 0.500000 0.500000 0.051273
#
# Coordination Sequence:
#
# PCOD8184441 Si02
#       7
#     4   8   4   4   8   8   4
#     4  11  24  43  73  96 137 182 231 289 339 416
#     4  10  23  46  66  98 139 181 223 287 348 409
#     4  10  23  44  68  98 131 173 230 287 344 402
#     4  12  25  41  67 101 130 176 235 279 344 405
#     4  10  22  42  66  98 133 178 226 281 340 412
#     4  11  26  42  70  97 141 182 225 285 344 415
#     4   9  24  42  68  95 136 171 226 281 339 417
#
# _framework density 21.129515999999999
#
# number of rings (size 3 to 8) (size 9 to 14) (size 15 to 20)
#    0.000    1.600    2.000    1.200    8.400    2.400 
#    3.600    1.000    0.000    0.000    0.000    0.000 
#    0.000    0.000    0.000    0.000    0.000    0.000 
#
# Total GULP energy -247916.798512 kJ/mol
# GULP energy per Si atom -12395.839926 kJ/mol
# Density = 2.108142 g / cm^3
# Si number density = 21.129516 Si / 1000 Ang^3
#
#
#
# Elastic Constant Matrix: (Units=GPa)
#
#
# Indices 1 2 3 4 5 6 
#
# 1 181.4032 74.8619 48.9051 0.0000 0.0000 0.0000
# 2 74.8619 117.3867 28.7307 0.0000 0.0000 0.0000
# 3 48.9051 28.7307 104.0885 0.0000 0.0000 0.0000
# 4 0.0000 0.0000 0.0000 25.2622 0.0000 0.0000
# 5 0.0000 0.0000 0.0000 0.0000 23.6283 0.0000
# 6 0.0000 0.0000 0.0000 0.0000 0.0000 35.6803
#
#
#
# Elastic Compliance Matrix: (Units=1/GPa)
#
#
# Indices 1 2 3 4 5 6 
#
# 1 0.008063 -0.004520 -0.002541 0.000000 0.000000 0.000000
# 2 -0.004520 0.011670 -0.001097 0.000000 0.000000 0.000000
# 3 -0.002541 -0.001097 0.011104 0.000000 0.000000 0.000000
# 4 0.000000 0.000000 0.000000 0.039585 0.000000 0.000000
# 5 0.000000 0.000000 0.000000 0.000000 0.042322 0.000000
# 6 0.000000 0.000000 0.000000 0.000000 0.000000 0.028027
#
#
# Mechanical properties :
#
#
# Convention : Reuss Voigt Hill
#
# Bulk Modulus (GPa) = 68.86876 78.65263 73.76070
# Shear Modulus (GPa) = 30.87806 33.60620 32.24213
#
# Velocity S-wave (km/s) = 3.82694 3.99242 3.91055
# Velocity P-wave (km/s) = 7.22438 7.65228 7.44141
#
# Compressibility (1/GPa) = 0.01452037
#
# Stress axis : x y z
#
# Youngs Moduli (GPa) = 124.02449 85.68863 90.05912
#
# Poissons Ratio (x) = 0.38733 0.22881
# Poissons Ratio (y) = 0.56062 0.09883
# Poissons Ratio (z) = 0.31510 0.09404
#
# Static dielectric constant tensor:
#      x y z
#    x 4.255690 0.000000 0.000000 
#    y 0.000000 3.885490 0.000000 
#    z 0.000000 0.000000 3.784430 
# 
# 
# High freq. dielectric constant tensor:
#      x y z
#    x 1.844290 0.000000 0.000000 
#    y 0.000000 1.829120 0.000000 
#    z 0.000000 0.000000 1.827460 
# 
# From -- ./inp_files/6194.got.cif
#   From: 2010.03.12/outbox.cif.g09.slc.cpg/sg40_4_cif.got.tgz:6194.got - 2010.04.14 01:38:03.
