data_PCOD8184455
_publ_section_title
;
Structure prediction by ZEFSAII (Michael W. Deem and Ramdas Pophale) SiO2 
 PCOD8184455
Probable space group: A M A 2
;
_chemical_formula_sum "Si O2"
_cell_formula_units_Z 48
_cell_length_a 17.769418
_cell_length_b 10.729364
_cell_length_c 11.418892
_cell_angle_alpha 90.000000
_cell_angle_beta 90.000000
_cell_angle_gamma 90.000000
_cell_volume 2177.063759
_symmetry_space_group_name_H-M "A M A 2"
_symmetry_group_IT_number 40
_symmetry_cell_setting 'orthorhombic'
loop_
_space_group_symop_operation_xyz
x,y,z
-x,-y,z
1/2-x,y,z
1/2+x,-y,z
x,1/2+y,1/2+z
-x,1/2-y,1/2+z
1/2-x,1/2+y,1/2+z
1/2+x,1/2-y,1/2+z
loop_
_atom_site_type_symbol
_atom_site_label
_atom_site_fract_x
_atom_site_fract_y
_atom_site_fract_z
Si Si1 0.166422 0.642100 0.269160
Si Si2 0.162740 0.002018 0.538819
Si Si3 0.595124 0.321362 0.860393
Si Si4 0.431994 0.284674 0.937933
Si Si5 0.666924 0.578252 0.450952
Si Si6 0.426706 0.570989 0.617630
O O1 0.250000 0.697068 0.244074
O O2 0.132704 0.580375 0.151019
O O3 0.112842 0.752278 0.317436
O O4 0.172963 0.538716 0.367423
O O5 0.250000 0.965493 0.556249
O O6 0.152509 0.087907 0.425939
O O7 0.115503 0.876008 0.521623
O O8 0.509791 0.349156 0.900801
O O9 0.614850 0.179013 0.887284
O O10 0.606951 0.347670 0.723204
O O11 0.449022 0.159599 0.009760
O O12 0.750000 0.634238 0.475137
O O13 0.632809 0.533227 0.574657
O O14 0.500000 0.500000 0.663701
#
# Coordination Sequence:
#
# PCOD8184455 Si02
#       6
#     8   8   8   8   8   8
#     4   9  21  41  67  94 125 171 221 270 329 395
#     4  11  24  42  62  94 133 171 222 272 330 399
#     4  12  25  40  63  97 134 174 220 274 335 401
#     4  11  23  41  67  94 132 173 221 275 333 393
#     4  10  22  43  67  95 128 171 223 271 332 398
#     4  11  23  43  65  97 133 172 221 280 332 395
#
# _framework density 22.048044999999998
#
# number of rings (size 3 to 8) (size 9 to 14) (size 15 to 20)
#    0.000    1.333    1.667    3.500    2.333    3.333 
#    3.000    0.000    0.000    0.000    0.000    0.000 
#    0.000    0.000    0.000    0.000    0.000    0.000 
#
# Total GULP energy -297687.828958 kJ/mol
# GULP energy per Si atom -12403.659540 kJ/mol
# Density = 2.199786 g / cm^3
# Si number density = 22.048045 Si / 1000 Ang^3
#
#
#
# Elastic Constant Matrix: (Units=GPa)
#
#
# Indices 1 2 3 4 5 6 
#
# 1 98.6822 20.6198 43.2161 0.0000 0.0000 0.0000
# 2 20.6198 59.9298 31.4204 0.0000 0.0000 0.0000
# 3 43.2161 31.4204 126.2554 0.0000 0.0000 0.0000
# 4 0.0000 0.0000 0.0000 39.0105 0.0000 0.0000
# 5 0.0000 0.0000 0.0000 0.0000 14.8996 0.0000
# 6 0.0000 0.0000 0.0000 0.0000 0.0000 34.6887
#
#
#
# Elastic Compliance Matrix: (Units=1/GPa)
#
#
# Indices 1 2 3 4 5 6 
#
# 1 0.012192 -0.002308 -0.003599 0.000000 0.000000 0.000000
# 2 -0.002308 0.019627 -0.004094 0.000000 0.000000 0.000000
# 3 -0.003599 -0.004094 0.010171 0.000000 0.000000 0.000000
# 4 0.000000 0.000000 0.000000 0.025634 0.000000 0.000000
# 5 0.000000 0.000000 0.000000 0.000000 0.067116 0.000000
# 6 0.000000 0.000000 0.000000 0.000000 0.000000 0.028828
#
#
# Mechanical properties :
#
#
# Convention : Reuss Voigt Hill
#
# Bulk Modulus (GPa) = 45.48017 52.82000 49.15009
# Shear Modulus (GPa) = 26.19180 30.36050 28.27615
#
# Velocity S-wave (km/s) = 3.45039 3.71484 3.58506
# Velocity P-wave (km/s) = 6.04534 6.51221 6.28311
#
# Compressibility (1/GPa) = 0.02198760
#
# Stress axis : x y z
#
# Youngs Moduli (GPa) = 82.02224 50.95035 98.31639
#
# Poissons Ratio (x) = 0.11759 0.35382
# Poissons Ratio (y) = 0.18931 0.40255
# Poissons Ratio (z) = 0.29518 0.20861
#
# Static dielectric constant tensor:
#      x y z
#    x 4.150000 0.000000 0.000000 
#    y 0.000000 3.883000 0.000000 
#    z 0.000000 0.000000 3.959440 
# 
# 
# High freq. dielectric constant tensor:
#      x y z
#    x 1.867630 0.000000 0.000000 
#    y 0.000000 1.867510 0.000000 
#    z 0.000000 0.000000 1.870620 
# 
# From -- ./inp_files/12923.got.cif
#   From: 2010.03.12/outbox.cif.g09.slc.cpg/sg40_7_cif.got.tgz:12923.got - 2010.04.14 01:38:03.
