data_PCOD8184170
_publ_section_title
;
Structure prediction by ZEFSAII (Michael W. Deem and Ramdas Pophale) SiO2 
 PCOD8184170
Probable space group: A M A 2
;
_chemical_formula_sum "Si O2"
_cell_formula_units_Z 64
_cell_length_a 8.654214
_cell_length_b 30.789272
_cell_length_c 11.913910
_cell_angle_alpha 90.000000
_cell_angle_beta 90.000000
_cell_angle_gamma 90.000000
_cell_volume 3174.544107
_symmetry_space_group_name_H-M "A M A 2"
_symmetry_group_IT_number 40
_symmetry_cell_setting 'orthorhombic'
loop_
_space_group_symop_operation_xyz
x,y,z
-x,-y,z
1/2-x,y,z
1/2+x,-y,z
x,1/2+y,1/2+z
-x,1/2-y,1/2+z
1/2-x,1/2+y,1/2+z
1/2+x,1/2-y,1/2+z
loop_
_atom_site_type_symbol
_atom_site_label
_atom_site_fract_x
_atom_site_fract_y
_atom_site_fract_z
Si Si1 0.071129 0.700479 0.668560
Si Si2 0.566584 0.872445 0.750632
Si Si3 0.931503 0.455695 0.117795
Si Si4 0.427719 0.328096 0.894817
Si Si5 0.432204 0.454687 0.644996
Si Si6 0.069531 0.209500 0.608003
Si Si7 0.069393 0.622902 0.505018
Si Si8 0.570147 0.570724 0.890945
O O1 0.250000 0.696579 0.703501
O O2 0.031791 0.667873 0.567151
O O3 0.961250 0.689151 0.771362
O O4 0.034260 0.748794 0.629956
O O5 0.750000 0.873593 0.745527
O O6 0.498898 0.914509 0.685482
O O7 0.508775 0.828660 0.690015
O O8 0.506630 0.872534 0.878207
O O9 0.750000 0.457152 0.131438
O O10 0.000000 0.500000 0.169927
O O11 0.974913 0.453434 0.986933
O O12 0.250000 0.318023 0.924915
O O13 0.464307 0.378635 0.899471
O O14 0.541929 0.304389 0.980195
O O15 0.500000 0.500000 0.600530
O O16 0.250000 0.457012 0.644321
O O17 0.482790 0.416637 0.562850
O O18 0.492958 0.445694 0.771044
O O19 0.250000 0.219741 0.626520
O O20 0.250000 0.612280 0.506467
O O21 0.750000 0.560101 0.906725
#
# Coordination Sequence:
#
# PCOD8184170 Si02
#       8
#     8   8   8   8   8   8   8   8
#     4  11  24  40  63  95 126 163 208 254 310 372
#     4   9  21  41  62  86 119 161 202 249 304 358
#     4  11  22  38  61  88 121 157 202 249 304 366
#     4  11  22  40  65  92 127 163 203 258 309 362
#     4  11  23  40  61  90 122 157 201 249 306 363
#     4  11  23  41  65  93 126 164 207 255 309 368
#     4  10  22  42  64  86 120 161 204 251 303 362
#     4  10  21  38  61  90 123 157 199 250 305 358
#
# _framework density 20.160375999999999
#
# number of rings (size 3 to 8) (size 9 to 14) (size 15 to 20)
#    0.000    1.500    2.500    2.250    1.750    3.500 
#    0.000    3.750    0.000    0.000    0.000    0.000 
#    0.000    0.000    0.000    0.000    0.000    0.000 
#
# Total GULP energy -396963.744942 kJ/mol
# GULP energy per Si atom -12405.117029 kJ/mol
# Density = 2.011449 g / cm^3
# Si number density = 20.160376 Si / 1000 Ang^3
#
#
#
# Elastic Constant Matrix: (Units=GPa)
#
#
# Indices 1 2 3 4 5 6 
#
# 1 43.1961 37.2928 23.4353 0.0000 0.0000 0.0000
# 2 37.2928 145.4005 47.9969 0.0000 0.0000 0.0000
# 3 23.4353 47.9969 121.5295 0.0000 0.0000 0.0000
# 4 0.0000 0.0000 0.0000 29.0334 0.0000 0.0000
# 5 0.0000 0.0000 0.0000 0.0000 21.3300 0.0000
# 6 0.0000 0.0000 0.0000 0.0000 0.0000 24.7021
#
#
#
# Elastic Compliance Matrix: (Units=1/GPa)
#
#
# Indices 1 2 3 4 5 6 
#
# 1 0.030807 -0.006831 -0.003243 0.000000 0.000000 0.000000
# 2 -0.006831 0.009423 -0.002404 0.000000 0.000000 0.000000
# 3 -0.003243 -0.002404 0.009803 0.000000 0.000000 0.000000
# 4 0.000000 0.000000 0.000000 0.034443 0.000000 0.000000
# 5 0.000000 0.000000 0.000000 0.000000 0.046882 0.000000
# 6 0.000000 0.000000 0.000000 0.000000 0.000000 0.040482
#
#
# Mechanical properties :
#
#
# Convention : Reuss Voigt Hill
#
# Bulk Modulus (GPa) = 39.87684 58.61959 49.24821
# Shear Modulus (GPa) = 24.37155 28.43984 26.40570
#
# Velocity S-wave (km/s) = 3.48067 3.75998 3.62302
# Velocity P-wave (km/s) = 5.99802 6.92746 6.47942
#
# Compressibility (1/GPa) = 0.02507721
#
# Stress axis : x y z
#
# Youngs Moduli (GPa) = 32.46003 106.12009 102.00560
#
# Poissons Ratio (x) = 0.72491 0.33079
# Poissons Ratio (y) = 0.22174 0.24526
# Poissons Ratio (z) = 0.10526 0.25515
#
# Static dielectric constant tensor:
#      x y z
#    x 3.458800 0.000000 0.000000 
#    y 0.000000 3.799680 0.000000 
#    z 0.000000 0.000000 3.821330 
# 
# 
# High freq. dielectric constant tensor:
#      x y z
#    x 1.775690 0.000000 0.000000 
#    y 0.000000 1.803370 0.000000 
#    z 0.000000 0.000000 1.789510 
# 
# From -- ./inp_files/10553.got.cif
#   From: 2010.03.12/outbox.cif.g09.slc.cpg/sg40_6_cif.got.tgz:10553.got - 2010.04.14 01:38:03.
