data_PCOD8184972
_publ_section_title
;
Structure prediction by ZEFSAII (Michael W. Deem and Ramdas Pophale) SiO2 
 PCOD8184972
Probable space group: A B A 2
;
_chemical_formula_sum "Si O2"
_cell_formula_units_Z 60
_cell_length_a 12.105380
_cell_length_b 27.804573
_cell_length_c 8.490451
_cell_angle_alpha 90.000000
_cell_angle_beta 90.000000
_cell_angle_gamma 90.000000
_cell_volume 2857.757787
_symmetry_space_group_name_H-M "A B A 2"
_symmetry_group_IT_number 41
_symmetry_cell_setting 'orthorhombic'
loop_
_space_group_symop_operation_xyz
x,y,z
-x,-y,z
1/2-x,y,1/2+z
1/2+x,-y,1/2+z
x,1/2+y,1/2+z
-x,1/2-y,1/2+z
1/2-x,1/2+y,z
1/2+x,1/2-y,z
loop_
_atom_site_type_symbol
_atom_site_label
_atom_site_fract_x
_atom_site_fract_y
_atom_site_fract_z
Si Si1 0.500000 0.000000 0.559571
Si Si2 0.259412 0.872048 0.110821
Si Si3 0.400528 0.175986 0.785606
Si Si4 0.644075 0.189632 0.857503
Si Si5 0.131171 0.111127 0.822890
Si Si6 0.606007 0.081276 0.363778
Si Si7 0.704632 0.295394 0.956089
Si Si8 0.655683 0.921697 0.673574
O O1 0.422023 0.970334 0.438503
O O2 0.582772 0.970797 0.677325
O O3 0.224027 0.827588 0.218906
O O4 0.305913 0.916553 0.218772
O O5 0.353411 0.850361 0.996303
O O6 0.152617 0.888520 0.011722
O O7 0.522351 0.196479 0.790529
O O8 0.339786 0.194976 0.629359
O O9 0.336545 0.194593 0.941800
O O10 0.403529 0.117685 0.785294
O O11 0.684826 0.240756 0.913890
O O12 0.154352 0.168492 0.821447
O O13 0.213442 0.077588 0.717741
O O14 0.003093 0.103661 0.783039
O O15 0.153034 0.094221 0.996838
#
# Coordination Sequence:
#
# PCOD8184972 Si02
#       8
#     4   8   8   8   8   8   8   8
#     4  10  20  38  66  88 112 148 194 240 298 364
#     4  10  23  40  58  85 120 153 196 241 297 350
#     4  10  22  39  57  85 122 153 192 247 296 337
#     4  11  22  38  60  84 117 161 199 238 287 350
#     4   9  19  36  56  83 120 150 186 241 293 335
#     4  10  22  40  60  84 116 154 192 246 299 351
#     4  10  21  35  57  86 116 156 203 237 281 351
#     4   9  19  36  59  84 113 149 187 237 294 349
#
# _framework density 20.995481000000002
#
# number of rings (size 3 to 8) (size 9 to 14) (size 15 to 20)
#    0.000    2.133    0.000    3.200    0.000   11.733 
#    0.000    0.000    0.000   10.400    0.000    0.000 
#    0.000    0.000    0.000    0.000    0.000    0.000 
#
# Total GULP energy -371642.223893 kJ/mol
# GULP energy per Si atom -12388.074130 kJ/mol
# Density = 2.094769 g / cm^3
# Si number density = 20.995481 Si / 1000 Ang^3
#
#
#
# Elastic Constant Matrix: (Units=GPa)
#
#
# Indices 1 2 3 4 5 6 
#
# 1 117.7383 33.7197 35.1403 0.0000 0.0000 0.0000
# 2 33.7197 111.3593 23.4877 0.0000 0.0000 0.0000
# 3 35.1403 23.4877 68.2801 0.0000 0.0000 0.0000
# 4 0.0000 0.0000 0.0000 12.1267 0.0000 0.0000
# 5 0.0000 0.0000 0.0000 0.0000 71.7531 0.0000
# 6 0.0000 0.0000 0.0000 0.0000 0.0000 16.3189
#
#
#
# Elastic Compliance Matrix: (Units=1/GPa)
#
#
# Indices 1 2 3 4 5 6 
#
# 1 0.010513 -0.002202 -0.004653 0.000000 0.000000 0.000000
# 2 -0.002202 0.010144 -0.002356 0.000000 0.000000 0.000000
# 3 -0.004653 -0.002356 0.017851 0.000000 0.000000 0.000000
# 4 0.000000 0.000000 0.000000 0.082463 0.000000 0.000000
# 5 0.000000 0.000000 0.000000 0.000000 0.013937 0.000000
# 6 0.000000 0.000000 0.000000 0.000000 0.000000 0.061279
#
#
# Mechanical properties :
#
#
# Convention : Reuss Voigt Hill
#
# Bulk Modulus (GPa) = 49.78802 53.56367 51.67584
# Shear Modulus (GPa) = 22.59353 33.70839 28.15096
#
# Velocity S-wave (km/s) = 3.28398 4.01122 3.66568
# Velocity P-wave (km/s) = 6.17612 6.85716 6.52553
#
# Compressibility (1/GPa) = 0.02008515
#
# Stress axis : x y z
#
# Youngs Moduli (GPa) = 95.12262 98.58415 56.02033
#
# Poissons Ratio (x) = 0.21707 0.26066
# Poissons Ratio (y) = 0.20945 0.13199
# Poissons Ratio (z) = 0.44260 0.23228
#
# Static dielectric constant tensor:
#      x y z
#    x -0.834900 0.000000 0.000000 
#    y 0.000000 4.451340 0.000000 
#    z 0.000000 0.000000 3.833170 
# 
# 
# High freq. dielectric constant tensor:
#      x y z
#    x 1.826870 0.000000 0.000000 
#    y 0.000000 1.811140 0.000000 
#    z 0.000000 0.000000 1.818640 
# 
# From -- ./inp_files/2159.got.cif
#   From: 2010.03.12/outbox.cif.g09.slc.cpg/sg41_2_cif.got.tgz:2159.got - 2010.04.14 01:55:53.
