data_PCOD8184048
_publ_section_title
;
Structure prediction by ZEFSAII (Michael W. Deem and Ramdas Pophale) SiO2 
 PCOD8184048
Probable space group: A M A 2
;
_chemical_formula_sum "Si O2"
_cell_formula_units_Z 56
_cell_length_a 25.225659
_cell_length_b 10.796947
_cell_length_c 10.959495
_cell_angle_alpha 90.000000
_cell_angle_beta 90.000000
_cell_angle_gamma 90.000000
_cell_volume 2984.929190
_symmetry_space_group_name_H-M "A M A 2"
_symmetry_group_IT_number 40
_symmetry_cell_setting 'orthorhombic'
loop_
_space_group_symop_operation_xyz
x,y,z
-x,-y,z
1/2-x,y,z
1/2+x,-y,z
x,1/2+y,1/2+z
-x,1/2-y,1/2+z
1/2-x,1/2+y,1/2+z
1/2+x,1/2-y,1/2+z
loop_
_atom_site_type_symbol
_atom_site_label
_atom_site_fract_x
_atom_site_fract_y
_atom_site_fract_z
Si Si1 0.058408 0.948153 0.823850
Si Si2 0.870215 0.834960 0.726523
Si Si3 0.867295 0.167360 0.440361
Si Si4 0.689720 0.439134 0.007650
Si Si5 0.437328 0.225179 0.140119
Si Si6 0.590685 0.922502 0.366210
Si Si7 0.551293 0.728577 0.535752
O O1 0.059354 0.852430 0.712989
O O2 0.074165 0.881979 0.951046
O O3 0.099668 0.055470 0.795805
O O4 0.000000 0.000000 0.835256
O O5 0.843949 0.746603 0.828182
O O6 0.823711 0.889782 0.642781
O O7 0.911070 0.750919 0.650569
O O8 0.893638 0.261568 0.535118
O O9 0.819914 0.088484 0.503244
O O10 0.912329 0.070464 0.389191
O O11 0.750000 0.406431 0.975037
O O12 0.650056 0.375920 0.908455
O O13 0.419672 0.110538 0.225610
O O14 0.493163 0.191392 0.080243
O O15 0.548128 0.853857 0.453484
#
# Coordination Sequence:
#
# PCOD8184048 Si02
#       7
#     8   8   8   8   8   8   8
#     4  11  20  34  55  83 120 159 191 231 279 343
#     4  11  21  38  58  88 115 151 192 248 289 351
#     4  10  22  36  60  84 114 148 192 240 290 353
#     4   9  20  43  64  82 112 151 196 255 305 345
#     4  11  19  36  58  82 123 161 188 235 284 345
#     4   8  21  38  55  86 113 153 198 235 283 355
#     4  10  21  34  56  83 119 160 196 223 287 345
#
# _framework density 18.760914
#
# number of rings (size 3 to 8) (size 9 to 14) (size 15 to 20)
#    0.857    1.143    2.857    0.857    2.000    2.857 
#    0.000    0.714    0.000    0.000    0.000    0.000 
#    0.000    0.000    0.000    0.000    0.000    0.000 
#
# Total GULP energy -347052.333974 kJ/mol
# GULP energy per Si atom -12394.726213 kJ/mol
# Density = 1.871821 g / cm^3
# Si number density = 18.760914 Si / 1000 Ang^3
#
#
#
# Elastic Constant Matrix: (Units=GPa)
#
#
# Indices 1 2 3 4 5 6 
#
# 1 81.1805 7.5751 33.9944 0.0000 0.0000 0.0000
# 2 7.5751 39.5356 37.9188 0.0000 0.0000 0.0000
# 3 33.9944 37.9188 120.2226 0.0000 0.0000 0.0000
# 4 0.0000 0.0000 0.0000 40.5426 0.0000 0.0000
# 5 0.0000 0.0000 0.0000 0.0000 -26.7043 0.0000
# 6 0.0000 0.0000 0.0000 0.0000 0.0000 8.5144
#
#
#
# Elastic Compliance Matrix: (Units=1/GPa)
#
#
# Indices 1 2 3 4 5 6 
#
# 1 0.014043 0.001603 -0.004476 0.000000 0.000000 0.000000
# 2 0.001603 0.036447 -0.011949 0.000000 0.000000 0.000000
# 3 -0.004476 -0.011949 0.013352 0.000000 0.000000 0.000000
# 4 0.000000 0.000000 0.000000 0.024665 0.000000 0.000000
# 5 0.000000 0.000000 0.000000 0.000000 -0.037447 0.000000
# 6 0.000000 0.000000 0.000000 0.000000 0.000000 0.117448
#
#
# Mechanical properties :
#
#
# Convention : Reuss Voigt Hill
#
# Bulk Modulus (GPa) = 29.24207 44.43504 36.83855
# Shear Modulus (GPa) = 23.86048 15.23391 19.54719
#
# Velocity S-wave (km/s) = 3.57013 2.85266 3.23137
# Velocity P-wave (km/s) = 5.71095 5.88103 5.79661
#
# Compressibility (1/GPa) = 0.03419731
#
# Stress axis : x y z
#
# Youngs Moduli (GPa) = 71.20913 27.43745 74.89368
#
# Poissons Ratio (x) = -0.04397 0.33525
# Poissons Ratio (y) = -0.11412 0.89487
# Poissons Ratio (z) = 0.31875 0.32784
#
# Static dielectric constant tensor:
#      x y z
#    x 3.015290 0.000000 0.000000 
#    y 0.000000 3.414590 0.000000 
#    z 0.000000 0.000000 3.601540 
# 
# 
# High freq. dielectric constant tensor:
#      x y z
#    x 1.682990 0.000000 0.000000 
#    y 0.000000 1.726580 0.000000 
#    z 0.000000 0.000000 1.740650 
# 
# From -- ./inp_files/14251.got.cif
#   From: 2010.03.12/outbox.cif.g09.slc.cpg/sg40_8_cif.got.tgz:14251.got - 2010.04.14 01:38:03.
