data_PCOD8184194
_publ_section_title
;
Structure prediction by ZEFSAII (Michael W. Deem and Ramdas Pophale) SiO2 
 PCOD8184194
Probable space group: A M A 2
;
_chemical_formula_sum "Si O2"
_cell_formula_units_Z 64
_cell_length_a 8.766262
_cell_length_b 29.800505
_cell_length_c 12.587040
_cell_angle_alpha 90.000000
_cell_angle_beta 90.000000
_cell_angle_gamma 90.000000
_cell_volume 3288.226178
_symmetry_space_group_name_H-M "A M A 2"
_symmetry_group_IT_number 40
_symmetry_cell_setting 'orthorhombic'
loop_
_space_group_symop_operation_xyz
x,y,z
-x,-y,z
1/2-x,y,z
1/2+x,-y,z
x,1/2+y,1/2+z
-x,1/2-y,1/2+z
1/2-x,1/2+y,1/2+z
1/2+x,1/2-y,1/2+z
loop_
_atom_site_type_symbol
_atom_site_label
_atom_site_fract_x
_atom_site_fract_y
_atom_site_fract_z
Si Si1 0.925432 0.747301 0.551310
Si Si2 0.929784 0.952729 0.682078
Si Si3 0.071225 0.546886 0.942562
Si Si4 0.425503 0.382968 0.788658
Si Si5 0.929722 0.644057 0.555384
Si Si6 0.569482 0.872988 0.836217
Si Si7 0.573005 0.713232 0.228721
Si Si8 0.576202 0.216987 0.356108
O O1 0.750000 0.754336 0.582885
O O2 0.978545 0.695840 0.567441
O O3 0.036647 0.786049 0.603010
O O4 0.950288 0.758795 0.428512
O O5 0.750000 0.957805 0.686139
O O6 0.984113 0.939619 0.562110
O O7 0.984895 0.915259 0.765751
O O8 0.000000 0.000000 0.717601
O O9 0.250000 0.541095 0.942361
O O10 0.000000 0.500000 0.907552
O O11 0.027348 0.582876 0.854271
O O12 0.250000 0.397337 0.798569
O O13 0.473341 0.381746 0.664454
O O14 0.453499 0.335178 0.842422
O O15 0.750000 0.640937 0.532636
O O16 0.019614 0.620279 0.458543
O O17 0.750000 0.865835 0.828897
O O18 0.483843 0.830177 0.789623
O O19 0.750000 0.720311 0.253798
O O20 0.463702 0.756959 0.247946
O O21 0.750000 0.226627 0.390745
#
# Coordination Sequence:
#
# PCOD8184194 Si02
#       8
#     8   8   8   8   8   8   8   8
#     4  11  22  38  56  79 116 158 201 252 298 344
#     4   9  21  41  64  91 119 149 185 238 298 355
#     4  10  21  40  65  92 119 150 189 237 298 357
#     4  10  22  40  60  85 119 156 197 244 294 350
#     4  10  21  39  59  83 118 160 201 244 295 347
#     4  11  23  39  60  88 121 156 200 248 297 352
#     4  12  24  37  55  83 117 160 206 244 294 350
#     4  11  22  38  57  83 117 157 201 247 296 348
#
# _framework density 19.463380000000001
#
# number of rings (size 3 to 8) (size 9 to 14) (size 15 to 20)
#    0.000    1.500    2.500    2.625    1.750    3.500 
#    0.000    0.625    0.000    1.500    0.000    0.000 
#    0.000    0.000    0.000    0.000    0.000    0.000 
#
# Total GULP energy -396686.654266 kJ/mol
# GULP energy per Si atom -12396.457946 kJ/mol
# Density = 1.941908 g / cm^3
# Si number density = 19.463380 Si / 1000 Ang^3
#
#
#
# Elastic Constant Matrix: (Units=GPa)
#
#
# Indices 1 2 3 4 5 6 
#
# 1 75.9502 51.9660 45.7460 0.0000 0.0000 0.0000
# 2 51.9660 103.6546 64.3335 0.0000 0.0000 0.0000
# 3 45.7460 64.3335 105.6100 0.0000 0.0000 0.0000
# 4 0.0000 0.0000 0.0000 28.7900 0.0000 0.0000
# 5 0.0000 0.0000 0.0000 0.0000 36.3203 0.0000
# 6 0.0000 0.0000 0.0000 0.0000 0.0000 32.2825
#
#
#
# Elastic Compliance Matrix: (Units=1/GPa)
#
#
# Indices 1 2 3 4 5 6 
#
# 1 0.021220 -0.007933 -0.004359 0.000000 0.000000 0.000000
# 2 -0.007933 0.018478 -0.007820 0.000000 0.000000 0.000000
# 3 -0.004359 -0.007820 0.016121 0.000000 0.000000 0.000000
# 4 0.000000 0.000000 0.000000 0.034734 0.000000 0.000000
# 5 0.000000 0.000000 0.000000 0.000000 0.027533 0.000000
# 6 0.000000 0.000000 0.000000 0.000000 0.000000 0.030976
#
#
# Mechanical properties :
#
#
# Convention : Reuss Voigt Hill
#
# Bulk Modulus (GPa) = 64.12474 67.70063 65.91268
# Shear Modulus (GPa) = 25.70909 27.68984 26.69947
#
# Velocity S-wave (km/s) = 3.63836 3.77591 3.70777
# Velocity P-wave (km/s) = 7.11815 7.33956 7.22970
#
# Compressibility (1/GPa) = 0.01559461
#
# Stress axis : x y z
#
# Youngs Moduli (GPa) = 47.12573 54.11900 62.03243
#
# Poissons Ratio (x) = 0.42931 0.27042
# Poissons Ratio (y) = 0.37383 0.48508
# Poissons Ratio (z) = 0.20543 0.42320
#
# Static dielectric constant tensor:
#      x y z
#    x 3.433680 0.000000 0.000000 
#    y 0.000000 3.422790 0.000000 
#    z 0.000000 0.000000 3.802570 
# 
# 
# High freq. dielectric constant tensor:
#      x y z
#    x 1.758830 0.000000 0.000000 
#    y 0.000000 1.740170 0.000000 
#    z 0.000000 0.000000 1.777380 
# 
# From -- ./inp_files/10690.got.cif
#   From: 2010.03.12/outbox.cif.g09.slc.cpg/sg40_6_cif.got.tgz:10690.got - 2010.04.14 01:38:03.
