data_PCOD8184788
_publ_section_title
;
Structure prediction by ZEFSAII (Michael W. Deem and Ramdas Pophale) SiO2 
 PCOD8184788
Probable space group: A B A 2
;
_chemical_formula_sum "Si O2"
_cell_formula_units_Z 60
_cell_length_a 13.975743
_cell_length_b 11.959682
_cell_length_c 16.749157
_cell_angle_alpha 90.000000
_cell_angle_beta 90.000000
_cell_angle_gamma 90.000000
_cell_volume 2799.545250
_symmetry_space_group_name_H-M "A B A 2"
_symmetry_group_IT_number 41
_symmetry_cell_setting 'orthorhombic'
loop_
_space_group_symop_operation_xyz
x,y,z
-x,-y,z
1/2-x,y,1/2+z
1/2+x,-y,1/2+z
x,1/2+y,1/2+z
-x,1/2-y,1/2+z
1/2-x,1/2+y,z
1/2+x,1/2-y,z
loop_
_atom_site_type_symbol
_atom_site_label
_atom_site_fract_x
_atom_site_fract_y
_atom_site_fract_z
Si Si1 0.307231 0.267387 0.536790
Si Si2 0.659398 0.496917 0.581263
Si Si3 0.468991 0.626727 0.970047
Si Si4 0.126017 0.188420 0.459572
Si Si5 0.545067 0.880455 0.795340
Si Si6 0.500000 0.500000 0.697361
Si Si7 0.274883 0.154913 0.689434
Si Si8 0.094279 0.679785 0.299710
O O1 0.318580 0.400266 0.521379
O O2 0.402109 0.189484 0.534552
O O3 0.236558 0.224961 0.467055
O O4 0.267446 0.258640 0.627605
O O5 0.606941 0.398741 0.531326
O O6 0.586428 0.544986 0.645064
O O7 0.750001 0.452009 0.632575
O O8 0.500000 0.500000 0.993528
O O9 0.564946 0.698906 0.965204
O O10 0.407020 0.628829 0.888618
O O11 0.105831 0.126723 0.376702
O O12 0.618425 0.856176 0.723536
O O13 0.451577 0.802292 0.797931
O O14 0.500000 0.000000 0.782873
O O15 0.477392 0.606225 0.749409
O O16 0.200308 0.176295 0.761731
#
# Coordination Sequence:
#
# PCOD8184788 Si02
#       8
#     8   8   8   8   8   4   8   8
#     4  11  24  42  67  95 132 175 217 274 332 395
#     4  10  22  39  68  93 134 176 219 267 332 393
#     4  11  24  42  68  98 134 172 222 273 336 396
#     4  10  25  43  64  98 130 170 223 274 325 400
#     4  11  25  43  67  97 133 172 220 280 333 388
#     4  10  18  38  66  92 126 172 218 264 320 396
#     4  10  24  43  63 101 132 174 223 269 336 393
#     4  10  22  43  65  97 130 171 221 270 330 397
#
# _framework density 21.432051000000001
#
# number of rings (size 3 to 8) (size 9 to 14) (size 15 to 20)
#    0.000    1.600    0.667    2.400   10.267    2.667 
#    0.000    0.000    0.000    0.000    0.000    0.000 
#    0.000    0.000    0.000    0.000    0.000    0.000 
#
# Total GULP energy -371832.073976 kJ/mol
# GULP energy per Si atom -12394.402466 kJ/mol
# Density = 2.138327 g / cm^3
# Si number density = 21.432051 Si / 1000 Ang^3
#
#
#
# Elastic Constant Matrix: (Units=GPa)
#
#
# Indices 1 2 3 4 5 6 
#
# 1 72.3806 25.5717 15.1234 0.0000 0.0000 0.0000
# 2 25.5717 109.1726 16.1114 0.0000 0.0000 0.0000
# 3 15.1234 16.1114 77.8068 0.0000 0.0000 0.0000
# 4 0.0000 0.0000 0.0000 28.0141 0.0000 0.0000
# 5 0.0000 0.0000 0.0000 0.0000 48.9523 0.0000
# 6 0.0000 0.0000 0.0000 0.0000 0.0000 27.5003
#
#
#
# Elastic Compliance Matrix: (Units=1/GPa)
#
#
# Indices 1 2 3 4 5 6 
#
# 1 0.015460 -0.003278 -0.002326 0.000000 0.000000 0.000000
# 2 -0.003278 0.010144 -0.001463 0.000000 0.000000 0.000000
# 3 -0.002326 -0.001463 0.013607 0.000000 0.000000 0.000000
# 4 0.000000 0.000000 0.000000 0.035696 0.000000 0.000000
# 5 0.000000 0.000000 0.000000 0.000000 0.020428 0.000000
# 6 0.000000 0.000000 0.000000 0.000000 0.000000 0.036363
#
#
# Mechanical properties :
#
#
# Convention : Reuss Voigt Hill
#
# Bulk Modulus (GPa) = 39.87848 41.44144 40.65996
# Shear Modulus (GPa) = 32.42706 34.39690 33.41198
#
# Velocity S-wave (km/s) = 3.89397 4.01050 3.95267
# Velocity P-wave (km/s) = 6.23415 6.38934 6.31222
#
# Compressibility (1/GPa) = 0.02507618
#
# Stress axis : x y z
#
# Youngs Moduli (GPa) = 64.68318 98.58483 73.48890
#
# Poissons Ratio (x) = 0.32315 0.17095
# Poissons Ratio (y) = 0.21203 0.10754
# Poissons Ratio (z) = 0.15047 0.14426
#
# Static dielectric constant tensor:
#      x y z
#    x 3.868650 0.000000 0.000000 
#    y 0.000000 3.961550 0.000000 
#    z 0.000000 0.000000 3.950720 
# 
# 
# High freq. dielectric constant tensor:
#      x y z
#    x 1.842060 0.000000 0.000000 
#    y 0.000000 1.842850 0.000000 
#    z 0.000000 0.000000 1.844810 
# 
# From -- ./inp_files/10383.got.cif
#   From: 2010.03.12/outbox.cif.g09.slc.cpg/sg41_6_cif.got.tgz:10383.got - 2010.04.14 01:55:53.
