data_PCOD8184899
_publ_section_title
;
Structure prediction by ZEFSAII (Michael W. Deem and Ramdas Pophale) SiO2 
 PCOD8184899
Probable space group: A B A 2
;
_chemical_formula_sum "Si O2"
_cell_formula_units_Z 48
_cell_length_a 15.619779
_cell_length_b 16.331974
_cell_length_c 9.719968
_cell_angle_alpha 90.000000
_cell_angle_beta 90.000000
_cell_angle_gamma 90.000000
_cell_volume 2479.581571
_symmetry_space_group_name_H-M "A B A 2"
_symmetry_group_IT_number 41
_symmetry_cell_setting 'orthorhombic'
loop_
_space_group_symop_operation_xyz
x,y,z
-x,-y,z
1/2-x,y,1/2+z
1/2+x,-y,1/2+z
x,1/2+y,1/2+z
-x,1/2-y,1/2+z
1/2-x,1/2+y,z
1/2+x,1/2-y,z
loop_
_atom_site_type_symbol
_atom_site_label
_atom_site_fract_x
_atom_site_fract_y
_atom_site_fract_z
Si Si1 0.669290 0.906091 0.081790
Si Si2 0.087024 0.778476 0.776521
Si Si3 0.320536 0.850001 0.915234
Si Si4 0.748332 0.820011 0.831775
Si Si5 0.294446 0.415132 0.695081
Si Si6 0.502163 0.315184 0.507383
O O1 0.692219 0.853359 0.213167
O O2 0.676170 0.998071 0.136533
O O3 0.732467 0.886876 0.953092
O O4 0.572990 0.884753 0.035510
O O5 0.159451 0.708844 0.764561
O O6 0.128571 0.869728 0.778494
O O7 0.024469 0.770226 0.647432
O O8 0.035455 0.760531 0.915717
O O9 0.300873 0.756343 0.887342
O O10 0.288092 0.913329 0.796470
O O11 0.422463 0.861928 0.935083
O O12 0.270759 0.864586 0.058522
#
# Coordination Sequence:
#
# PCOD8184899 Si02
#       6
#     8   8   8   8   8   8
#     4  11  21  35  57  84 113 146 184 232 281 329
#     4   9  20  35  54  82 111 147 187 229 276 327
#     4  10  20  37  57  80 109 148 191 227 270 332
#     4  10  20  36  57  80 110 149 192 225 270 339
#     4  10  21  36  55  82 113 143 182 227 282 335
#     4  10  20  34  56  82 110 144 188 234 275 321
#
# _framework density 19.358105999999999
#
# number of rings (size 3 to 8) (size 9 to 14) (size 15 to 20)
#    0.000    2.000    0.000    5.000    0.000    5.333 
#    0.000    0.000    0.000    0.000    0.000   14.000 
#    0.000    0.000    0.000    0.000    0.000    0.000 
#
# Total GULP energy -297445.266699 kJ/mol
# GULP energy per Si atom -12393.552779 kJ/mol
# Density = 1.931405 g / cm^3
# Si number density = 19.358106 Si / 1000 Ang^3
#
#
#
# Elastic Constant Matrix: (Units=GPa)
#
#
# Indices 1 2 3 4 5 6 
#
# 1 114.6124 39.6035 64.3756 0.0000 0.0000 0.0000
# 2 39.6035 99.3991 39.2403 0.0000 0.0000 0.0000
# 3 64.3756 39.2403 88.1570 0.0000 0.0000 0.0000
# 4 0.0000 0.0000 0.0000 40.6710 0.0000 0.0000
# 5 0.0000 0.0000 0.0000 0.0000 44.1835 0.0000
# 6 0.0000 0.0000 0.0000 0.0000 0.0000 -4.6595
#
#
#
# Elastic Compliance Matrix: (Units=1/GPa)
#
#
# Indices 1 2 3 4 5 6 
#
# 1 0.015119 -0.002020 -0.010141 0.000000 0.000000 0.000000
# 2 -0.002020 0.012475 -0.004078 0.000000 0.000000 0.000000
# 3 -0.010141 -0.004078 0.020564 0.000000 0.000000 0.000000
# 4 0.000000 0.000000 0.000000 0.024588 0.000000 0.000000
# 5 0.000000 0.000000 0.000000 0.000000 0.022633 0.000000
# 6 0.000000 0.000000 0.000000 0.000000 0.000000 -0.214617
#
#
# Mechanical properties :
#
#
# Convention : Reuss Voigt Hill
#
# Bulk Modulus (GPa) = 63.77622 65.40082 64.58852
# Shear Modulus (GPa) = -61.32512 26.63561 -17.34475
#
# Velocity S-wave (km/s) = -5.63454 3.71339 -2.99656
# Velocity P-wave (km/s) = 3.05184 7.22799 4.63303
#
# Compressibility (1/GPa) = 0.01567982
#
# Stress axis : x y z
#
# Youngs Moduli (GPa) = 66.13980 80.15926 48.62846
#
# Poissons Ratio (x) = 0.16196 0.49317
# Poissons Ratio (y) = 0.13363 0.19828
# Poissons Ratio (z) = 0.67076 0.32685
#
# Static dielectric constant tensor:
#      x y z
#    x 3.759030 0.000000 0.000000 
#    y 0.000000 3.471460 0.000000 
#    z 0.000000 0.000000 3.906510 
# 
# 
# High freq. dielectric constant tensor:
#      x y z
#    x 1.750020 0.000000 0.000000 
#    y 0.000000 1.735940 0.000000 
#    z 0.000000 0.000000 1.772150 
# 
# From -- ./inp_files/2544.got.cif
#   From: 2010.03.12/outbox.cif.g09.slc.cpg/sg41_2_cif.got.tgz:2544.got - 2010.04.14 01:55:53.
