data_PCOD8184082
_publ_section_title
;
Structure prediction by ZEFSAII (Michael W. Deem and Ramdas Pophale) SiO2 
 PCOD8184082
Probable space group: A M A 2
;
_chemical_formula_sum "Si O2"
_cell_formula_units_Z 40
_cell_length_a 8.616102
_cell_length_b 9.601855
_cell_length_c 25.363192
_cell_angle_alpha 90.000000
_cell_angle_beta 90.000000
_cell_angle_gamma 90.000000
_cell_volume 2098.311130
_symmetry_space_group_name_H-M "A M A 2"
_symmetry_group_IT_number 40
_symmetry_cell_setting 'orthorhombic'
loop_
_space_group_symop_operation_xyz
x,y,z
-x,-y,z
1/2-x,y,z
1/2+x,-y,z
x,1/2+y,1/2+z
-x,1/2-y,1/2+z
1/2-x,1/2+y,1/2+z
1/2+x,1/2-y,1/2+z
loop_
_atom_site_type_symbol
_atom_site_label
_atom_site_fract_x
_atom_site_fract_y
_atom_site_fract_z
Si Si1 0.433685 0.849160 0.304550
Si Si2 0.567436 0.149137 0.598820
Si Si3 0.566649 0.353121 0.692059
Si Si4 0.066452 0.846106 0.892763
Si Si5 0.067262 0.650717 0.988484
O O1 0.250000 0.857879 0.307028
O O2 0.487711 0.805408 0.246308
O O3 0.494019 0.729525 0.342631
O O4 0.500000 0.000000 0.321009
O O5 0.750000 0.138895 0.591789
O O6 0.518383 0.247764 0.646439
O O7 0.496895 0.205980 0.544231
O O8 0.500000 0.000000 0.613160
O O9 0.500000 0.500000 0.673575
O O10 0.750000 0.362505 0.700867
O O11 0.250000 0.851999 0.885990
O O12 0.016286 0.761685 0.944738
O O13 0.000000 0.000000 0.897600
O O14 0.250000 0.635259 0.992282
O O15 0.000000 0.500000 0.973493
#
# Coordination Sequence:
#
# PCOD8184082 Si02
#       5
#     8   8   8   8   8
#     4  11  22  38  61  85 112 149 189 232 278 333
#     4  10  21  36  57  83 112 146 185 228 275 328
#     4  10  21  37  57  83 113 147 187 230 276 330
#     4  11  24  40  58  84 115 148 186 232 284 335
#     4  10  21  37  59  83 110 146 187 228 274 330
#
# _framework density 19.062949
#
# number of rings (size 3 to 8) (size 9 to 14) (size 15 to 20)
#    0.000    1.600    0.000    7.200    0.000    9.600 
#    0.000    6.000    0.000    0.000    0.000    0.000 
#    0.000    0.000    0.000    0.000    0.000    0.000 
#
# Total GULP energy -248074.747033 kJ/mol
# GULP energy per Si atom -12403.737352 kJ/mol
# Density = 1.901956 g / cm^3
# Si number density = 19.062949 Si / 1000 Ang^3
#
#
#
# Elastic Constant Matrix: (Units=GPa)
#
#
# Indices 1 2 3 4 5 6 
#
# 1 111.1077 62.5020 66.6120 0.0000 0.0000 0.0000
# 2 62.5020 143.9493 115.5215 0.0000 0.0000 0.0000
# 3 66.6120 115.5215 153.0017 0.0000 0.0000 0.0000
# 4 0.0000 0.0000 0.0000 41.6478 0.0000 0.0000
# 5 0.0000 0.0000 0.0000 0.0000 164.7236 0.0000
# 6 0.0000 0.0000 0.0000 0.0000 0.0000 25.8776
#
#
#
# Elastic Compliance Matrix: (Units=1/GPa)
#
#
# Indices 1 2 3 4 5 6 
#
# 1 0.012582 -0.002708 -0.003433 0.000000 0.000000 0.000000
# 2 -0.002708 0.018211 -0.012571 0.000000 0.000000 0.000000
# 3 -0.003433 -0.012571 0.017522 0.000000 0.000000 0.000000
# 4 0.000000 0.000000 0.000000 0.024011 0.000000 0.000000
# 5 0.000000 0.000000 0.000000 0.000000 0.006071 0.000000
# 6 0.000000 0.000000 0.000000 0.000000 0.000000 0.038643
#
#
# Mechanical properties :
#
#
# Convention : Reuss Voigt Hill
#
# Bulk Modulus (GPa) = 91.81998 99.70331 95.76165
# Shear Modulus (GPa) = 31.62657 57.34469 44.48563
#
# Velocity S-wave (km/s) = 4.07757 5.49063 4.83599
# Velocity P-wave (km/s) = 8.39286 9.62350 9.02917
#
# Compressibility (1/GPa) = 0.01089088
#
# Stress axis : x y z
#
# Youngs Moduli (GPa) = 79.47984 54.91162 57.07013
#
# Poissons Ratio (x) = 0.14868 0.19594
# Poissons Ratio (y) = 0.21520 0.71744
# Poissons Ratio (z) = 0.27288 0.69030
#
# Static dielectric constant tensor:
#      x y z
#    x 3.653610 0.000000 0.000000 
#    y 0.000000 3.479150 0.000000 
#    z 0.000000 0.000000 3.711510 
# 
# 
# High freq. dielectric constant tensor:
#      x y z
#    x 1.761780 0.000000 0.000000 
#    y 0.000000 1.739290 0.000000 
#    z 0.000000 0.000000 1.755160 
# 
# From -- ./inp_files/23822.got.cif
#   From: 2010.03.12/outbox.cif.g09.slc.cpg/sg40_12_cif.got.tgz:23822.got - 2010.04.14 01:38:03.
