data_PCOD8184709
_publ_section_title
;
Structure prediction by ZEFSAII (Michael W. Deem and Ramdas Pophale) SiO2 
 PCOD8184709
Probable space group: A M A 2
;
_chemical_formula_sum "Si O2"
_cell_formula_units_Z 56
_cell_length_a 20.954640
_cell_length_b 9.336821
_cell_length_c 13.142602
_cell_angle_alpha 90.000000
_cell_angle_beta 90.000000
_cell_angle_gamma 90.000000
_cell_volume 2571.346438
_symmetry_space_group_name_H-M "A M A 2"
_symmetry_group_IT_number 40
_symmetry_cell_setting 'orthorhombic'
loop_
_space_group_symop_operation_xyz
x,y,z
-x,-y,z
1/2-x,y,z
1/2+x,-y,z
x,1/2+y,1/2+z
-x,1/2-y,1/2+z
1/2-x,1/2+y,1/2+z
1/2+x,1/2-y,1/2+z
loop_
_atom_site_type_symbol
_atom_site_label
_atom_site_fract_x
_atom_site_fract_y
_atom_site_fract_z
Si Si1 0.405737 0.500000 0.473480
Si Si2 0.322741 0.766303 0.451139
Si Si3 0.557088 0.092208 0.761786
Si Si4 0.176672 0.034364 0.310575
Si Si5 0.677259 0.266303 0.995821
Si Si6 0.676672 0.034364 0.636385
Si Si7 0.442912 0.092208 0.185174
O O1 0.363955 0.627587 0.425600
O O2 0.447553 0.428061 0.383919
O O3 0.363955 0.372412 0.521360
O O4 0.447553 0.571939 0.563041
O O5 0.250000 0.717698 0.445830
O O6 0.336645 0.886414 0.367530
O O7 0.337818 0.831209 0.562563
O O8 0.542805 0.250000 0.723480
O O9 0.500000 0.000000 0.711346
O O10 0.628049 0.042443 0.729745
O O11 0.250000 0.041302 0.271461
O O12 0.162182 0.168791 0.384397
O O13 0.128049 0.042443 0.217215
O O14 0.750000 0.217698 0.001130
O O15 0.663355 0.386414 0.079430
O O16 0.750000 0.041303 0.675499
O O17 0.500000 0.000000 0.235614
#
# Coordination Sequence:
#
# PCOD8184709 Si02
#       7
#     8   8   8   8   8   8   8
#     4  12  24  42  68 100 135 176 231 286 333 408
#     4   9  19  38  67 105 139 173 223 283 343 408
#     4  12  28  48  68  99 138 181 229 284 342 411
#     4   9  20  43  71  99 136 181 225 276 347 412
#     4   9  19  38  67 105 139 173 223 283 343 408
#     4   9  20  43  71  99 136 181 225 276 347 412
#     4  12  28  48  68  99 138 181 229 284 342 411
#
# _framework density 21.778473999999999
#
# number of rings (size 3 to 8) (size 9 to 14) (size 15 to 20)
#    0.000    1.714    2.857    2.571    4.000    2.857 
#    0.000    5.714    0.000    0.000    0.000    0.000 
#    0.000    0.000    0.000    0.000    0.000    0.000 
#
# Total GULP energy -347173.133026 kJ/mol
# GULP energy per Si atom -12399.040465 kJ/mol
# Density = 2.172890 g / cm^3
# Si number density = 21.778474 Si / 1000 Ang^3
#
#
#
# Elastic Constant Matrix: (Units=GPa)
#
#
# Indices 1 2 3 4 5 6 
#
# 1 114.3664 61.5025 43.3114 0.0000 0.0000 0.0000
# 2 61.5025 146.4232 39.4035 0.0000 0.0000 0.0000
# 3 43.3114 39.4035 101.2814 0.0000 0.0000 0.0000
# 4 0.0000 0.0000 0.0000 26.7839 0.0000 0.0000
# 5 0.0000 0.0000 0.0000 0.0000 2.4231 0.0000
# 6 0.0000 0.0000 0.0000 0.0000 0.0000 29.0488
#
#
#
# Elastic Compliance Matrix: (Units=1/GPa)
#
#
# Indices 1 2 3 4 5 6 
#
# 1 0.012401 -0.004224 -0.003660 0.000000 0.000000 0.000000
# 2 -0.004224 0.009067 -0.001721 0.000000 0.000000 0.000000
# 3 -0.003660 -0.001721 0.012108 0.000000 0.000000 0.000000
# 4 0.000000 0.000000 0.000000 0.037336 0.000000 0.000000
# 5 0.000000 0.000000 0.000000 0.000000 0.412695 0.000000
# 6 0.000000 0.000000 0.000000 0.000000 0.000000 0.034425
#
#
# Mechanical properties :
#
#
# Convention : Reuss Voigt Hill
#
# Bulk Modulus (GPa) = 69.60723 72.27842 70.94283
# Shear Modulus (GPa) = 9.22456 26.17472 17.69964
#
# Velocity S-wave (km/s) = 2.06030 3.47055 2.85390
# Velocity P-wave (km/s) = 6.13927 7.02280 6.59584
#
# Compressibility (1/GPa) = 0.01436632
#
# Stress axis : x y z
#
# Youngs Moduli (GPa) = 80.63586 110.29073 82.58881
#
# Poissons Ratio (x) = 0.46588 0.30227
# Poissons Ratio (y) = 0.34061 0.14215
# Poissons Ratio (z) = 0.29512 0.18982
#
# Static dielectric constant tensor:
#      x y z
#    x 3.892280 0.000000 0.000000 
#    y 0.000000 3.972010 0.000000 
#    z 0.000000 0.000000 3.741370 
# 
# 
# High freq. dielectric constant tensor:
#      x y z
#    x 1.857110 0.000000 0.000000 
#    y 0.000000 1.866450 0.000000 
#    z 0.000000 0.000000 1.842390 
# 
# From -- ./inp_files/18205.got.cif
#   From: 2010.03.12/outbox.cif.g09.slc.cpg/sg40_10_cif.got.tgz:18205.got - 2010.04.14 01:38:03.
