data_PCOD8184230
_publ_section_title
;
Structure prediction by ZEFSAII (Michael W. Deem and Ramdas Pophale) SiO2 
 PCOD8184230
Probable space group: A M A 2
;
_chemical_formula_sum "Si O2"
_cell_formula_units_Z 64
_cell_length_a 22.097401
_cell_length_b 9.473809
_cell_length_c 14.963255
_cell_angle_alpha 90.000000
_cell_angle_beta 90.000000
_cell_angle_gamma 90.000000
_cell_volume 3132.505908
_symmetry_space_group_name_H-M "A M A 2"
_symmetry_group_IT_number 40
_symmetry_cell_setting 'orthorhombic'
loop_
_space_group_symop_operation_xyz
x,y,z
-x,-y,z
1/2-x,y,z
1/2+x,-y,z
x,1/2+y,1/2+z
-x,1/2-y,1/2+z
1/2-x,1/2+y,1/2+z
1/2+x,1/2-y,1/2+z
loop_
_atom_site_type_symbol
_atom_site_label
_atom_site_fract_x
_atom_site_fract_y
_atom_site_fract_z
Si Si1 0.591874 0.902692 0.248280
Si Si2 0.491724 0.331115 0.510194
Si Si3 0.182852 0.984716 0.942293
Si Si4 0.964360 0.190948 0.211601
Si Si5 0.402253 0.704910 0.374572
Si Si6 0.680725 0.583902 0.964088
Si Si7 0.871603 0.304009 0.934611
Si Si8 0.316705 0.174379 0.105165
O O1 0.526030 0.838142 0.263653
O O2 0.626264 0.886722 0.341040
O O3 0.631157 0.816286 0.177684
O O4 0.582590 0.060805 0.211717
O O5 0.500000 0.500000 0.516732
O O6 0.482896 0.266505 0.610283
O O7 0.549824 0.274550 0.456476
O O8 0.433091 0.276448 0.458544
O O9 0.250000 0.032518 0.912216
O O10 0.133383 0.057414 0.878768
O O11 0.179403 0.816179 0.935730
O O12 0.171003 0.038061 0.043018
O O13 0.932369 0.306091 0.275798
O O14 0.356753 0.837745 0.384607
O O15 0.750000 0.560183 0.931463
O O16 0.679298 0.682218 0.050218
O O17 0.650302 0.434936 0.996134
O O18 0.250000 0.160800 0.149382
#
# Coordination Sequence:
#
# PCOD8184230 Si02
#       8
#     8   8   8   8   8   8   8   8
#     4  11  21  38  61  92 125 161 208 253 316 378
#     4  12  23  40  67  93 125 168 209 261 324 378
#     4  10  21  39  65  91 124 169 214 257 316 381
#     4  11  22  39  63  92 125 162 209 264 306 381
#     4  11  21  41  67  94 126 166 214 257 317 382
#     4  10  22  40  63  93 128 164 208 260 313 371
#     4  12  23  38  64  93 131 165 206 261 325 376
#     4   9  20  41  66  89 118 167 217 256 306 381
#
# _framework density 20.430928000000002
#
# number of rings (size 3 to 8) (size 9 to 14) (size 15 to 20)
#    0.000    1.250    5.000    3.750    0.000    1.500 
#    2.250    0.000    0.000    1.500    0.000    0.000 
#    0.000    0.000    0.000    0.000    0.000    0.000 
#
# Total GULP energy -396494.071393 kJ/mol
# GULP energy per Si atom -12390.439731 kJ/mol
# Density = 2.038443 g / cm^3
# Si number density = 20.430928 Si / 1000 Ang^3
#
#
#
# Elastic Constant Matrix: (Units=GPa)
#
#
# Indices 1 2 3 4 5 6 
#
# 1 106.8392 37.4855 44.4103 0.0000 0.0000 0.0000
# 2 37.4855 102.1222 27.7527 0.0000 0.0000 0.0000
# 3 44.4103 27.7527 100.8811 0.0000 0.0000 0.0000
# 4 0.0000 0.0000 0.0000 17.7228 0.0000 0.0000
# 5 0.0000 0.0000 0.0000 0.0000 24.3500 0.0000
# 6 0.0000 0.0000 0.0000 0.0000 0.0000 31.6872
#
#
#
# Elastic Compliance Matrix: (Units=1/GPa)
#
#
# Indices 1 2 3 4 5 6 
#
# 1 0.012418 -0.003321 -0.004553 0.000000 0.000000 0.000000
# 2 -0.003321 0.011471 -0.001694 0.000000 0.000000 0.000000
# 3 -0.004553 -0.001694 0.012383 0.000000 0.000000 0.000000
# 4 0.000000 0.000000 0.000000 0.056424 0.000000 0.000000
# 5 0.000000 0.000000 0.000000 0.000000 0.041068 0.000000
# 6 0.000000 0.000000 0.000000 0.000000 0.000000 0.031558
#
#
# Mechanical properties :
#
#
# Convention : Reuss Voigt Hill
#
# Bulk Modulus (GPa) = 58.35435 58.79327 58.57381
# Shear Modulus (GPa) = 26.29225 28.09827 27.19526
#
# Velocity S-wave (km/s) = 3.59121 3.71250 3.65236
# Velocity P-wave (km/s) = 6.76901 6.87139 6.82039
#
# Compressibility (1/GPa) = 0.01713668
#
# Stress axis : x y z
#
# Youngs Moduli (GPa) = 80.53139 87.17278 80.75590
#
# Poissons Ratio (x) = 0.28948 0.36768
# Poissons Ratio (y) = 0.26742 0.13680
# Poissons Ratio (z) = 0.36666 0.14767
#
# Static dielectric constant tensor:
#      x y z
#    x 3.972450 0.000000 0.000000 
#    y 0.000000 3.647130 0.000000 
#    z 0.000000 0.000000 3.504340 
# 
# 
# High freq. dielectric constant tensor:
#      x y z
#    x 1.819990 0.000000 0.000000 
#    y 0.000000 1.785210 0.000000 
#    z 0.000000 0.000000 1.774740 
# 
# From -- ./inp_files/18527.got.cif
#   From: 2010.03.12/outbox.cif.g09.slc.cpg/sg40_10_cif.got.tgz:18527.got - 2010.04.14 01:38:03.
