data_PCOD8184471
_publ_section_title
;
Structure prediction by ZEFSAII (Michael W. Deem and Ramdas Pophale) SiO2 
 PCOD8184471
Probable space group: A M A 2
;
_chemical_formula_sum "Si O2"
_cell_formula_units_Z 40
_cell_length_a 16.106554
_cell_length_b 9.091048
_cell_length_c 12.462387
_cell_angle_alpha 90.000000
_cell_angle_beta 90.000000
_cell_angle_gamma 90.000000
_cell_volume 1824.810693
_symmetry_space_group_name_H-M "A M A 2"
_symmetry_group_IT_number 40
_symmetry_cell_setting 'orthorhombic'
loop_
_space_group_symop_operation_xyz
x,y,z
-x,-y,z
1/2-x,y,z
1/2+x,-y,z
x,1/2+y,1/2+z
-x,1/2-y,1/2+z
1/2-x,1/2+y,1/2+z
1/2+x,1/2-y,1/2+z
loop_
_atom_site_type_symbol
_atom_site_label
_atom_site_fract_x
_atom_site_fract_y
_atom_site_fract_z
Si Si1 0.380213 0.526505 0.035470
Si Si2 0.750000 0.759817 0.454721
Si Si3 0.076691 0.589006 0.265174
Si Si4 0.750000 0.934484 0.242396
Si Si5 0.750000 0.222189 0.548403
Si Si6 0.750000 0.452411 0.370984
Si Si7 0.079310 0.926706 0.306968
O O1 0.435959 0.569609 0.137140
O O2 0.329107 0.380031 0.063943
O O3 0.328623 0.674899 0.015753
O O4 0.429309 0.487403 0.928044
O O5 0.750000 0.583139 0.459365
O O6 0.750000 0.808168 0.330989
O O7 0.167499 0.528730 0.298683
O O8 0.066734 0.753874 0.304261
O O9 0.000000 0.500000 0.319826
O O10 0.832224 0.034508 0.253439
O O11 0.750000 0.857963 0.128368
O O12 0.750000 0.293558 0.429098
O O13 0.000000 0.000000 0.245364
#
# Coordination Sequence:
#
# PCOD8184471 Si02
#       7
#     8   4   8   4   4   4   8
#     4  10  22  45  69  97 140 179 232 281 356 411
#     4   9  21  38  71 100 125 188 222 284 348 407
#     4  12  27  45  72 104 136 188 232 287 353 422
#     4  10  23  42  71  94 142 179 232 281 353 402
#     4  11  22  41  70 105 131 188 233 287 341 425
#     4  12  24  45  70  99 148 175 241 288 340 422
#     4  11  25  46  69 102 140 181 230 291 346 420
#
# _framework density 21.920082000000001
#
# number of rings (size 3 to 8) (size 9 to 14) (size 15 to 20)
#    0.000    1.200    2.000    4.200   11.200    0.000 
#    0.000    1.000    0.000    0.000    0.000    0.000 
#    0.000    0.000    0.000    0.000    0.000    0.000 
#
# Total GULP energy -247920.455823 kJ/mol
# GULP energy per Si atom -12396.022791 kJ/mol
# Density = 2.187019 g / cm^3
# Si number density = 21.920082 Si / 1000 Ang^3
#
#
#
# Elastic Constant Matrix: (Units=GPa)
#
#
# Indices 1 2 3 4 5 6 
#
# 1 169.0157 46.4133 11.0893 0.0000 0.0000 0.0000
# 2 46.4133 116.2233 -1.9809 0.0000 0.0000 0.0000
# 3 11.0893 -1.9809 52.5806 0.0000 0.0000 0.0000
# 4 0.0000 0.0000 0.0000 24.9136 0.0000 0.0000
# 5 0.0000 0.0000 0.0000 0.0000 6.2432 0.0000
# 6 0.0000 0.0000 0.0000 0.0000 0.0000 21.2179
#
#
#
# Elastic Compliance Matrix: (Units=1/GPa)
#
#
# Indices 1 2 3 4 5 6 
#
# 1 0.006766 -0.002728 -0.001530 0.000000 0.000000 0.000000
# 2 -0.002728 0.009710 0.000941 0.000000 0.000000 0.000000
# 3 -0.001530 0.000941 0.019376 0.000000 0.000000 0.000000
# 4 0.000000 0.000000 0.000000 0.040139 0.000000 0.000000
# 5 0.000000 0.000000 0.000000 0.000000 0.160173 0.000000
# 6 0.000000 0.000000 0.000000 0.000000 0.000000 0.047130
#
#
# Mechanical properties :
#
#
# Convention : Reuss Voigt Hill
#
# Bulk Modulus (GPa) = 34.22449 49.87368 42.04908
# Shear Modulus (GPa) = 16.68516 29.29481 22.98998
#
# Velocity S-wave (km/s) = 2.76194 3.65970 3.24205
# Velocity P-wave (km/s) = 5.08117 6.37650 5.76533
#
# Compressibility (1/GPa) = 0.02921884
#
# Stress axis : x y z
#
# Youngs Moduli (GPa) = 147.79467 102.99052 51.60893
#
# Poissons Ratio (x) = 0.28097 0.07895
# Poissons Ratio (y) = 0.40320 -0.04857
# Poissons Ratio (z) = 0.22609 -0.09693
#
# Static dielectric constant tensor:
#      x y z
#    x 4.182510 0.000000 0.000000 
#    y 0.000000 3.830260 0.000000 
#    z 0.000000 0.000000 3.782620 
# 
# 
# High freq. dielectric constant tensor:
#      x y z
#    x 1.873330 0.000000 0.000000 
#    y 0.000000 1.868070 0.000000 
#    z 0.000000 0.000000 1.848350 
# 
# From -- ./inp_files/12748.got.cif
#   From: 2010.03.12/outbox.cif.g09.slc.cpg/sg40_7_cif.got.tgz:12748.got - 2010.04.14 01:38:03.
