data_PCOD8184697
_publ_section_title
;
Structure prediction by ZEFSAII (Michael W. Deem and Ramdas Pophale) SiO2 
 PCOD8184697
Probable space group: A M A 2
;
_chemical_formula_sum "Si O2"
_cell_formula_units_Z 36
_cell_length_a 13.777215
_cell_length_b 18.044327
_cell_length_c 7.374916
_cell_angle_alpha 90.000000
_cell_angle_beta 90.000000
_cell_angle_gamma 90.000000
_cell_volume 1833.408341
_symmetry_space_group_name_H-M "A M A 2"
_symmetry_group_IT_number 40
_symmetry_cell_setting 'orthorhombic'
loop_
_space_group_symop_operation_xyz
x,y,z
-x,-y,z
1/2-x,y,z
1/2+x,-y,z
x,1/2+y,1/2+z
-x,1/2-y,1/2+z
1/2-x,1/2+y,1/2+z
1/2+x,1/2-y,1/2+z
loop_
_atom_site_type_symbol
_atom_site_label
_atom_site_fract_x
_atom_site_fract_y
_atom_site_fract_z
Si Si1 0.250000 0.635527 0.632900
Si Si2 0.250000 0.758922 0.337510
Si Si3 0.548739 0.668083 0.913921
Si Si4 0.960008 0.921315 0.116618
Si Si5 0.048039 0.317051 0.324585
Si Si6 0.250000 0.766563 0.919961
O O1 0.250000 0.681677 0.445583
O O2 0.156175 0.581874 0.646695
O O3 0.250000 0.693624 0.797124
O O4 0.340258 0.809837 0.389283
O O5 0.250000 0.738233 0.126247
O O6 0.519612 0.595311 0.801131
O O7 0.480042 0.731132 0.831180
O O8 0.528293 0.651923 0.124167
O O9 0.000000 0.000000 0.047937
O O10 0.981893 0.861808 0.961865
O O11 0.160327 0.321054 0.379796
#
# Coordination Sequence:
#
# PCOD8184697 Si02
#       6
#     4   4   8   8   8   4
#     4  12  24  42  66  98 130 172 228 278 334 398
#     4  12  20  35  69 105 125 168 231 282 320 381
#     4  12  21  39  67  99 129 172 228 275 319 391
#     4  12  28  44  64 100 144 178 215 277 347 402
#     4  12  21  39  67  99 129 172 228 275 319 391
#     4  12  20  35  69 105 125 168 231 282 320 381
#
# _framework density 19.635559000000001
#
# number of rings (size 3 to 8) (size 9 to 14) (size 15 to 20)
#    0.000    0.000   11.111    0.000    0.000    2.667 
#    0.000    0.000    0.000    0.000    0.000    0.000 
#    0.000    0.000    0.000    0.000    0.000    0.000 
#
# Total GULP energy -223283.882165 kJ/mol
# GULP energy per Si atom -12404.660120 kJ/mol
# Density = 1.959087 g / cm^3
# Si number density = 19.635559 Si / 1000 Ang^3
#
#
#
# Elastic Constant Matrix: (Units=GPa)
#
#
# Indices 1 2 3 4 5 6 
#
# 1 138.7126 19.7671 15.1422 0.0000 0.0000 0.0000
# 2 19.7671 51.4791 6.2684 0.0000 0.0000 0.0000
# 3 15.1422 6.2684 150.2275 0.0000 0.0000 0.0000
# 4 0.0000 0.0000 0.0000 10.0760 0.0000 0.0000
# 5 0.0000 0.0000 0.0000 0.0000 26.0179 0.0000
# 6 0.0000 0.0000 0.0000 0.0000 0.0000 26.7867
#
#
#
# Elastic Compliance Matrix: (Units=1/GPa)
#
#
# Indices 1 2 3 4 5 6 
#
# 1 0.007690 -0.002873 -0.000655 0.000000 0.000000 0.000000
# 2 -0.002873 0.020598 -0.000570 0.000000 0.000000 0.000000
# 3 -0.000655 -0.000570 0.006746 0.000000 0.000000 0.000000
# 4 0.000000 0.000000 0.000000 0.099245 0.000000 0.000000
# 5 0.000000 0.000000 0.000000 0.000000 0.038435 0.000000
# 6 0.000000 0.000000 0.000000 0.000000 0.000000 0.037332
#
#
# Mechanical properties :
#
#
# Convention : Reuss Voigt Hill
#
# Bulk Modulus (GPa) = 37.26055 46.97499 42.11777
# Shear Modulus (GPa) = 22.00808 32.52556 27.26682
#
# Velocity S-wave (km/s) = 3.35151 4.07438 3.73050
# Velocity P-wave (km/s) = 5.83044 6.79040 6.32865
#
# Compressibility (1/GPa) = 0.02683804
#
# Stress axis : x y z
#
# Youngs Moduli (GPa) = 130.03729 48.54850 148.22735
#
# Poissons Ratio (x) = 0.13948 0.09713
# Poissons Ratio (y) = 0.37361 0.08447
# Poissons Ratio (z) = 0.08521 0.02767
#
# Static dielectric constant tensor:
#      x y z
#    x 3.789790 0.000000 0.000000 
#    y 0.000000 3.136950 0.000000 
#    z 0.000000 0.000000 3.800030 
# 
# 
# High freq. dielectric constant tensor:
#      x y z
#    x 1.790400 0.000000 0.000000 
#    y 0.000000 1.718850 0.000000 
#    z 0.000000 0.000000 1.784150 
# 
# From -- ./inp_files/6264.got.cif
#   From: 2010.03.12/outbox.cif.g09.slc.cpg/sg40_4_cif.got.tgz:6264.got - 2010.04.14 01:38:03.
