data_PCOD8184746
_publ_section_title
;
Structure prediction by ZEFSAII (Michael W. Deem and Ramdas Pophale) SiO2 
 PCOD8184746
Probable space group: A B A 2
;
_chemical_formula_sum "Si O2"
_cell_formula_units_Z 60
_cell_length_a 23.244933
_cell_length_b 17.439494
_cell_length_c 7.732998
_cell_angle_alpha 90.000000
_cell_angle_beta 90.000000
_cell_angle_gamma 90.000000
_cell_volume 3134.801721
_symmetry_space_group_name_H-M "A B A 2"
_symmetry_group_IT_number 41
_symmetry_cell_setting 'orthorhombic'
loop_
_space_group_symop_operation_xyz
x,y,z
-x,-y,z
1/2-x,y,1/2+z
1/2+x,-y,1/2+z
x,1/2+y,1/2+z
-x,1/2-y,1/2+z
1/2-x,1/2+y,z
1/2+x,1/2-y,z
loop_
_atom_site_type_symbol
_atom_site_label
_atom_site_fract_x
_atom_site_fract_y
_atom_site_fract_z
Si Si1 0.593868 0.761435 0.931560
Si Si2 0.073494 0.898615 0.058332
Si Si3 0.139238 0.534817 0.632766
Si Si4 0.802763 0.377576 0.928393
Si Si5 0.559099 0.348129 0.749965
Si Si6 0.960058 0.839696 0.126743
Si Si7 0.500000 0.500000 0.807636
Si Si8 0.683329 0.894854 0.308762
O O1 0.654708 0.805112 0.927548
O O2 0.561907 0.770796 0.746700
O O3 0.605473 0.672169 0.964003
O O4 0.551128 0.795102 0.081286
O O5 0.120105 0.947044 0.167419
O O6 0.023016 0.869125 0.187295
O O7 0.048471 0.957979 0.918788
O O8 0.181011 0.558763 0.787163
O O9 0.083762 0.589811 0.632404
O O10 0.171576 0.537092 0.446431
O O11 0.738487 0.347482 0.882497
O O12 0.803621 0.421743 0.112716
O O13 0.534886 0.433831 0.700927
O O14 0.626568 0.342835 0.800051
O O15 0.528430 0.315292 0.924090
#
# Coordination Sequence:
#
# PCOD8184746 Si02
#       8
#     8   8   8   8   8   8   4   8
#     4  10  23  35  55  87 113 142 196 232 282 342
#     4  11  19  36  58  82 120 148 181 240 285 335
#     4  10  18  36  56  80 112 144 188 233 278 337
#     4  10  20  34  59  84 101 147 196 234 277 337
#     4   9  19  37  56  81 111 148 186 231 279 340
#     4   9  19  36  55  79 110 155 180 220 281 345
#     4  10  18  36  58  80 116 158 180 220 294 332
#     4  10  17  33  60  80 102 143 196 227 274 336
#
# _framework density 19.139968
#
# number of rings (size 3 to 8) (size 9 to 14) (size 15 to 20)
#    0.000    2.133    5.333    0.000    3.733    0.000 
#    7.200    1.333    5.867    0.000    0.000    0.000 
#    0.000    0.000    0.000    0.000    0.000    0.000 
#
# Total GULP energy -371644.898879 kJ/mol
# GULP energy per Si atom -12388.163296 kJ/mol
# Density = 1.909640 g / cm^3
# Si number density = 19.139968 Si / 1000 Ang^3
#
#
#
# Elastic Constant Matrix: (Units=GPa)
#
#
# Indices 1 2 3 4 5 6 
#
# 1 56.7181 14.5796 22.0340 0.0000 0.0000 0.0000
# 2 14.5796 96.7297 29.5647 0.0000 0.0000 0.0000
# 3 22.0340 29.5647 103.2468 0.0000 0.0000 0.0000
# 4 0.0000 0.0000 0.0000 24.1705 0.0000 0.0000
# 5 0.0000 0.0000 0.0000 0.0000 21.8284 0.0000
# 6 0.0000 0.0000 0.0000 0.0000 0.0000 8.1065
#
#
#
# Elastic Compliance Matrix: (Units=1/GPa)
#
#
# Indices 1 2 3 4 5 6 
#
# 1 0.019516 -0.001829 -0.003641 0.000000 0.000000 0.000000
# 2 -0.001829 0.011501 -0.002903 0.000000 0.000000 0.000000
# 3 -0.003641 -0.002903 0.011294 0.000000 0.000000 0.000000
# 4 0.000000 0.000000 0.000000 0.041373 0.000000 0.000000
# 5 0.000000 0.000000 0.000000 0.000000 0.045812 0.000000
# 6 0.000000 0.000000 0.000000 0.000000 0.000000 0.123358
#
#
# Mechanical properties :
#
#
# Convention : Reuss Voigt Hill
#
# Bulk Modulus (GPa) = 39.11631 43.22791 41.17211
# Shear Modulus (GPa) = 17.97778 23.52215 20.74997
#
# Velocity S-wave (km/s) = 3.06809 3.50945 3.29617
# Velocity P-wave (km/s) = 5.74737 6.24947 6.00367
#
# Compressibility (1/GPa) = 0.02556478
#
# Stress axis : x y z
#
# Youngs Moduli (GPa) = 51.24090 86.94895 88.54342
#
# Poissons Ratio (x) = 0.15899 0.32241
# Poissons Ratio (y) = 0.09370 0.25705
# Poissons Ratio (z) = 0.18658 0.25242
#
# Static dielectric constant tensor:
#      x y z
#    x 3.715290 0.000000 0.000000 
#    y 0.000000 3.278160 0.000000 
#    z 0.000000 0.000000 3.774900 
# 
# 
# High freq. dielectric constant tensor:
#      x y z
#    x 1.752620 0.000000 0.000000 
#    y 0.000000 1.704870 0.000000 
#    z 0.000000 0.000000 1.739990 
# 
# From -- ./inp_files/3853.got.cif
#   From: 2010.03.12/outbox.cif.g09.slc.cpg/sg41_2_cif.got.tgz:3853.got - 2010.04.14 01:55:53.
