data_PCOD8184101
_publ_section_title
;
Structure prediction by ZEFSAII (Michael W. Deem and Ramdas Pophale) SiO2 
 PCOD8184101
Probable space group: A M A 2
;
_chemical_formula_sum "Si O2"
_cell_formula_units_Z 64
_cell_length_a 9.245550
_cell_length_b 33.541170
_cell_length_c 11.327641
_cell_angle_alpha 90.000000
_cell_angle_beta 90.000000
_cell_angle_gamma 90.000000
_cell_volume 3512.775832
_symmetry_space_group_name_H-M "A M A 2"
_symmetry_group_IT_number 40
_symmetry_cell_setting 'orthorhombic'
loop_
_space_group_symop_operation_xyz
x,y,z
-x,-y,z
1/2-x,y,z
1/2+x,-y,z
x,1/2+y,1/2+z
-x,1/2-y,1/2+z
1/2-x,1/2+y,1/2+z
1/2+x,1/2-y,1/2+z
loop_
_atom_site_type_symbol
_atom_site_label
_atom_site_fract_x
_atom_site_fract_y
_atom_site_fract_z
Si Si1 0.919343 0.887486 0.895210
Si Si2 0.080360 0.539084 0.537381
Si Si3 0.406871 0.824797 0.012039
Si Si4 0.419876 0.125443 0.408548
Si Si5 0.581147 0.959555 0.307395
Si Si6 0.920504 0.342476 0.167088
Si Si7 0.413883 0.272792 0.284675
Si Si8 0.916612 0.193832 0.275230
O O1 0.750000 0.888703 0.896652
O O2 0.974382 0.874727 0.765173
O O3 0.979138 0.929520 0.941087
O O4 0.966839 0.856213 0.993912
O O5 0.250000 0.532425 0.526562
O O6 0.039957 0.550951 0.671943
O O7 0.000000 0.500000 0.497196
O O8 0.250000 0.846509 0.009074
O O9 0.430142 0.803466 0.135246
O O10 0.412488 0.791940 0.912179
O O11 0.250000 0.131515 0.382660
O O12 0.462997 0.079021 0.386346
O O13 0.459456 0.138089 0.541921
O O14 0.511376 0.153298 0.322008
O O15 0.750000 0.968635 0.321044
O O16 0.500000 0.000000 0.349720
O O17 0.750000 0.333685 0.179036
O O18 0.004140 0.300764 0.188513
O O19 0.250000 0.265125 0.238705
O O20 0.495953 0.232227 0.316404
O O21 0.750000 0.195642 0.317971
#
# Coordination Sequence:
#
# PCOD8184101 Si02
#       8
#     8   8   8   8   8   8   8   8
#     4   9  17  32  54  76  99 131 172 213 254 311
#     4   9  17  29  48  75 104 132 168 213 262 315
#     4   9  20  36  52  72 100 131 165 210 260 307
#     4  10  21  37  56  79 108 144 183 224 272 323
#     4   9  18  33  53  77 106 141 178 221 272 324
#     4   9  19  36  56  76 104 141 178 221 269 316
#     4  10  21  37  55  76 103 138 175 215 267 320
#     4  11  23  36  53  79 107 136 175 221 266 316
#
# _framework density 18.219211000000001
#
# number of rings (size 3 to 8) (size 9 to 14) (size 15 to 20)
#    0.000    2.500    0.000    1.500    1.750    4.000 
#    0.000    3.125    0.000    0.000    0.000    0.000 
#    0.000    0.000    0.000    0.000    0.000    0.000 
#
# Total GULP energy -396635.968509 kJ/mol
# GULP energy per Si atom -12394.874016 kJ/mol
# Density = 1.817774 g / cm^3
# Si number density = 18.219211 Si / 1000 Ang^3
#
#
#
# Elastic Constant Matrix: (Units=GPa)
#
#
# Indices 1 2 3 4 5 6 
#
# 1 43.7532 49.2629 33.7139 0.0000 0.0000 0.0000
# 2 49.2629 128.4348 40.2478 0.0000 0.0000 0.0000
# 3 33.7139 40.2478 65.3794 0.0000 0.0000 0.0000
# 4 0.0000 0.0000 0.0000 21.9515 0.0000 0.0000
# 5 0.0000 0.0000 0.0000 0.0000 21.6665 0.0000
# 6 0.0000 0.0000 0.0000 0.0000 0.0000 35.7126
#
#
#
# Elastic Compliance Matrix: (Units=1/GPa)
#
#
# Indices 1 2 3 4 5 6 
#
# 1 0.053974 -0.014844 -0.018694 0.000000 0.000000 0.000000
# 2 -0.014844 0.013730 -0.000797 0.000000 0.000000 0.000000
# 3 -0.018694 -0.000797 0.025426 0.000000 0.000000 0.000000
# 4 0.000000 0.000000 0.000000 0.045555 0.000000 0.000000
# 5 0.000000 0.000000 0.000000 0.000000 0.046154 0.000000
# 6 0.000000 0.000000 0.000000 0.000000 0.000000 0.028001
#
#
# Mechanical properties :
#
#
# Convention : Reuss Voigt Hill
#
# Bulk Modulus (GPa) = 40.88653 53.77963 47.33308
# Shear Modulus (GPa) = 17.26136 23.48897 20.37516
#
# Velocity S-wave (km/s) = 3.08137 3.59450 3.34778
# Velocity P-wave (km/s) = 5.92874 6.84174 6.40154
#
# Compressibility (1/GPa) = 0.02445793
#
# Stress axis : x y z
#
# Youngs Moduli (GPa) = 18.52752 72.83542 39.32936
#
# Poissons Ratio (x) = 1.08117 0.73524
# Poissons Ratio (y) = 0.27502 0.03136
# Poissons Ratio (z) = 0.34636 0.05808
#
# Static dielectric constant tensor:
#      x y z
#    x 3.425960 0.000000 0.000000 
#    y 0.000000 3.447790 0.000000 
#    z 0.000000 0.000000 3.450620 
# 
# 
# High freq. dielectric constant tensor:
#      x y z
#    x 1.706210 0.000000 0.000000 
#    y 0.000000 1.705230 0.000000 
#    z 0.000000 0.000000 1.700450 
# 
# From -- ./inp_files/10618.got.cif
#   From: 2010.03.12/outbox.cif.g09.slc.cpg/sg40_6_cif.got.tgz:10618.got - 2010.04.14 01:38:03.
