data_PCOD8184597
_publ_section_title
;
Structure prediction by ZEFSAII (Michael W. Deem and Ramdas Pophale) SiO2 
 PCOD8184597
Probable space group: A M A 2
;
_chemical_formula_sum "Si O2"
_cell_formula_units_Z 64
_cell_length_a 8.856935
_cell_length_b 24.727450
_cell_length_c 14.890035
_cell_angle_alpha 90.000000
_cell_angle_beta 90.000000
_cell_angle_gamma 90.000000
_cell_volume 3261.057890
_symmetry_space_group_name_H-M "A M A 2"
_symmetry_group_IT_number 40
_symmetry_cell_setting 'orthorhombic'
loop_
_space_group_symop_operation_xyz
x,y,z
-x,-y,z
1/2-x,y,z
1/2+x,-y,z
x,1/2+y,1/2+z
-x,1/2-y,1/2+z
1/2-x,1/2+y,1/2+z
1/2+x,1/2-y,1/2+z
loop_
_atom_site_type_symbol
_atom_site_label
_atom_site_fract_x
_atom_site_fract_y
_atom_site_fract_z
Si Si1 0.927187 0.058015 0.860360
Si Si2 0.573458 0.283913 0.204918
Si Si3 0.071937 0.234780 0.902361
Si Si4 0.073003 0.853752 0.386788
Si Si5 0.928280 0.944081 0.505592
Si Si6 0.573682 0.109238 0.671255
Si Si7 0.572706 0.868692 0.007646
Si Si8 0.576517 0.661784 0.679667
O O1 0.750000 0.051067 0.872165
O O2 0.968014 0.093314 0.772950
O O3 0.000000 0.000000 0.848028
O O4 0.991743 0.085970 0.949127
O O5 0.750000 0.298489 0.200652
O O6 0.508715 0.284305 0.306308
O O7 0.480841 0.329556 0.151276
O O8 0.541066 0.225113 0.163424
O O9 0.250000 0.238299 0.890697
O O10 0.017110 0.295525 0.925715
O O11 0.020796 0.191307 0.976087
O O12 0.250000 0.863461 0.406212
O O13 0.038605 0.855919 0.280699
O O14 0.974136 0.898610 0.434597
O O15 0.750000 0.949758 0.508540
O O16 0.987990 0.931087 0.604929
O O17 0.000000 0.000000 0.472147
O O18 0.750000 0.104726 0.650929
O O19 0.750000 0.877192 0.997265
O O20 0.524048 0.873749 0.111497
O O21 0.750000 0.649838 0.657889
#
# Coordination Sequence:
#
# PCOD8184597 Si02
#       8
#     8   8   8   8   8   8   8   8
#     4  11  24  41  61  86 118 158 202 250 298 354
#     4   9  17  34  57  84 120 160 199 238 288 348
#     4   8  16  32  56  85 118 157 194 233 288 347
#     4   9  19  40  64  86 118 158 199 247 299 351
#     4  12  26  43  63  88 117 154 200 251 300 357
#     4  11  23  38  59  89 122 158 197 242 295 355
#     4  11  21  35  59  89 123 162 200 244 295 355
#     4   9  20  37  59  87 123 161 199 247 298 350
#
# _framework density 19.625533999999998
#
# number of rings (size 3 to 8) (size 9 to 14) (size 15 to 20)
#    0.000    2.000    1.250    4.125    1.750    3.500 
#    0.000    3.125    0.000    3.000    0.000    0.000 
#    0.000    0.000    0.000    0.000    0.000    0.000 
#
# Total GULP energy -396824.675512 kJ/mol
# GULP energy per Si atom -12400.771110 kJ/mol
# Density = 1.958087 g / cm^3
# Si number density = 19.625534 Si / 1000 Ang^3
#
#
#
# Elastic Constant Matrix: (Units=GPa)
#
#
# Indices 1 2 3 4 5 6 
#
# 1 97.9484 47.9389 36.9549 0.0000 0.0000 0.0000
# 2 47.9389 95.7266 22.9374 0.0000 0.0000 0.0000
# 3 36.9549 22.9374 67.9813 0.0000 0.0000 0.0000
# 4 0.0000 0.0000 0.0000 29.1772 0.0000 0.0000
# 5 0.0000 0.0000 0.0000 0.0000 31.5299 0.0000
# 6 0.0000 0.0000 0.0000 0.0000 0.0000 30.4358
#
#
#
# Elastic Compliance Matrix: (Units=1/GPa)
#
#
# Indices 1 2 3 4 5 6 
#
# 1 0.015733 -0.006342 -0.006413 0.000000 0.000000 0.000000
# 2 -0.006342 0.013922 -0.001250 0.000000 0.000000 0.000000
# 3 -0.006413 -0.001250 0.018617 0.000000 0.000000 0.000000
# 4 0.000000 0.000000 0.000000 0.034273 0.000000 0.000000
# 5 0.000000 0.000000 0.000000 0.000000 0.031716 0.000000
# 6 0.000000 0.000000 0.000000 0.000000 0.000000 0.032856
#
#
# Mechanical properties :
#
#
# Convention : Reuss Voigt Hill
#
# Bulk Modulus (GPa) = 49.35024 53.03540 51.19282
# Shear Modulus (GPa) = 27.49045 28.48360 27.98702
#
# Velocity S-wave (km/s) = 3.74672 3.81380 3.78041
# Velocity P-wave (km/s) = 6.62704 6.81731 6.72285
#
# Compressibility (1/GPa) = 0.02026332
#
# Stress axis : x y z
#
# Youngs Moduli (GPa) = 63.56071 71.82846 53.71307
#
# Poissons Ratio (x) = 0.45556 0.34444
# Poissons Ratio (y) = 0.40313 0.06712
# Poissons Ratio (z) = 0.40759 0.08976
#
# Static dielectric constant tensor:
#      x y z
#    x 3.380390 0.000000 0.000000 
#    y 0.000000 4.270690 0.000000 
#    z 0.000000 0.000000 3.491410 
# 
# 
# High freq. dielectric constant tensor:
#      x y z
#    x 1.754100 0.000000 0.000000 
#    y 0.000000 1.762520 0.000000 
#    z 0.000000 0.000000 1.764590 
# 
# From -- ./inp_files/15670.got.cif
#   From: 2010.03.12/outbox.cif.g09.slc.cpg/sg40_8_cif.got.tgz:15670.got - 2010.04.14 01:38:03.
