data_PCOD8184377
_publ_section_title
;
Structure prediction by ZEFSAII (Michael W. Deem and Ramdas Pophale) SiO2 
 PCOD8184377
Probable space group: A M A 2
;
_chemical_formula_sum "Si O2"
_cell_formula_units_Z 64
_cell_length_a 17.002593
_cell_length_b 13.064005
_cell_length_c 14.653892
_cell_angle_alpha 90.000000
_cell_angle_beta 90.000000
_cell_angle_gamma 90.000000
_cell_volume 3254.951212
_symmetry_space_group_name_H-M "A M A 2"
_symmetry_group_IT_number 40
_symmetry_cell_setting 'orthorhombic'
loop_
_space_group_symop_operation_xyz
x,y,z
-x,-y,z
1/2-x,y,z
1/2+x,-y,z
x,1/2+y,1/2+z
-x,1/2-y,1/2+z
1/2-x,1/2+y,1/2+z
1/2+x,1/2-y,1/2+z
loop_
_atom_site_type_symbol
_atom_site_label
_atom_site_fract_x
_atom_site_fract_y
_atom_site_fract_z
Si Si1 0.948004 0.601200 0.712510
Si Si2 0.343544 0.329960 0.551774
Si Si3 0.378815 0.623952 0.309072
Si Si4 0.840858 0.603580 0.350733
Si Si5 0.342333 0.837341 0.378255
Si Si6 0.335094 0.614006 0.113232
Si Si7 0.931602 0.067996 0.545741
Si Si8 0.532902 0.187263 0.721560
O O1 0.895335 0.601982 0.620821
O O2 0.887046 0.605850 0.796273
O O3 0.000000 0.500000 0.715883
O O4 0.009879 0.693979 0.719535
O O5 0.250000 0.343982 0.571866
O O6 0.366951 0.358124 0.449654
O O7 0.371100 0.212008 0.561849
O O8 0.357976 0.516734 0.353818
O O9 0.357842 0.715359 0.378551
O O10 0.327094 0.644725 0.219143
O O11 0.470014 0.623015 0.280109
O O12 0.750000 0.624794 0.331580
O O13 0.884501 0.667721 0.271838
O O14 0.250000 0.862658 0.372630
O O15 0.376400 0.878549 0.472919
O O16 0.250000 0.591261 0.071181
O O17 0.384018 0.511410 0.107377
O O18 0.966265 0.150242 0.616656
O O19 0.000000 0.000000 0.497248
#
# Coordination Sequence:
#
# PCOD8184377 Si02
#       8
#     8   8   8   8   8   8   8   8
#     4  11  24  42  62  87 121 169 208 251 312 375
#     4  10  22  40  63  90 122 162 210 255 300 371
#     4  11  21  40  65  91 120 164 212 254 303 365
#     4  11  23  38  63  97 128 159 204 260 314 365
#     4  11  24  40  62  91 123 162 211 257 304 367
#     4  11  20  37  66  89 118 167 211 248 300 367
#     4  12  22  38  61  94 129 158 203 262 315 364
#     4  11  23  41  63  91 123 161 210 261 309 363
#
# _framework density 19.662353
#
# number of rings (size 3 to 8) (size 9 to 14) (size 15 to 20)
#    0.000    1.000    5.000    2.625    0.000    7.500 
#    0.000    2.500    0.000    0.000    0.000    0.000 
#    0.000    0.000    0.000    0.000    0.000    0.000 
#
# Total GULP energy -396783.408404 kJ/mol
# GULP energy per Si atom -12399.481513 kJ/mol
# Density = 1.961760 g / cm^3
# Si number density = 19.662353 Si / 1000 Ang^3
#
#
#
# Elastic Constant Matrix: (Units=GPa)
#
#
# Indices 1 2 3 4 5 6 
#
# 1 112.5984 55.7264 47.6084 0.0000 0.0000 0.0000
# 2 55.7264 110.4241 63.6039 0.0000 0.0000 0.0000
# 3 47.6084 63.6039 99.0395 0.0000 0.0000 0.0000
# 4 0.0000 0.0000 0.0000 17.7547 0.0000 0.0000
# 5 0.0000 0.0000 0.0000 0.0000 34.9565 0.0000
# 6 0.0000 0.0000 0.0000 0.0000 0.0000 27.4852
#
#
#
# Elastic Compliance Matrix: (Units=1/GPa)
#
#
# Indices 1 2 3 4 5 6 
#
# 1 0.012404 -0.004484 -0.003083 0.000000 0.000000 0.000000
# 2 -0.004484 0.015993 -0.008116 0.000000 0.000000 0.000000
# 3 -0.003083 -0.008116 0.016791 0.000000 0.000000 0.000000
# 4 0.000000 0.000000 0.000000 0.056323 0.000000 0.000000
# 5 0.000000 0.000000 0.000000 0.000000 0.028607 0.000000
# 6 0.000000 0.000000 0.000000 0.000000 0.000000 0.036383
#
#
# Mechanical properties :
#
#
# Convention : Reuss Voigt Hill
#
# Bulk Modulus (GPa) = 72.34270 72.88216 72.61243
# Shear Modulus (GPa) = 24.69452 26.38084 25.53768
#
# Velocity S-wave (km/s) = 3.54775 3.66689 3.60781
# Velocity P-wave (km/s) = 7.32492 7.42128 7.37326
#
# Compressibility (1/GPa) = 0.01382309
#
# Stress axis : x y z
#
# Youngs Moduli (GPa) = 80.62059 62.52556 59.55605
#
# Poissons Ratio (x) = 0.28036 0.18361
# Poissons Ratio (y) = 0.36150 0.48334
# Poissons Ratio (z) = 0.24855 0.50744
#
# Static dielectric constant tensor:
#      x y z
#    x 3.747150 0.000000 0.000000 
#    y 0.000000 3.781130 0.000000 
#    z 0.000000 0.000000 3.489060 
# 
# 
# High freq. dielectric constant tensor:
#      x y z
#    x 1.781990 0.000000 0.000000 
#    y 0.000000 1.764900 0.000000 
#    z 0.000000 0.000000 1.759320 
# 
# From -- ./inp_files/17900.got.cif
#   From: 2010.03.12/outbox.cif.g09.slc.cpg/sg40_9_cif.got.tgz:17900.got - 2010.04.14 01:38:03.
