data_PCOD8184565
_publ_section_title
;
Structure prediction by ZEFSAII (Michael W. Deem and Ramdas Pophale) SiO2 
 PCOD8184565
Probable space group: A M A 2
;
_chemical_formula_sum "Si O2"
_cell_formula_units_Z 48
_cell_length_a 17.164599
_cell_length_b 9.975503
_cell_length_c 15.563669
_cell_angle_alpha 90.000000
_cell_angle_beta 90.000000
_cell_angle_gamma 90.000000
_cell_volume 2664.897144
_symmetry_space_group_name_H-M "A M A 2"
_symmetry_group_IT_number 40
_symmetry_cell_setting 'orthorhombic'
loop_
_space_group_symop_operation_xyz
x,y,z
-x,-y,z
1/2-x,y,z
1/2+x,-y,z
x,1/2+y,1/2+z
-x,1/2-y,1/2+z
1/2-x,1/2+y,1/2+z
1/2+x,1/2-y,1/2+z
loop_
_atom_site_type_symbol
_atom_site_label
_atom_site_fract_x
_atom_site_fract_y
_atom_site_fract_z
Si Si1 0.158312 0.324874 0.602220
Si Si2 0.165376 0.551163 0.168598
Si Si3 0.835220 0.291343 0.347873
Si Si4 0.451458 0.868666 0.256129
Si Si5 0.442975 0.381703 0.263801
Si Si6 0.340977 0.434742 0.419246
O O1 0.250000 0.353460 0.621325
O O2 0.142543 0.163841 0.598334
O O3 0.105594 0.395257 0.675361
O O4 0.131136 0.383268 0.511474
O O5 0.250000 0.488856 0.147409
O O6 0.167806 0.631797 0.257665
O O7 0.104132 0.430160 0.178246
O O8 0.750000 0.229065 0.368928
O O9 0.899614 0.173605 0.339954
O O10 0.857967 0.404728 0.417648
O O11 0.511759 0.750081 0.234777
O O12 0.500000 0.000000 0.279623
O O13 0.500000 0.500000 0.293843
O O14 0.386331 0.353806 0.344614
O O15 0.250000 0.406189 0.403666
#
# Coordination Sequence:
#
# PCOD8184565 Si02
#       6
#     8   8   8   8   8   8
#     4   9  17  32  53  78 107 138 177 227 278 323
#     4   8  14  27  49  74  99 134 177 218 261 317
#     4   8  14  29  49  70  98 139 181 213 259 322
#     4  11  21  32  48  79 113 142 181 223 273 317
#     4  11  17  30  53  75 105 139 181 218 266 324
#     4   9  17  30  54  82 102 135 187 231 266 323
#
# _framework density 18.011952000000001
#
# number of rings (size 3 to 8) (size 9 to 14) (size 15 to 20)
#    0.000    2.667    5.000    3.000    0.000    0.667 
#    0.000    3.333    3.667    0.000    0.000    7.000 
#    0.000    0.000    0.000    0.000    0.000    0.000 
#
# Total GULP energy -297379.487819 kJ/mol
# GULP energy per Si atom -12390.811992 kJ/mol
# Density = 1.797096 g / cm^3
# Si number density = 18.011952 Si / 1000 Ang^3
#
#
#
# Elastic Constant Matrix: (Units=GPa)
#
#
# Indices 1 2 3 4 5 6 
#
# 1 103.2372 55.5924 34.9246 0.0000 0.0000 0.0000
# 2 55.5924 100.1165 40.0687 0.0000 0.0000 0.0000
# 3 34.9246 40.0687 78.9483 0.0000 0.0000 0.0000
# 4 0.0000 0.0000 0.0000 30.1195 0.0000 0.0000
# 5 0.0000 0.0000 0.0000 0.0000 15.5479 0.0000
# 6 0.0000 0.0000 0.0000 0.0000 0.0000 31.2313
#
#
#
# Elastic Compliance Matrix: (Units=1/GPa)
#
#
# Indices 1 2 3 4 5 6 
#
# 1 0.014324 -0.006799 -0.002886 0.000000 0.000000 0.000000
# 2 -0.006799 0.015761 -0.004992 0.000000 0.000000 0.000000
# 3 -0.002886 -0.004992 0.016477 0.000000 0.000000 0.000000
# 4 0.000000 0.000000 0.000000 0.033201 0.000000 0.000000
# 5 0.000000 0.000000 0.000000 0.000000 0.064317 0.000000
# 6 0.000000 0.000000 0.000000 0.000000 0.000000 0.032019
#
#
# Mechanical properties :
#
#
# Convention : Reuss Voigt Hill
#
# Bulk Modulus (GPa) = 58.10925 60.38597 59.24761
# Shear Modulus (GPa) = 23.67555 25.49416 24.58485
#
# Velocity S-wave (km/s) = 3.62945 3.76627 3.69849
# Velocity P-wave (km/s) = 7.06367 7.24647 7.15565
#
# Compressibility (1/GPa) = 0.01720897
#
# Stress axis : x y z
#
# Youngs Moduli (GPa) = 69.81423 63.44645 60.69188
#
# Poissons Ratio (x) = 0.43135 0.17515
# Poissons Ratio (y) = 0.47464 0.30296
# Poissons Ratio (z) = 0.20148 0.31671
#
# Static dielectric constant tensor:
#      x y z
#    x 3.826080 0.000000 0.000000 
#    y 0.000000 3.333660 0.000000 
#    z 0.000000 0.000000 3.181490 
# 
# 
# High freq. dielectric constant tensor:
#      x y z
#    x 1.717220 0.000000 0.000000 
#    y 0.000000 1.664820 0.000000 
#    z 0.000000 0.000000 1.654680 
# 
# From -- ./inp_files/17703.got.cif
#   From: 2010.03.12/outbox.cif.g09.slc.cpg/sg40_9_cif.got.tgz:17703.got - 2010.04.14 01:38:03.
