data_PCOD8184231
_publ_section_title
;
Structure prediction by ZEFSAII (Michael W. Deem and Ramdas Pophale) SiO2 
 PCOD8184231
Probable space group: A M A 2
;
_chemical_formula_sum "Si O2"
_cell_formula_units_Z 64
_cell_length_a 17.011351
_cell_length_b 17.750413
_cell_length_c 9.895189
_cell_angle_alpha 90.000000
_cell_angle_beta 90.000000
_cell_angle_gamma 90.000000
_cell_volume 2987.936486
_symmetry_space_group_name_H-M "A M A 2"
_symmetry_group_IT_number 40
_symmetry_cell_setting 'orthorhombic'
loop_
_space_group_symop_operation_xyz
x,y,z
-x,-y,z
1/2-x,y,z
1/2+x,-y,z
x,1/2+y,1/2+z
-x,1/2-y,1/2+z
1/2-x,1/2+y,1/2+z
1/2+x,1/2-y,1/2+z
loop_
_atom_site_type_symbol
_atom_site_label
_atom_site_fract_x
_atom_site_fract_y
_atom_site_fract_z
Si Si1 0.587325 0.981186 0.281560
Si Si2 0.907370 0.989846 0.722442
Si Si3 0.162434 0.013928 0.016133
Si Si4 0.660011 0.581479 0.985351
Si Si5 0.920526 0.727135 0.860663
Si Si6 0.402150 0.689646 0.841519
Si Si7 0.834420 0.811175 0.073739
Si Si8 0.842770 0.826710 0.638967
O O1 0.609229 0.020495 0.137426
O O2 0.589290 0.892505 0.279651
O O3 0.500000 0.000000 0.328546
O O4 0.650335 0.008044 0.392271
O O5 0.883293 0.906330 0.673482
O O6 0.869298 0.056942 0.633906
O O7 0.879924 0.001745 0.875396
O O8 0.000000 0.000000 0.712096
O O9 0.250000 0.977699 0.012113
O O10 0.170739 0.099946 0.058438
O O11 0.750000 0.606971 0.994225
O O12 0.609071 0.645991 0.911938
O O13 0.877652 0.757312 0.725631
O O14 0.013574 0.729105 0.842471
O O15 0.904620 0.786236 0.978249
O O16 0.348366 0.724929 0.723179
O O17 0.358748 0.694290 0.984013
O O18 0.750000 0.777573 0.026628
O O19 0.750000 0.834230 0.666876
#
# Coordination Sequence:
#
# PCOD8184231 Si02
#       8
#     8   8   8   8   8   8   8   8
#     4  11  21  40  62  93 131 168 212 269 331 396
#     4  12  24  41  65  98 131 172 226 290 334 396
#     4  10  21  39  65  92 123 168 221 269 323 398
#     4  12  24  40  65  95 132 173 219 275 336 397
#     4  12  24  43  65  96 135 178 218 275 345 409
#     4  11  23  39  66  97 128 171 222 278 328 399
#     4  10  21  40  64  91 126 169 219 268 328 398
#     4  12  24  43  69  98 136 181 234 280 338 417
#
# _framework density 21.419464000000001
#
# number of rings (size 3 to 8) (size 9 to 14) (size 15 to 20)
#    0.000    0.750    3.750    5.250    0.000    1.000 
#    0.000    1.250    0.000    0.000    0.000    0.000 
#    0.000    0.000    0.000    0.000    0.000    0.000 
#
# Total GULP energy -396631.432735 kJ/mol
# GULP energy per Si atom -12394.732273 kJ/mol
# Density = 2.137071 g / cm^3
# Si number density = 21.419464 Si / 1000 Ang^3
#
#
#
# Elastic Constant Matrix: (Units=GPa)
#
#
# Indices 1 2 3 4 5 6 
#
# 1 124.2951 23.2456 26.6785 0.0000 0.0000 0.0000
# 2 23.2456 33.3857 7.4755 0.0000 0.0000 0.0000
# 3 26.6785 7.4755 150.8573 0.0000 0.0000 0.0000
# 4 0.0000 0.0000 0.0000 29.8692 0.0000 0.0000
# 5 0.0000 0.0000 0.0000 0.0000 35.0582 0.0000
# 6 0.0000 0.0000 0.0000 0.0000 0.0000 26.1953
#
#
#
# Elastic Compliance Matrix: (Units=1/GPa)
#
#
# Indices 1 2 3 4 5 6 
#
# 1 0.009522 -0.006323 -0.001371 0.000000 0.000000 0.000000
# 2 -0.006323 0.034488 -0.000591 0.000000 0.000000 0.000000
# 3 -0.001371 -0.000591 0.006900 0.000000 0.000000 0.000000
# 4 0.000000 0.000000 0.000000 0.033479 0.000000 0.000000
# 5 0.000000 0.000000 0.000000 0.000000 0.028524 0.000000
# 6 0.000000 0.000000 0.000000 0.000000 0.000000 0.038175
#
#
# Mechanical properties :
#
#
# Convention : Reuss Voigt Hill
#
# Bulk Modulus (GPa) = 29.11936 47.03748 38.07842
# Shear Modulus (GPa) = 27.91666 34.96711 31.44189
#
# Velocity S-wave (km/s) = 3.61408 4.04479 3.83549
# Velocity P-wave (km/s) = 5.57134 6.61979 6.11807
#
# Compressibility (1/GPa) = 0.03434141
#
# Stress axis : x y z
#
# Youngs Moduli (GPa) = 105.01892 28.99573 144.91826
#
# Poissons Ratio (x) = 0.18334 0.19863
# Poissons Ratio (y) = 0.66404 0.08561
# Poissons Ratio (z) = 0.14394 0.01713
#
# Static dielectric constant tensor:
#      x y z
#    x 3.596880 0.000000 0.000000 
#    y 0.000000 3.814630 0.000000 
#    z 0.000000 0.000000 4.185430 
# 
# 
# High freq. dielectric constant tensor:
#      x y z
#    x 1.855290 0.000000 0.000000 
#    y 0.000000 1.817020 0.000000 
#    z 0.000000 0.000000 1.860930 
# 
# From -- ./inp_files/7815.got.cif
#   From: 2010.03.12/outbox.cif.g09.slc.cpg/sg40_4_cif.got.tgz:7815.got - 2010.04.14 01:38:03.
