data_PCOD8184385
_publ_section_title
;
Structure prediction by ZEFSAII (Michael W. Deem and Ramdas Pophale) SiO2 
 PCOD8184385
Probable space group: A M A 2
;
_chemical_formula_sum "Si O2"
_cell_formula_units_Z 56
_cell_length_a 13.995073
_cell_length_b 14.552497
_cell_length_c 13.466570
_cell_angle_alpha 90.000000
_cell_angle_beta 90.000000
_cell_angle_gamma 90.000000
_cell_volume 2742.645518
_symmetry_space_group_name_H-M "A M A 2"
_symmetry_group_IT_number 40
_symmetry_cell_setting 'orthorhombic'
loop_
_space_group_symop_operation_xyz
x,y,z
-x,-y,z
1/2-x,y,z
1/2+x,-y,z
x,1/2+y,1/2+z
-x,1/2-y,1/2+z
1/2-x,1/2+y,1/2+z
1/2+x,1/2-y,1/2+z
loop_
_atom_site_type_symbol
_atom_site_label
_atom_site_fract_x
_atom_site_fract_y
_atom_site_fract_z
Si Si1 0.360126 0.331501 0.908550
Si Si2 0.034981 0.685952 0.032115
Si Si3 0.854826 0.955209 0.404143
Si Si4 0.641633 0.954641 0.980914
Si Si5 0.421901 0.576967 0.696775
Si Si6 0.952905 0.640672 0.419268
Si Si7 0.019962 0.740298 0.240375
O O1 0.250000 0.306958 0.928881
O O2 0.379238 0.438465 0.891773
O O3 0.395171 0.278697 0.809491
O O4 0.422236 0.303190 0.004756
O O5 0.055968 0.676024 0.149590
O O6 0.072418 0.595014 0.977495
O O7 0.085450 0.778267 0.990694
O O8 0.750000 0.941017 0.449832
O O9 0.856229 0.912965 0.293725
O O10 0.750000 0.929961 0.947535
O O11 0.637471 0.953609 0.100339
O O12 0.565241 0.882828 0.938016
O O13 0.615538 0.054756 0.937640
O O14 0.500000 0.500000 0.718153
O O15 0.468941 0.676624 0.681660
O O16 0.947468 0.678539 0.306336
#
# Coordination Sequence:
#
# PCOD8184385 Si02
#       7
#     8   8   8   8   8   8   8
#     4  10  22  40  64  92 123 163 209 251 303 373
#     4  11  21  41  64  89 126 165 203 257 308 358
#     4  11  22  37  61  94 127 162 203 251 304 365
#     4  11  23  41  63  86 122 164 202 251 307 368
#     4  12  18  38  66  92 121 158 202 246 308 366
#     4  10  22  41  61  91 122 156 212 249 304 366
#     4  11  22  39  67  90 123 162 201 257 307 357
#
# _framework density 20.418240999999998
#
# number of rings (size 3 to 8) (size 9 to 14) (size 15 to 20)
#    0.000    1.143    7.143    0.857    0.000    3.429 
#    5.143    0.714    0.000    0.000    0.000    0.000 
#    0.000    0.000    0.000    0.000    0.000    0.000 
#
# Total GULP energy -347072.181112 kJ/mol
# GULP energy per Si atom -12395.435040 kJ/mol
# Density = 2.037177 g / cm^3
# Si number density = 20.418241 Si / 1000 Ang^3
#
#
#
# Elastic Constant Matrix: (Units=GPa)
#
#
# Indices 1 2 3 4 5 6 
#
# 1 87.3725 21.4355 23.5487 0.0000 0.0000 0.0000
# 2 21.4355 64.3811 41.6511 0.0000 0.0000 0.0000
# 3 23.5487 41.6511 137.0642 0.0000 0.0000 0.0000
# 4 0.0000 0.0000 0.0000 24.7215 0.0000 0.0000
# 5 0.0000 0.0000 0.0000 0.0000 16.0651 0.0000
# 6 0.0000 0.0000 0.0000 0.0000 0.0000 18.5895
#
#
#
# Elastic Compliance Matrix: (Units=1/GPa)
#
#
# Indices 1 2 3 4 5 6 
#
# 1 0.012597 -0.003478 -0.001107 0.000000 0.000000 0.000000
# 2 -0.003478 0.020293 -0.005569 0.000000 0.000000 0.000000
# 3 -0.001107 -0.005569 0.009179 0.000000 0.000000 0.000000
# 4 0.000000 0.000000 0.000000 0.040451 0.000000 0.000000
# 5 0.000000 0.000000 0.000000 0.000000 0.062247 0.000000
# 6 0.000000 0.000000 0.000000 0.000000 0.000000 0.053794
#
#
# Mechanical properties :
#
#
# Convention : Reuss Voigt Hill
#
# Bulk Modulus (GPa) = 45.95573 51.34316 48.64945
# Shear Modulus (GPa) = 22.11196 25.35406 23.73301
#
# Velocity S-wave (km/s) = 3.29439 3.52765 3.41301
# Velocity P-wave (km/s) = 6.08496 6.46473 6.27772
#
# Compressibility (1/GPa) = 0.02176007
#
# Stress axis : x y z
#
# Youngs Moduli (GPa) = 79.38456 49.27715 108.95003
#
# Poissons Ratio (x) = 0.17137 0.12066
# Poissons Ratio (y) = 0.27607 0.60677
# Poissons Ratio (z) = 0.08792 0.27444
#
# Static dielectric constant tensor:
#      x y z
#    x 3.527230 0.000000 0.000000 
#    y 0.000000 3.829070 0.000000 
#    z 0.000000 0.000000 3.619400 
# 
# 
# High freq. dielectric constant tensor:
#      x y z
#    x 1.773620 0.000000 0.000000 
#    y 0.000000 1.812500 0.000000 
#    z 0.000000 0.000000 1.790600 
# 
# From -- ./inp_files/17161.got.cif
#   From: 2010.03.12/outbox.cif.g09.slc.cpg/sg40_9_cif.got.tgz:17161.got - 2010.04.14 01:38:03.
