data_PCOD8184401
_publ_section_title
;
Structure prediction by ZEFSAII (Michael W. Deem and Ramdas Pophale) SiO2 
 PCOD8184401
Probable space group: A M A 2
;
_chemical_formula_sum "Si O2"
_cell_formula_units_Z 56
_cell_length_a 9.230425
_cell_length_b 15.369077
_cell_length_c 19.555907
_cell_angle_alpha 90.000000
_cell_angle_beta 90.000000
_cell_angle_gamma 90.000000
_cell_volume 2774.261836
_symmetry_space_group_name_H-M "A M A 2"
_symmetry_group_IT_number 40
_symmetry_cell_setting 'orthorhombic'
loop_
_space_group_symop_operation_xyz
x,y,z
-x,-y,z
1/2-x,y,z
1/2+x,-y,z
x,1/2+y,1/2+z
-x,1/2-y,1/2+z
1/2-x,1/2+y,1/2+z
1/2+x,1/2-y,1/2+z
loop_
_atom_site_type_symbol
_atom_site_label
_atom_site_fract_x
_atom_site_fract_y
_atom_site_fract_z
Si Si1 0.413313 0.753289 0.835990
Si Si2 0.091522 0.885685 0.994281
Si Si3 0.090109 0.421532 0.643883
Si Si4 0.078709 0.409791 0.095845
Si Si5 0.914681 0.813783 0.479420
Si Si6 0.413067 0.740672 0.679860
Si Si7 0.080705 0.580386 0.367008
O O1 0.250000 0.787371 0.850683
O O2 0.453081 0.685263 0.897213
O O3 0.423545 0.716498 0.760042
O O4 0.527124 0.831025 0.834256
O O5 0.250000 0.895585 0.957716
O O6 0.097255 0.940588 0.063410
O O7 0.063488 0.783417 0.007877
O O8 0.963096 0.921958 0.947061
O O9 0.250000 0.420447 0.677160
O O10 0.000000 0.500000 0.679228
O O11 0.020355 0.327210 0.646813
O O12 0.250000 0.426347 0.089800
O O13 0.043739 0.338590 0.155798
O O14 0.000000 0.500000 0.116136
O O15 0.020683 0.376819 0.021973
O O16 0.750000 0.846276 0.490829
O O17 0.250000 0.722871 0.653964
O O18 0.250000 0.570804 0.357244
O O19 0.000000 0.500000 0.329535
#
# Coordination Sequence:
#
# PCOD8184401 Si02
#       7
#     8   8   8   8   8   8   8
#     4   9  20  39  60  81 113 155 196 242 305 364
#     4   9  18  33  54  81 113 148 182 228 286 341
#     4  11  22  36  57  85 117 152 191 237 291 353
#     4  11  23  38  61  91 123 160 205 255 305 363
#     4   9  17  35  60  85 114 149 191 241 294 350
#     4  10  22  41  62  87 120 158 199 250 307 365
#     4  11  21  32  50  78 112 148 189 235 284 346
#
# _framework density 20.185549000000002
#
# number of rings (size 3 to 8) (size 9 to 14) (size 15 to 20)
#    0.000    2.000    1.429    3.429    0.000    6.286 
#    0.000    2.143    0.000    0.000    0.000    0.000 
#    0.000    0.000    0.000    0.000    0.000    0.000 
#
# Total GULP energy -346940.311878 kJ/mol
# GULP energy per Si atom -12390.725424 kJ/mol
# Density = 2.013961 g / cm^3
# Si number density = 20.185549 Si / 1000 Ang^3
#
#
#
# Elastic Constant Matrix: (Units=GPa)
#
#
# Indices 1 2 3 4 5 6 
#
# 1 135.9318 55.0938 20.6915 0.0000 0.0000 0.0000
# 2 55.0938 92.6317 14.3768 0.0000 0.0000 0.0000
# 3 20.6915 14.3768 77.2100 0.0000 0.0000 0.0000
# 4 0.0000 0.0000 0.0000 13.8662 0.0000 0.0000
# 5 0.0000 0.0000 0.0000 0.0000 19.3358 0.0000
# 6 0.0000 0.0000 0.0000 0.0000 0.0000 33.0348
#
#
#
# Elastic Compliance Matrix: (Units=1/GPa)
#
#
# Indices 1 2 3 4 5 6 
#
# 1 0.009882 -0.005629 -0.001600 0.000000 0.000000 0.000000
# 2 -0.005629 0.014323 -0.001159 0.000000 0.000000 0.000000
# 3 -0.001600 -0.001159 0.013596 0.000000 0.000000 0.000000
# 4 0.000000 0.000000 0.000000 0.072118 0.000000 0.000000
# 5 0.000000 0.000000 0.000000 0.000000 0.051718 0.000000
# 6 0.000000 0.000000 0.000000 0.000000 0.000000 0.030271
#
#
# Mechanical properties :
#
#
# Convention : Reuss Voigt Hill
#
# Bulk Modulus (GPa) = 47.56018 54.01086 50.78552
# Shear Modulus (GPa) = 23.18133 27.62146 25.40139
#
# Velocity S-wave (km/s) = 3.39250 3.70317 3.55123
# Velocity P-wave (km/s) = 6.24164 6.71565 6.48298
#
# Compressibility (1/GPa) = 0.02102599
#
# Stress axis : x y z
#
# Youngs Moduli (GPa) = 101.19830 69.81740 73.54988
#
# Poissons Ratio (x) = 0.39299 0.11768
# Poissons Ratio (y) = 0.56963 0.08521
# Poissons Ratio (z) = 0.16192 0.08089
#
# Static dielectric constant tensor:
#      x y z
#    x 3.708680 0.000000 0.000000 
#    y 0.000000 3.515890 0.000000 
#    z 0.000000 0.000000 3.583950 
# 
# 
# High freq. dielectric constant tensor:
#      x y z
#    x 1.791490 0.000000 0.000000 
#    y 0.000000 1.775000 0.000000 
#    z 0.000000 0.000000 1.770150 
# 
# From -- ./inp_files/22133.got.cif
#   From: 2010.03.12/outbox.cif.g09.slc.cpg/sg40_12_cif.got.tgz:22133.got - 2010.04.14 01:38:03.
