data_PCOD8184987
_publ_section_title
;
Structure prediction by ZEFSAII (Michael W. Deem and Ramdas Pophale) SiO2 
 PCOD8184987
Probable space group: A B A 2
;
_chemical_formula_sum "Si O2"
_cell_formula_units_Z 56
_cell_length_a 16.308820
_cell_length_b 11.706686
_cell_length_c 13.662420
_cell_angle_alpha 90.000000
_cell_angle_beta 90.000000
_cell_angle_gamma 90.000000
_cell_volume 2608.459759
_symmetry_space_group_name_H-M "A B A 2"
_symmetry_group_IT_number 41
_symmetry_cell_setting 'orthorhombic'
loop_
_space_group_symop_operation_xyz
x,y,z
-x,-y,z
1/2-x,y,1/2+z
1/2+x,-y,1/2+z
x,1/2+y,1/2+z
-x,1/2-y,1/2+z
1/2-x,1/2+y,z
1/2+x,1/2-y,z
loop_
_atom_site_type_symbol
_atom_site_label
_atom_site_fract_x
_atom_site_fract_y
_atom_site_fract_z
Si Si1 0.830660 0.096191 0.918120
Si Si2 0.639289 0.258140 0.093673
Si Si3 0.999785 0.865598 0.971215
Si Si4 0.412879 0.500794 0.593495
Si Si5 0.898111 0.390656 0.292294
Si Si6 0.728257 0.292747 0.291971
Si Si7 0.268699 0.593215 0.485504
O O1 0.777193 0.170778 0.844401
O O2 0.903466 0.170780 0.969906
O O3 0.869929 0.996073 0.856415
O O4 0.774835 0.031025 0.998911
O O5 0.631755 0.121640 0.098163
O O6 0.665910 0.304257 0.200692
O O7 0.709729 0.301090 0.017980
O O8 0.550843 0.306679 0.059517
O O9 0.963123 0.827728 0.864349
O O10 0.000000 0.000000 0.991463
O O11 0.500000 0.500000 0.535181
O O12 0.439266 0.556515 0.696819
O O13 0.351782 0.591823 0.546081
O O14 0.823004 0.308635 0.259969
O O15 0.706923 0.390164 0.371709
#
# Coordination Sequence:
#
# PCOD8184987 Si02
#       7
#     8   8   8   8   8   8   8
#     4  10  20  40  68  87 131 169 218 276 332 399
#     4  12  23  41  69  97 129 176 230 270 335 415
#     4  10  20  40  68  94 125 174 226 269 328 412
#     4  12  26  43  64  98 138 176 225 284 336 402
#     4  10  20  39  65  92 126 168 223 268 330 398
#     4  11  22  39  64  98 126 169 223 279 332 397
#     4  11  24  43  66  96 131 176 219 283 338 399
#
# _framework density 21.468608
#
# number of rings (size 3 to 8) (size 9 to 14) (size 15 to 20)
#    0.000    1.143    7.143    2.143    2.000    0.000 
#    0.000    0.714    6.286    0.000    0.000    0.000 
#    0.000    0.000    0.000    0.000    0.000    0.000 
#
# Total GULP energy -346911.247811 kJ/mol
# GULP energy per Si atom -12389.687422 kJ/mol
# Density = 2.141974 g / cm^3
# Si number density = 21.468608 Si / 1000 Ang^3
#
#
#
# Elastic Constant Matrix: (Units=GPa)
#
#
# Indices 1 2 3 4 5 6 
#
# 1 106.9115 28.6010 41.7189 0.0000 0.0000 0.0000
# 2 28.6010 59.3804 30.2963 0.0000 0.0000 0.0000
# 3 41.7189 30.2963 101.1851 0.0000 0.0000 0.0000
# 4 0.0000 0.0000 0.0000 19.2651 0.0000 0.0000
# 5 0.0000 0.0000 0.0000 0.0000 30.7645 0.0000
# 6 0.0000 0.0000 0.0000 0.0000 0.0000 -608.9789
#
#
#
# Elastic Compliance Matrix: (Units=1/GPa)
#
#
# Indices 1 2 3 4 5 6 
#
# 1 0.011827 -0.003787 -0.003742 0.000000 0.000000 0.000000
# 2 -0.003787 0.021090 -0.004753 0.000000 0.000000 0.000000
# 3 -0.003742 -0.004753 0.012849 0.000000 0.000000 0.000000
# 4 0.000000 0.000000 0.000000 0.051907 0.000000 0.000000
# 5 0.000000 0.000000 0.000000 0.000000 0.032505 0.000000
# 6 0.000000 0.000000 0.000000 0.000000 0.000000 -0.001642
#
#
# Mechanical properties :
#
#
# Convention : Reuss Voigt Hill
#
# Bulk Modulus (GPa) = 47.16876 52.07880 49.62378
# Shear Modulus (GPa) = 31.21715 -100.66582 -34.72434
#
# Velocity S-wave (km/s) = 3.81738 -6.85504 -4.02611
# Velocity P-wave (km/s) = 6.43806 6.19231 1.24578
#
# Compressibility (1/GPa) = 0.02120047
#
# Stress axis : x y z
#
# Youngs Moduli (GPa) = 84.55211 47.41634 77.82688
#
# Poissons Ratio (x) = 0.17957 0.29126
# Poissons Ratio (y) = 0.32021 0.36992
# Poissons Ratio (z) = 0.31643 0.22538
#
# Static dielectric constant tensor:
#      x y z
#    x 4.582740 0.000000 0.000000 
#    y 0.000000 4.083640 0.000000 
#    z 0.000000 0.000000 4.143120 
# 
# 
# High freq. dielectric constant tensor:
#      x y z
#    x 1.856690 0.000000 0.000000 
#    y 0.000000 1.826390 0.000000 
#    z 0.000000 0.000000 1.827300 
# 
# From -- ./inp_files/8378.got.cif
#   From: 2010.03.12/outbox.cif.g09.slc.cpg/sg41_5_cif.got.tgz:8378.got - 2010.04.14 01:55:53.
