data_PCOD8184032
_publ_section_title
;
Structure prediction by ZEFSAII (Michael W. Deem and Ramdas Pophale) SiO2 
 PCOD8184032
Probable space group: A M A 2
;
_chemical_formula_sum "Si O2"
_cell_formula_units_Z 64
_cell_length_a 16.046573
_cell_length_b 15.496756
_cell_length_c 10.994699
_cell_angle_alpha 90.000000
_cell_angle_beta 90.000000
_cell_angle_gamma 90.000000
_cell_volume 2734.049892
_symmetry_space_group_name_H-M "A M A 2"
_symmetry_group_IT_number 40
_symmetry_cell_setting 'orthorhombic'
loop_
_space_group_symop_operation_xyz
x,y,z
-x,-y,z
1/2-x,y,z
1/2+x,-y,z
x,1/2+y,1/2+z
-x,1/2-y,1/2+z
1/2-x,1/2+y,1/2+z
1/2+x,1/2-y,1/2+z
loop_
_atom_site_type_symbol
_atom_site_label
_atom_site_fract_x
_atom_site_fract_y
_atom_site_fract_z
Si Si1 0.156428 0.042570 0.842010
Si Si2 0.441531 0.783129 0.591652
Si Si3 0.949032 0.791333 0.838568
Si Si4 0.846922 0.217428 0.156495
Si Si5 0.848813 0.364320 0.977792
Si Si6 0.152003 0.637993 0.707946
Si Si7 0.344908 0.965793 0.095964
Si Si8 0.846237 0.042394 0.588111
O O1 0.250000 0.085247 0.835665
O O2 0.081918 0.110826 0.856056
O O3 0.142222 0.981714 0.727834
O O4 0.150546 0.976532 0.952240
O O5 0.492656 0.781836 0.718406
O O6 0.485372 0.748892 0.464843
O O7 0.367974 0.714544 0.614999
O O8 0.404766 0.876525 0.560488
O O9 0.866430 0.737531 0.797379
O O10 0.750000 0.213536 0.128808
O O11 0.887126 0.294661 0.072644
O O12 0.889858 0.125361 0.124736
O O13 0.750000 0.361459 0.989736
O O14 0.879153 0.460849 0.009974
O O15 0.880534 0.340768 0.843301
O O16 0.250000 0.626256 0.707432
O O17 0.111682 0.547200 0.662980
O O18 0.250000 0.959047 0.142373
O O19 0.750000 0.064483 0.557460
#
# Coordination Sequence:
#
# PCOD8184032 Si02
#       8
#     8   8   8   8   8   8   8   8
#     4  10  20  41  70  98 129 167 222 281 335 393
#     4  12  29  45  66  95 137 183 227 276 330 401
#     4  12  27  46  65  94 136 182 227 275 333 397
#     4  10  21  40  70 100 131 172 219 277 334 393
#     4   9  19  36  64 102 137 166 206 269 336 394
#     4  10  21  40  66  97 134 172 216 277 336 390
#     4   9  19  35  64 102 130 162 214 273 334 388
#     4  10  22  41  70 105 131 167 220 275 336 400
#
# _framework density 23.408496
#
# number of rings (size 3 to 8) (size 9 to 14) (size 15 to 20)
#    0.000    1.750    2.500    0.750    5.250    2.000 
#    0.000    0.625    0.000    0.000    0.000    0.000 
#    0.000    0.000    0.000    0.000    0.000    0.000 
#
# Total GULP energy -396506.363780 kJ/mol
# GULP energy per Si atom -12390.823868 kJ/mol
# Density = 2.335522 g / cm^3
# Si number density = 23.408496 Si / 1000 Ang^3
#
#
#
# Elastic Constant Matrix: (Units=GPa)
#
#
# Indices 1 2 3 4 5 6 
#
# 1 27.0893 19.3746 23.2771 0.0000 0.0000 0.0000
# 2 19.3746 154.7246 39.8616 0.0000 0.0000 0.0000
# 3 23.2771 39.8616 123.0695 0.0000 0.0000 0.0000
# 4 0.0000 0.0000 0.0000 29.3955 0.0000 0.0000
# 5 0.0000 0.0000 0.0000 0.0000 32.3398 0.0000
# 6 0.0000 0.0000 0.0000 0.0000 0.0000 14.0516
#
#
#
# Elastic Compliance Matrix: (Units=1/GPa)
#
#
# Indices 1 2 3 4 5 6 
#
# 1 0.046085 -0.003846 -0.007471 0.000000 0.000000 0.000000
# 2 -0.003846 0.007372 -0.001660 0.000000 0.000000 0.000000
# 3 -0.007471 -0.001660 0.010076 0.000000 0.000000 0.000000
# 4 0.000000 0.000000 0.000000 0.034019 0.000000 0.000000
# 5 0.000000 0.000000 0.000000 0.000000 0.030922 0.000000
# 6 0.000000 0.000000 0.000000 0.000000 0.000000 0.071166
#
#
# Mechanical properties :
#
#
# Convention : Reuss Voigt Hill
#
# Bulk Modulus (GPa) = 26.61039 52.21225 39.41132
# Shear Modulus (GPa) = 20.99767 29.98206 25.48986
#
# Velocity S-wave (km/s) = 2.99826 3.58274 3.30345
# Velocity P-wave (km/s) = 4.83514 6.28235 5.60565
#
# Compressibility (1/GPa) = 0.03757930
#
# Stress axis : x y z
#
# Youngs Moduli (GPa) = 21.69900 135.63940 99.24276
#
# Poissons Ratio (x) = 0.52168 0.74141
# Poissons Ratio (y) = 0.08346 0.16479
# Poissons Ratio (z) = 0.16211 0.22522
#
# Static dielectric constant tensor:
#      x y z
#    x 3.951060 0.000000 0.000000 
#    y 0.000000 4.386760 0.000000 
#    z 0.000000 0.000000 4.514500 
# 
# 
# High freq. dielectric constant tensor:
#      x y z
#    x 1.900500 0.000000 0.000000 
#    y 0.000000 1.933800 0.000000 
#    z 0.000000 0.000000 1.935920 
# 
# From -- ./inp_files/13148.got.cif
#   From: 2010.03.12/outbox.cif.g09.slc.cpg/sg40_7_cif.got.tgz:13148.got - 2010.04.14 01:38:03.
