data_PCOD8184444
_publ_section_title
;
Structure prediction by ZEFSAII (Michael W. Deem and Ramdas Pophale) SiO2 
 PCOD8184444
Probable space group: A M A 2
;
_chemical_formula_sum "Si O2"
_cell_formula_units_Z 60
_cell_length_a 25.564339
_cell_length_b 11.967085
_cell_length_c 9.091300
_cell_angle_alpha 90.000000
_cell_angle_beta 90.000000
_cell_angle_gamma 90.000000
_cell_volume 2781.307025
_symmetry_space_group_name_H-M "A M A 2"
_symmetry_group_IT_number 40
_symmetry_cell_setting 'orthorhombic'
loop_
_space_group_symop_operation_xyz
x,y,z
-x,-y,z
1/2-x,y,z
1/2+x,-y,z
x,1/2+y,1/2+z
-x,1/2-y,1/2+z
1/2-x,1/2+y,1/2+z
1/2+x,1/2-y,1/2+z
loop_
_atom_site_type_symbol
_atom_site_label
_atom_site_fract_x
_atom_site_fract_y
_atom_site_fract_z
Si Si1 0.500000 0.500000 0.006630
Si Si2 0.810044 0.946088 0.512987
Si Si3 0.371372 0.957652 0.937945
Si Si4 0.907173 0.879339 0.689242
Si Si5 0.523518 0.693881 0.792405
Si Si6 0.020830 0.381645 0.486437
Si Si7 0.810135 0.161486 0.692998
Si Si8 0.189806 0.593398 0.673386
O O1 0.544874 0.438397 0.101124
O O2 0.530471 0.591252 0.905681
O O3 0.750000 0.909009 0.553784
O O4 0.853542 0.869816 0.594109
O O5 0.819609 0.941824 0.340774
O O6 0.819714 0.073848 0.562572
O O7 0.339626 0.008100 0.071166
O O8 0.396152 0.053045 0.836661
O O9 0.417203 0.886040 0.011181
O O10 0.335547 0.875664 0.844843
O O11 0.922562 0.754264 0.741455
O O12 0.494729 0.649561 0.643876
O O13 0.487679 0.789167 0.862834
O O14 0.000000 0.500000 0.428209
O O15 0.750000 0.177715 0.732527
O O16 0.832833 0.281849 0.645420
O O17 0.250000 0.587177 0.628661
#
# Coordination Sequence:
#
# PCOD8184444 Si02
#       8
#     4   8   8   8   8   8   8   8
#     4  12  26  44  70  98 134 178 228 280 348 412
#     4   9  21  42  67  99 139 179 227 281 340 409
#     4  11  24  40  68  96 131 170 225 275 329 401
#     4  11  24  44  69  98 137 181 224 284 342 404
#     4  12  26  45  69  93 134 176 223 277 342 409
#     4  12  26  45  65  98 132 172 224 277 335 405
#     4   9  20  41  65  94 133 176 215 267 333 390
#     4  10  22  42  67  98 136 175 220 276 333 397
#
# _framework density 21.572592
#
# number of rings (size 3 to 8) (size 9 to 14) (size 15 to 20)
#    0.000    1.333    3.333    1.200    3.733    3.733 
#    0.000    0.000    0.000    7.200    0.000    0.000 
#    0.000    0.000    0.000    0.000    0.000    0.000 
#
# Total GULP energy -371916.661220 kJ/mol
# GULP energy per Si atom -12397.222041 kJ/mol
# Density = 2.152349 g / cm^3
# Si number density = 21.572592 Si / 1000 Ang^3
#
#
#
# Elastic Constant Matrix: (Units=GPa)
#
#
# Indices 1 2 3 4 5 6 
#
# 1 99.6046 42.2932 55.2897 0.0000 0.0000 0.0000
# 2 42.2932 101.3082 43.2253 0.0000 0.0000 0.0000
# 3 55.2897 43.2253 111.4837 0.0000 0.0000 0.0000
# 4 0.0000 0.0000 0.0000 33.8231 0.0000 0.0000
# 5 0.0000 0.0000 0.0000 0.0000 32.3131 0.0000
# 6 0.0000 0.0000 0.0000 0.0000 0.0000 33.3326
#
#
#
# Elastic Compliance Matrix: (Units=1/GPa)
#
#
# Indices 1 2 3 4 5 6 
#
# 1 0.014917 -0.003680 -0.005971 0.000000 0.000000 0.000000
# 2 -0.003680 0.012735 -0.003113 0.000000 0.000000 0.000000
# 3 -0.005971 -0.003113 0.013138 0.000000 0.000000 0.000000
# 4 0.000000 0.000000 0.000000 0.029566 0.000000 0.000000
# 5 0.000000 0.000000 0.000000 0.000000 0.030947 0.000000
# 6 0.000000 0.000000 0.000000 0.000000 0.000000 0.030001
#
#
# Mechanical properties :
#
#
# Convention : Reuss Voigt Hill
#
# Bulk Modulus (GPa) = 65.51879 66.00142 65.76011
# Shear Modulus (GPa) = 30.87977 31.33298 31.10638
#
# Velocity S-wave (km/s) = 3.78754 3.81523 3.80141
# Velocity P-wave (km/s) = 7.04020 7.07597 7.05811
#
# Compressibility (1/GPa) = 0.01526280
#
# Stress axis : x y z
#
# Youngs Moduli (GPa) = 67.03935 78.52275 76.11362
#
# Poissons Ratio (x) = 0.28893 0.45449
# Poissons Ratio (y) = 0.24667 0.23694
# Poissons Ratio (z) = 0.40030 0.24444
#
# Static dielectric constant tensor:
#      x y z
#    x 3.989600 0.000000 0.000000 
#    y 0.000000 4.069420 0.000000 
#    z 0.000000 0.000000 3.955390 
# 
# 
# High freq. dielectric constant tensor:
#      x y z
#    x 1.842110 0.000000 0.000000 
#    y 0.000000 1.854070 0.000000 
#    z 0.000000 0.000000 1.857470 
# 
# From -- ./inp_files/9166.got.cif
#   From: 2010.03.12/outbox.cif.g09.slc.cpg/sg40_5_cif.got.tgz:9166.got - 2010.04.14 01:38:03.
