data_PCOD8184251
_publ_section_title
;
Structure prediction by ZEFSAII (Michael W. Deem and Ramdas Pophale) SiO2 
 PCOD8184251
Probable space group: A M A 2
;
_chemical_formula_sum "Si O2"
_cell_formula_units_Z 64
_cell_length_a 30.416472
_cell_length_b 8.355131
_cell_length_c 11.458828
_cell_angle_alpha 90.000000
_cell_angle_beta 90.000000
_cell_angle_gamma 90.000000
_cell_volume 2912.073304
_symmetry_space_group_name_H-M "A M A 2"
_symmetry_group_IT_number 40
_symmetry_cell_setting 'orthorhombic'
loop_
_space_group_symop_operation_xyz
x,y,z
-x,-y,z
1/2-x,y,z
1/2+x,-y,z
x,1/2+y,1/2+z
-x,1/2-y,1/2+z
1/2-x,1/2+y,1/2+z
1/2+x,1/2-y,1/2+z
loop_
_atom_site_type_symbol
_atom_site_label
_atom_site_fract_x
_atom_site_fract_y
_atom_site_fract_z
Si Si1 0.621066 0.398353 0.727140
Si Si2 0.299377 0.229222 0.110153
Si Si3 0.700395 0.916676 0.639283
Si Si4 0.448408 0.332352 0.128238
Si Si5 0.836570 0.935751 0.888300
Si Si6 0.953405 0.805628 0.657684
Si Si7 0.372646 0.821733 0.044710
Si Si8 0.908143 0.166056 0.373361
O O1 0.668223 0.311111 0.718207
O O2 0.581229 0.274858 0.711984
O O3 0.619993 0.523336 0.622744
O O4 0.614799 0.492418 0.849502
O O5 0.250000 0.201857 0.156196
O O6 0.306843 0.414517 0.072720
O O7 0.307196 0.118720 0.997750
O O8 0.750000 0.852669 0.619900
O O9 0.694085 0.953246 0.776346
O O10 0.666747 0.786959 0.591944
O O11 0.497476 0.260942 0.117283
O O12 0.449360 0.506681 0.186675
O O13 0.429117 0.338236 0.999126
O O14 0.872834 0.804440 0.860517
O O15 0.859949 0.108751 0.916760
O O16 0.919257 0.770319 0.551256
O O17 0.944165 0.701397 0.773471
#
# Coordination Sequence:
#
# PCOD8184251 Si02
#       8
#     8   8   8   8   8   8   8   8
#     4  10  21  40  67  90 125 172 207 263 316 380
#     4  10  22  41  64  96 129 164 213 264 316 381
#     4  11  23  41  65  93 131 167 209 267 316 380
#     4  11  23  44  64  91 134 163 211 269 318 379
#     4  11  22  42  65  92 126 172 209 259 317 383
#     4  10  24  43  63  98 126 164 217 263 318 392
#     4  10  21  40  64  93 126 166 212 261 318 375
#     4  11  23  43  64  94 125 168 215 254 327 376
#
# _framework density 21.977467999999998
#
# number of rings (size 3 to 8) (size 9 to 14) (size 15 to 20)
#    0.000    1.500    5.000    1.125    0.000    7.500 
#    4.500    0.000    0.000    0.000    0.000    0.000 
#    0.000    0.000    0.000    0.000    0.000    0.000 
#
# Total GULP energy -396751.472743 kJ/mol
# GULP energy per Si atom -12398.483523 kJ/mol
# Density = 2.192745 g / cm^3
# Si number density = 21.977468 Si / 1000 Ang^3
#
#
#
# Elastic Constant Matrix: (Units=GPa)
#
#
# Indices 1 2 3 4 5 6 
#
# 1 150.9582 50.0205 8.4110 0.0000 0.0000 0.0000
# 2 50.0205 84.4282 9.6433 0.0000 0.0000 0.0000
# 3 8.4110 9.6433 54.4183 0.0000 0.0000 0.0000
# 4 0.0000 0.0000 0.0000 30.5116 0.0000 0.0000
# 5 0.0000 0.0000 0.0000 0.0000 20.7723 0.0000
# 6 0.0000 0.0000 0.0000 0.0000 0.0000 23.5360
#
#
#
# Elastic Compliance Matrix: (Units=1/GPa)
#
#
# Indices 1 2 3 4 5 6 
#
# 1 0.008252 -0.004841 -0.000418 0.000000 0.000000 0.000000
# 2 -0.004841 0.014929 -0.001897 0.000000 0.000000 0.000000
# 3 -0.000418 -0.001897 0.018777 0.000000 0.000000 0.000000
# 4 0.000000 0.000000 0.000000 0.032774 0.000000 0.000000
# 5 0.000000 0.000000 0.000000 0.000000 0.048141 0.000000
# 6 0.000000 0.000000 0.000000 0.000000 0.000000 0.042488
#
#
# Mechanical properties :
#
#
# Convention : Reuss Voigt Hill
#
# Bulk Modulus (GPa) = 36.17163 47.32826 41.74994
# Shear Modulus (GPa) = 26.47061 29.74598 28.10830
#
# Velocity S-wave (km/s) = 3.47427 3.68295 3.58013
# Velocity P-wave (km/s) = 5.70862 6.29819 6.01064
#
# Compressibility (1/GPa) = 0.02764598
#
# Stress axis : x y z
#
# Youngs Moduli (GPa) = 121.18650 66.98238 53.25685
#
# Poissons Ratio (x) = 0.32427 0.02224
# Poissons Ratio (y) = 0.58668 0.10105
# Poissons Ratio (z) = 0.05060 0.12709
#
# Static dielectric constant tensor:
#      x y z
#    x 4.235690 0.000000 0.000000 
#    y 0.000000 4.472930 0.000000 
#    z 0.000000 0.000000 3.891790 
# 
# 
# High freq. dielectric constant tensor:
#      x y z
#    x 1.871070 0.000000 0.000000 
#    y 0.000000 1.880550 0.000000 
#    z 0.000000 0.000000 1.846390 
# 
# From -- ./inp_files/14417.got.cif
#   From: 2010.03.12/outbox.cif.g09.slc.cpg/sg40_8_cif.got.tgz:14417.got - 2010.04.14 01:38:03.
