data_PCOD8184835
_publ_section_title
;
Structure prediction by ZEFSAII (Michael W. Deem and Ramdas Pophale) SiO2 
 PCOD8184835
Probable space group: A B A 2
;
_chemical_formula_sum "Si O2"
_cell_formula_units_Z 52
_cell_length_a 19.819261
_cell_length_b 9.078084
_cell_length_c 14.458936
_cell_angle_alpha 90.000000
_cell_angle_beta 90.000000
_cell_angle_gamma 90.000000
_cell_volume 2601.465012
_symmetry_space_group_name_H-M "A B A 2"
_symmetry_group_IT_number 41
_symmetry_cell_setting 'orthorhombic'
loop_
_space_group_symop_operation_xyz
x,y,z
-x,-y,z
1/2-x,y,1/2+z
1/2+x,-y,1/2+z
x,1/2+y,1/2+z
-x,1/2-y,1/2+z
1/2-x,1/2+y,z
1/2+x,1/2-y,z
loop_
_atom_site_type_symbol
_atom_site_label
_atom_site_fract_x
_atom_site_fract_y
_atom_site_fract_z
Si Si1 0.647903 0.034597 0.554890
Si Si2 0.396446 0.284547 0.547533
Si Si3 0.717974 0.001270 0.364439
Si Si4 0.161193 0.311400 0.858896
Si Si5 0.500000 0.000000 0.132680
Si Si6 0.113134 0.215439 0.670527
Si Si7 0.210474 0.465676 0.155875
O O1 0.670324 0.058020 0.448163
O O2 0.600156 0.171489 0.585769
O O3 0.712104 0.032295 0.624116
O O4 0.602506 0.889158 0.570552
O O5 0.394669 0.299751 0.437385
O O6 0.463165 0.373205 0.574441
O O7 0.329429 0.347280 0.595459
O O8 0.796098 0.041710 0.380995
O O9 0.699686 0.074095 0.264879
O O10 0.713452 0.825245 0.361138
O O11 0.121919 0.313431 0.762198
O O12 0.554697 0.906319 0.190769
O O13 0.181180 0.129649 0.641485
#
# Coordination Sequence:
#
# PCOD8184835 Si02
#       7
#     8   8   8   8   4   8   8
#     4  11  20  34  59  92 116 150 188 244 292 362
#     4  10  22  38  60  83 120 153 203 234 294 342
#     4  10  21  31  55  90 129 143 179 228 306 357
#     4  10  20  36  57  91 118 153 185 241 296 363
#     4  10  24  46  56  74 114 170 202 252 276 336
#     4  10  22  38  61  82 121 154 200 234 295 343
#     4  10  19  35  56  90 123 153 172 238 301 360
#
# _framework density 19.988737
#
# number of rings (size 3 to 8) (size 9 to 14) (size 15 to 20)
#    0.000    1.846    3.077    0.923    4.308    0.615 
#    0.000    7.692    0.000    0.000    0.000    0.000 
#    0.000    0.000    0.000    0.000    0.000    0.000 
#
# Total GULP energy -322201.869166 kJ/mol
# GULP energy per Si atom -12392.379583 kJ/mol
# Density = 1.994324 g / cm^3
# Si number density = 19.988737 Si / 1000 Ang^3
#
#
#
# Elastic Constant Matrix: (Units=GPa)
#
#
# Indices 1 2 3 4 5 6 
#
# 1 64.2351 27.5595 15.3378 0.0000 0.0000 0.0000
# 2 27.5595 75.0224 43.6018 0.0000 0.0000 0.0000
# 3 15.3378 43.6018 114.0469 0.0000 0.0000 0.0000
# 4 0.0000 0.0000 0.0000 27.7034 0.0000 0.0000
# 5 0.0000 0.0000 0.0000 0.0000 14.5586 0.0000
# 6 0.0000 0.0000 0.0000 0.0000 0.0000 35.2781
#
#
#
# Elastic Compliance Matrix: (Units=1/GPa)
#
#
# Indices 1 2 3 4 5 6 
#
# 1 0.018482 -0.006872 0.000142 0.000000 0.000000 0.000000
# 2 -0.006872 0.019692 -0.006604 0.000000 0.000000 0.000000
# 3 0.000142 -0.006604 0.011274 0.000000 0.000000 0.000000
# 4 0.000000 0.000000 0.000000 0.036097 0.000000 0.000000
# 5 0.000000 0.000000 0.000000 0.000000 0.068688 0.000000
# 6 0.000000 0.000000 0.000000 0.000000 0.000000 0.028346
#
#
# Mechanical properties :
#
#
# Convention : Reuss Voigt Hill
#
# Bulk Modulus (GPa) = 43.89933 47.36694 45.63313
# Shear Modulus (GPa) = 23.05828 26.62838 24.84333
#
# Velocity S-wave (km/s) = 3.40010 3.65385 3.52926
# Velocity P-wave (km/s) = 6.11751 6.44586 6.28383
#
# Compressibility (1/GPa) = 0.02277939
#
# Stress axis : x y z
#
# Youngs Moduli (GPa) = 54.10590 50.78183 88.69769
#
# Poissons Ratio (x) = 0.34896 -0.01256
# Poissons Ratio (y) = 0.37180 0.58580
# Poissons Ratio (z) = -0.00766 0.33538
#
# Static dielectric constant tensor:
#      x y z
#    x 3.317270 0.000000 0.000000 
#    y 0.000000 3.790200 0.000000 
#    z 0.000000 0.000000 3.769870 
# 
# 
# High freq. dielectric constant tensor:
#      x y z
#    x 1.743450 0.000000 0.000000 
#    y 0.000000 1.787920 0.000000 
#    z 0.000000 0.000000 1.785770 
# 
# From -- ./inp_files/8960.got.cif
#   From: 2010.03.12/outbox.cif.g09.slc.cpg/sg41_5_cif.got.tgz:8960.got - 2010.04.14 01:55:53.
