data_PCOD8184982
_publ_section_title
;
Structure prediction by ZEFSAII (Michael W. Deem and Ramdas Pophale) SiO2 
 PCOD8184982
Probable space group: A B A 2
;
_chemical_formula_sum "Si O2"
_cell_formula_units_Z 48
_cell_length_a 14.371544
_cell_length_b 12.998942
_cell_length_c 12.560749
_cell_angle_alpha 90.000000
_cell_angle_beta 90.000000
_cell_angle_gamma 90.000000
_cell_volume 2346.534653
_symmetry_space_group_name_H-M "A B A 2"
_symmetry_group_IT_number 41
_symmetry_cell_setting 'orthorhombic'
loop_
_space_group_symop_operation_xyz
x,y,z
-x,-y,z
1/2-x,y,1/2+z
1/2+x,-y,1/2+z
x,1/2+y,1/2+z
-x,1/2-y,1/2+z
1/2-x,1/2+y,z
1/2+x,1/2-y,z
loop_
_atom_site_type_symbol
_atom_site_label
_atom_site_fract_x
_atom_site_fract_y
_atom_site_fract_z
Si Si1 0.892058 0.926137 0.364670
Si Si2 0.272446 0.872567 0.864670
Si Si3 0.830684 0.015302 0.037085
Si Si4 0.500000 0.000000 0.679446
Si Si5 0.500000 0.000000 0.049894
Si Si6 0.669316 0.015302 0.192255
Si Si7 0.192151 0.645896 0.364670
O O1 0.805247 0.849915 0.364670
O O2 0.954041 0.913258 0.257213
O O3 0.954041 0.913258 0.472127
O O4 0.852312 0.042174 0.364670
O O5 0.205506 0.887701 0.761790
O O6 0.330802 0.766515 0.864670
O O7 0.205506 0.887701 0.967550
O O8 0.750000 0.978647 0.114670
O O9 0.921764 0.049660 0.102744
O O10 0.850522 0.913845 0.965786
O O11 0.421764 0.950341 0.126596
O O12 0.649478 0.913845 0.263554
#
# Coordination Sequence:
#
# PCOD8184982 Si02
#       7
#     8   8   8   4   4   8   8
#     4   9  20  38  60  85 118 161 182 246 294 335
#     4  10  21  39  59  86 121 150 192 240 292 344
#     4  10  20  39  63  83 111 161 188 235 291 339
#     4  11  18  39  64  84 116 153 202 233 288 352
#     4  11  18  39  64  84 116 153 202 233 288 352
#     4  10  20  39  63  83 111 161 188 235 291 339
#     4  10  21  39  59  86 121 150 192 240 292 344
#
# _framework density 20.455697000000001
#
# number of rings (size 3 to 8) (size 9 to 14) (size 15 to 20)
#    0.000    2.333    6.667    0.000    0.000    4.000 
#    0.000   10.000    0.000    0.000    0.000    0.000 
#    0.000    0.000    0.000    0.000    0.000    0.000 
#
# Total GULP energy -297342.418384 kJ/mol
# GULP energy per Si atom -12389.267433 kJ/mol
# Density = 2.040914 g / cm^3
# Si number density = 20.455697 Si / 1000 Ang^3
#
#
#
# Elastic Constant Matrix: (Units=GPa)
#
#
# Indices 1 2 3 4 5 6 
#
# 1 103.8361 -5.8372 46.2536 0.0000 0.0000 0.0000
# 2 -5.8372 79.7588 16.1068 0.0000 0.0000 0.0000
# 3 46.2536 16.1068 139.6562 0.0000 0.0000 0.0000
# 4 0.0000 0.0000 0.0000 3.6338 0.0000 0.0000
# 5 0.0000 0.0000 0.0000 0.0000 34.0876 0.0000
# 6 0.0000 0.0000 0.0000 0.0000 0.0000 16.0609
#
#
#
# Elastic Compliance Matrix: (Units=1/GPa)
#
#
# Indices 1 2 3 4 5 6 
#
# 1 0.011505 0.001650 -0.004001 0.000000 0.000000 0.000000
# 2 0.001650 0.013073 -0.002054 0.000000 0.000000 0.000000
# 3 -0.004001 -0.002054 0.008722 0.000000 0.000000 0.000000
# 4 0.000000 0.000000 0.000000 0.275192 0.000000 0.000000
# 5 0.000000 0.000000 0.000000 0.000000 0.029336 0.000000
# 6 0.000000 0.000000 0.000000 0.000000 0.000000 0.062263
#
#
# Mechanical properties :
#
#
# Convention : Reuss Voigt Hill
#
# Bulk Modulus (GPa) = 40.83121 48.47749 44.65435
# Shear Modulus (GPa) = 11.98850 28.53833 20.26342
#
# Velocity S-wave (km/s) = 2.42352 3.73919 3.15079
# Velocity P-wave (km/s) = 5.27593 6.51094 5.92569
#
# Compressibility (1/GPa) = 0.02449107
#
# Stress axis : x y z
#
# Youngs Moduli (GPa) = 86.91499 76.49119 114.64694
#
# Poissons Ratio (x) = -0.12621 0.45869
# Poissons Ratio (y) = -0.14341 0.23551
# Poissons Ratio (z) = 0.34774 0.15713
#
# Static dielectric constant tensor:
#      x y z
#    x 3.908340 0.000000 0.000000 
#    y 0.000000 3.064890 0.000000 
#    z 0.000000 0.000000 4.304160 
# 
# 
# High freq. dielectric constant tensor:
#      x y z
#    x 1.801330 0.000000 0.000000 
#    y 0.000000 1.732310 0.000000 
#    z 0.000000 0.000000 1.826160 
# 
# From -- ./inp_files/5965.got.cif
#   From: 2010.03.12/outbox.cif.g09.slc.cpg/sg41_3_cif.got.tgz:5965.got - 2010.04.14 01:55:53.
