data_PCOD8184576
_publ_section_title
;
Structure prediction by ZEFSAII (Michael W. Deem and Ramdas Pophale) SiO2 
 PCOD8184576
Probable space group: A M A 2
;
_chemical_formula_sum "Si O2"
_cell_formula_units_Z 64
_cell_length_a 20.122294
_cell_length_b 20.273511
_cell_length_c 8.779770
_cell_angle_alpha 90.000000
_cell_angle_beta 90.000000
_cell_angle_gamma 90.000000
_cell_volume 3581.703210
_symmetry_space_group_name_H-M "A M A 2"
_symmetry_group_IT_number 40
_symmetry_cell_setting 'orthorhombic'
loop_
_space_group_symop_operation_xyz
x,y,z
-x,-y,z
1/2-x,y,z
1/2+x,-y,z
x,1/2+y,1/2+z
-x,1/2-y,1/2+z
1/2-x,1/2+y,1/2+z
1/2+x,1/2-y,1/2+z
loop_
_atom_site_type_symbol
_atom_site_label
_atom_site_fract_x
_atom_site_fract_y
_atom_site_fract_z
Si Si1 0.931048 0.726265 0.316570
Si Si2 0.911655 0.948306 0.956295
Si Si3 0.442682 0.909579 0.316822
Si Si4 0.557318 0.090421 0.956227
Si Si5 0.931048 0.226265 0.456479
Si Si6 0.823995 0.331530 0.817909
Si Si7 0.911655 0.448306 0.816754
Si Si8 0.176005 0.168470 0.955139
O O1 0.911944 0.652789 0.369573
O O2 0.871612 0.773066 0.375713
O O3 1.000000 0.750000 0.386524
O O4 0.937698 0.729965 0.136524
O O5 0.852398 0.901938 0.894904
O O6 0.914727 0.946993 0.136524
O O7 0.981616 0.918704 0.899560
O O8 0.902045 0.024552 0.905639
O O9 0.438492 0.897404 0.136524
O O10 0.411944 0.847211 0.403476
O O11 0.518384 0.918704 0.373489
O O12 0.402045 0.975449 0.367410
O O13 0.871612 0.273066 0.397335
O O14 0.750000 0.321748 0.885382
O O15 0.852398 0.401938 0.878144
O O16 0.821697 0.331923 0.636524
O O17 0.250000 0.178252 0.887666
#
# Coordination Sequence:
#
# PCOD8184576 Si02
#       8
#     8   8   8   8   8   8   8   8
#     4  11  20  31  50  75 101 130 165 207 249 291
#     4   8  14  27  48  71  95 124 158 199 242 284
#     4   9  16  29  50  74  99 123 156 202 248 289
#     4   9  16  29  50  74  99 123 156 202 248 289
#     4  11  20  31  50  75 101 130 165 207 249 291
#     4   9  17  30  49  72  96 128 171 206 237 290
#     4   8  14  27  48  71  95 124 158 199 242 284
#     4   9  17  30  49  72  96 128 171 206 237 290
#
# _framework density 17.868593000000001
#
# number of rings (size 3 to 8) (size 9 to 14) (size 15 to 20)
#    0.000    2.750    2.500    2.250    0.000    0.000 
#    0.000    3.750    0.000    4.500    0.000    0.000 
#    0.000    0.000    0.000    0.000    0.000    0.000 
#
# Total GULP energy -396588.324094 kJ/mol
# GULP energy per Si atom -12393.385128 kJ/mol
# Density = 1.782792 g / cm^3
# Si number density = 17.868593 Si / 1000 Ang^3
#
#
#
# Elastic Constant Matrix: (Units=GPa)
#
#
# Indices 1 2 3 4 5 6 
#
# 1 134.0818 88.2247 19.6779 0.0000 0.0000 0.0000
# 2 88.2247 182.9523 25.4453 0.0000 0.0000 0.0000
# 3 19.6779 25.4453 29.2998 0.0000 0.0000 0.0000
# 4 0.0000 0.0000 0.0000 28.9141 0.0000 0.0000
# 5 0.0000 0.0000 0.0000 0.0000 12.9892 0.0000
# 6 0.0000 0.0000 0.0000 0.0000 0.0000 29.1671
#
#
#
# Elastic Compliance Matrix: (Units=1/GPa)
#
#
# Indices 1 2 3 4 5 6 
#
# 1 0.011185 -0.004946 -0.003216 0.000000 0.000000 0.000000
# 2 -0.004946 0.008404 -0.003977 0.000000 0.000000 0.000000
# 3 -0.003216 -0.003977 0.039743 0.000000 0.000000 0.000000
# 4 0.000000 0.000000 0.000000 0.034585 0.000000 0.000000
# 5 0.000000 0.000000 0.000000 0.000000 0.076987 0.000000
# 6 0.000000 0.000000 0.000000 0.000000 0.000000 0.034285
#
#
# Mechanical properties :
#
#
# Convention : Reuss Voigt Hill
#
# Bulk Modulus (GPa) = 28.52728 68.11440 48.32084
# Shear Modulus (GPa) = 20.73375 28.41315 24.57345
#
# Velocity S-wave (km/s) = 3.41008 3.99195 3.71243
# Velocity P-wave (km/s) = 5.61289 7.71038 6.74368
#
# Compressibility (1/GPa) = 0.03505417
#
# Stress axis : x y z
#
# Youngs Moduli (GPa) = 89.40741 118.98774 25.16143
#
# Poissons Ratio (x) = 0.58855 0.08092
# Poissons Ratio (y) = 0.44224 0.10006
# Poissons Ratio (z) = 0.28755 0.47317
#
# Static dielectric constant tensor:
#      x y z
#    x 3.420260 0.000000 0.000000 
#    y 0.000000 3.787100 0.000000 
#    z 0.000000 0.000000 2.838500 
# 
# 
# High freq. dielectric constant tensor:
#      x y z
#    x 1.665430 0.000000 0.000000 
#    y 0.000000 1.713320 0.000000 
#    z 0.000000 0.000000 1.642320 
# 
# From -- ./inp_files/7799.got.cif
#   From: 2010.03.12/outbox.cif.g09.slc.cpg/sg40_4_cif.got.tgz:7799.got - 2010.04.14 01:38:03.
