data_PCOD8184319
_publ_section_title
;
Structure prediction by ZEFSAII (Michael W. Deem and Ramdas Pophale) SiO2 
 PCOD8184319
Probable space group: A M A 2
;
_chemical_formula_sum "Si O2"
_cell_formula_units_Z 40
_cell_length_a 17.674556
_cell_length_b 11.621103
_cell_length_c 8.233042
_cell_angle_alpha 90.000000
_cell_angle_beta 90.000000
_cell_angle_gamma 90.000000
_cell_volume 1691.049008
_symmetry_space_group_name_H-M "A M A 2"
_symmetry_group_IT_number 40
_symmetry_cell_setting 'orthorhombic'
loop_
_space_group_symop_operation_xyz
x,y,z
-x,-y,z
1/2-x,y,z
1/2+x,-y,z
x,1/2+y,1/2+z
-x,1/2-y,1/2+z
1/2-x,1/2+y,1/2+z
1/2+x,1/2-y,1/2+z
loop_
_atom_site_type_symbol
_atom_site_label
_atom_site_fract_x
_atom_site_fract_y
_atom_site_fract_z
Si Si1 0.336816 0.997202 0.716600
Si Si2 0.836986 0.250251 0.174737
Si Si3 0.837550 0.016917 0.338768
Si Si4 0.056529 0.322964 0.404742
Si Si5 0.037504 0.612819 0.697868
O O1 0.250000 0.955517 0.746010
O O2 0.357900 0.993639 0.527002
O O3 0.396250 0.921447 0.814277
O O4 0.346969 0.130021 0.772352
O O5 0.750000 0.235298 0.121985
O O6 0.865318 0.143889 0.284135
O O7 0.886077 0.252271 0.011625
O O8 0.750000 0.000292 0.306962
O O9 0.873949 0.917774 0.222540
O O10 0.016902 0.235139 0.279306
O O11 0.990079 0.381035 0.511392
O O12 0.000000 0.500000 0.784777
#
# Coordination Sequence:
#
# PCOD8184319 Si02
#       5
#     8   8   8   8   8
#     4  10  23  45  76 108 139 188 241 296 354 420
#     4  10  21  44  73 104 141 181 235 299 352 422
#     4  10  22  47  76 103 140 184 238 299 359 421
#     4  12  27  43  72 101 150 191 240 287 363 424
#     4  12  28  48  68 104 147 191 237 295 359 426
#
# _framework density 23.653956999999998
#
# number of rings (size 3 to 8) (size 9 to 14) (size 15 to 20)
#    0.000    1.200    4.000    0.600    2.800    4.000 
#    0.000    0.000    0.000    1.200    0.000    0.000 
#    0.000    0.000    0.000    0.000    0.000    0.000 
#
# Total GULP energy -247951.701482 kJ/mol
# GULP energy per Si atom -12397.585074 kJ/mol
# Density = 2.360012 g / cm^3
# Si number density = 23.653957 Si / 1000 Ang^3
#
#
#
# Elastic Constant Matrix: (Units=GPa)
#
#
# Indices 1 2 3 4 5 6 
#
# 1 83.0624 58.6605 75.7811 0.0000 0.0000 0.0000
# 2 58.6605 155.4124 73.2971 0.0000 0.0000 0.0000
# 3 75.7811 73.2971 111.0451 0.0000 0.0000 0.0000
# 4 0.0000 0.0000 0.0000 39.1720 0.0000 0.0000
# 5 0.0000 0.0000 0.0000 0.0000 46.2763 0.0000
# 6 0.0000 0.0000 0.0000 0.0000 0.0000 47.5557
#
#
#
# Elastic Compliance Matrix: (Units=1/GPa)
#
#
# Indices 1 2 3 4 5 6 
#
# 1 0.032627 -0.002634 -0.020528 0.000000 0.000000 0.000000
# 2 -0.002634 0.009556 -0.004510 0.000000 0.000000 0.000000
# 3 -0.020528 -0.004510 0.025991 0.000000 0.000000 0.000000
# 4 0.000000 0.000000 0.000000 0.025528 0.000000 0.000000
# 5 0.000000 0.000000 0.000000 0.000000 0.021609 0.000000
# 6 0.000000 0.000000 0.000000 0.000000 0.000000 0.021028
#
#
# Mechanical properties :
#
#
# Convention : Reuss Voigt Hill
#
# Bulk Modulus (GPa) = 77.93452 84.99971 81.46712
# Shear Modulus (GPa) = 25.51550 36.05287 30.78418
#
# Velocity S-wave (km/s) = 3.28792 3.90831 3.61146
# Velocity P-wave (km/s) = 6.88717 7.50861 7.20459
#
# Compressibility (1/GPa) = 0.01283128
#
# Stress axis : x y z
#
# Youngs Moduli (GPa) = 30.64920 104.65009 38.47495
#
# Poissons Ratio (x) = 0.27563 0.78980
# Poissons Ratio (y) = 0.08072 0.17352
# Poissons Ratio (z) = 0.62915 0.47197
#
# Static dielectric constant tensor:
#      x y z
#    x 4.432800 0.000000 0.000000 
#    y 0.000000 4.524850 0.000000 
#    z 0.000000 0.000000 4.151450 
# 
# 
# High freq. dielectric constant tensor:
#      x y z
#    x 1.950310 0.000000 0.000000 
#    y 0.000000 1.955000 0.000000 
#    z 0.000000 0.000000 1.913420 
# 
# From -- ./inp_files/7135.got.cif
#   From: 2010.03.12/outbox.cif.g09.slc.cpg/sg40_4_cif.got.tgz:7135.got - 2010.04.14 01:38:03.
