data_PCOD8184017
_publ_section_title
;
Structure prediction by ZEFSAII (Michael W. Deem and Ramdas Pophale) SiO2 
 PCOD8184017
Probable space group: A M A 2
;
_chemical_formula_sum "Si O2"
_cell_formula_units_Z 64
_cell_length_a 17.969470
_cell_length_b 11.589770
_cell_length_c 15.181816
_cell_angle_alpha 90.000000
_cell_angle_beta 90.000000
_cell_angle_gamma 90.000000
_cell_volume 3161.795733
_symmetry_space_group_name_H-M "A M A 2"
_symmetry_group_IT_number 40
_symmetry_cell_setting 'orthorhombic'
loop_
_space_group_symop_operation_xyz
x,y,z
-x,-y,z
1/2-x,y,z
1/2+x,-y,z
x,1/2+y,1/2+z
-x,1/2-y,1/2+z
1/2-x,1/2+y,1/2+z
1/2+x,1/2-y,1/2+z
loop_
_atom_site_type_symbol
_atom_site_label
_atom_site_fract_x
_atom_site_fract_y
_atom_site_fract_z
Si Si1 0.080173 0.558749 0.039660
Si Si2 0.163784 0.977968 0.952427
Si Si3 0.583740 0.512432 0.622250
Si Si4 0.414005 0.757717 0.900813
Si Si5 0.083015 0.683175 0.383812
Si Si6 0.572763 0.762619 0.688099
Si Si7 0.903719 0.281105 0.704099
Si Si8 0.164054 0.826853 0.535151
O O1 0.101619 0.635810 0.124678
O O2 0.142458 0.461015 0.032346
O O3 0.000000 0.500000 0.049950
O O4 0.082040 0.636430 0.951516
O O5 0.250000 0.995969 0.932229
O O6 0.141490 0.843988 0.950208
O O7 0.115093 0.053215 0.884503
O O8 0.143752 0.024549 0.049268
O O9 0.500000 0.500000 0.583025
O O10 0.601864 0.639929 0.654679
O O11 0.593249 0.420318 0.700281
O O12 0.494866 0.816186 0.898369
O O13 0.379281 0.744362 0.803591
O O14 0.103684 0.728633 0.286954
O O15 0.118877 0.760115 0.460110
O O16 0.484118 0.771840 0.684402
O O17 0.849079 0.224673 0.632782
O O18 0.250000 0.814380 0.511717
#
# Coordination Sequence:
#
# PCOD8184017 Si02
#       8
#     8   8   8   8   8   8   8   8
#     4  12  23  42  69  98 134 176 220 275 327 403
#     4  12  25  41  63  94 132 172 215 270 335 394
#     4  10  20  40  68  94 122 162 215 275 327 386
#     4  11  24  42  70  97 129 172 225 276 327 391
#     4  11  23  42  70  99 126 172 224 280 327 397
#     4  10  22  40  68 100 128 164 224 276 326 385
#     4  10  22  39  69  99 125 165 222 280 328 388
#     4  12  26  44  65  96 138 180 218 273 346 402
#
# _framework density 20.241662999999999
#
# number of rings (size 3 to 8) (size 9 to 14) (size 15 to 20)
#    0.000    1.000    5.000    1.500    3.500    1.500 
#    0.000    1.875    0.000    0.000    0.000    0.000 
#    0.000    0.000    0.000    0.000    0.000    0.000 
#
# Total GULP energy -396841.395511 kJ/mol
# GULP energy per Si atom -12401.293610 kJ/mol
# Density = 2.019559 g / cm^3
# Si number density = 20.241663 Si / 1000 Ang^3
#
#
#
# Elastic Constant Matrix: (Units=GPa)
#
#
# Indices 1 2 3 4 5 6 
#
# 1 73.0016 28.5507 33.1457 0.0000 0.0000 0.0000
# 2 28.5507 122.3579 42.6574 0.0000 0.0000 0.0000
# 3 33.1457 42.6574 132.3045 0.0000 0.0000 0.0000
# 4 0.0000 0.0000 0.0000 27.9854 0.0000 0.0000
# 5 0.0000 0.0000 0.0000 0.0000 9.2956 0.0000
# 6 0.0000 0.0000 0.0000 0.0000 0.0000 21.2370
#
#
#
# Elastic Compliance Matrix: (Units=1/GPa)
#
#
# Indices 1 2 3 4 5 6 
#
# 1 0.016192 -0.002663 -0.003198 0.000000 0.000000 0.000000
# 2 -0.002663 0.009646 -0.002443 0.000000 0.000000 0.000000
# 3 -0.003198 -0.002443 0.009147 0.000000 0.000000 0.000000
# 4 0.000000 0.000000 0.000000 0.035733 0.000000 0.000000
# 5 0.000000 0.000000 0.000000 0.000000 0.107578 0.000000
# 6 0.000000 0.000000 0.000000 0.000000 0.000000 0.047088
#
#
# Mechanical properties :
#
#
# Convention : Reuss Voigt Hill
#
# Bulk Modulus (GPa) = 54.41586 59.59684 57.00635
# Shear Modulus (GPa) = 20.15181 26.59095 23.37138
#
# Velocity S-wave (km/s) = 3.15867 3.62840 3.40165
# Velocity P-wave (km/s) = 6.34385 6.86005 6.60699
#
# Compressibility (1/GPa) = 0.01837700
#
# Stress axis : x y z
#
# Youngs Moduli (GPa) = 61.75938 103.67196 109.32507
#
# Poissons Ratio (x) = 0.27611 0.34960
# Poissons Ratio (y) = 0.16449 0.26705
# Poissons Ratio (z) = 0.19749 0.25324
#
# Static dielectric constant tensor:
#      x y z
#    x 3.419380 0.000000 0.000000 
#    y 0.000000 3.904010 0.000000 
#    z 0.000000 0.000000 3.750430 
# 
# 
# High freq. dielectric constant tensor:
#      x y z
#    x 1.762240 0.000000 0.000000 
#    y 0.000000 1.808490 0.000000 
#    z 0.000000 0.000000 1.795760 
# 
# From -- ./inp_files/17830.got.cif
#   From: 2010.03.12/outbox.cif.g09.slc.cpg/sg40_9_cif.got.tgz:17830.got - 2010.04.14 01:38:03.
