data_PCOD8184339
_publ_section_title
;
Structure prediction by ZEFSAII (Michael W. Deem and Ramdas Pophale) SiO2 
 PCOD8184339
Probable space group: A M A 2
;
_chemical_formula_sum "Si O2"
_cell_formula_units_Z 48
_cell_length_a 22.155689
_cell_length_b 9.253650
_cell_length_c 11.070739
_cell_angle_alpha 90.000000
_cell_angle_beta 90.000000
_cell_angle_gamma 90.000000
_cell_volume 2269.733887
_symmetry_space_group_name_H-M "A M A 2"
_symmetry_group_IT_number 40
_symmetry_cell_setting 'orthorhombic'
loop_
_space_group_symop_operation_xyz
x,y,z
-x,-y,z
1/2-x,y,z
1/2+x,-y,z
x,1/2+y,1/2+z
-x,1/2-y,1/2+z
1/2-x,1/2+y,1/2+z
1/2+x,1/2-y,1/2+z
loop_
_atom_site_type_symbol
_atom_site_label
_atom_site_fract_x
_atom_site_fract_y
_atom_site_fract_z
Si Si1 0.680820 0.004521 0.750000
Si Si2 0.878906 0.802391 0.941153
Si Si3 0.981568 0.648802 0.812754
Si Si4 0.435538 0.946279 0.059087
Si Si5 0.392471 0.742413 0.853473
Si Si6 0.318743 0.496799 0.975012
O O1 0.750000 0.019177 0.789950
O O2 0.650646 0.160739 0.770727
O O3 0.674463 0.951256 0.612575
O O4 0.648687 0.882294 0.826632
O O5 0.944954 0.745525 0.905146
O O6 0.835373 0.672272 0.976005
O O7 0.889079 0.916514 0.050938
O O8 0.941833 0.611503 0.694931
O O9 0.000000 0.500000 0.880566
O O10 0.045471 0.723008 0.777598
O O11 0.500000 0.000000 0.008390
O O12 0.408383 0.818152 0.979832
O O13 0.360775 0.589531 0.885381
O O14 0.250000 0.513856 0.930561
#
# Coordination Sequence:
#
# PCOD8184339 Si02
#       6
#     8   8   8   8   8   8
#     4  10  24  42  62  89 121 160 208 252 296 355
#     4  11  22  41  63  87 123 161 196 250 305 356
#     4  11  22  37  60  93 122 154 196 244 303 365
#     4  10  22  37  60  90 124 155 196 240 301 367
#     4  11  22  41  63  89 125 160 196 255 305 358
#     4  11  24  41  63  89 118 161 210 249 298 359
#
# _framework density 21.147853999999999
#
# number of rings (size 3 to 8) (size 9 to 14) (size 15 to 20)
#    0.000    1.333    3.333    2.000    4.667    0.000 
#    0.000    0.000    0.000    8.000    0.000    0.000 
#    0.000    0.000    0.000    0.000    0.000    0.000 
#
# Total GULP energy -297568.638907 kJ/mol
# GULP energy per Si atom -12398.693288 kJ/mol
# Density = 2.109972 g / cm^3
# Si number density = 21.147854 Si / 1000 Ang^3
#
#
#
# Elastic Constant Matrix: (Units=GPa)
#
#
# Indices 1 2 3 4 5 6 
#
# 1 98.1636 24.8720 22.2052 0.0000 0.0000 0.0000
# 2 24.8720 89.4520 17.8311 0.0000 0.0000 0.0000
# 3 22.2052 17.8311 56.6500 0.0000 0.0000 0.0000
# 4 0.0000 0.0000 0.0000 22.5229 0.0000 0.0000
# 5 0.0000 0.0000 0.0000 0.0000 18.7101 0.0000
# 6 0.0000 0.0000 0.0000 0.0000 0.0000 30.5237
#
#
#
# Elastic Compliance Matrix: (Units=1/GPa)
#
#
# Indices 1 2 3 4 5 6 
#
# 1 0.011676 -0.002490 -0.003793 0.000000 0.000000 0.000000
# 2 -0.002490 0.012459 -0.002945 0.000000 0.000000 0.000000
# 3 -0.003793 -0.002945 0.020066 0.000000 0.000000 0.000000
# 4 0.000000 0.000000 0.000000 0.044399 0.000000 0.000000
# 5 0.000000 0.000000 0.000000 0.000000 0.053447 0.000000
# 6 0.000000 0.000000 0.000000 0.000000 0.000000 0.032761
#
#
# Mechanical properties :
#
#
# Convention : Reuss Voigt Hill
#
# Bulk Modulus (GPa) = 38.84451 41.56469 40.20460
# Shear Modulus (GPa) = 24.77126 26.30850 25.53988
#
# Velocity S-wave (km/s) = 3.42619 3.53090 3.47894
# Velocity P-wave (km/s) = 5.83607 6.02661 5.93210
#
# Compressibility (1/GPa) = 0.02574366
#
# Stress axis : x y z
#
# Youngs Moduli (GPa) = 85.64545 80.26481 49.83554
#
# Poissons Ratio (x) = 0.19990 0.18902
# Poissons Ratio (y) = 0.21330 0.14678
# Poissons Ratio (z) = 0.32484 0.23641
#
# Static dielectric constant tensor:
#      x y z
#    x 4.011310 0.000000 0.000000 
#    y 0.000000 3.995980 0.000000 
#    z 0.000000 0.000000 3.468560 
# 
# 
# High freq. dielectric constant tensor:
#      x y z
#    x 1.836040 0.000000 0.000000 
#    y 0.000000 1.842430 0.000000 
#    z 0.000000 0.000000 1.811120 
# 
# From -- ./inp_files/13904.got.cif
#   From: 2010.03.12/outbox.cif.g09.slc.cpg/sg40_7_cif.got.tgz:13904.got - 2010.04.14 01:38:03.
