data_PCOD8184348
_publ_section_title
;
Structure prediction by ZEFSAII (Michael W. Deem and Ramdas Pophale) SiO2 
 PCOD8184348
Probable space group: A M A 2
;
_chemical_formula_sum "Si O2"
_cell_formula_units_Z 64
_cell_length_a 8.789558
_cell_length_b 15.347277
_cell_length_c 23.611482
_cell_angle_alpha 90.000000
_cell_angle_beta 90.000000
_cell_angle_gamma 90.000000
_cell_volume 3185.089313
_symmetry_space_group_name_H-M "A M A 2"
_symmetry_group_IT_number 40
_symmetry_cell_setting 'orthorhombic'
loop_
_space_group_symop_operation_xyz
x,y,z
-x,-y,z
1/2-x,y,z
1/2+x,-y,z
x,1/2+y,1/2+z
-x,1/2-y,1/2+z
1/2-x,1/2+y,1/2+z
1/2+x,1/2-y,1/2+z
loop_
_atom_site_type_symbol
_atom_site_label
_atom_site_fract_x
_atom_site_fract_y
_atom_site_fract_z
Si Si1 0.926801 0.589814 0.541730
Si Si2 0.571863 0.658344 0.419306
Si Si3 0.070482 0.345345 0.926913
Si Si4 0.428438 0.748380 0.114426
Si Si5 0.074938 0.262335 0.745125
Si Si6 0.570333 0.592384 0.050079
Si Si7 0.071622 0.086838 0.809175
Si Si8 0.928705 0.412450 0.816174
O O1 0.750000 0.581583 0.553515
O O2 0.964722 0.605729 0.476221
O O3 0.992058 0.670126 0.578359
O O4 0.000000 0.500000 0.562526
O O5 0.750000 0.681111 0.414214
O O6 0.475315 0.745915 0.418349
O O7 0.516906 0.599169 0.367966
O O8 0.250000 0.353959 0.919453
O O9 0.989826 0.403812 0.879913
O O10 0.013878 0.378523 0.987907
O O11 0.250000 0.733594 0.103758
O O12 0.465632 0.767649 0.179415
O O13 0.515503 0.661811 0.096066
O O14 0.250000 0.286573 0.756902
O O15 0.038317 0.165517 0.766534
O O16 0.970886 0.329703 0.778451
O O17 0.500000 0.500000 0.066425
O O18 0.750000 0.585223 0.052348
O O19 0.250000 0.075437 0.820904
O O20 0.000000 0.000000 0.781047
O O21 0.750000 0.422257 0.817820
O O22 0.000000 0.500000 0.789148
#
# Coordination Sequence:
#
# PCOD8184348 Si02
#       8
#     8   8   8   8   8   8   8   8
#     4  10  22  38  60  89 122 159 199 246 300 360
#     4  11  21  36  61  92 123 159 199 247 309 368
#     4  11  22  38  62  93 127 162 201 250 311 373
#     4  10  22  43  65  88 122 163 206 256 307 360
#     4  10  23  43  65  89 122 163 208 257 309 360
#     4  11  24  40  63  93 125 163 204 253 307 367
#     4  11  23  39  61  89 123 161 202 252 305 365
#     4  12  25  41  65  93 126 164 205 254 307 370
#
# _framework density 20.093629
#
# number of rings (size 3 to 8) (size 9 to 14) (size 15 to 20)
#    0.000    1.250    2.500    3.375    0.000    7.000 
#    0.000    2.500    0.000    0.000    0.000    0.000 
#    0.000    0.000    0.000    0.000    0.000    0.000 
#
# Total GULP energy -397009.168689 kJ/mol
# GULP energy per Si atom -12406.536522 kJ/mol
# Density = 2.004789 g / cm^3
# Si number density = 20.093629 Si / 1000 Ang^3
#
#
#
# Elastic Constant Matrix: (Units=GPa)
#
#
# Indices 1 2 3 4 5 6 
#
# 1 88.2374 41.3058 37.5968 0.0000 0.0000 0.0000
# 2 41.3058 123.6052 17.4581 0.0000 0.0000 0.0000
# 3 37.5968 17.4581 72.8038 0.0000 0.0000 0.0000
# 4 0.0000 0.0000 0.0000 8.9204 0.0000 0.0000
# 5 0.0000 0.0000 0.0000 0.0000 20.8193 0.0000
# 6 0.0000 0.0000 0.0000 0.0000 0.0000 39.0593
#
#
#
# Elastic Compliance Matrix: (Units=1/GPa)
#
#
# Indices 1 2 3 4 5 6 
#
# 1 0.016641 -0.004500 -0.007515 0.000000 0.000000 0.000000
# 2 -0.004500 0.009591 0.000024 0.000000 0.000000 0.000000
# 3 -0.007515 0.000024 0.017611 0.000000 0.000000 0.000000
# 4 0.000000 0.000000 0.000000 0.112102 0.000000 0.000000
# 5 0.000000 0.000000 0.000000 0.000000 0.048032 0.000000
# 6 0.000000 0.000000 0.000000 0.000000 0.000000 0.025602
#
#
# Mechanical properties :
#
#
# Convention : Reuss Voigt Hill
#
# Bulk Modulus (GPa) = 50.34913 53.04087 51.69500
# Shear Modulus (GPa) = 19.21738 26.31219 22.76479
#
# Velocity S-wave (km/s) = 3.09591 3.62260 3.36956
# Velocity P-wave (km/s) = 6.15559 6.62961 6.39699
#
# Compressibility (1/GPa) = 0.01986132
#
# Stress axis : x y z
#
# Youngs Moduli (GPa) = 60.09091 104.26876 56.78409
#
# Poissons Ratio (x) = 0.46918 0.42672
# Poissons Ratio (y) = 0.27039 -0.00136
# Poissons Ratio (z) = 0.45157 -0.00250
#
# Static dielectric constant tensor:
#      x y z
#    x 3.607550 0.000000 0.000000 
#    y 0.000000 3.826030 0.000000 
#    z 0.000000 0.000000 3.705900 
# 
# 
# High freq. dielectric constant tensor:
#      x y z
#    x 1.786080 0.000000 0.000000 
#    y 0.000000 1.800770 0.000000 
#    z 0.000000 0.000000 1.780300 
# 
# From -- ./inp_files/24241.got.cif
#   From: 2010.03.12/outbox.cif.g09.slc.cpg/sg40_13_cif.got.tgz:24241.got - 2010.04.14 01:38:03.
