data_PCOD8184959
_publ_section_title
;
Structure prediction by ZEFSAII (Michael W. Deem and Ramdas Pophale) SiO2 
 PCOD8184959
Probable space group: A B A 2
;
_chemical_formula_sum "Si O2"
_cell_formula_units_Z 60
_cell_length_a 9.080817
_cell_length_b 11.595697
_cell_length_c 30.072330
_cell_angle_alpha 90.000000
_cell_angle_beta 90.000000
_cell_angle_gamma 90.000000
_cell_volume 3166.568307
_symmetry_space_group_name_H-M "A B A 2"
_symmetry_group_IT_number 41
_symmetry_cell_setting 'orthorhombic'
loop_
_space_group_symop_operation_xyz
x,y,z
-x,-y,z
1/2-x,y,1/2+z
1/2+x,-y,1/2+z
x,1/2+y,1/2+z
-x,1/2-y,1/2+z
1/2-x,1/2+y,z
1/2+x,1/2-y,z
loop_
_atom_site_type_symbol
_atom_site_label
_atom_site_fract_x
_atom_site_fract_y
_atom_site_fract_z
Si Si1 0.467871 0.135340 0.820250
Si Si2 0.318221 0.195852 0.269892
Si Si3 0.500000 0.500000 0.726086
Si Si4 0.818145 0.195863 0.682351
Si Si5 0.493869 0.634812 0.420679
Si Si6 0.255259 0.250013 0.476124
Si Si7 0.993842 0.134814 0.031574
Si Si8 0.032019 0.864646 0.131993
O O1 0.301651 0.161521 0.806236
O O2 0.575987 0.206587 0.789068
O O3 0.486119 0.181575 0.870453
O O4 0.500000 0.000000 0.814992
O O5 0.249966 0.250110 0.226153
O O6 0.403303 0.078825 0.258483
O O7 0.596640 0.578839 0.693677
O O8 0.698193 0.161619 0.646025
O O9 0.923784 0.293543 0.663186
O O10 0.500000 0.500000 0.419533
O O11 0.643314 0.678415 0.442873
O O12 0.347691 0.667029 0.447464
O O13 0.356787 0.178407 0.509335
O O14 0.152425 0.333017 0.504819
O O15 0.986208 0.181641 0.081795
O O16 0.000000 0.000000 0.032760
O O17 0.000000 0.000000 0.137227
#
# Coordination Sequence:
#
# PCOD8184959 Si02
#       8
#     8   8   4   8   8   8   8   8
#     4  11  24  40  62  89 122 156 201 249 297 350
#     4  12  23  42  62  87 121 160 204 246 298 352
#     4  12  24  40  64  88 116 164 206 242 296 356
#     4  12  23  42  62  87 121 160 204 246 298 352
#     4  10  21  38  61  88 118 153 193 240 292 351
#     4  10  20  38  62  86 120 152 192 236 294 354
#     4  10  21  38  61  88 118 153 193 240 292 351
#     4  11  24  40  62  89 122 156 201 249 297 350
#
# _framework density 18.947958
#
# number of rings (size 3 to 8) (size 9 to 14) (size 15 to 20)
#    0.000    1.067    2.667    4.000    0.000    1.067 
#    0.000    0.000    5.867    0.000    0.000    0.000 
#    0.000    0.000    0.000    0.000    0.000    0.000 
#
# Total GULP energy -372102.432060 kJ/mol
# GULP energy per Si atom -12403.414402 kJ/mol
# Density = 1.890483 g / cm^3
# Si number density = 18.947958 Si / 1000 Ang^3
#
#
#
# Elastic Constant Matrix: (Units=GPa)
#
#
# Indices 1 2 3 4 5 6 
#
# 1 137.1136 43.8067 68.7244 0.0000 0.0000 0.0000
# 2 43.8067 84.1121 53.7668 0.0000 0.0000 0.0000
# 3 68.7244 53.7668 149.6841 0.0000 0.0000 0.0000
# 4 0.0000 0.0000 0.0000 41.8559 0.0000 0.0000
# 5 0.0000 0.0000 0.0000 0.0000 22.3376 0.0000
# 6 0.0000 0.0000 0.0000 0.0000 0.0000 31.9309
#
#
#
# Elastic Compliance Matrix: (Units=1/GPa)
#
#
# Indices 1 2 3 4 5 6 
#
# 1 0.010008 -0.002953 -0.003534 0.000000 0.000000 0.000000
# 2 -0.002953 0.016304 -0.004500 0.000000 0.000000 0.000000
# 3 -0.003534 -0.004500 0.009920 0.000000 0.000000 0.000000
# 4 0.000000 0.000000 0.000000 0.023892 0.000000 0.000000
# 5 0.000000 0.000000 0.000000 0.000000 0.044768 0.000000
# 6 0.000000 0.000000 0.000000 0.000000 0.000000 0.031318
#
#
# Mechanical properties :
#
#
# Convention : Reuss Voigt Hill
#
# Bulk Modulus (GPa) = 70.14520 78.16728 74.15624
# Shear Modulus (GPa) = 30.68681 32.86568 31.77625
#
# Velocity S-wave (km/s) = 4.02871 4.16928 4.09960
# Velocity P-wave (km/s) = 7.66426 8.03246 7.85052
#
# Compressibility (1/GPa) = 0.01425614
#
# Stress axis : x y z
#
# Youngs Moduli (GPa) = 99.91807 61.33554 100.80654
#
# Poissons Ratio (x) = 0.18114 0.35628
# Poissons Ratio (y) = 0.29508 0.45367
# Poissons Ratio (z) = 0.35314 0.27604
#
# Static dielectric constant tensor:
#      x y z
#    x 3.664370 0.000000 0.000000 
#    y 0.000000 3.451760 0.000000 
#    z 0.000000 0.000000 3.844900 
# 
# 
# High freq. dielectric constant tensor:
#      x y z
#    x 1.755190 0.000000 0.000000 
#    y 0.000000 1.744980 0.000000 
#    z 0.000000 0.000000 1.752270 
# 
# From -- ./inp_files/4572.got.cif
#   From: 2010.03.12/outbox.cif.g09.slc.cpg/sg41_3_cif.got.tgz:4572.got - 2010.04.14 01:55:53.
