data_PCOD8184010
_publ_section_title
;
Structure prediction by ZEFSAII (Michael W. Deem and Ramdas Pophale) SiO2 
 PCOD8184010
Probable space group: A M A 2
;
_chemical_formula_sum "Si O2"
_cell_formula_units_Z 48
_cell_length_a 9.974062
_cell_length_b 27.550609
_cell_length_c 9.032248
_cell_angle_alpha 90.000000
_cell_angle_beta 90.000000
_cell_angle_gamma 90.000000
_cell_volume 2481.984816
_symmetry_space_group_name_H-M "A M A 2"
_symmetry_group_IT_number 40
_symmetry_cell_setting 'orthorhombic'
loop_
_space_group_symop_operation_xyz
x,y,z
-x,-y,z
1/2-x,y,z
1/2+x,-y,z
x,1/2+y,1/2+z
-x,1/2-y,1/2+z
1/2-x,1/2+y,1/2+z
1/2+x,1/2-y,1/2+z
loop_
_atom_site_type_symbol
_atom_site_label
_atom_site_fract_x
_atom_site_fract_y
_atom_site_fract_z
Si Si1 0.000958 0.103316 0.445930
Si Si2 0.750000 0.459307 0.441977
Si Si3 0.596046 0.707444 0.893345
Si Si4 0.032140 0.101562 0.104539
Si Si5 0.250000 0.062215 0.596896
Si Si6 0.750000 0.558366 0.588373
Si Si7 0.250000 0.961939 0.426063
Si Si8 0.901701 0.792067 0.123753
O O1 0.947757 0.157641 0.472046
O O2 0.881902 0.065975 0.480270
O O3 0.058013 0.096558 0.280049
O O4 0.119027 0.093944 0.561997
O O5 0.882305 0.437853 0.517213
O O6 0.750000 0.450229 0.268503
O O7 0.750000 0.517050 0.464056
O O8 0.750000 0.702760 0.842004
O O9 0.505989 0.718178 0.752345
O O10 0.573360 0.751899 0.001440
O O11 0.073296 0.155191 0.050867
O O12 0.876752 0.093311 0.068216
O O13 0.250000 0.014694 0.496058
O O14 0.750000 0.532746 0.748707
O O15 0.750000 0.789264 0.185795
#
# Coordination Sequence:
#
# PCOD8184010 Si02
#       8
#     8   4   8   8   4   4   4   8
#     4  10  21  40  63  89 115 160 204 249 292 351
#     4  12  24  40  55  88 127 159 196 251 303 358
#     4  10  22  41  64  93 124 156 199 248 297 356
#     4  10  21  40  64  87 117 158 204 249 292 355
#     4  12  26  36  59  88 125 161 198 245 307 360
#     4  10  22  38  65  88 113 157 208 249 299 352
#     4  10  20  40  63  88 115 155 206 253 293 348
#     4  10  22  40  64  93 124 158 197 247 300 353
#
# _framework density 19.339359999999999
#
# number of rings (size 3 to 8) (size 9 to 14) (size 15 to 20)
#    0.000    1.667    1.667    2.500    7.000    7.333 
#    0.000    0.000    0.000    0.000    0.000    0.000 
#    0.000    0.000    0.000    0.000    0.000    0.000 
#
# Total GULP energy -297710.807469 kJ/mol
# GULP energy per Si atom -12404.616978 kJ/mol
# Density = 1.929534 g / cm^3
# Si number density = 19.339360 Si / 1000 Ang^3
#
#
#
# Elastic Constant Matrix: (Units=GPa)
#
#
# Indices 1 2 3 4 5 6 
#
# 1 133.1122 42.3647 46.7653 0.0000 0.0000 0.0000
# 2 42.3647 103.2984 35.3120 0.0000 0.0000 0.0000
# 3 46.7653 35.3120 69.9265 0.0000 0.0000 0.0000
# 4 0.0000 0.0000 0.0000 27.3003 0.0000 0.0000
# 5 0.0000 0.0000 0.0000 0.0000 14.9431 0.0000
# 6 0.0000 0.0000 0.0000 0.0000 0.0000 40.0152
#
#
#
# Elastic Compliance Matrix: (Units=1/GPa)
#
#
# Indices 1 2 3 4 5 6 
#
# 1 0.010233 -0.002245 -0.005710 0.000000 0.000000 0.000000
# 2 -0.002245 0.012193 -0.004656 0.000000 0.000000 0.000000
# 3 -0.005710 -0.004656 0.020471 0.000000 0.000000 0.000000
# 4 0.000000 0.000000 0.000000 0.036630 0.000000 0.000000
# 5 0.000000 0.000000 0.000000 0.000000 0.066921 0.000000
# 6 0.000000 0.000000 0.000000 0.000000 0.000000 0.024991
#
#
# Mechanical properties :
#
#
# Convention : Reuss Voigt Hill
#
# Bulk Modulus (GPa) = 56.57710 61.69121 59.13415
# Shear Modulus (GPa) = 24.68520 28.57806 26.63163
#
# Velocity S-wave (km/s) = 3.57658 3.84828 3.71491
# Velocity P-wave (km/s) = 6.80987 7.19126 7.00316
#
# Compressibility (1/GPa) = 0.01767500
#
# Stress axis : x y z
#
# Youngs Moduli (GPa) = 97.72367 82.01451 48.85041
#
# Poissons Ratio (x) = 0.18411 0.27893
# Poissons Ratio (y) = 0.21937 0.22745
# Poissons Ratio (z) = 0.55800 0.38186
#
# Static dielectric constant tensor:
#      x y z
#    x 3.764700 0.000000 0.000000 
#    y 0.000000 3.673630 0.000000 
#    z 0.000000 0.000000 3.271210 
# 
# 
# High freq. dielectric constant tensor:
#      x y z
#    x 1.774860 0.000000 0.000000 
#    y 0.000000 1.766400 0.000000 
#    z 0.000000 0.000000 1.726340 
# 
# From -- ./inp_files/4689.got.cif
#   From: 2010.03.12/outbox.cif.g09.slc.cpg/sg40_3_cif.got.tgz:4689.got - 2010.04.14 01:38:03.
