data_PCOD8184751
_publ_section_title
;
Structure prediction by ZEFSAII (Michael W. Deem and Ramdas Pophale) SiO2 
 PCOD8184751
Probable space group: A B A 2
;
_chemical_formula_sum "Si O2"
_cell_formula_units_Z 48
_cell_length_a 17.287726
_cell_length_b 9.388454
_cell_length_c 15.927590
_cell_angle_alpha 90.000000
_cell_angle_beta 90.000000
_cell_angle_gamma 90.000000
_cell_volume 2585.127819
_symmetry_space_group_name_H-M "A B A 2"
_symmetry_group_IT_number 41
_symmetry_cell_setting 'orthorhombic'
loop_
_space_group_symop_operation_xyz
x,y,z
-x,-y,z
1/2-x,y,1/2+z
1/2+x,-y,1/2+z
x,1/2+y,1/2+z
-x,1/2-y,1/2+z
1/2-x,1/2+y,z
1/2+x,1/2-y,z
loop_
_atom_site_type_symbol
_atom_site_label
_atom_site_fract_x
_atom_site_fract_y
_atom_site_fract_z
Si Si1 0.663626 0.283264 0.232230
Si Si2 0.932068 0.394189 0.067282
Si Si3 0.319117 0.046783 0.217895
Si Si4 0.550512 0.366700 0.379870
Si Si5 0.485327 0.664826 0.152266
Si Si6 0.458802 0.149166 0.305281
O O1 0.690244 0.119873 0.237041
O O2 0.735727 0.384344 0.216284
O O3 0.621422 0.332014 0.317968
O O4 0.606977 0.304985 0.152021
O O5 0.859268 0.424339 0.127523
O O6 0.000000 0.500000 0.095591
O O7 0.967656 0.235895 0.076380
O O8 0.910716 0.407588 0.969293
O O9 0.367413 0.120017 0.294866
O O10 0.500000 0.500000 0.347022
O O11 0.491120 0.228686 0.388963
O O12 0.500000 0.500000 0.148719
O O13 0.516667 0.734561 0.237099
O O14 0.500000 0.000000 0.288867
#
# Coordination Sequence:
#
# PCOD8184751 Si02
#       6
#     8   8   8   8   8   8
#     4  11  22  37  57  89 114 159 196 242 289 364
#     4  10  20  42  61  83 116 162 191 254 300 343
#     4  11  22  36  61  82 123 158 200 237 299 358
#     4  10  22  38  63  88 118 148 206 250 301 342
#     4  10  19  34  59  85 113 148 208 239 277 351
#     4  10  17  36  59  81 110 158 197 242 284 344
#
# _framework density 18.567747000000001
#
# number of rings (size 3 to 8) (size 9 to 14) (size 15 to 20)
#    0.000    1.667    5.000    3.000    7.000    0.667 
#    0.000    3.333    0.000    0.000    0.000    0.000 
#    0.000    0.000    0.000    0.000    0.000    0.000 
#
# Total GULP energy -297331.346632 kJ/mol
# GULP energy per Si atom -12388.806110 kJ/mol
# Density = 1.852549 g / cm^3
# Si number density = 18.567747 Si / 1000 Ang^3
#
#
#
# Elastic Constant Matrix: (Units=GPa)
#
#
# Indices 1 2 3 4 5 6 
#
# 1 122.9363 54.6575 33.1747 0.0000 0.0000 0.0000
# 2 54.6575 160.1650 28.4051 0.0000 0.0000 0.0000
# 3 33.1747 28.4051 75.3435 0.0000 0.0000 0.0000
# 4 0.0000 0.0000 0.0000 68.6187 0.0000 0.0000
# 5 0.0000 0.0000 0.0000 0.0000 19.7244 0.0000
# 6 0.0000 0.0000 0.0000 0.0000 0.0000 40.7246
#
#
#
# Elastic Compliance Matrix: (Units=1/GPa)
#
#
# Indices 1 2 3 4 5 6 
#
# 1 0.010369 -0.002924 -0.003463 0.000000 0.000000 0.000000
# 2 -0.002924 0.007516 -0.001546 0.000000 0.000000 0.000000
# 3 -0.003463 -0.001546 0.015380 0.000000 0.000000 0.000000
# 4 0.000000 0.000000 0.000000 0.014573 0.000000 0.000000
# 5 0.000000 0.000000 0.000000 0.000000 0.050699 0.000000
# 6 0.000000 0.000000 0.000000 0.000000 0.000000 0.024555
#
#
# Mechanical properties :
#
#
# Convention : Reuss Voigt Hill
#
# Bulk Modulus (GPa) = 57.47688 65.65770 61.56729
# Shear Modulus (GPa) = 34.54046 41.96071 38.25058
#
# Velocity S-wave (km/s) = 4.31773 4.75897 4.54371
# Velocity P-wave (km/s) = 7.47526 8.10154 7.79469
#
# Compressibility (1/GPa) = 0.01739830
#
# Stress axis : x y z
#
# Youngs Moduli (GPa) = 96.44163 133.05550 65.01869
#
# Poissons Ratio (x) = 0.38910 0.22517
# Poissons Ratio (y) = 0.28203 0.10051
# Poissons Ratio (z) = 0.33399 0.20568
#
# Static dielectric constant tensor:
#      x y z
#    x 3.431780 0.000000 0.000000 
#    y 0.000000 3.713380 0.000000 
#    z 0.000000 0.000000 3.417990 
# 
# 
# High freq. dielectric constant tensor:
#      x y z
#    x 1.707430 0.000000 0.000000 
#    y 0.000000 1.745530 0.000000 
#    z 0.000000 0.000000 1.694020 
# 
# From -- ./inp_files/10297.got.cif
#   From: 2010.03.12/outbox.cif.g09.slc.cpg/sg41_6_cif.got.tgz:10297.got - 2010.04.14 01:55:53.
