data_PCOD8184513
_publ_section_title
;
Structure prediction by ZEFSAII (Michael W. Deem and Ramdas Pophale) SiO2 
 PCOD8184513
Probable space group: A M A 2
;
_chemical_formula_sum "Si O2"
_cell_formula_units_Z 48
_cell_length_a 21.447608
_cell_length_b 8.790694
_cell_length_c 11.208095
_cell_angle_alpha 90.000000
_cell_angle_beta 90.000000
_cell_angle_gamma 90.000000
_cell_volume 2113.167046
_symmetry_space_group_name_H-M "A M A 2"
_symmetry_group_IT_number 40
_symmetry_cell_setting 'orthorhombic'
loop_
_space_group_symop_operation_xyz
x,y,z
-x,-y,z
1/2-x,y,z
1/2+x,-y,z
x,1/2+y,1/2+z
-x,1/2-y,1/2+z
1/2-x,1/2+y,1/2+z
1/2+x,1/2-y,1/2+z
loop_
_atom_site_type_symbol
_atom_site_label
_atom_site_fract_x
_atom_site_fract_y
_atom_site_fract_z
Si Si1 0.632692 0.452739 0.943060
Si Si2 0.093294 0.771899 0.561390
Si Si3 0.956355 0.804972 0.611586
Si Si4 0.681951 0.140534 0.956652
Si Si5 0.619301 0.031954 0.177469
Si Si6 0.070184 0.553179 0.352225
O O1 0.685851 0.324488 0.941545
O O2 0.628161 0.542021 0.818236
O O3 0.642062 0.589417 0.039894
O O4 0.569958 0.360462 0.983218
O O5 0.118681 0.648270 0.652587
O O6 0.078965 0.699533 0.433900
O O7 0.029634 0.839784 0.617626
O O8 0.942752 0.623933 0.633603
O O9 0.920967 0.897305 0.715749
O O10 0.750000 0.078142 0.915324
O O11 0.624801 0.069549 0.880679
O O12 0.674908 0.104228 0.098290
O O13 0.000000 0.500000 0.379320
#
# Coordination Sequence:
#
# PCOD8184513 Si02
#       6
#     8   8   8   8   8   8
#     4  11  23  40  66  96 130 177 234 284 338 413
#     4  11  22  37  63  99 139 183 226 279 346 416
#     4  11  23  37  62 104 147 182 226 281 350 422
#     4  10  25  48  70  96 135 185 238 295 356 426
#     4  10  23  43  66  93 138 180 230 283 346 416
#     4  11  22  41  66 102 146 185 230 288 356 421
#
# _framework density 22.714721000000001
#
# number of rings (size 3 to 8) (size 9 to 14) (size 15 to 20)
#    0.000    1.333    1.667    5.000    7.000    2.000 
#    0.000    6.667    0.000    0.000    0.000    0.000 
#    0.000    0.000    0.000    0.000    0.000    0.000 
#
# Total GULP energy -297322.846339 kJ/mol
# GULP energy per Si atom -12388.451931 kJ/mol
# Density = 2.266302 g / cm^3
# Si number density = 22.714721 Si / 1000 Ang^3
#
#
#
# Elastic Constant Matrix: (Units=GPa)
#
#
# Indices 1 2 3 4 5 6 
#
# 1 113.6043 32.6312 18.8341 0.0000 0.0000 0.0000
# 2 32.6312 120.8795 29.1822 0.0000 0.0000 0.0000
# 3 18.8341 29.1822 84.7759 0.0000 0.0000 0.0000
# 4 0.0000 0.0000 0.0000 36.2276 0.0000 0.0000
# 5 0.0000 0.0000 0.0000 0.0000 9.1251 0.0000
# 6 0.0000 0.0000 0.0000 0.0000 0.0000 16.3599
#
#
#
# Elastic Compliance Matrix: (Units=1/GPa)
#
#
# Indices 1 2 3 4 5 6 
#
# 1 0.009685 -0.002285 -0.001365 0.000000 0.000000 0.000000
# 2 -0.002285 0.009562 -0.002784 0.000000 0.000000 0.000000
# 3 -0.001365 -0.002784 0.013057 0.000000 0.000000 0.000000
# 4 0.000000 0.000000 0.000000 0.027603 0.000000 0.000000
# 5 0.000000 0.000000 0.000000 0.000000 0.109587 0.000000
# 6 0.000000 0.000000 0.000000 0.000000 0.000000 0.061125
#
#
# Mechanical properties :
#
#
# Convention : Reuss Voigt Hill
#
# Bulk Modulus (GPa) = 51.44982 53.39497 52.42239
# Shear Modulus (GPa) = 20.00270 28.25000 24.12635
#
# Velocity S-wave (km/s) = 2.97072 3.53042 3.26259
# Velocity P-wave (km/s) = 5.87082 6.33848 6.10912
#
# Compressibility (1/GPa) = 0.01943642
#
# Stress axis : x y z
#
# Youngs Moduli (GPa) = 103.25127 104.58564 76.58532
#
# Poissons Ratio (x) = 0.23897 0.10455
# Poissons Ratio (y) = 0.23592 0.21319
# Poissons Ratio (z) = 0.14095 0.29114
#
# Static dielectric constant tensor:
#      x y z
#    x 3.666150 0.000000 0.000000 
#    y 0.000000 4.404070 0.000000 
#    z 0.000000 0.000000 4.092050 
# 
# 
# High freq. dielectric constant tensor:
#      x y z
#    x 1.837820 0.000000 0.000000 
#    y 0.000000 1.922640 0.000000 
#    z 0.000000 0.000000 1.901980 
# 
# From -- ./inp_files/13909.got.cif
#   From: 2010.03.12/outbox.cif.g09.slc.cpg/sg40_7_cif.got.tgz:13909.got - 2010.04.14 01:38:03.
