data_PCOD8184690
_publ_section_title
;
Structure prediction by ZEFSAII (Michael W. Deem and Ramdas Pophale) SiO2 
 PCOD8184690
Probable space group: A M A 2
;
_chemical_formula_sum "Si O2"
_cell_formula_units_Z 64
_cell_length_a 16.714177
_cell_length_b 14.835136
_cell_length_c 11.597997
_cell_angle_alpha 90.000000
_cell_angle_beta 90.000000
_cell_angle_gamma 90.000000
_cell_volume 2875.805573
_symmetry_space_group_name_H-M "A M A 2"
_symmetry_group_IT_number 40
_symmetry_cell_setting 'orthorhombic'
loop_
_space_group_symop_operation_xyz
x,y,z
-x,-y,z
1/2-x,y,z
1/2+x,-y,z
x,1/2+y,1/2+z
-x,1/2-y,1/2+z
1/2-x,1/2+y,1/2+z
1/2+x,1/2-y,1/2+z
loop_
_atom_site_type_symbol
_atom_site_label
_atom_site_fract_x
_atom_site_fract_y
_atom_site_fract_z
Si Si1 0.586291 0.043878 0.109460
Si Si2 0.157058 0.166897 0.594344
Si Si3 0.406647 0.480684 0.160927
Si Si4 0.921749 0.780627 0.362964
Si Si5 0.098872 0.296948 0.789035
Si Si6 0.340737 0.635529 0.667331
Si Si7 0.159281 0.312129 0.034768
Si Si8 0.156386 0.397573 0.377102
O O1 0.591636 0.110714 0.217574
O O2 0.500000 0.000000 0.101787
O O3 0.650591 0.963383 0.113460
O O4 0.606044 0.098874 0.994552
O O5 0.250000 0.185424 0.563784
O O6 0.098591 0.204178 0.496047
O O7 0.134394 0.216231 0.712936
O O8 0.141689 0.060751 0.600778
O O9 0.500000 0.500000 0.170088
O O10 0.396667 0.390049 0.086542
O O11 0.368860 0.475463 0.288809
O O12 0.894000 0.863863 0.283394
O O13 0.870370 0.695579 0.316284
O O14 0.015381 0.764776 0.344603
O O15 0.157243 0.314428 0.896156
O O16 0.250000 0.651535 0.702618
O O17 0.369784 0.713456 0.578641
O O18 0.250000 0.331386 0.074897
O O19 0.250000 0.400370 0.404068
#
# Coordination Sequence:
#
# PCOD8184690 Si02
#       8
#     8   8   8   8   8   8   8   8
#     4  12  27  46  69 106 142 188 239 297 360 432
#     4  12  27  47  73 107 146 190 241 296 361 430
#     4  12  26  46  74 107 144 188 237 296 359 430
#     4  12  25  45  74 103 140 191 240 293 354 433
#     4  12  28  46  73 105 149 186 236 300 363 427
#     4  11  25  46  73 102 139 187 240 293 359 428
#     4  11  26  47  73 104 143 187 238 297 360 428
#     4  12  25  46  74 103 142 188 240 297 356 425
#
# _framework density 22.254633999999999
#
# number of rings (size 3 to 8) (size 9 to 14) (size 15 to 20)
#    0.000    0.250    3.750    4.875    7.000    2.000 
#    0.000    0.000    0.000    0.000    0.000    0.000 
#    0.000    0.000    0.000    0.000    0.000    0.000 
#
# Total GULP energy -396996.862851 kJ/mol
# GULP energy per Si atom -12406.151964 kJ/mol
# Density = 2.220398 g / cm^3
# Si number density = 22.254634 Si / 1000 Ang^3
#
#
#
# Elastic Constant Matrix: (Units=GPa)
#
#
# Indices 1 2 3 4 5 6 
#
# 1 98.4554 31.9768 24.0266 0.0000 0.0000 0.0000
# 2 31.9768 112.1367 28.7110 0.0000 0.0000 0.0000
# 3 24.0266 28.7110 109.0011 0.0000 0.0000 0.0000
# 4 0.0000 0.0000 0.0000 28.5435 0.0000 0.0000
# 5 0.0000 0.0000 0.0000 0.0000 40.1764 0.0000
# 6 0.0000 0.0000 0.0000 0.0000 0.0000 38.1266
#
#
#
# Elastic Compliance Matrix: (Units=1/GPa)
#
#
# Indices 1 2 3 4 5 6 
#
# 1 0.011512 -0.002823 -0.001794 0.000000 0.000000 0.000000
# 2 -0.002823 0.010255 -0.002079 0.000000 0.000000 0.000000
# 3 -0.001794 -0.002079 0.010117 0.000000 0.000000 0.000000
# 4 0.000000 0.000000 0.000000 0.035034 0.000000 0.000000
# 5 0.000000 0.000000 0.000000 0.000000 0.024890 0.000000
# 6 0.000000 0.000000 0.000000 0.000000 0.000000 0.026228
#
#
# Mechanical properties :
#
#
# Convention : Reuss Voigt Hill
#
# Bulk Modulus (GPa) = 54.07782 54.33577 54.20680
# Shear Modulus (GPa) = 36.33914 37.02789 36.68351
#
# Velocity S-wave (km/s) = 4.04527 4.08343 4.06440
# Velocity P-wave (km/s) = 6.79495 6.83381 6.81441
#
# Compressibility (1/GPa) = 0.01849187
#
# Stress axis : x y z
#
# Youngs Moduli (GPa) = 86.86879 97.51291 98.84173
#
# Poissons Ratio (x) = 0.27531 0.17730
# Poissons Ratio (y) = 0.24526 0.20548
# Poissons Ratio (z) = 0.15582 0.20271
#
# Static dielectric constant tensor:
#      x y z
#    x 3.956020 0.000000 0.000000 
#    y 0.000000 4.230770 0.000000 
#    z 0.000000 0.000000 3.962980 
# 
# 
# High freq. dielectric constant tensor:
#      x y z
#    x 1.885470 0.000000 0.000000 
#    y 0.000000 1.884340 0.000000 
#    z 0.000000 0.000000 1.885420 
# 
# From -- ./inp_files/13116.got.cif
#   From: 2010.03.12/outbox.cif.g09.slc.cpg/sg40_7_cif.got.tgz:13116.got - 2010.04.14 01:38:03.
