data_PCOD8184030
_publ_section_title
;
Structure prediction by ZEFSAII (Michael W. Deem and Ramdas Pophale) SiO2 
 PCOD8184030
Probable space group: A M A 2
;
_chemical_formula_sum "Si O2"
_cell_formula_units_Z 64
_cell_length_a 17.671942
_cell_length_b 14.973293
_cell_length_c 11.709775
_cell_angle_alpha 90.000000
_cell_angle_beta 90.000000
_cell_angle_gamma 90.000000
_cell_volume 3098.490371
_symmetry_space_group_name_H-M "A M A 2"
_symmetry_group_IT_number 40
_symmetry_cell_setting 'orthorhombic'
loop_
_space_group_symop_operation_xyz
x,y,z
-x,-y,z
1/2-x,y,z
1/2+x,-y,z
x,1/2+y,1/2+z
-x,1/2-y,1/2+z
1/2-x,1/2+y,1/2+z
1/2+x,1/2-y,1/2+z
loop_
_atom_site_type_symbol
_atom_site_label
_atom_site_fract_x
_atom_site_fract_y
_atom_site_fract_z
Si Si1 0.424006 0.811787 0.571600
Si Si2 0.665182 0.512934 0.696899
Si Si3 0.338736 0.442986 0.233015
Si Si4 0.570526 0.842447 0.251807
Si Si5 0.398994 0.318385 0.812956
Si Si6 0.093500 0.202915 0.501598
Si Si7 0.336110 0.880975 0.982537
Si Si8 0.664555 0.856760 0.707880
O O1 0.389551 0.896998 0.636360
O O2 0.409266 0.722723 0.646456
O O3 0.384775 0.805290 0.448117
O O4 0.512223 0.827602 0.547926
O O5 0.750000 0.476287 0.720222
O O6 0.602740 0.440535 0.728889
O O7 0.657232 0.605387 0.767488
O O8 0.654834 0.532142 0.561927
O O9 0.250000 0.433324 0.201513
O O10 0.359264 0.400377 0.353583
O O11 0.362004 0.546059 0.247902
O O12 0.482105 0.850453 0.276966
O O13 0.609412 0.807713 0.367613
O O14 0.387540 0.220316 0.760491
O O15 0.106578 0.306999 0.531767
O O16 0.155216 0.144754 0.570256
O O17 0.250000 0.845161 0.989047
O O18 0.750000 0.837879 0.745151
#
# Coordination Sequence:
#
# PCOD8184030 Si02
#       8
#     8   8   8   8   8   8   8   8
#     4  11  24  43  65  92 132 167 210 266 323 378
#     4  11  24  41  66  97 128 170 216 264 325 385
#     4  10  24  42  64  96 131 170 214 265 323 381
#     4  11  24  43  64  95 130 169 214 265 323 386
#     4  11  24  43  65  94 131 168 211 270 325 385
#     4  11  22  41  68  92 124 171 217 257 316 384
#     4  10  20  41  68  94 128 168 213 266 317 376
#     4  11  23  42  67  95 128 168 216 264 320 386
#
# _framework density 20.65522
#
# number of rings (size 3 to 8) (size 9 to 14) (size 15 to 20)
#    0.000    1.250    3.750    1.125    3.500    3.000 
#    0.000    0.000    2.750    0.000    0.000    0.000 
#    0.000    0.000    0.000    0.000    0.000    0.000 
#
# Total GULP energy -396784.916732 kJ/mol
# GULP energy per Si atom -12399.528648 kJ/mol
# Density = 2.060821 g / cm^3
# Si number density = 20.655220 Si / 1000 Ang^3
#
#
#
# Elastic Constant Matrix: (Units=GPa)
#
#
# Indices 1 2 3 4 5 6 
#
# 1 80.3266 55.6327 41.9831 0.0000 0.0000 0.0000
# 2 55.6327 115.8996 37.0044 0.0000 0.0000 0.0000
# 3 41.9831 37.0044 125.1085 0.0000 0.0000 0.0000
# 4 0.0000 0.0000 0.0000 26.2328 0.0000 0.0000
# 5 0.0000 0.0000 0.0000 0.0000 28.5853 0.0000
# 6 0.0000 0.0000 0.0000 0.0000 0.0000 39.7358
#
#
#
# Elastic Compliance Matrix: (Units=1/GPa)
#
#
# Indices 1 2 3 4 5 6 
#
# 1 0.020642 -0.008499 -0.004413 0.000000 0.000000 0.000000
# 2 -0.008499 0.013028 -0.001001 0.000000 0.000000 0.000000
# 3 -0.004413 -0.001001 0.009770 0.000000 0.000000 0.000000
# 4 0.000000 0.000000 0.000000 0.038120 0.000000 0.000000
# 5 0.000000 0.000000 0.000000 0.000000 0.034983 0.000000
# 6 0.000000 0.000000 0.000000 0.000000 0.000000 0.025166
#
#
# Mechanical properties :
#
#
# Convention : Reuss Voigt Hill
#
# Bulk Modulus (GPa) = 64.05025 65.61946 64.83486
# Shear Modulus (GPa) = 28.61383 31.35841 29.98612
#
# Velocity S-wave (km/s) = 3.72601 3.90061 3.81431
# Velocity P-wave (km/s) = 7.04183 7.21972 7.13133
#
# Compressibility (1/GPa) = 0.01561274
#
# Stress axis : x y z
#
# Youngs Moduli (GPa) = 48.44443 76.76015 102.35350
#
# Poissons Ratio (x) = 0.65242 0.45169
# Poissons Ratio (y) = 0.41175 0.10247
# Poissons Ratio (z) = 0.21379 0.07684
#
# Static dielectric constant tensor:
#      x y z
#    x 3.645490 0.000000 0.000000 
#    y 0.000000 3.582670 0.000000 
#    z 0.000000 0.000000 4.045390 
# 
# 
# High freq. dielectric constant tensor:
#      x y z
#    x 1.802420 0.000000 0.000000 
#    y 0.000000 1.804800 0.000000 
#    z 0.000000 0.000000 1.824390 
# 
# From -- ./inp_files/13126.got.cif
#   From: 2010.03.12/outbox.cif.g09.slc.cpg/sg40_7_cif.got.tgz:13126.got - 2010.04.14 01:38:03.
