data_PCOD8184275
_publ_section_title
;
Structure prediction by ZEFSAII (Michael W. Deem and Ramdas Pophale) SiO2 
 PCOD8184275
Probable space group: A M A 2
;
_chemical_formula_sum "Si O2"
_cell_formula_units_Z 44
_cell_length_a 9.120136
_cell_length_b 9.243907
_cell_length_c 25.396848
_cell_angle_alpha 90.000000
_cell_angle_beta 90.000000
_cell_angle_gamma 90.000000
_cell_volume 2141.098769
_symmetry_space_group_name_H-M "A M A 2"
_symmetry_group_IT_number 40
_symmetry_cell_setting 'orthorhombic'
loop_
_space_group_symop_operation_xyz
x,y,z
-x,-y,z
1/2-x,y,z
1/2+x,-y,z
x,1/2+y,1/2+z
-x,1/2-y,1/2+z
1/2-x,1/2+y,1/2+z
1/2+x,1/2-y,1/2+z
loop_
_atom_site_type_symbol
_atom_site_label
_atom_site_fract_x
_atom_site_fract_y
_atom_site_fract_z
Si Si1 0.926856 0.153991 0.609280
Si Si2 0.414296 0.860338 0.182102
Si Si3 0.585826 0.145250 0.030373
Si Si4 0.250000 0.833135 0.394842
Si Si5 0.750000 0.600931 0.781208
Si Si6 0.250000 0.142203 0.359281
Si Si7 0.026317 0.335369 0.412477
O O1 0.750000 0.147961 0.609204
O O2 0.986853 0.227019 0.663105
O O3 0.988112 0.231282 0.557108
O O4 0.000000 0.000000 0.608537
O O5 0.250000 0.855612 0.156770
O O6 0.500000 0.000000 0.161048
O O7 0.395247 0.866767 0.245929
O O8 0.750000 0.141534 0.054582
O O9 0.500000 0.000000 0.043360
O O10 0.608642 0.165152 0.967958
O O11 0.117986 0.755551 0.423685
O O12 0.250000 0.794837 0.332045
O O13 0.250000 0.008161 0.401809
O O14 0.750000 0.431719 0.801144
O O15 0.388836 0.245906 0.367479
O O16 0.000000 0.500000 0.392623
#
# Coordination Sequence:
#
# PCOD8184275 Si02
#       7
#     8   8   8   4   4   4   8
#     4  12  26  45  69 100 141 178 226 296 360 419
#     4  10  21  40  69  95 126 173 232 281 347 417
#     4  11  24  43  68  99 138 187 235 279 348 429
#     4  10  23  37  66  91 134 178 233 292 338 418
#     4   8  24  38  73  90 136 172 243 286 345 419
#     4  10  21  41  63  95 130 182 232 288 351 401
#     4  11  23  40  65  97 140 185 232 287 349 422
#
# _framework density 20.550196
#
# number of rings (size 3 to 8) (size 9 to 14) (size 15 to 20)
#    1.091    0.364    0.909    4.364    7.636    1.455 
#    0.000    0.909    4.000    0.000    0.000    0.000 
#    0.000    0.000    0.000    0.000    0.000    0.000 
#
# Total GULP energy -272542.352197 kJ/mol
# GULP energy per Si atom -12388.288736 kJ/mol
# Density = 2.050342 g / cm^3
# Si number density = 20.550196 Si / 1000 Ang^3
#
#
#
# Elastic Constant Matrix: (Units=GPa)
#
#
# Indices 1 2 3 4 5 6 
#
# 1 175.8527 62.3735 16.1787 0.0000 0.0000 0.0000
# 2 62.3735 161.4740 34.5120 0.0000 0.0000 0.0000
# 3 16.1787 34.5120 85.4309 0.0000 0.0000 0.0000
# 4 0.0000 0.0000 0.0000 20.6450 0.0000 0.0000
# 5 0.0000 0.0000 0.0000 0.0000 31.7408 0.0000
# 6 0.0000 0.0000 0.0000 0.0000 0.0000 39.6842
#
#
#
# Elastic Compliance Matrix: (Units=1/GPa)
#
#
# Indices 1 2 3 4 5 6 
#
# 1 0.006594 -0.002496 -0.000241 0.000000 0.000000 0.000000
# 2 -0.002496 0.007723 -0.002647 0.000000 0.000000 0.000000
# 3 -0.000241 -0.002647 0.012820 0.000000 0.000000 0.000000
# 4 0.000000 0.000000 0.000000 0.048438 0.000000 0.000000
# 5 0.000000 0.000000 0.000000 0.000000 0.031505 0.000000
# 6 0.000000 0.000000 0.000000 0.000000 0.000000 0.025199
#
#
# Mechanical properties :
#
#
# Convention : Reuss Voigt Hill
#
# Bulk Modulus (GPa) = 61.08665 72.09846 66.59255
# Shear Modulus (GPa) = 33.66947 39.06023 36.36485
#
# Velocity S-wave (km/s) = 4.05211 4.36446 4.21118
# Velocity P-wave (km/s) = 7.18908 7.78192 7.49137
#
# Compressibility (1/GPa) = 0.01637019
#
# Stress axis : x y z
#
# Youngs Moduli (GPa) = 151.65547 129.48768 78.00115
#
# Poissons Ratio (x) = 0.32316 0.01876
# Poissons Ratio (y) = 0.37848 0.20648
# Poissons Ratio (z) = 0.03648 0.34278
#
# Static dielectric constant tensor:
#      x y z
#    x 3.459820 0.000000 0.000000 
#    y 0.000000 4.157230 0.000000 
#    z 0.000000 0.000000 3.514500 
# 
# 
# High freq. dielectric constant tensor:
#      x y z
#    x 1.819890 0.000000 0.000000 
#    y 0.000000 1.799440 0.000000 
#    z 0.000000 0.000000 1.791020 
# 
# From -- ./inp_files/26078.got.cif
#   From: 2010.03.12/outbox.cif.g09.slc.cpg/sg40_14_cif.got.tgz:26078.got - 2010.04.14 01:38:03.
