data_PCOD8184171
_publ_section_title
;
Structure prediction by ZEFSAII (Michael W. Deem and Ramdas Pophale) SiO2 
 PCOD8184171
Probable space group: A M A 2
;
_chemical_formula_sum "Si O2"
_cell_formula_units_Z 56
_cell_length_a 15.280474
_cell_length_b 14.589336
_cell_length_c 11.317528
_cell_angle_alpha 90.000000
_cell_angle_beta 90.000000
_cell_angle_gamma 90.000000
_cell_volume 2523.038806
_symmetry_space_group_name_H-M "A M A 2"
_symmetry_group_IT_number 40
_symmetry_cell_setting 'orthorhombic'
loop_
_space_group_symop_operation_xyz
x,y,z
-x,-y,z
1/2-x,y,z
1/2+x,-y,z
x,1/2+y,1/2+z
-x,1/2-y,1/2+z
1/2-x,1/2+y,1/2+z
1/2+x,1/2-y,1/2+z
loop_
_atom_site_type_symbol
_atom_site_label
_atom_site_fract_x
_atom_site_fract_y
_atom_site_fract_z
Si Si1 0.064697 0.860962 0.698120
Si Si2 0.350406 0.675219 0.632322
Si Si3 0.845022 0.190220 0.279692
Si Si4 0.102715 0.692666 0.069474
Si Si5 0.598065 0.999314 0.273380
Si Si6 0.981164 0.799750 0.923567
Si Si7 0.153244 0.498155 0.032722
O O1 0.127922 0.771534 0.696721
O O2 0.992615 0.844758 0.600403
O O3 0.013474 0.872835 0.823690
O O4 0.113029 0.953379 0.652905
O O5 0.250000 0.677655 0.585460
O O6 0.356507 0.594055 0.729715
O O7 0.419672 0.654604 0.525264
O O8 0.750000 0.198308 0.343149
O O9 0.844202 0.258176 0.170739
O O10 0.923496 0.216899 0.368107
O O11 0.855674 0.089605 0.221304
O O12 0.163125 0.607405 0.038239
O O13 0.076217 0.762134 0.964788
O O14 0.599000 0.019957 0.414090
O O15 0.500000 0.000000 0.226719
O O16 0.250000 0.456293 0.017021
#
# Coordination Sequence:
#
# PCOD8184171 Si02
#       7
#     8   8   8   8   8   8   8
#     4  10  21  38  61  90 125 165 208 255 314 382
#     4  11  22  39  63  97 129 161 210 271 323 374
#     4  11  22  39  60  87 120 158 200 251 307 367
#     4  10  21  39  60  85 118 158 202 250 306 369
#     4  12  23  39  64  92 121 160 208 256 313 380
#     4  10  21  40  65  88 124 170 208 254 316 382
#     4  12  23  38  62  93 123 160 208 263 310 362
#
# _framework density 22.195457000000001
#
# number of rings (size 3 to 8) (size 9 to 14) (size 15 to 20)
#    0.000    1.143    0.000    9.857    0.000    0.000 
#    0.000   10.714    0.000    0.000    0.000    0.000 
#    0.000    0.000    0.000    0.000    0.000    0.000 
#
# Total GULP energy -346877.670754 kJ/mol
# GULP energy per Si atom -12388.488241 kJ/mol
# Density = 2.214494 g / cm^3
# Si number density = 22.195457 Si / 1000 Ang^3
#
#
#
# Elastic Constant Matrix: (Units=GPa)
#
#
# Indices 1 2 3 4 5 6 
#
# 1 100.9591 20.8116 29.8528 0.0000 0.0000 0.0000
# 2 20.8116 75.3923 23.1741 0.0000 0.0000 0.0000
# 3 29.8528 23.1741 91.5361 0.0000 0.0000 0.0000
# 4 0.0000 0.0000 0.0000 32.8892 0.0000 0.0000
# 5 0.0000 0.0000 0.0000 0.0000 21.5969 0.0000
# 6 0.0000 0.0000 0.0000 0.0000 0.0000 43.3879
#
#
#
# Elastic Compliance Matrix: (Units=1/GPa)
#
#
# Indices 1 2 3 4 5 6 
#
# 1 0.011274 -0.002149 -0.003133 0.000000 0.000000 0.000000
# 2 -0.002149 0.014793 -0.003044 0.000000 0.000000 0.000000
# 3 -0.003133 -0.003044 0.012717 0.000000 0.000000 0.000000
# 4 0.000000 0.000000 0.000000 0.030405 0.000000 0.000000
# 5 0.000000 0.000000 0.000000 0.000000 0.046303 0.000000
# 6 0.000000 0.000000 0.000000 0.000000 0.000000 0.023048
#
#
# Mechanical properties :
#
#
# Convention : Reuss Voigt Hill
#
# Bulk Modulus (GPa) = 45.18365 46.17385 45.67875
# Shear Modulus (GPa) = 30.75595 32.51139 31.63367
#
# Velocity S-wave (km/s) = 3.72652 3.83139 3.77932
# Velocity P-wave (km/s) = 6.23837 6.35777 6.29835
#
# Compressibility (1/GPa) = 0.02213190
#
# Stress axis : x y z
#
# Youngs Moduli (GPa) = 88.69655 67.59967 78.63452
#
# Poissons Ratio (x) = 0.14529 0.24635
# Poissons Ratio (y) = 0.19063 0.23938
# Poissons Ratio (z) = 0.27787 0.20579
#
# Static dielectric constant tensor:
#      x y z
#    x 4.009720 0.000000 0.000000 
#    y 0.000000 4.269950 0.000000 
#    z 0.000000 0.000000 3.928150 
# 
# 
# High freq. dielectric constant tensor:
#      x y z
#    x 1.880340 0.000000 0.000000 
#    y 0.000000 1.866910 0.000000 
#    z 0.000000 0.000000 1.858540 
# 
# From -- ./inp_files/12225.got.cif
#   From: 2010.03.12/outbox.cif.g09.slc.cpg/sg40_7_cif.got.tgz:12225.got - 2010.04.14 01:38:03.
