data_PCOD8184437
_publ_section_title
;
Structure prediction by ZEFSAII (Michael W. Deem and Ramdas Pophale) SiO2 
 PCOD8184437
Probable space group: A M A 2
;
_chemical_formula_sum "Si O2"
_cell_formula_units_Z 48
_cell_length_a 16.967095
_cell_length_b 11.836715
_cell_length_c 10.696721
_cell_angle_alpha 90.000000
_cell_angle_beta 90.000000
_cell_angle_gamma 90.000000
_cell_volume 2148.272410
_symmetry_space_group_name_H-M "A M A 2"
_symmetry_group_IT_number 40
_symmetry_cell_setting 'orthorhombic'
loop_
_space_group_symop_operation_xyz
x,y,z
-x,-y,z
1/2-x,y,z
1/2+x,-y,z
x,1/2+y,1/2+z
-x,1/2-y,1/2+z
1/2-x,1/2+y,1/2+z
1/2+x,1/2-y,1/2+z
loop_
_atom_site_type_symbol
_atom_site_label
_atom_site_fract_x
_atom_site_fract_y
_atom_site_fract_z
Si Si1 0.593219 0.719449 0.461640
Si Si2 0.909707 0.770520 0.952407
Si Si3 0.591406 0.529239 0.057700
Si Si4 0.656665 0.345086 0.197599
Si Si5 0.160362 0.587449 0.824062
Si Si6 0.407261 0.007341 0.078657
O O1 0.501722 0.713505 0.426596
O O2 0.606425 0.790188 0.586815
O O3 0.633484 0.780770 0.341831
O O4 0.628510 0.595478 0.495772
O O5 0.893930 0.662603 0.040713
O O6 0.864873 0.772917 0.820060
O O7 0.873164 0.876345 0.025383
O O8 0.500000 0.500000 0.035510
O O9 0.646905 0.472227 0.955120
O O10 0.623884 0.476727 0.190897
O O11 0.750000 0.339250 0.175007
O O12 0.250000 0.586807 0.782737
O O13 0.114181 0.509818 0.724619
O O14 0.500000 0.000000 0.068662
#
# Coordination Sequence:
#
# PCOD8184437 Si02
#       6
#     8   8   8   8   8   8
#     4  10  22  42  66  95 133 172 229 279 336 411
#     4  11  24  41  67  98 130 178 230 278 335 414
#     4  11  21  41  68  96 128 176 234 278 329 416
#     4  11  25  43  68 101 139 176 222 288 350 394
#     4  11  23  39  67  97 129 174 226 280 346 404
#     4  10  24  41  62  95 132 174 222 279 336 406
#
# _framework density 22.343533999999998
#
# number of rings (size 3 to 8) (size 9 to 14) (size 15 to 20)
#    0.000    1.333    3.333    3.500    4.667    8.000 
#    0.000    1.667    0.000    0.000    0.000    0.000 
#    0.000    0.000    0.000    0.000    0.000    0.000 
#
# Total GULP energy -297356.766007 kJ/mol
# GULP energy per Si atom -12389.865250 kJ/mol
# Density = 2.229268 g / cm^3
# Si number density = 22.343534 Si / 1000 Ang^3
#
#
#
# Elastic Constant Matrix: (Units=GPa)
#
#
# Indices 1 2 3 4 5 6 
#
# 1 65.4076 22.6828 19.1360 0.0000 0.0000 0.0000
# 2 22.6828 161.5549 19.7892 0.0000 0.0000 0.0000
# 3 19.1360 19.7892 50.0403 0.0000 0.0000 0.0000
# 4 0.0000 0.0000 0.0000 30.8373 0.0000 0.0000
# 5 0.0000 0.0000 0.0000 0.0000 16.2181 0.0000
# 6 0.0000 0.0000 0.0000 0.0000 0.0000 22.1634
#
#
#
# Elastic Compliance Matrix: (Units=1/GPa)
#
#
# Indices 1 2 3 4 5 6 
#
# 1 0.017667 -0.001737 -0.006069 0.000000 0.000000 0.000000
# 2 -0.001737 0.006676 -0.001976 0.000000 0.000000 0.000000
# 3 -0.006069 -0.001976 0.023086 0.000000 0.000000 0.000000
# 4 0.000000 0.000000 0.000000 0.032428 0.000000 0.000000
# 5 0.000000 0.000000 0.000000 0.000000 0.061659 0.000000
# 6 0.000000 0.000000 0.000000 0.000000 0.000000 0.045119
#
#
# Mechanical properties :
#
#
# Convention : Reuss Voigt Hill
#
# Bulk Modulus (GPa) = 35.88742 44.46875 40.17809
# Shear Modulus (GPa) = 23.20318 28.20341 25.70330
#
# Velocity S-wave (km/s) = 3.22603 3.55669 3.39539
# Velocity P-wave (km/s) = 5.47475 6.06731 5.77863
#
# Compressibility (1/GPa) = 0.02786492
#
# Stress axis : x y z
#
# Youngs Moduli (GPa) = 56.60357 149.79586 43.31614
#
# Poissons Ratio (x) = 0.26020 0.26289
# Poissons Ratio (y) = 0.09832 0.08558
# Poissons Ratio (z) = 0.34353 0.29596
#
# Static dielectric constant tensor:
#      x y z
#    x 3.743550 0.000000 0.000000 
#    y 0.000000 4.950550 0.000000 
#    z 0.000000 0.000000 4.114240 
# 
# 
# High freq. dielectric constant tensor:
#      x y z
#    x 1.865150 0.000000 0.000000 
#    y 0.000000 1.896320 0.000000 
#    z 0.000000 0.000000 1.867930 
# 
# From -- ./inp_files/12916.got.cif
#   From: 2010.03.12/outbox.cif.g09.slc.cpg/sg40_7_cif.got.tgz:12916.got - 2010.04.14 01:38:03.
