data_PCOD8184605
_publ_section_title
;
Structure prediction by ZEFSAII (Michael W. Deem and Ramdas Pophale) SiO2 
 PCOD8184605
Probable space group: A M A 2
;
_chemical_formula_sum "Si O2"
_cell_formula_units_Z 64
_cell_length_a 16.974777
_cell_length_b 9.899471
_cell_length_c 20.224366
_cell_angle_alpha 90.000000
_cell_angle_beta 90.000000
_cell_angle_gamma 90.000000
_cell_volume 3398.529010
_symmetry_space_group_name_H-M "A M A 2"
_symmetry_group_IT_number 40
_symmetry_cell_setting 'orthorhombic'
loop_
_space_group_symop_operation_xyz
x,y,z
-x,-y,z
1/2-x,y,z
1/2+x,-y,z
x,1/2+y,1/2+z
-x,1/2-y,1/2+z
1/2-x,1/2+y,1/2+z
1/2+x,1/2-y,1/2+z
loop_
_atom_site_type_symbol
_atom_site_label
_atom_site_fract_x
_atom_site_fract_y
_atom_site_fract_z
Si Si1 0.562018 0.884555 0.790240
Si Si2 0.841503 0.285943 0.051570
Si Si3 0.906993 0.988451 0.656010
Si Si4 0.660447 0.281318 0.898410
Si Si5 0.339979 0.532869 0.405889
Si Si6 0.656916 0.786065 0.165849
Si Si7 0.343547 0.013685 0.051380
Si Si8 0.049220 0.135188 0.285924
O O1 0.616219 0.919645 0.726134
O O2 0.516537 0.747718 0.777923
O O3 0.500000 0.000000 0.806182
O O4 0.616726 0.869398 0.854425
O O5 0.750000 0.297276 0.068232
O O6 0.885370 0.397686 0.093947
O O7 0.873747 0.136530 0.070847
O O8 0.857760 0.314481 0.974591
O O9 0.864999 0.132385 0.650052
O O10 0.000000 0.000000 0.656885
O O11 0.750000 0.326025 0.881013
O O12 0.651083 0.122527 0.883617
O O13 0.596710 0.361840 0.854952
O O14 0.250000 0.578542 0.405890
O O15 0.376923 0.554231 0.479061
O O16 0.750000 0.798230 0.177449
O O17 0.628491 0.876178 0.103940
O O18 0.614056 0.846077 0.229298
O O19 0.250000 0.004294 0.044867
O O20 0.000000 0.000000 0.278614
#
# Coordination Sequence:
#
# PCOD8184605 Si02
#       8
#     8   8   8   8   8   8   8   8
#     4  11  21  40  57  83 117 145 192 246 283 347
#     4   9  19  37  62  87 114 149 195 245 287 344
#     4  11  22  38  57  86 121 151 191 245 296 349
#     4   9  18  38  64  86 111 153 200 237 287 357
#     4   9  17  36  65  88 109 148 198 242 283 340
#     4  11  22  40  64  86 115 161 201 237 292 358
#     4   8  18  36  59  88 114 143 192 241 281 337
#     4  12  25  40  58  85 122 154 192 246 303 346
#
# _framework density 18.831678
#
# number of rings (size 3 to 8) (size 9 to 14) (size 15 to 20)
#    0.000    2.000    3.750    2.250    1.750    2.500 
#    4.500    1.875    0.000    0.000    0.000    0.000 
#    0.000    0.000    0.000    0.000    0.000    0.000 
#
# Total GULP energy -396762.713901 kJ/mol
# GULP energy per Si atom -12398.834809 kJ/mol
# Density = 1.878882 g / cm^3
# Si number density = 18.831678 Si / 1000 Ang^3
#
#
#
# Elastic Constant Matrix: (Units=GPa)
#
#
# Indices 1 2 3 4 5 6 
#
# 1 60.5313 43.9827 47.3255 0.0000 0.0000 0.0000
# 2 43.9827 115.8732 63.4805 0.0000 0.0000 0.0000
# 3 47.3255 63.4805 129.9448 0.0000 0.0000 0.0000
# 4 0.0000 0.0000 0.0000 30.0996 0.0000 0.0000
# 5 0.0000 0.0000 0.0000 0.0000 16.3121 0.0000
# 6 0.0000 0.0000 0.0000 0.0000 0.0000 27.5545
#
#
#
# Elastic Compliance Matrix: (Units=1/GPa)
#
#
# Indices 1 2 3 4 5 6 
#
# 1 0.026201 -0.006442 -0.006396 0.000000 0.000000 0.000000
# 2 -0.006442 0.013368 -0.004184 0.000000 0.000000 0.000000
# 3 -0.006396 -0.004184 0.012069 0.000000 0.000000 0.000000
# 4 0.000000 0.000000 0.000000 0.033223 0.000000 0.000000
# 5 0.000000 0.000000 0.000000 0.000000 0.061304 0.000000
# 6 0.000000 0.000000 0.000000 0.000000 0.000000 0.036292
#
#
# Mechanical properties :
#
#
# Convention : Reuss Voigt Hill
#
# Bulk Modulus (GPa) = 56.83504 68.43631 62.63568
# Shear Modulus (GPa) = 22.48561 24.89727 23.69144
#
# Velocity S-wave (km/s) = 3.45922 3.64001 3.55077
# Velocity P-wave (km/s) = 6.79714 7.35433 7.08121
#
# Compressibility (1/GPa) = 0.01759478
#
# Stress axis : x y z
#
# Youngs Moduli (GPa) = 38.16625 74.80817 82.85740
#
# Poissons Ratio (x) = 0.48188 0.52992
# Poissons Ratio (y) = 0.24585 0.34670
# Poissons Ratio (z) = 0.24409 0.31302
#
# Static dielectric constant tensor:
#      x y z
#    x 3.369130 0.000000 0.000000 
#    y 0.000000 3.283730 0.000000 
#    z 0.000000 0.000000 3.712300 
# 
# 
# High freq. dielectric constant tensor:
#      x y z
#    x 1.722730 0.000000 0.000000 
#    y 0.000000 1.717430 0.000000 
#    z 0.000000 0.000000 1.745210 
# 
# From -- ./inp_files/23340.got.cif
#   From: 2010.03.12/outbox.cif.g09.slc.cpg/sg40_12_cif.got.tgz:23340.got - 2010.04.14 01:38:03.
