data_PCOD8184042
_publ_section_title
;
Structure prediction by ZEFSAII (Michael W. Deem and Ramdas Pophale) SiO2 
 PCOD8184042
Probable space group: A M A 2
;
_chemical_formula_sum "Si O2"
_cell_formula_units_Z 64
_cell_length_a 16.966469
_cell_length_b 8.765052
_cell_length_c 23.251182
_cell_angle_alpha 90.000000
_cell_angle_beta 90.000000
_cell_angle_gamma 90.000000
_cell_volume 3457.729383
_symmetry_space_group_name_H-M "A M A 2"
_symmetry_group_IT_number 40
_symmetry_cell_setting 'orthorhombic'
loop_
_space_group_symop_operation_xyz
x,y,z
-x,-y,z
1/2-x,y,z
1/2+x,-y,z
x,1/2+y,1/2+z
-x,1/2-y,1/2+z
1/2-x,1/2+y,1/2+z
1/2+x,1/2-y,1/2+z
loop_
_atom_site_type_symbol
_atom_site_label
_atom_site_fract_x
_atom_site_fract_y
_atom_site_fract_z
Si Si1 0.984680 0.174518 0.726310
Si Si2 0.073066 0.396828 0.644016
Si Si3 0.073261 0.396058 0.940271
Si Si4 0.159564 0.354524 0.050298
Si Si5 0.159150 0.687560 0.666897
Si Si6 0.660260 0.813597 0.419220
Si Si7 0.484245 0.326843 0.360239
Si Si8 0.160641 0.204822 0.552184
O O1 0.894901 0.219337 0.711255
O O2 0.997169 0.203722 0.793338
O O3 0.047840 0.278507 0.693238
O O4 0.000000 0.000000 0.709283
O O5 0.141109 0.506841 0.669592
O O6 0.101978 0.309571 0.587802
O O7 0.000000 0.500000 0.624473
O O8 0.140419 0.506369 0.913771
O O9 0.000000 0.500000 0.959988
O O10 0.048466 0.275274 0.892578
O O11 0.105806 0.306873 0.996089
O O12 0.250000 0.334999 0.031595
O O13 0.138061 0.245548 0.102961
O O14 0.142504 0.529362 0.067412
O O15 0.250000 0.718495 0.682887
O O16 0.750000 0.787239 0.399612
O O17 0.604827 0.714363 0.378010
O O18 0.646644 0.762166 0.485006
O O19 0.500000 0.500000 0.377130
O O20 0.250000 0.245495 0.569531
#
# Coordination Sequence:
#
# PCOD8184042 Si02
#       8
#     8   8   8   8   8   8   8   8
#     4  10  22  40  57  73 101 142 184 221 259 311
#     4  10  21  33  52  79 107 135 171 218 267 313
#     4   9  18  32  55  79 105 138 175 214 256 311
#     4   9  18  33  53  78 108 140 172 207 253 312
#     4  10  21  35  54  82 110 137 172 217 269 315
#     4   9  19  35  56  81 107 140 178 213 257 313
#     4  10  22  38  55  77 105 138 178 223 267 309
#     4   9  17  32  53  77 107 140 173 209 254 314
#
# _framework density 18.509257000000002
#
# number of rings (size 3 to 8) (size 9 to 14) (size 15 to 20)
#    0.000    2.500    0.000    2.250    0.000   13.000 
#    0.000    3.125    0.000    5.250    0.000    0.000 
#    0.000    0.000    0.000    0.000    0.000    0.000 
#
# Total GULP energy -396842.691664 kJ/mol
# GULP energy per Si atom -12401.334114 kJ/mol
# Density = 1.846713 g / cm^3
# Si number density = 18.509257 Si / 1000 Ang^3
#
#
#
# Elastic Constant Matrix: (Units=GPa)
#
#
# Indices 1 2 3 4 5 6 
#
# 1 74.8502 52.8759 47.6848 0.0000 0.0000 0.0000
# 2 52.8759 111.3827 66.2176 0.0000 0.0000 0.0000
# 3 47.6848 66.2176 87.2174 0.0000 0.0000 0.0000
# 4 0.0000 0.0000 0.0000 29.8971 0.0000 0.0000
# 5 0.0000 0.0000 0.0000 0.0000 23.2805 0.0000
# 6 0.0000 0.0000 0.0000 0.0000 0.0000 25.3675
#
#
#
# Elastic Compliance Matrix: (Units=1/GPa)
#
#
# Indices 1 2 3 4 5 6 
#
# 1 0.022609 -0.006168 -0.007678 0.000000 0.000000 0.000000
# 2 -0.006168 0.018047 -0.010329 0.000000 0.000000 0.000000
# 3 -0.007678 -0.010329 0.023506 0.000000 0.000000 0.000000
# 4 0.000000 0.000000 0.000000 0.033448 0.000000 0.000000
# 5 0.000000 0.000000 0.000000 0.000000 0.042954 0.000000
# 6 0.000000 0.000000 0.000000 0.000000 0.000000 0.039421
#
#
# Mechanical properties :
#
#
# Convention : Reuss Voigt Hill
#
# Bulk Modulus (GPa) = 63.24938 67.44524 65.34731
# Shear Modulus (GPa) = 21.40353 22.82048 22.11201
#
# Velocity S-wave (km/s) = 3.40423 3.51511 3.46011
# Velocity P-wave (km/s) = 7.04966 7.27959 7.16555
#
# Compressibility (1/GPa) = 0.01581043
#
# Stress axis : x y z
#
# Youngs Moduli (GPa) = 44.23048 55.41018 42.54287
#
# Poissons Ratio (x) = 0.34179 0.32664
# Poissons Ratio (y) = 0.27283 0.43944
# Poissons Ratio (z) = 0.33959 0.57236
#
# Static dielectric constant tensor:
#      x y z
#    x 3.532910 0.000000 0.000000 
#    y 0.000000 3.500620 0.000000 
#    z 0.000000 0.000000 3.229110 
# 
# 
# High freq. dielectric constant tensor:
#      x y z
#    x 1.724890 0.000000 0.000000 
#    y 0.000000 1.717440 0.000000 
#    z 0.000000 0.000000 1.706220 
# 
# From -- ./inp_files/23372.got.cif
#   From: 2010.03.12/outbox.cif.g09.slc.cpg/sg40_12_cif.got.tgz:23372.got - 2010.04.14 01:38:03.
