data_PCOD8184353
_publ_section_title
;
Structure prediction by ZEFSAII (Michael W. Deem and Ramdas Pophale) SiO2 
 PCOD8184353
Probable space group: A M A 2
;
_chemical_formula_sum "Si O2"
_cell_formula_units_Z 40
_cell_length_a 19.130339
_cell_length_b 8.754020
_cell_length_c 11.135346
_cell_angle_alpha 90.000000
_cell_angle_beta 90.000000
_cell_angle_gamma 90.000000
_cell_volume 1864.807111
_symmetry_space_group_name_H-M "A M A 2"
_symmetry_group_IT_number 40
_symmetry_cell_setting 'orthorhombic'
loop_
_space_group_symop_operation_xyz
x,y,z
-x,-y,z
1/2-x,y,z
1/2+x,-y,z
x,1/2+y,1/2+z
-x,1/2-y,1/2+z
1/2-x,1/2+y,1/2+z
1/2+x,1/2-y,1/2+z
loop_
_atom_site_type_symbol
_atom_site_label
_atom_site_fract_x
_atom_site_fract_y
_atom_site_fract_z
Si Si1 0.591565 0.537416 0.354390
Si Si2 0.528464 0.266783 0.457894
Si Si3 0.169615 0.681689 0.891291
Si Si4 0.575619 0.045514 0.267699
Si Si5 0.585712 0.329321 0.125844
O O1 0.584671 0.408057 0.461459
O O2 0.530643 0.664791 0.367556
O O3 0.662595 0.634421 0.371551
O O4 0.586889 0.464619 0.222402
O O5 0.562462 0.117921 0.399466
O O6 0.493935 0.207768 0.581162
O O7 0.250000 0.634250 0.887179
O O8 0.128505 0.595333 0.783950
O O9 0.137752 0.628755 0.018596
O O10 0.612841 0.171470 0.184427
O O11 0.500000 0.000000 0.211712
#
# Coordination Sequence:
#
# PCOD8184353 Si02
#       5
#     8   8   8   8   8
#     4   9  19  37  61  88 121 159 201 253 307 372
#     4   9  19  37  59  97 122 148 195 265 314 358
#     4  11  25  44  59  87 133 170 208 256 310 380
#     4  11  21  38  63  97 123 157 205 270 309 361
#     4  10  22  38  66  91 124 160 204 251 325 366
#
# _framework density 21.449938
#
# number of rings (size 3 to 8) (size 9 to 14) (size 15 to 20)
#    0.000    2.000    4.000    0.000    5.600    8.000 
#    0.000    3.000    0.000    0.000    0.000    0.000 
#    0.000    0.000    0.000    0.000    0.000    0.000 
#
# Total GULP energy -247795.616590 kJ/mol
# GULP energy per Si atom -12389.780829 kJ/mol
# Density = 2.140112 g / cm^3
# Si number density = 21.449938 Si / 1000 Ang^3
#
#
#
# Elastic Constant Matrix: (Units=GPa)
#
#
# Indices 1 2 3 4 5 6 
#
# 1 81.5714 19.9076 2.3551 0.0000 0.0000 0.0000
# 2 19.9076 71.9912 6.2012 0.0000 0.0000 0.0000
# 3 2.3551 6.2012 57.4006 0.0000 0.0000 0.0000
# 4 0.0000 0.0000 0.0000 34.1916 0.0000 0.0000
# 5 0.0000 0.0000 0.0000 0.0000 11.7318 0.0000
# 6 0.0000 0.0000 0.0000 0.0000 0.0000 24.4588
#
#
#
# Elastic Compliance Matrix: (Units=1/GPa)
#
#
# Indices 1 2 3 4 5 6 
#
# 1 0.013148 -0.003623 -0.000148 0.000000 0.000000 0.000000
# 2 -0.003623 0.015019 -0.001474 0.000000 0.000000 0.000000
# 3 -0.000148 -0.001474 0.017587 0.000000 0.000000 0.000000
# 4 0.000000 0.000000 0.000000 0.029247 0.000000 0.000000
# 5 0.000000 0.000000 0.000000 0.000000 0.085238 0.000000
# 6 0.000000 0.000000 0.000000 0.000000 0.000000 0.040885
#
#
# Mechanical properties :
#
#
# Convention : Reuss Voigt Hill
#
# Bulk Modulus (GPa) = 28.35762 29.76569 29.06165
# Shear Modulus (GPa) = 22.38454 26.24307 24.31381
#
# Velocity S-wave (km/s) = 3.23394 3.50159 3.37042
# Velocity P-wave (km/s) = 5.21474 5.50046 5.35951
#
# Compressibility (1/GPa) = 0.03526389
#
# Stress axis : x y z
#
# Youngs Moduli (GPa) = 76.05919 66.58055 56.86106
#
# Poissons Ratio (x) = 0.24122 0.00842
# Poissons Ratio (y) = 0.27556 0.08381
# Poissons Ratio (z) = 0.01126 0.09814
#
# Static dielectric constant tensor:
#      x y z
#    x 3.578590 0.000000 0.000000 
#    y 0.000000 4.266590 0.000000 
#    z 0.000000 0.000000 3.739920 
# 
# 
# High freq. dielectric constant tensor:
#      x y z
#    x 1.777100 0.000000 0.000000 
#    y 0.000000 1.867140 0.000000 
#    z 0.000000 0.000000 1.835300 
# 
# From -- ./inp_files/13439.got.cif
#   From: 2010.03.12/outbox.cif.g09.slc.cpg/sg40_7_cif.got.tgz:13439.got - 2010.04.14 01:38:03.
