data_PCOD8184680
_publ_section_title
;
Structure prediction by ZEFSAII (Michael W. Deem and Ramdas Pophale) SiO2 
 PCOD8184680
Probable space group: A M A 2
;
_chemical_formula_sum "Si O2"
_cell_formula_units_Z 44
_cell_length_a 12.971849
_cell_length_b 12.383738
_cell_length_c 13.562420
_cell_angle_alpha 90.000000
_cell_angle_beta 90.000000
_cell_angle_gamma 90.000000
_cell_volume 2178.666869
_symmetry_space_group_name_H-M "A M A 2"
_symmetry_group_IT_number 40
_symmetry_cell_setting 'orthorhombic'
loop_
_space_group_symop_operation_xyz
x,y,z
-x,-y,z
1/2-x,y,z
1/2+x,-y,z
x,1/2+y,1/2+z
-x,1/2-y,1/2+z
1/2-x,1/2+y,1/2+z
1/2+x,1/2-y,1/2+z
loop_
_atom_site_type_symbol
_atom_site_label
_atom_site_fract_x
_atom_site_fract_y
_atom_site_fract_z
Si Si1 0.750000 0.731953 0.764431
Si Si2 0.084885 0.706149 0.957084
Si Si3 0.973697 0.622875 0.770849
Si Si4 0.750000 0.124175 0.684779
Si Si5 0.250000 0.124182 0.959529
Si Si6 0.250000 0.378865 0.415383
Si Si7 0.084277 0.224599 0.094991
Si Si8 0.750000 0.895014 0.579313
O O1 0.851848 0.655487 0.773554
O O2 0.750000 0.818807 0.852891
O O3 0.750000 0.798154 0.661218
O O4 0.148741 0.817424 0.953821
O O5 0.041990 0.688987 0.848051
O O6 0.154297 0.611414 0.003837
O O7 0.990421 0.704714 0.030257
O O8 0.000000 0.500000 0.796629
O O9 0.018277 0.645981 0.663396
O O10 0.750000 0.105902 0.799516
O O11 0.850465 0.191531 0.658038
O O12 0.750000 0.010044 0.630592
O O13 0.250000 0.996640 0.958961
O O14 0.149674 0.153672 0.020487
#
# Coordination Sequence:
#
# PCOD8184680 Si02
#       8
#     4   8   8   4   4   4   8   4
#     4  12  24  48  66 110 134 170 232 296 324 406
#     4  11  25  45  65 101 140 177 229 282 334 411
#     4  12  28  45  72  99 139 181 225 281 346 399
#     4  11  24  44  71 100 135 185 230 277 337 405
#     4  11  25  41  75  98 142 177 228 281 346 398
#     4  11  24  44  71 100 135 185 230 277 337 405
#     4  11  25  45  65 101 140 177 229 282 334 411
#     4  11  25  41  75  98 142 177 228 281 346 398
#
# _framework density 20.195836
#
# number of rings (size 3 to 8) (size 9 to 14) (size 15 to 20)
#    0.000    0.727    6.364    0.000    5.091    2.909 
#    0.000    3.636    0.000    0.000    0.000    0.000 
#    0.000    0.000    0.000    0.000    0.000    0.000 
#
# Total GULP energy -272730.939870 kJ/mol
# GULP energy per Si atom -12396.860903 kJ/mol
# Density = 2.014987 g / cm^3
# Si number density = 20.195836 Si / 1000 Ang^3
#
#
#
# Elastic Constant Matrix: (Units=GPa)
#
#
# Indices 1 2 3 4 5 6 
#
# 1 135.8687 27.4248 26.2641 0.0000 0.0000 0.0000
# 2 27.4248 127.8171 11.9301 0.0000 0.0000 0.0000
# 3 26.2641 11.9301 90.0222 0.0000 0.0000 0.0000
# 4 0.0000 0.0000 0.0000 23.3389 0.0000 0.0000
# 5 0.0000 0.0000 0.0000 0.0000 -193.5726 0.0000
# 6 0.0000 0.0000 0.0000 0.0000 0.0000 -422.6645
#
#
#
# Elastic Compliance Matrix: (Units=1/GPa)
#
#
# Indices 1 2 3 4 5 6 
#
# 1 0.008086 -0.001534 -0.002156 0.000000 0.000000 0.000000
# 2 -0.001534 0.008213 -0.000641 0.000000 0.000000 0.000000
# 3 -0.002156 -0.000641 0.011822 0.000000 0.000000 0.000000
# 4 0.000000 0.000000 0.000000 0.042847 0.000000 0.000000
# 5 0.000000 0.000000 0.000000 0.000000 -0.005166 0.000000
# 6 0.000000 0.000000 0.000000 0.000000 0.000000 -0.002366
#
#
# Mechanical properties :
#
#
# Convention : Reuss Voigt Hill
#
# Bulk Modulus (GPa) = 51.38740 53.88289 52.63514
# Shear Modulus (GPa) = 63.62607 -99.37370 -17.87382
#
# Velocity S-wave (km/s) = 5.61898 -7.02224 -2.97816
# Velocity P-wave (km/s) = 8.22174 6.24588 3.78061
#
# Compressibility (1/GPa) = 0.01946002
#
# Stress axis : x y z
#
# Youngs Moduli (GPa) = 123.66437 121.76415 84.58591
#
# Poissons Ratio (x) = 0.18676 0.18236
# Poissons Ratio (y) = 0.18968 0.05421
# Poissons Ratio (z) = 0.26661 0.07804
#
# Static dielectric constant tensor:
#      x y z
#    x 5.080470 0.000000 0.000000 
#    y 0.000000 3.555760 0.000000 
#    z 0.000000 0.000000 3.807100 
# 
# 
# High freq. dielectric constant tensor:
#      x y z
#    x 1.806210 0.000000 0.000000 
#    y 0.000000 1.781050 0.000000 
#    z 0.000000 0.000000 1.813620 
# 
# From -- ./inp_files/16953.got.cif
#   From: 2010.03.12/outbox.cif.g09.slc.cpg/sg40_9_cif.got.tgz:16953.got - 2010.04.14 01:38:03.
