data_PCOD8184021
_publ_section_title
;
Structure prediction by ZEFSAII (Michael W. Deem and Ramdas Pophale) SiO2 
 PCOD8184021
Probable space group: A M A 2
;
_chemical_formula_sum "Si O2"
_cell_formula_units_Z 56
_cell_length_a 26.516607
_cell_length_b 17.192017
_cell_length_c 5.730635
_cell_angle_alpha 90.000000
_cell_angle_beta 90.000000
_cell_angle_gamma 90.000000
_cell_volume 2612.447261
_symmetry_space_group_name_H-M "A M A 2"
_symmetry_group_IT_number 40
_symmetry_cell_setting 'orthorhombic'
loop_
_space_group_symop_operation_xyz
x,y,z
-x,-y,z
1/2-x,y,z
1/2+x,-y,z
x,1/2+y,1/2+z
-x,1/2-y,1/2+z
1/2-x,1/2+y,1/2+z
1/2+x,1/2-y,1/2+z
loop_
_atom_site_type_symbol
_atom_site_label
_atom_site_fract_x
_atom_site_fract_y
_atom_site_fract_z
Si Si1 0.577294 0.774279 0.338240
Si Si2 0.932755 0.917672 0.017559
Si Si3 0.250000 0.975073 0.661220
Si Si4 0.998157 0.152161 0.651008
Si Si5 0.641710 0.002168 0.710159
Si Si6 0.750000 0.113700 0.162453
Si Si7 0.355952 0.846882 0.029400
Si Si8 0.570135 0.560175 0.824090
O O1 0.544751 0.797106 0.562976
O O2 0.548735 0.707696 0.195294
O O3 0.630389 0.736627 0.416481
O O4 0.587072 0.850546 0.187347
O O5 0.983485 0.891565 0.883191
O O6 0.884675 0.933746 0.853948
O O7 0.948998 0.998118 0.136397
O O8 0.301333 0.025710 0.648564
O O9 0.250000 0.924983 0.420118
O O10 0.250000 0.936211 0.921422
O O11 0.979664 0.089468 0.459731
O O12 0.609478 0.012563 0.479019
O O13 0.645056 0.085014 0.838499
O O14 0.698336 0.163695 0.153780
O O15 0.400528 0.866971 0.211565
#
# Coordination Sequence:
#
# PCOD8184021 Si02
#       8
#     8   8   4   8   8   4   8   8
#     4  12  24  43  63  92 135 181 226 276 339 418
#     4  11  27  43  62  96 136 176 227 282 347 411
#     4  10  20  40  73 105 137 177 232 292 363 418
#     4  12  25  43  65  92 133 185 230 270 342 414
#     4  10  21  42  67 100 131 172 224 290 346 414
#     4  10  20  40  71 107 137 177 230 298 347 424
#     4  10  22  40  69 101 131 174 229 281 349 411
#     4  11  23  43  67  95 130 173 226 291 333 409
#
# _framework density 21.435839999999999
#
# number of rings (size 3 to 8) (size 9 to 14) (size 15 to 20)
#    0.000    1.143    4.286    1.714    0.000    3.429 
#    0.000    0.714    0.000    2.571    0.000    0.000 
#    0.000    0.000    0.000    0.000    0.000    0.000 
#
# Total GULP energy -347100.216154 kJ/mol
# GULP energy per Si atom -12396.436291 kJ/mol
# Density = 2.138705 g / cm^3
# Si number density = 21.435840 Si / 1000 Ang^3
#
#
#
# Elastic Constant Matrix: (Units=GPa)
#
#
# Indices 1 2 3 4 5 6 
#
# 1 98.0737 30.7473 4.6723 0.0000 0.0000 0.0000
# 2 30.7473 77.7698 12.7229 0.0000 0.0000 0.0000
# 3 4.6723 12.7229 74.8487 0.0000 0.0000 0.0000
# 4 0.0000 0.0000 0.0000 31.5389 0.0000 0.0000
# 5 0.0000 0.0000 0.0000 0.0000 22.4113 0.0000
# 6 0.0000 0.0000 0.0000 0.0000 0.0000 18.1837
#
#
#
# Elastic Compliance Matrix: (Units=1/GPa)
#
#
# Indices 1 2 3 4 5 6 
#
# 1 0.011639 -0.004611 0.000057 0.000000 0.000000 0.000000
# 2 -0.004611 0.015053 -0.002271 0.000000 0.000000 0.000000
# 3 0.000057 -0.002271 0.013743 0.000000 0.000000 0.000000
# 4 0.000000 0.000000 0.000000 0.031707 0.000000 0.000000
# 5 0.000000 0.000000 0.000000 0.000000 0.044620 0.000000
# 6 0.000000 0.000000 0.000000 0.000000 0.000000 0.054994
#
#
# Mechanical properties :
#
#
# Convention : Reuss Voigt Hill
#
# Bulk Modulus (GPa) = 37.33358 38.55301 37.94329
# Shear Modulus (GPa) = 25.72883 27.93011 26.82947
#
# Velocity S-wave (km/s) = 3.46825 3.61357 3.54166
# Velocity P-wave (km/s) = 5.78728 5.95272 5.87058
#
# Compressibility (1/GPa) = 0.02678554
#
# Stress axis : x y z
#
# Youngs Moduli (GPa) = 85.91561 66.43174 72.76581
#
# Poissons Ratio (x) = 0.30632 -0.00416
# Poissons Ratio (y) = 0.39617 0.16524
# Poissons Ratio (z) = -0.00492 0.15086
#
# Static dielectric constant tensor:
#      x y z
#    x 4.293270 0.000000 0.000000 
#    y 0.000000 3.684300 0.000000 
#    z 0.000000 0.000000 4.209410 
# 
# 
# High freq. dielectric constant tensor:
#      x y z
#    x 1.845470 0.000000 0.000000 
#    y 0.000000 1.812990 0.000000 
#    z 0.000000 0.000000 1.858960 
# 
# From -- ./inp_files/3428.got.cif
#   From: 2010.03.12/outbox.cif.g09.slc.cpg/sg40_2_cif.got.tgz:3428.got - 2010.04.14 01:38:03.
