data_PCOD8184247
_publ_section_title
;
Structure prediction by ZEFSAII (Michael W. Deem and Ramdas Pophale) SiO2 
 PCOD8184247
Probable space group: A M A 2
;
_chemical_formula_sum "Si O2"
_cell_formula_units_Z 40
_cell_length_a 14.461115
_cell_length_b 8.058832
_cell_length_c 16.524235
_cell_angle_alpha 90.000000
_cell_angle_beta 90.000000
_cell_angle_gamma 90.000000
_cell_volume 1925.729329
_symmetry_space_group_name_H-M "A M A 2"
_symmetry_group_IT_number 40
_symmetry_cell_setting 'orthorhombic'
loop_
_space_group_symop_operation_xyz
x,y,z
-x,-y,z
1/2-x,y,z
1/2+x,-y,z
x,1/2+y,1/2+z
-x,1/2-y,1/2+z
1/2-x,1/2+y,1/2+z
1/2+x,1/2-y,1/2+z
loop_
_atom_site_type_symbol
_atom_site_label
_atom_site_fract_x
_atom_site_fract_y
_atom_site_fract_z
Si Si1 0.000000 0.000000 0.883600
Si Si2 0.856493 0.252904 0.094681
Si Si3 0.351214 0.048726 0.754565
Si Si4 0.500000 0.500000 0.648082
Si Si5 0.070428 0.153098 0.432446
Si Si6 0.649610 0.333020 0.758480
O O1 0.920690 0.918864 0.827599
O O2 0.971841 0.159677 0.936263
O O3 0.750000 0.189324 0.098214
O O4 0.883390 0.358087 0.173735
O O5 0.932095 0.105968 0.091066
O O6 0.868754 0.363778 0.013959
O O7 0.250000 0.113624 0.781742
O O8 0.346715 0.856945 0.733649
O O9 0.566410 0.402377 0.707656
O O10 0.134391 0.140399 0.353857
O O11 0.000000 0.000000 0.431335
O O12 0.750000 0.414644 0.737753
#
# Coordination Sequence:
#
# PCOD8184247 Si02
#       6
#     4   8   8   4   8   8
#     4  10  21  42  61  92 122 162 208 258 305 378
#     4  11  24  41  61  91 129 166 209 267 322 380
#     4   9  20  38  64  87 117 161 206 258 311 368
#     4  12  23  38  63  94 120 170 204 264 319 382
#     4  11  23  39  63  92 126 171 204 258 321 374
#     4  10  21  40  63  91 122 161 214 262 312 376
#
# _framework density 20.771353000000001
#
# number of rings (size 3 to 8) (size 9 to 14) (size 15 to 20)
#    0.000    1.600    1.000    4.200    4.200    0.800 
#    0.000    1.000    0.000    0.000    0.000    0.000 
#    0.000    0.000    0.000    0.000    0.000    0.000 
#
# Total GULP energy -247838.950596 kJ/mol
# GULP energy per Si atom -12391.947530 kJ/mol
# Density = 2.072408 g / cm^3
# Si number density = 20.771353 Si / 1000 Ang^3
#
#
#
# Elastic Constant Matrix: (Units=GPa)
#
#
# Indices 1 2 3 4 5 6 
#
# 1 137.2687 39.0873 38.0957 0.0000 0.0000 0.0000
# 2 39.0873 72.0481 29.9929 0.0000 0.0000 0.0000
# 3 38.0957 29.9929 88.8780 0.0000 0.0000 0.0000
# 4 0.0000 0.0000 0.0000-1152.9528 0.0000 0.0000
# 5 0.0000 0.0000 0.0000 0.0000 6.5754 0.0000
# 6 0.0000 0.0000 0.0000 0.0000 0.0000 13.1780
#
#
#
# Elastic Compliance Matrix: (Units=1/GPa)
#
#
# Indices 1 2 3 4 5 6 
#
# 1 0.009105 -0.003857 -0.002601 0.000000 0.000000 0.000000
# 2 -0.003857 0.017782 -0.004348 0.000000 0.000000 0.000000
# 3 -0.002601 -0.004348 0.013833 0.000000 0.000000 0.000000
# 4 0.000000 0.000000 0.000000 -0.000867 0.000000 0.000000
# 5 0.000000 0.000000 0.000000 0.000000 0.152082 0.000000
# 6 0.000000 0.000000 0.000000 0.000000 0.000000 0.075884
#
#
# Mechanical properties :
#
#
# Convention : Reuss Voigt Hill
#
# Bulk Modulus (GPa) = 52.33054 56.94964 54.64009
# Shear Modulus (GPa) = 16.90331 -213.90528 -98.50098
#
# Velocity S-wave (km/s) = 2.85578 -10.15896 -6.89380
# Velocity P-wave (km/s) = 6.01018 10.49424 6.08304
#
# Compressibility (1/GPa) = 0.01910930
#
# Stress axis : x y z
#
# Youngs Moduli (GPa) = 109.82841 56.23718 72.28851
#
# Poissons Ratio (x) = 0.21690 0.18804
# Poissons Ratio (y) = 0.42359 0.31428
# Poissons Ratio (z) = 0.28568 0.24449
#
# Static dielectric constant tensor:
#      x y z
#    x 4.177020 0.000000 0.000000 
#    y 0.000000 3.729140 0.000000 
#    z 0.000000 0.000000 3.703940 
# 
# 
# High freq. dielectric constant tensor:
#      x y z
#    x 1.828350 0.000000 0.000000 
#    y 0.000000 1.803970 0.000000 
#    z 0.000000 0.000000 1.816680 
# 
# From -- ./inp_files/16831.got.cif
#   From: 2010.03.12/outbox.cif.g09.slc.cpg/sg40_9_cif.got.tgz:16831.got - 2010.04.14 01:38:03.
