data_PCOD8184908
_publ_section_title
;
Structure prediction by ZEFSAII (Michael W. Deem and Ramdas Pophale) SiO2 
 PCOD8184908
Probable space group: A B A 2
;
_chemical_formula_sum "Si O2"
_cell_formula_units_Z 56
_cell_length_a 24.514829
_cell_length_b 22.563073
_cell_length_c 4.989445
_cell_angle_alpha 90.000000
_cell_angle_beta 90.000000
_cell_angle_gamma 90.000000
_cell_volume 2759.811096
_symmetry_space_group_name_H-M "A B A 2"
_symmetry_group_IT_number 41
_symmetry_cell_setting 'orthorhombic'
loop_
_space_group_symop_operation_xyz
x,y,z
-x,-y,z
1/2-x,y,1/2+z
1/2+x,-y,1/2+z
x,1/2+y,1/2+z
-x,1/2-y,1/2+z
1/2-x,1/2+y,z
1/2+x,1/2-y,z
loop_
_atom_site_type_symbol
_atom_site_label
_atom_site_fract_x
_atom_site_fract_y
_atom_site_fract_z
Si Si1 0.713613 0.857835 0.924940
Si Si2 0.714327 0.210864 0.845723
Si Si3 0.487032 0.712626 0.016054
Si Si4 0.629540 0.273332 0.179627
Si Si5 0.358049 0.398714 0.355891
Si Si6 0.713990 0.993034 0.866479
Si Si7 0.413078 0.850721 0.349653
O O1 0.762912 0.843797 0.719094
O O2 0.660851 0.817952 0.874855
O O3 0.694072 0.925585 0.897434
O O4 0.766547 0.222379 0.040377
O O5 0.665799 0.255506 0.922090
O O6 0.694609 0.143601 0.890097
O O7 0.513894 0.736393 0.290333
O O8 0.424565 0.693795 0.069480
O O9 0.522597 0.656296 0.916070
O O10 0.613324 0.215080 0.350985
O O11 0.338623 0.465590 0.407920
O O12 0.382751 0.392014 0.061713
O O13 0.405810 0.381979 0.563686
O O14 0.737887 0.006624 0.574615
#
# Coordination Sequence:
#
# PCOD8184908 Si02
#       7
#     8   8   8   8   8   8   8
#     4  10  22  37  54  79 110 144 180 214 252 314
#     4  11  20  29  44  72 105 132 163 203 250 305
#     4  10  20  35  53  76 107 139 176 215 261 322
#     4  10  21  35  54  77 108 142 171 210 267 314
#     4  11  20  34  53  76 106 138 171 215 268 305
#     4  10  20  36  55  77 106 143 182 213 252 315
#     4  10  21  34  53  81 104 133 175 222 266 311
#
# _framework density 20.291245
#
# number of rings (size 3 to 8) (size 9 to 14) (size 15 to 20)
#    0.000    1.714    0.000    6.857    0.000    5.714 
#    0.000    0.000    0.000    0.857    0.000    6.000 
#    0.000    0.000    0.000    0.000    0.000    0.000 
#
# Total GULP energy -347305.240104 kJ/mol
# GULP energy per Si atom -12403.758575 kJ/mol
# Density = 2.024506 g / cm^3
# Si number density = 20.291245 Si / 1000 Ang^3
#
#
#
# Elastic Constant Matrix: (Units=GPa)
#
#
# Indices 1 2 3 4 5 6 
#
# 1 94.4080 25.8815 16.5846 0.0000 0.0000 0.0000
# 2 25.8815 62.3686 9.7876 0.0000 0.0000 0.0000
# 3 16.5846 9.7876 78.2378 0.0000 0.0000 0.0000
# 4 0.0000 0.0000 0.0000 21.8426 0.0000 0.0000
# 5 0.0000 0.0000 0.0000 0.0000 28.5737 0.0000
# 6 0.0000 0.0000 0.0000 0.0000 0.0000 20.9507
#
#
#
# Elastic Compliance Matrix: (Units=1/GPa)
#
#
# Indices 1 2 3 4 5 6 
#
# 1 0.012251 -0.004770 -0.002000 0.000000 0.000000 0.000000
# 2 -0.004770 0.018212 -0.001267 0.000000 0.000000 0.000000
# 3 -0.002000 -0.001267 0.013364 0.000000 0.000000 0.000000
# 4 0.000000 0.000000 0.000000 0.045782 0.000000 0.000000
# 5 0.000000 0.000000 0.000000 0.000000 0.034997 0.000000
# 6 0.000000 0.000000 0.000000 0.000000 0.000000 0.047731
#
#
# Mechanical properties :
#
#
# Convention : Reuss Voigt Hill
#
# Bulk Modulus (GPa) = 36.03294 37.72464 36.87879
# Shear Modulus (GPa) = 25.29545 26.45744 25.87645
#
# Velocity S-wave (km/s) = 3.53458 3.61485 3.57494
# Velocity P-wave (km/s) = 5.86976 6.00457 5.93755
#
# Compressibility (1/GPa) = 0.02775238
#
# Stress axis : x y z
#
# Youngs Moduli (GPa) = 81.62315 54.90864 74.82746
#
# Poissons Ratio (x) = 0.26192 0.14968
# Poissons Ratio (y) = 0.38935 0.09482
# Poissons Ratio (z) = 0.16327 0.06958
#
# Static dielectric constant tensor:
#      x y z
#    x 3.645950 0.000000 0.000000 
#    y 0.000000 3.559220 0.000000 
#    z 0.000000 0.000000 3.811670 
# 
# 
# High freq. dielectric constant tensor:
#      x y z
#    x 1.777680 0.000000 0.000000 
#    y 0.000000 1.762500 0.000000 
#    z 0.000000 0.000000 1.813710 
# 
# From -- ./inp_files/980.got.cif
#   From: 2010.03.12/outbox.cif.g09.slc.cpg/sg41_1_cif.got.tgz:980.got - 2010.04.14 01:55:53.
