data_PCOD8184372
_publ_section_title
;
Structure prediction by ZEFSAII (Michael W. Deem and Ramdas Pophale) SiO2 
 PCOD8184372
Probable space group: A M A 2
;
_chemical_formula_sum "Si O2"
_cell_formula_units_Z 48
_cell_length_a 8.557050
_cell_length_b 20.276759
_cell_length_c 14.367684
_cell_angle_alpha 90.000000
_cell_angle_beta 90.000000
_cell_angle_gamma 90.000000
_cell_volume 2492.925940
_symmetry_space_group_name_H-M "A M A 2"
_symmetry_group_IT_number 40
_symmetry_cell_setting 'orthorhombic'
loop_
_space_group_symop_operation_xyz
x,y,z
-x,-y,z
1/2-x,y,z
1/2+x,-y,z
x,1/2+y,1/2+z
-x,1/2-y,1/2+z
1/2-x,1/2+y,1/2+z
1/2+x,1/2-y,1/2+z
loop_
_atom_site_type_symbol
_atom_site_label
_atom_site_fract_x
_atom_site_fract_y
_atom_site_fract_z
Si Si1 0.565394 0.628865 0.956540
Si Si2 0.067585 0.429848 0.763113
Si Si3 0.931810 0.817959 0.140362
Si Si4 0.566162 0.431052 0.139086
Si Si5 0.067720 0.772899 0.956791
Si Si6 0.566747 0.687208 0.249257
O O1 0.750000 0.642869 0.954301
O O2 0.503010 0.593818 0.863133
O O3 0.474710 0.696844 0.966910
O O4 0.523014 0.582838 0.042852
O O5 0.250000 0.437478 0.770004
O O6 0.000000 0.500000 0.734634
O O7 0.025322 0.378182 0.683740
O O8 0.750000 0.830562 0.156678
O O9 0.985708 0.750192 0.188989
O O10 0.971144 0.815316 0.031308
O O11 0.500000 0.500000 0.178233
O O12 0.750000 0.435165 0.121165
O O13 0.530304 0.375516 0.215476
O O14 0.250000 0.781589 0.976756
O O15 0.021485 0.799757 0.855742
O O16 0.750000 0.673429 0.235876
#
# Coordination Sequence:
#
# PCOD8184372 Si02
#       6
#     8   8   8   8   8   8
#     4  11  22  37  60  91 126 160 199 248 302 361
#     4  11  24  40  61  89 124 163 205 250 303 363
#     4  11  22  39  63  90 124 160 200 250 302 357
#     4  12  25  40  62  89 124 163 203 249 304 364
#     4  11  22  38  62  92 123 158 203 251 299 353
#     4  10  22  40  62  89 123 160 201 249 299 357
#
# _framework density 19.254481999999999
#
# number of rings (size 3 to 8) (size 9 to 14) (size 15 to 20)
#    0.000    1.000    3.333    4.000    0.000    5.333 
#    0.000    0.833    0.000    4.000    0.000    0.000 
#    0.000    0.000    0.000    0.000    0.000    0.000 
#
# Total GULP energy -297774.954069 kJ/mol
# GULP energy per Si atom -12407.289753 kJ/mol
# Density = 1.921066 g / cm^3
# Si number density = 19.254482 Si / 1000 Ang^3
#
#
#
# Elastic Constant Matrix: (Units=GPa)
#
#
# Indices 1 2 3 4 5 6 
#
# 1 41.5540 15.0923 18.8191 0.0000 0.0000 0.0000
# 2 15.0923 104.0694 40.3096 0.0000 0.0000 0.0000
# 3 18.8191 40.3096 113.9556 0.0000 0.0000 0.0000
# 4 0.0000 0.0000 0.0000 -481.6741 0.0000 0.0000
# 5 0.0000 0.0000 0.0000 0.0000 31.0573 0.0000
# 6 0.0000 0.0000 0.0000 0.0000 0.0000 33.3296
#
#
#
# Elastic Compliance Matrix: (Units=1/GPa)
#
#
# Indices 1 2 3 4 5 6 
#
# 1 0.026558 -0.002494 -0.003503 0.000000 0.000000 0.000000
# 2 -0.002494 0.011369 -0.003610 0.000000 0.000000 0.000000
# 3 -0.003503 -0.003610 0.010631 0.000000 0.000000 0.000000
# 4 0.000000 0.000000 0.000000 -0.002076 0.000000 0.000000
# 5 0.000000 0.000000 0.000000 0.000000 0.032199 0.000000
# 6 0.000000 0.000000 0.000000 0.000000 0.000000 0.030003
#
#
# Mechanical properties :
#
#
# Convention : Reuss Voigt Hill
#
# Bulk Modulus (GPa) = 34.08047 45.33566 39.70807
# Shear Modulus (GPa) = 36.31642 -71.10024 -17.39191
#
# Velocity S-wave (km/s) = 4.34767 -6.08332 -3.00870
# Velocity P-wave (km/s) = 6.55297 5.07402 2.93221
#
# Compressibility (1/GPa) = 0.02934232
#
# Stress axis : x y z
#
# Youngs Moduli (GPa) = 37.65388 87.95990 94.06681
#
# Poissons Ratio (x) = 0.21941 0.32956
# Poissons Ratio (y) = 0.09392 0.33954
# Poissons Ratio (z) = 0.13192 0.31750
#
# Static dielectric constant tensor:
#      x y z
#    x 3.528850 0.000000 0.000000 
#    y 0.000000 4.326030 0.000000 
#    z 0.000000 0.000000 3.646450 
# 
# 
# High freq. dielectric constant tensor:
#      x y z
#    x 1.757780 0.000000 0.000000 
#    y 0.000000 1.748320 0.000000 
#    z 0.000000 0.000000 1.752560 
# 
# From -- ./inp_files/10270.got.cif
#   From: 2010.03.12/outbox.cif.g09.slc.cpg/sg40_6_cif.got.tgz:10270.got - 2010.04.14 01:38:03.
