data_PCOD8184122
_publ_section_title
;
Structure prediction by ZEFSAII (Michael W. Deem and Ramdas Pophale) SiO2 
 PCOD8184122
Probable space group: A M A 2
;
_chemical_formula_sum "Si O2"
_cell_formula_units_Z 52
_cell_length_a 24.554273
_cell_length_b 8.466542
_cell_length_c 11.914070
_cell_angle_alpha 90.000000
_cell_angle_beta 90.000000
_cell_angle_gamma 90.000000
_cell_volume 2476.813434
_symmetry_space_group_name_H-M "A M A 2"
_symmetry_group_IT_number 40
_symmetry_cell_setting 'orthorhombic'
loop_
_space_group_symop_operation_xyz
x,y,z
-x,-y,z
1/2-x,y,z
1/2+x,-y,z
x,1/2+y,1/2+z
-x,1/2-y,1/2+z
1/2-x,1/2+y,1/2+z
1/2+x,1/2-y,1/2+z
loop_
_atom_site_type_symbol
_atom_site_label
_atom_site_fract_x
_atom_site_fract_y
_atom_site_fract_z
Si Si1 0.250000 0.733562 0.366071
Si Si2 0.665559 0.691396 0.440040
Si Si3 0.750000 0.015244 0.070972
Si Si4 0.250000 0.581262 0.831112
Si Si5 0.141053 0.116228 0.808213
Si Si6 0.440360 0.187637 0.368801
Si Si7 0.560071 0.065446 0.677177
Si Si8 0.059958 0.842154 0.424877
O O1 0.250000 0.628982 0.480091
O O2 0.197210 0.709282 0.285140
O O3 0.250000 0.917194 0.399590
O O4 0.697200 0.629878 0.551216
O O5 0.696791 0.824905 0.369334
O O6 0.661637 0.544549 0.359242
O O7 0.604457 0.757527 0.462203
O O8 0.750000 0.945639 0.195969
O O9 0.104560 0.213956 0.895043
O O10 0.103717 0.074786 0.701284
O O11 0.429961 0.279688 0.252939
O O12 0.499680 0.232207 0.416520
O O13 0.435584 0.999085 0.347307
O O14 0.570916 0.110493 0.551193
O O15 0.500000 0.000000 0.698663
#
# Coordination Sequence:
#
# PCOD8184122 Si02
#       8
#     4   8   4   4   8   8   8   8
#     4  10  22  40  62  96 118 160 206 250 302 364
#     4   9  21  39  59  89 120 158 202 256 302 368
#     4   9  21  41  62  84 122 157 203 251 308 364
#     4  11  21  41  64  86 124 163 207 251 310 360
#     4  10  22  41  65  88 129 160 203 255 301 364
#     4  10  21  37  59  87 121 153 202 253 302 357
#     4  11  21  40  62  87 121 166 201 250 312 361
#     4  11  22  39  60  89 120 161 202 251 304 366
#
# _framework density 20.994717000000001
#
# number of rings (size 3 to 8) (size 9 to 14) (size 15 to 20)
#    0.000    1.846    3.077    1.385    0.000    6.154 
#    0.000   16.154    0.000    0.000    0.000    0.000 
#    0.000    0.000    0.000    0.000    0.000    0.000 
#
# Total GULP energy -322188.621955 kJ/mol
# GULP energy per Si atom -12391.870075 kJ/mol
# Density = 2.094693 g / cm^3
# Si number density = 20.994717 Si / 1000 Ang^3
#
#
#
# Elastic Constant Matrix: (Units=GPa)
#
#
# Indices 1 2 3 4 5 6 
#
# 1 165.3170 59.3340 30.9775 0.0000 0.0000 0.0000
# 2 59.3340 123.9597 37.3942 0.0000 0.0000 0.0000
# 3 30.9775 37.3942 85.1140 0.0000 0.0000 0.0000
# 4 0.0000 0.0000 0.0000 24.1334 0.0000 0.0000
# 5 0.0000 0.0000 0.0000 0.0000 -3.4979 0.0000
# 6 0.0000 0.0000 0.0000 0.0000 0.0000 40.7314
#
#
#
# Elastic Compliance Matrix: (Units=1/GPa)
#
#
# Indices 1 2 3 4 5 6 
#
# 1 0.007429 -0.003159 -0.001316 0.000000 0.000000 0.000000
# 2 -0.003159 0.010643 -0.003526 0.000000 0.000000 0.000000
# 3 -0.001316 -0.003526 0.013777 0.000000 0.000000 0.000000
# 4 0.000000 0.000000 0.000000 0.041436 0.000000 0.000000
# 5 0.000000 0.000000 0.000000 0.000000 -0.285885 0.000000
# 6 0.000000 0.000000 0.000000 0.000000 0.000000 0.024551
#
#
# Mechanical properties :
#
#
# Convention : Reuss Voigt Hill
#
# Bulk Modulus (GPa) = 63.10373 69.97800 66.54086
# Shear Modulus (GPa) = -29.98265 28.71905 -0.63180
#
# Velocity S-wave (km/s) = -3.78313 3.70255 -0.54917
# Velocity P-wave (km/s) = 3.32257 7.18903 5.60007
#
# Compressibility (1/GPa) = 0.01584692
#
# Stress axis : x y z
#
# Youngs Moduli (GPa) = 134.59981 93.95860 72.58422
#
# Poissons Ratio (x) = 0.29683 0.09552
# Poissons Ratio (y) = 0.42522 0.25594
# Poissons Ratio (z) = 0.17714 0.33131
#
# Static dielectric constant tensor:
#      x y z
#    x 4.565580 0.000000 0.000000 
#    y 0.000000 4.240290 0.000000 
#    z 0.000000 0.000000 3.359650 
# 
# 
# High freq. dielectric constant tensor:
#      x y z
#    x 1.847730 0.000000 0.000000 
#    y 0.000000 1.837500 0.000000 
#    z 0.000000 0.000000 1.785900 
# 
# From -- ./inp_files/14210.got.cif
#   From: 2010.03.12/outbox.cif.g09.slc.cpg/sg40_8_cif.got.tgz:14210.got - 2010.04.14 01:38:03.
