data_PCOD8184630
_publ_section_title
;
Structure prediction by ZEFSAII (Michael W. Deem and Ramdas Pophale) SiO2 
 PCOD8184630
Probable space group: A M A 2
;
_chemical_formula_sum "Si O2"
_cell_formula_units_Z 48
_cell_length_a 20.674917
_cell_length_b 11.982865
_cell_length_c 8.908808
_cell_angle_alpha 90.000000
_cell_angle_beta 90.000000
_cell_angle_gamma 90.000000
_cell_volume 2207.110315
_symmetry_space_group_name_H-M "A M A 2"
_symmetry_group_IT_number 40
_symmetry_cell_setting 'orthorhombic'
loop_
_space_group_symop_operation_xyz
x,y,z
-x,-y,z
1/2-x,y,z
1/2+x,-y,z
x,1/2+y,1/2+z
-x,1/2-y,1/2+z
1/2-x,1/2+y,1/2+z
1/2+x,1/2-y,1/2+z
loop_
_atom_site_type_symbol
_atom_site_label
_atom_site_fract_x
_atom_site_fract_y
_atom_site_fract_z
Si Si1 0.823335 0.431324 0.954970
Si Si2 0.930310 0.047832 0.935758
Si Si3 0.822807 0.399732 0.293284
Si Si4 0.359033 0.817337 0.437025
Si Si5 0.527247 0.111286 0.252928
Si Si6 0.098826 0.235364 0.248316
O O1 0.750000 0.389458 0.941085
O O2 0.826704 0.562310 0.918560
O O3 0.865051 0.361998 0.837635
O O4 0.849120 0.410540 0.123596
O O5 0.914156 0.161679 0.854981
O O6 0.872954 0.960290 0.904050
O O7 0.929225 0.071043 0.113191
O O8 0.000000 0.000000 0.883325
O O9 0.750000 0.450740 0.306580
O O10 0.818707 0.269968 0.338319
O O11 0.432334 0.820707 0.375325
O O12 0.358645 0.777365 0.609154
O O13 0.469443 0.187917 0.189967
O O14 0.500000 0.000000 0.334716
#
# Coordination Sequence:
#
# PCOD8184630 Si02
#       6
#     8   8   8   8   8   8
#     4  11  26  47  69 101 139 183 240 292 351 422
#     4  11  24  44  71 105 146 186 235 294 350 422
#     4  11  25  47  71 100 140 189 237 289 357 423
#     4  12  24  45  71 102 141 183 235 286 351 420
#     4  11  22  41  67 103 146 175 234 287 349 418
#     4  12  24  43  70 105 139 186 229 295 354 419
#
# _framework density 21.747893000000001
#
# number of rings (size 3 to 8) (size 9 to 14) (size 15 to 20)
#    0.000    0.667    3.333    5.500    0.000    4.000 
#    0.000    0.833    0.000    0.000    0.000    0.000 
#    0.000    0.000    0.000    0.000    0.000    0.000 
#
# Total GULP energy -297709.641642 kJ/mol
# GULP energy per Si atom -12404.568402 kJ/mol
# Density = 2.169839 g / cm^3
# Si number density = 21.747893 Si / 1000 Ang^3
#
#
#
# Elastic Constant Matrix: (Units=GPa)
#
#
# Indices 1 2 3 4 5 6 
#
# 1 97.4776 29.4744 42.3530 0.0000 0.0000 0.0000
# 2 29.4744 130.6140 47.9859 0.0000 0.0000 0.0000
# 3 42.3530 47.9859 109.3951 0.0000 0.0000 0.0000
# 4 0.0000 0.0000 0.0000 40.8495 0.0000 0.0000
# 5 0.0000 0.0000 0.0000 0.0000 25.1630 0.0000
# 6 0.0000 0.0000 0.0000 0.0000 0.0000 28.7265
#
#
#
# Elastic Compliance Matrix: (Units=1/GPa)
#
#
# Indices 1 2 3 4 5 6 
#
# 1 0.012501 -0.001243 -0.004294 0.000000 0.000000 0.000000
# 2 -0.001243 0.009251 -0.003576 0.000000 0.000000 0.000000
# 3 -0.004294 -0.003576 0.012373 0.000000 0.000000 0.000000
# 4 0.000000 0.000000 0.000000 0.024480 0.000000 0.000000
# 5 0.000000 0.000000 0.000000 0.000000 0.039741 0.000000
# 6 0.000000 0.000000 0.000000 0.000000 0.000000 0.034811
#
#
# Mechanical properties :
#
#
# Convention : Reuss Voigt Hill
#
# Bulk Modulus (GPa) = 62.90992 64.12371 63.51681
# Shear Modulus (GPa) = 31.91171 33.45936 32.68554
#
# Velocity S-wave (km/s) = 3.83475 3.92664 3.88097
# Velocity P-wave (km/s) = 6.97114 7.07863 7.02509
#
# Compressibility (1/GPa) = 0.01589575
#
# Stress axis : x y z
#
# Youngs Moduli (GPa) = 79.99677 108.10076 80.82404
#
# Poissons Ratio (x) = 0.13439 0.34708
# Poissons Ratio (y) = 0.09945 0.28906
# Poissons Ratio (z) = 0.34353 0.38662
#
# Static dielectric constant tensor:
#      x y z
#    x 3.953860 0.000000 0.000000 
#    y 0.000000 4.144850 0.000000 
#    z 0.000000 0.000000 3.864510 
# 
# 
# High freq. dielectric constant tensor:
#      x y z
#    x 1.852970 0.000000 0.000000 
#    y 0.000000 1.872390 0.000000 
#    z 0.000000 0.000000 1.854070 
# 
# From -- ./inp_files/8727.got.cif
#   From: 2010.03.12/outbox.cif.g09.slc.cpg/sg40_5_cif.got.tgz:8727.got - 2010.04.14 01:38:03.
