data_PCOD8184698
_publ_section_title
;
Structure prediction by ZEFSAII (Michael W. Deem and Ramdas Pophale) SiO2 
 PCOD8184698
Probable space group: A M A 2
;
_chemical_formula_sum "Si O2"
_cell_formula_units_Z 48
_cell_length_a 15.098470
_cell_length_b 10.937097
_cell_length_c 15.000649
_cell_angle_alpha 90.000000
_cell_angle_beta 90.000000
_cell_angle_gamma 90.000000
_cell_volume 2477.108636
_symmetry_space_group_name_H-M "A M A 2"
_symmetry_group_IT_number 40
_symmetry_cell_setting 'orthorhombic'
loop_
_space_group_symop_operation_xyz
x,y,z
-x,-y,z
1/2-x,y,z
1/2+x,-y,z
x,1/2+y,1/2+z
-x,1/2-y,1/2+z
1/2-x,1/2+y,1/2+z
1/2+x,1/2-y,1/2+z
loop_
_atom_site_type_symbol
_atom_site_label
_atom_site_fract_x
_atom_site_fract_y
_atom_site_fract_z
Si Si1 0.400459 0.194358 0.676310
Si Si2 0.250000 0.909089 0.406976
Si Si3 0.750000 0.116223 0.210510
Si Si4 0.400683 0.001713 0.832687
Si Si5 0.750000 0.864500 0.138339
Si Si6 0.100685 0.804291 0.693535
Si Si7 0.250000 0.128516 0.934421
Si Si8 0.897956 0.002994 0.538593
O O1 0.337711 0.306869 0.694135
O O2 0.388959 0.094793 0.752350
O O3 0.500725 0.242844 0.681087
O O4 0.376984 0.130454 0.581273
O O5 0.250000 0.954410 0.305322
O O6 0.250000 0.761928 0.388720
O O7 0.163042 0.963078 0.454816
O O8 0.750000 0.009921 0.138167
O O9 0.334711 0.044335 0.910452
O O10 0.500000 0.000000 0.872458
O O11 0.381435 0.868318 0.789803
O O12 0.836471 0.812057 0.187099
O O13 0.750000 0.829077 0.035600
O O14 0.121889 0.897772 0.614169
O O15 0.000000 0.000000 0.506918
#
# Coordination Sequence:
#
# PCOD8184698 Si02
#       8
#     8   4   4   8   4   8   4   8
#     4   9  18  37  63  85 113 153 200 245 285 344
#     4  12  21  37  61  89 120 152 195 242 292 347
#     4  12  25  39  53  85 124 161 191 228 305 364
#     4   9  18  36  64  92 109 146 207 252 285 332
#     4  12  25  39  53  85 124 161 191 228 305 364
#     4   9  18  37  63  85 113 153 200 245 285 344
#     4  12  21  37  61  89 120 152 195 242 292 347
#     4   9  18  36  64  92 109 146 207 252 285 332
#
# _framework density 19.377428999999999
#
# number of rings (size 3 to 8) (size 9 to 14) (size 15 to 20)
#    0.000    2.000    3.333    3.000    0.000    3.333 
#    6.000    3.333    0.000    0.000    0.000    0.000 
#    0.000    0.000    0.000    0.000    0.000    0.000 
#
# Total GULP energy -297495.886657 kJ/mol
# GULP energy per Si atom -12395.661944 kJ/mol
# Density = 1.933333 g / cm^3
# Si number density = 19.377429 Si / 1000 Ang^3
#
#
#
# Elastic Constant Matrix: (Units=GPa)
#
#
# Indices 1 2 3 4 5 6 
#
# 1 139.4298 64.9592 38.7028 0.0000 0.0000 0.0000
# 2 64.9592 77.4670 21.3326 0.0000 0.0000 0.0000
# 3 38.7028 21.3326 55.8761 0.0000 0.0000 0.0000
# 4 0.0000 0.0000 0.0000 19.0070 0.0000 0.0000
# 5 0.0000 0.0000 0.0000 0.0000 27.4667 0.0000
# 6 0.0000 0.0000 0.0000 0.0000 0.0000 3.8878
#
#
#
# Elastic Compliance Matrix: (Units=1/GPa)
#
#
# Indices 1 2 3 4 5 6 
#
# 1 0.013107 -0.009488 -0.005456 0.000000 0.000000 0.000000
# 2 -0.009488 0.021294 -0.001558 0.000000 0.000000 0.000000
# 3 -0.005456 -0.001558 0.022271 0.000000 0.000000 0.000000
# 4 0.000000 0.000000 0.000000 0.052612 0.000000 0.000000
# 5 0.000000 0.000000 0.000000 0.000000 0.036408 0.000000
# 6 0.000000 0.000000 0.000000 0.000000 0.000000 0.257214
#
#
# Mechanical properties :
#
#
# Convention : Reuss Voigt Hill
#
# Bulk Modulus (GPa) = 42.25194 58.08466 50.16830
# Shear Modulus (GPa) = 11.26635 19.92419 15.59527
#
# Velocity S-wave (km/s) = 2.41387 3.21006 2.84001
# Velocity P-wave (km/s) = 5.44253 6.61663 6.05809
#
# Compressibility (1/GPa) = 0.02366755
#
# Stress axis : x y z
#
# Youngs Moduli (GPa) = 76.29425 46.96156 44.90213
#
# Poissons Ratio (x) = 0.44559 0.24500
# Poissons Ratio (y) = 0.72391 0.06994
# Poissons Ratio (z) = 0.41628 0.07315
#
# Static dielectric constant tensor:
#      x y z
#    x 3.122010 0.000000 0.000000 
#    y 0.000000 3.495260 0.000000 
#    z 0.000000 0.000000 3.351150 
# 
# 
# High freq. dielectric constant tensor:
#      x y z
#    x 1.766630 0.000000 0.000000 
#    y 0.000000 1.737340 0.000000 
#    z 0.000000 0.000000 1.732250 
# 
# From -- ./inp_files/17043.got.cif
#   From: 2010.03.12/outbox.cif.g09.slc.cpg/sg40_9_cif.got.tgz:17043.got - 2010.04.14 01:38:03.
