data_PCOD8184687
_publ_section_title
;
Structure prediction by ZEFSAII (Michael W. Deem and Ramdas Pophale) SiO2 
 PCOD8184687
Probable space group: A M A 2
;
_chemical_formula_sum "Si O2"
_cell_formula_units_Z 52
_cell_length_a 19.877623
_cell_length_b 18.245488
_cell_length_c 6.610754
_cell_angle_alpha 90.000000
_cell_angle_beta 90.000000
_cell_angle_gamma 90.000000
_cell_volume 2397.567978
_symmetry_space_group_name_H-M "A M A 2"
_symmetry_group_IT_number 40
_symmetry_cell_setting 'orthorhombic'
loop_
_space_group_symop_operation_xyz
x,y,z
-x,-y,z
1/2-x,y,z
1/2+x,-y,z
x,1/2+y,1/2+z
-x,1/2-y,1/2+z
1/2-x,1/2+y,1/2+z
1/2+x,1/2-y,1/2+z
loop_
_atom_site_type_symbol
_atom_site_label
_atom_site_fract_x
_atom_site_fract_y
_atom_site_fract_z
Si Si1 0.501039 0.667427 0.248190
Si Si2 0.329334 0.660184 0.680088
Si Si3 0.894377 0.421906 0.042594
Si Si4 0.413445 0.890004 0.091582
Si Si5 0.000000 0.000000 0.298127
Si Si6 0.094508 0.782118 0.417722
Si Si7 0.673693 0.480363 0.411309
O O1 0.554231 0.663354 0.427931
O O2 0.454421 0.737314 0.273250
O O3 0.449089 0.601671 0.210723
O O4 0.546313 0.668883 0.051090
O O5 0.250000 0.672425 0.715411
O O6 0.364774 0.644072 0.898992
O O7 0.356617 0.732004 0.558167
O O8 0.345518 0.589915 0.544885
O O9 0.930734 0.484854 0.916078
O O10 0.836135 0.460745 0.174114
O O11 0.372039 0.841208 0.259989
O O12 0.481526 0.928366 0.171434
O O13 0.366345 0.948920 0.984232
O O14 0.750000 0.502280 0.444282
#
# Coordination Sequence:
#
# PCOD8184687 Si02
#       7
#     8   8   8   8   4   8   8
#     4  12  23  40  67  99 132 169 220 277 353 407
#     4  11  25  45  69  95 133 186 235 278 338 424
#     4  12  22  42  68 100 131 175 227 280 353 409
#     4  12  25  41  66 102 139 175 227 288 352 415
#     4  12  22  40  64 104 130 164 216 284 350 396
#     4  12  24  42  64 101 136 176 222 283 349 415
#     4  11  25  45  68  95 133 185 235 282 336 416
#
# _framework density 21.688644
#
# number of rings (size 3 to 8) (size 9 to 14) (size 15 to 20)
#    0.000    0.308    6.154    4.154    0.000    0.615 
#    0.000    0.769    0.000    0.000    0.000    0.000 
#    0.000    0.000    0.000    0.000    0.000    0.000 
#
# Total GULP energy -322141.568274 kJ/mol
# GULP energy per Si atom -12390.060318 kJ/mol
# Density = 2.163928 g / cm^3
# Si number density = 21.688644 Si / 1000 Ang^3
#
#
#
# Elastic Constant Matrix: (Units=GPa)
#
#
# Indices 1 2 3 4 5 6 
#
# 1 86.2441 29.5875 35.3582 0.0000 0.0000 0.0000
# 2 29.5875 86.2511 32.3847 0.0000 0.0000 0.0000
# 3 35.3582 32.3847 94.6064 0.0000 0.0000 0.0000
# 4 0.0000 0.0000 0.0000 55.3113 0.0000 0.0000
# 5 0.0000 0.0000 0.0000 0.0000 30.7861 0.0000
# 6 0.0000 0.0000 0.0000 0.0000 0.0000 18.1364
#
#
#
# Elastic Compliance Matrix: (Units=1/GPa)
#
#
# Indices 1 2 3 4 5 6 
#
# 1 0.014501 -0.003373 -0.004265 0.000000 0.000000 0.000000
# 2 -0.003373 0.014089 -0.003562 0.000000 0.000000 0.000000
# 3 -0.004265 -0.003562 0.013383 0.000000 0.000000 0.000000
# 4 0.000000 0.000000 0.000000 0.018079 0.000000 0.000000
# 5 0.000000 0.000000 0.000000 0.000000 0.032482 0.000000
# 6 0.000000 0.000000 0.000000 0.000000 0.000000 0.055138
#
#
# Mechanical properties :
#
#
# Convention : Reuss Voigt Hill
#
# Bulk Modulus (GPa) = 51.09118 51.30690 51.19904
# Shear Modulus (GPa) = 28.31319 32.16484 30.23902
#
# Velocity S-wave (km/s) = 3.61701 3.85519 3.73799
# Velocity P-wave (km/s) = 6.40714 6.59728 6.50290
#
# Compressibility (1/GPa) = 0.01957285
#
# Stress axis : x y z
#
# Youngs Moduli (GPa) = 68.96243 70.97961 74.71949
#
# Poissons Ratio (x) = 0.23941 0.31867
# Poissons Ratio (y) = 0.23261 0.26615
# Poissons Ratio (z) = 0.29412 0.25283
#
# Static dielectric constant tensor:
#      x y z
#    x 3.738560 0.000000 0.000000 
#    y 0.000000 3.816650 0.000000 
#    z 0.000000 0.000000 4.785860 
# 
# 
# High freq. dielectric constant tensor:
#      x y z
#    x 1.834750 0.000000 0.000000 
#    y 0.000000 1.851990 0.000000 
#    z 0.000000 0.000000 1.871670 
# 
# From -- ./inp_files/2340.got.cif
#   From: 2010.03.12/outbox.cif.g09.slc.cpg/sg40_2_cif.got.tgz:2340.got - 2010.04.14 01:38:03.
