data_PCOD8184676
_publ_section_title
;
Structure prediction by ZEFSAII (Michael W. Deem and Ramdas Pophale) SiO2 
 PCOD8184676
Probable space group: A M A 2
;
_chemical_formula_sum "Si O2"
_cell_formula_units_Z 48
_cell_length_a 19.722252
_cell_length_b 5.646049
_cell_length_c 19.275036
_cell_angle_alpha 90.000000
_cell_angle_beta 90.000000
_cell_angle_gamma 90.000000
_cell_volume 2146.329251
_symmetry_space_group_name_H-M "A M A 2"
_symmetry_group_IT_number 40
_symmetry_cell_setting 'orthorhombic'
loop_
_space_group_symop_operation_xyz
x,y,z
-x,-y,z
1/2-x,y,z
1/2+x,-y,z
x,1/2+y,1/2+z
-x,1/2-y,1/2+z
1/2-x,1/2+y,1/2+z
1/2+x,1/2-y,1/2+z
loop_
_atom_site_type_symbol
_atom_site_label
_atom_site_fract_x
_atom_site_fract_y
_atom_site_fract_z
Si Si1 0.428448 0.109829 0.415020
Si Si2 0.250000 0.262222 0.621987
Si Si3 0.500000 0.000000 0.703975
Si Si4 0.750000 0.234956 0.706474
Si Si5 0.500000 0.500000 0.623749
Si Si6 0.175608 0.208936 0.917781
Si Si7 0.872601 0.591691 0.534740
Si Si8 0.377834 0.885416 0.794995
O O1 0.419511 0.297614 0.475362
O O2 0.424358 0.198017 0.335994
O O3 0.500000 0.000000 0.428622
O O4 0.368761 0.933702 0.427189
O O5 0.250000 0.520468 0.661590
O O6 0.180307 0.244728 0.577537
O O7 0.250000 0.021199 0.667521
O O8 0.499526 0.248955 0.663462
O O9 0.569824 0.975713 0.746603
O O10 0.682068 0.243643 0.752818
O O11 0.571032 0.473495 0.583451
O O12 0.250000 0.301219 0.901109
O O13 0.153575 0.052554 0.852989
O O14 0.175445 0.087828 0.993253
#
# Coordination Sequence:
#
# PCOD8184676 Si02
#       8
#     8   4   4   4   4   8   8   8
#     4  11  26  44  77 106 145 189 241 316 371 434
#     4  12  28  47  74 107 148 200 246 300 362 440
#     4  12  28  47  74 105 148 200 246 298 362 440
#     4  12  28  47  74 107 148 200 246 300 362 440
#     4  12  28  47  74 105 148 200 246 298 362 440
#     4  11  24  43  76 107 143 193 241 316 369 432
#     4  11  26  46  72 107 147 189 250 302 370 435
#     4  11  26  46  72 107 147 189 250 302 370 435
#
# _framework density 22.363764
#
# number of rings (size 3 to 8) (size 9 to 14) (size 15 to 20)
#    0.000    0.667    1.667    4.000   14.000    2.667 
#    0.000    0.000    0.000    0.000    0.000    0.000 
#    0.000    0.000    0.000    0.000    0.000    0.000 
#
# Total GULP energy -297352.540657 kJ/mol
# GULP energy per Si atom -12389.689194 kJ/mol
# Density = 2.231286 g / cm^3
# Si number density = 22.363764 Si / 1000 Ang^3
#
#
#
# Elastic Constant Matrix: (Units=GPa)
#
#
# Indices 1 2 3 4 5 6 
#
# 1 153.9515 20.8338 50.5252 0.0000 0.0000 0.0000
# 2 20.8338 113.1069 45.9182 0.0000 0.0000 0.0000
# 3 50.5252 45.9182 117.5739 0.0000 0.0000 0.0000
# 4 0.0000 0.0000 0.0000 -9.0352 0.0000 0.0000
# 5 0.0000 0.0000 0.0000 0.0000 23.6908 0.0000
# 6 0.0000 0.0000 0.0000 0.0000 0.0000 32.1471
#
#
#
# Elastic Compliance Matrix: (Units=1/GPa)
#
#
# Indices 1 2 3 4 5 6 
#
# 1 0.007563 -0.000088 -0.003216 0.000000 0.000000 0.000000
# 2 -0.000088 0.010508 -0.004066 0.000000 0.000000 0.000000
# 3 -0.003216 -0.004066 0.011475 0.000000 0.000000 0.000000
# 4 0.000000 0.000000 0.000000 -0.110678 0.000000 0.000000
# 5 0.000000 0.000000 0.000000 0.000000 0.042210 0.000000
# 6 0.000000 0.000000 0.000000 0.000000 0.000000 0.031107
#
#
# Mechanical properties :
#
#
# Convention : Reuss Voigt Hill
#
# Bulk Modulus (GPa) = 67.53572 68.79852 68.16712
# Shear Modulus (GPa) = 421.58095 27.18422 224.38259
#
# Velocity S-wave (km/s) = 13.74482 3.49025 10.02751
# Velocity P-wave (km/s) = 16.79755 6.86095 12.83024
#
# Compressibility (1/GPa) = 0.01480698
#
# Stress axis : x y z
#
# Youngs Moduli (GPa) = 132.22642 95.16444 87.14360
#
# Poissons Ratio (x) = 0.00833 0.28024
# Poissons Ratio (y) = 0.01157 0.35435
# Poissons Ratio (z) = 0.42521 0.38697
#
# Static dielectric constant tensor:
#      x y z
#    x 4.184650 0.000000 0.000000 
#    y 0.000000 4.059530 0.000000 
#    z 0.000000 0.000000 4.530580 
# 
# 
# High freq. dielectric constant tensor:
#      x y z
#    x 1.909910 0.000000 0.000000 
#    y 0.000000 1.877310 0.000000 
#    z 0.000000 0.000000 1.898440 
# 
# From -- ./inp_files/23518.got.cif
#   From: 2010.03.12/outbox.cif.g09.slc.cpg/sg40_12_cif.got.tgz:23518.got - 2010.04.14 01:38:03.
