data_PCOD8184688
_publ_section_title
;
Structure prediction by ZEFSAII (Michael W. Deem and Ramdas Pophale) SiO2 
 PCOD8184688
Probable space group: A M A 2
;
_chemical_formula_sum "Si O2"
_cell_formula_units_Z 40
_cell_length_a 26.211346
_cell_length_b 13.228524
_cell_length_c 5.035631
_cell_angle_alpha 90.000000
_cell_angle_beta 90.000000
_cell_angle_gamma 90.000000
_cell_volume 1746.041699
_symmetry_space_group_name_H-M "A M A 2"
_symmetry_group_IT_number 40
_symmetry_cell_setting 'orthorhombic'
loop_
_space_group_symop_operation_xyz
x,y,z
-x,-y,z
1/2-x,y,z
1/2+x,-y,z
x,1/2+y,1/2+z
-x,1/2-y,1/2+z
1/2-x,1/2+y,1/2+z
1/2+x,1/2-y,1/2+z
loop_
_atom_site_type_symbol
_atom_site_label
_atom_site_fract_x
_atom_site_fract_y
_atom_site_fract_z
Si Si1 0.619262 0.313661 0.063390
Si Si2 0.856816 0.092619 0.010924
Si Si3 0.690508 0.499110 0.008201
Si Si4 0.475118 0.704303 0.756906
Si Si5 0.950820 0.959171 0.903192
O O1 0.642353 0.204776 0.138846
O O2 0.666598 0.387661 0.027385
O O3 0.579809 0.367950 0.263515
O O4 0.586161 0.284032 0.802610
O O5 0.820643 0.031718 0.209106
O O6 0.832915 0.079623 0.717169
O O7 0.914097 0.048669 0.001545
O O8 0.750000 0.489148 0.059820
O O9 0.493037 0.782218 0.528384
O O10 0.480582 0.589420 0.656165
O O11 0.000000 0.000000 0.732602
#
# Coordination Sequence:
#
# PCOD8184688 Si02
#       5
#     8   8   8   8   8
#     4  11  26  48  74 104 147 189 237 298 351 431
#     4  11  26  46  74 104 143 183 239 291 359 425
#     4  11  26  49  75 107 140 180 241 305 365 426
#     4  12  24  42  68 101 144 192 235 281 346 416
#     4  11  25  45  69 105 146 193 236 289 347 422
#
# _framework density 22.90896
#
# number of rings (size 3 to 8) (size 9 to 14) (size 15 to 20)
#    0.000    0.800    4.000    1.800    2.800    2.400 
#    3.600    0.000    0.000    0.000    0.000    0.000 
#    0.000    0.000    0.000    0.000    0.000    0.000 
#
# Total GULP energy -247765.294329 kJ/mol
# GULP energy per Si atom -12388.264716 kJ/mol
# Density = 2.285682 g / cm^3
# Si number density = 22.908960 Si / 1000 Ang^3
#
#
#
# Elastic Constant Matrix: (Units=GPa)
#
#
# Indices 1 2 3 4 5 6 
#
# 1 162.1394 56.6452 33.3869 0.0000 0.0000 0.0000
# 2 56.6452 155.4632 24.4365 0.0000 0.0000 0.0000
# 3 33.3869 24.4365 93.7406 0.0000 0.0000 0.0000
# 4 0.0000 0.0000 0.0000 32.0875 0.0000 0.0000
# 5 0.0000 0.0000 0.0000 0.0000 27.5635 0.0000
# 6 0.0000 0.0000 0.0000 0.0000 0.0000 29.4604
#
#
#
# Elastic Compliance Matrix: (Units=1/GPa)
#
#
# Indices 1 2 3 4 5 6 
#
# 1 0.007417 -0.002385 -0.002020 0.000000 0.000000 0.000000
# 2 -0.002385 0.007474 -0.001099 0.000000 0.000000 0.000000
# 3 -0.002020 -0.001099 0.011674 0.000000 0.000000 0.000000
# 4 0.000000 0.000000 0.000000 0.031165 0.000000 0.000000
# 5 0.000000 0.000000 0.000000 0.000000 0.036280 0.000000
# 6 0.000000 0.000000 0.000000 0.000000 0.000000 0.033944
#
#
# Mechanical properties :
#
#
# Convention : Reuss Voigt Hill
#
# Bulk Modulus (GPa) = 64.27974 71.14227 67.71100
# Shear Modulus (GPa) = 34.68711 37.61393 36.15052
#
# Velocity S-wave (km/s) = 3.89540 4.05642 3.97672
# Velocity P-wave (km/s) = 6.95355 7.28431 7.12085
#
# Compressibility (1/GPa) = 0.01555700
#
# Stress axis : x y z
#
# Youngs Moduli (GPa) = 134.83222 133.79558 85.66335
#
# Poissons Ratio (x) = 0.31908 0.17303
# Poissons Ratio (y) = 0.32156 0.09414
# Poissons Ratio (z) = 0.27234 0.14704
#
# Static dielectric constant tensor:
#      x y z
#    x 4.122630 0.000000 0.000000 
#    y 0.000000 4.130020 0.000000 
#    z 0.000000 0.000000 4.106090 
# 
# 
# High freq. dielectric constant tensor:
#      x y z
#    x 1.902350 0.000000 0.000000 
#    y 0.000000 1.915450 0.000000 
#    z 0.000000 0.000000 1.900150 
# 
# From -- ./inp_files/2661.got.cif
#   From: 2010.03.12/outbox.cif.g09.slc.cpg/sg40_2_cif.got.tgz:2661.got - 2010.04.14 01:38:03.
