data_PCOD8184635
_publ_section_title
;
Structure prediction by ZEFSAII (Michael W. Deem and Ramdas Pophale) SiO2 
 PCOD8184635
Probable space group: A M A 2
;
_chemical_formula_sum "Si O2"
_cell_formula_units_Z 44
_cell_length_a 15.459118
_cell_length_b 19.745165
_cell_length_c 6.685464
_cell_angle_alpha 90.000000
_cell_angle_beta 90.000000
_cell_angle_gamma 90.000000
_cell_volume 2040.689989
_symmetry_space_group_name_H-M "A M A 2"
_symmetry_group_IT_number 40
_symmetry_cell_setting 'orthorhombic'
loop_
_space_group_symop_operation_xyz
x,y,z
-x,-y,z
1/2-x,y,z
1/2+x,-y,z
x,1/2+y,1/2+z
-x,1/2-y,1/2+z
1/2-x,1/2+y,1/2+z
1/2+x,1/2-y,1/2+z
loop_
_atom_site_type_symbol
_atom_site_label
_atom_site_fract_x
_atom_site_fract_y
_atom_site_fract_z
Si Si1 0.750000 0.388436 0.154280
Si Si2 0.000000 0.000000 0.701056
Si Si3 0.380148 0.636942 0.816601
Si Si4 0.896690 0.489358 0.556248
Si Si5 0.250000 0.858835 0.460179
Si Si6 0.750000 0.296701 0.546218
Si Si7 0.563572 0.093246 0.363546
Si Si8 0.250000 0.461861 0.311139
O O1 0.750000 0.350728 0.366726
O O2 0.750000 0.469179 0.180559
O O3 0.664150 0.366836 0.033206
O O4 0.057343 0.948703 0.570746
O O5 0.058626 0.043634 0.857452
O O6 0.357433 0.566657 0.703006
O O7 0.336508 0.695226 0.682461
O O8 0.483958 0.647457 0.848616
O O9 0.827926 0.540899 0.465626
O O10 0.956890 0.542088 0.681590
O O11 0.250000 0.778643 0.468234
O O12 0.339598 0.877169 0.345301
O O13 0.250000 0.895099 0.674245
#
# Coordination Sequence:
#
# PCOD8184635 Si02
#       8
#     4   4   8   8   4   4   8   4
#     4  11  22  43  76 100 127 178 238 298 345 417
#     4  12  20  36  68 106 142 174 222 292 360 422
#     4  11  22  43  72  99 134 177 240 294 346 433
#     4  12  21  38  67 110 136 169 230 299 356 416
#     4  12  28  48  64 103 151 191 234 298 371 437
#     4  11  27  50  65  98 144 183 247 294 359 437
#     4  12  24  43  67 104 146 177 235 292 358 431
#     4  12  21  39  71  97 136 186 217 290 369 403
#
# _framework density 21.561335
#
# number of rings (size 3 to 8) (size 9 to 14) (size 15 to 20)
#    0.000    0.364    7.273    3.273    0.000    0.000 
#    9.818    0.000    0.000    0.000    0.000    0.000 
#    0.000    0.000    0.000    0.000    0.000    0.000 
#
# Total GULP energy -272541.919658 kJ/mol
# GULP energy per Si atom -12388.269075 kJ/mol
# Density = 2.151226 g / cm^3
# Si number density = 21.561335 Si / 1000 Ang^3
#
#
#
# Elastic Constant Matrix: (Units=GPa)
#
#
# Indices 1 2 3 4 5 6 
#
# 1 169.5016 21.6654 39.6326 0.0000 0.0000 0.0000
# 2 21.6654 60.9949 16.9755 0.0000 0.0000 0.0000
# 3 39.6326 16.9755 113.6469 0.0000 0.0000 0.0000
# 4 0.0000 0.0000 0.0000 17.6134 0.0000 0.0000
# 5 0.0000 0.0000 0.0000 0.0000 36.3286 0.0000
# 6 0.0000 0.0000 0.0000 0.0000 0.0000 22.9985
#
#
#
# Elastic Compliance Matrix: (Units=1/GPa)
#
#
# Indices 1 2 3 4 5 6 
#
# 1 0.006603 -0.001779 -0.002037 0.000000 0.000000 0.000000
# 2 -0.001779 0.017585 -0.002006 0.000000 0.000000 0.000000
# 3 -0.002037 -0.002006 0.009809 0.000000 0.000000 0.000000
# 4 0.000000 0.000000 0.000000 0.056775 0.000000 0.000000
# 5 0.000000 0.000000 0.000000 0.000000 0.027527 0.000000
# 6 0.000000 0.000000 0.000000 0.000000 0.000000 0.043481
#
#
# Mechanical properties :
#
#
# Convention : Reuss Voigt Hill
#
# Bulk Modulus (GPa) = 44.73603 55.63225 50.18414
# Shear Modulus (GPa) = 27.64331 33.11274 30.37803
#
# Velocity S-wave (km/s) = 3.58450 3.92311 3.75762
# Velocity P-wave (km/s) = 6.15831 6.81021 6.49245
#
# Compressibility (1/GPa) = 0.02235335
#
# Stress axis : x y z
#
# Youngs Moduli (GPa) = 151.43943 56.86674 101.94397
#
# Poissons Ratio (x) = 0.10114 0.20767
# Poissons Ratio (y) = 0.26934 0.20454
# Poissons Ratio (z) = 0.30850 0.11410
#
# Static dielectric constant tensor:
#      x y z
#    x 4.742350 0.000000 0.000000 
#    y 0.000000 3.286820 0.000000 
#    z 0.000000 0.000000 4.106360 
# 
# 
# High freq. dielectric constant tensor:
#      x y z
#    x 1.878780 0.000000 0.000000 
#    y 0.000000 1.779850 0.000000 
#    z 0.000000 0.000000 1.869830 
# 
# From -- ./inp_files/1861.got.cif
#   From: 2010.03.12/outbox.cif.g09.slc.cpg/sg40_1_cif.got.tgz:1861.got - 2010.04.14 01:38:03.
