data_PCOD8184305
_publ_section_title
;
Structure prediction by ZEFSAII (Michael W. Deem and Ramdas Pophale) SiO2 
 PCOD8184305
Probable space group: A M A 2
;
_chemical_formula_sum "Si O2"
_cell_formula_units_Z 40
_cell_length_a 25.299416
_cell_length_b 5.300178
_cell_length_c 12.190839
_cell_angle_alpha 90.000000
_cell_angle_beta 90.000000
_cell_angle_gamma 90.000000
_cell_volume 1634.686767
_symmetry_space_group_name_H-M "A M A 2"
_symmetry_group_IT_number 40
_symmetry_cell_setting 'orthorhombic'
loop_
_space_group_symop_operation_xyz
x,y,z
-x,-y,z
1/2-x,y,z
1/2+x,-y,z
x,1/2+y,1/2+z
-x,1/2-y,1/2+z
1/2-x,1/2+y,1/2+z
1/2+x,1/2-y,1/2+z
loop_
_atom_site_type_symbol
_atom_site_label
_atom_site_fract_x
_atom_site_fract_y
_atom_site_fract_z
Si Si1 0.307079 0.527010 0.939810
Si Si2 0.380392 0.104830 0.018589
Si Si3 0.636557 0.136952 0.795757
Si Si4 0.532919 0.756820 0.163885
Si Si5 0.691060 0.685231 0.661445
O O1 0.250000 0.387835 0.929148
O O2 0.320405 0.635309 0.815306
O O3 0.354518 0.348298 0.968194
O O4 0.302132 0.729311 0.035631
O O5 0.441462 0.165742 0.046889
O O6 0.350221 0.045938 0.136699
O O7 0.378695 0.896492 0.924588
O O8 0.580876 0.201358 0.744570
O O9 0.664716 0.897275 0.739269
O O10 0.500000 0.500000 0.151127
O O11 0.500000 0.000000 0.206933
O O12 0.750000 0.613775 0.704340
#
# Coordination Sequence:
#
# PCOD8184305 Si02
#       5
#     8   8   8   8   8
#     4  10  22  41  71 109 150 187 235 298 377 458
#     4  11  25  46  71 105 149 190 248 311 371 453
#     4  11  25  46  72 105 145 193 251 307 371 454
#     4  12  29  53  76 105 146 197 259 321 375 429
#     4  10  21  42  70 106 152 197 235 295 374 458
#
# _framework density 24.469519999999999
#
# number of rings (size 3 to 8) (size 9 to 14) (size 15 to 20)
#    0.000    1.200    2.000    2.400    8.400    3.200 
#    0.000    0.000    0.000    0.000    0.000    0.000 
#    0.000    0.000    0.000    0.000    0.000    0.000 
#
# Total GULP energy -247775.087549 kJ/mol
# GULP energy per Si atom -12388.754377 kJ/mol
# Density = 2.441383 g / cm^3
# Si number density = 24.469520 Si / 1000 Ang^3
#
#
#
# Elastic Constant Matrix: (Units=GPa)
#
#
# Indices 1 2 3 4 5 6 
#
# 1 187.5149 65.6610 47.3447 0.0000 0.0000 0.0000
# 2 65.6610 107.7732 -0.7528 0.0000 0.0000 0.0000
# 3 47.3447 -0.7528 98.2845 0.0000 0.0000 0.0000
# 4 0.0000 0.0000 0.0000 21.6605 0.0000 0.0000
# 5 0.0000 0.0000 0.0000 0.0000 7.4671 0.0000
# 6 0.0000 0.0000 0.0000 0.0000 0.0000 47.2770
#
#
#
# Elastic Compliance Matrix: (Units=1/GPa)
#
#
# Indices 1 2 3 4 5 6 
#
# 1 0.008048 -0.004930 -0.003914 0.000000 0.000000 0.000000
# 2 -0.004930 0.012300 0.002469 0.000000 0.000000 0.000000
# 3 -0.003914 0.002469 0.012079 0.000000 0.000000 0.000000
# 4 0.000000 0.000000 0.000000 0.046167 0.000000 0.000000
# 5 0.000000 0.000000 0.000000 0.000000 0.133921 0.000000
# 6 0.000000 0.000000 0.000000 0.000000 0.000000 0.021152
#
#
# Mechanical properties :
#
#
# Convention : Reuss Voigt Hill
#
# Bulk Modulus (GPa) = 50.82484 68.67539 59.75011
# Shear Modulus (GPa) = 19.76473 34.03557 26.90015
#
# Velocity S-wave (km/s) = 2.84514 3.73357 3.31922
# Velocity P-wave (km/s) = 5.62218 6.83467 6.25786
#
# Compressibility (1/GPa) = 0.01967542
#
# Stress axis : x y z
#
# Youngs Moduli (GPa) = 124.25925 81.30185 82.78784
#
# Poissons Ratio (x) = 0.40085 0.32407
# Poissons Ratio (y) = 0.61265 -0.20442
# Poissons Ratio (z) = 0.48640 -0.20075
#
# Static dielectric constant tensor:
#      x y z
#    x 7.473390 0.000000 0.000000 
#    y 0.000000 4.445280 0.000000 
#    z 0.000000 0.000000 5.403790 
# 
# 
# High freq. dielectric constant tensor:
#      x y z
#    x 1.982600 0.000000 0.000000 
#    y 0.000000 1.971960 0.000000 
#    z 0.000000 0.000000 2.007840 
# 
# From -- ./inp_files/18364.got.cif
#   From: 2010.03.12/outbox.cif.g09.slc.cpg/sg40_10_cif.got.tgz:18364.got - 2010.04.14 01:38:03.
