data_PCOD8184810
_publ_section_title
;
Structure prediction by ZEFSAII (Michael W. Deem and Ramdas Pophale) SiO2 
 PCOD8184810
Probable space group: A B A 2
;
_chemical_formula_sum "Si O2"
_cell_formula_units_Z 64
_cell_length_a 10.325661
_cell_length_b 19.311878
_cell_length_c 17.557248
_cell_angle_alpha 90.000000
_cell_angle_beta 90.000000
_cell_angle_gamma 90.000000
_cell_volume 3501.054050
_symmetry_space_group_name_H-M "A B A 2"
_symmetry_group_IT_number 41
_symmetry_cell_setting 'orthorhombic'
loop_
_space_group_symop_operation_xyz
x,y,z
-x,-y,z
1/2-x,y,1/2+z
1/2+x,-y,1/2+z
x,1/2+y,1/2+z
-x,1/2-y,1/2+z
1/2-x,1/2+y,z
1/2+x,1/2-y,z
loop_
_atom_site_type_symbol
_atom_site_label
_atom_site_fract_x
_atom_site_fract_y
_atom_site_fract_z
Si Si1 0.464927 0.663582 0.907050
Si Si2 0.703751 0.103348 0.326875
Si Si3 0.296249 0.396652 0.649401
Si Si4 0.865984 0.692394 0.931358
Si Si5 0.642620 0.978092 0.051064
Si Si6 0.865984 0.192394 0.044918
Si Si7 0.035073 0.663582 0.069226
Si Si8 0.142620 0.021908 0.925212
O O1 0.579953 0.650494 0.847268
O O2 0.401473 0.737133 0.886474
O O3 0.358143 0.602515 0.900989
O O4 0.514590 0.664249 0.994752
O O5 0.732092 0.105180 0.238138
O O6 0.828912 0.133981 0.370156
O O7 0.677718 0.024408 0.351889
O O8 0.322282 0.475592 0.624387
O O9 0.171088 0.366019 0.606120
O O10 0.420047 0.349506 0.629008
O O11 0.750000 0.710254 0.988138
O O12 0.985410 0.664249 0.981525
O O13 0.641857 0.897485 0.075288
O O14 0.500000 0.000000 0.020309
O O15 0.750000 0.994041 0.988138
O O16 0.901473 0.262867 0.089802
O O17 0.000000 0.000000 0.955967
#
# Coordination Sequence:
#
# PCOD8184810 Si02
#       8
#     8   8   8   8   8   8   8   8
#     4   9  18  31  54  76  95 128 175 217 254 306
#     4  10  20  32  47  72 106 137 165 206 261 315
#     4  10  20  32  47  72 106 137 165 206 261 315
#     4   9  17  33  52  74  99 128 168 218 264 300
#     4  10  19  33  54  77 100 133 174 215 256 302
#     4   9  17  33  52  74  99 128 168 218 264 300
#     4   9  18  31  54  76  95 128 175 217 254 306
#     4  10  19  33  54  77 100 133 174 215 256 302
#
# _framework density 18.280207999999998
#
# number of rings (size 3 to 8) (size 9 to 14) (size 15 to 20)
#    0.000    2.500    0.000    4.500    0.000    5.500 
#    0.000    0.000    0.000    6.750    0.000    0.000 
#    0.000    0.000    0.000    0.000    0.000    0.000 
#
# Total GULP energy -396774.030319 kJ/mol
# GULP energy per Si atom -12399.188447 kJ/mol
# Density = 1.823860 g / cm^3
# Si number density = 18.280208 Si / 1000 Ang^3
#
#
#
# Elastic Constant Matrix: (Units=GPa)
#
#
# Indices 1 2 3 4 5 6 
#
# 1 54.9936 32.8880 31.5103 0.0000 0.0000 0.0000
# 2 32.8880 138.0023 37.8476 0.0000 0.0000 0.0000
# 3 31.5103 37.8476 89.9924 0.0000 0.0000 0.0000
# 4 0.0000 0.0000 0.0000 13.3966 0.0000 0.0000
# 5 0.0000 0.0000 0.0000 0.0000 11.0206 0.0000
# 6 0.0000 0.0000 0.0000 0.0000 0.0000 29.3720
#
#
#
# Elastic Compliance Matrix: (Units=1/GPa)
#
#
# Indices 1 2 3 4 5 6 
#
# 1 0.024508 -0.003942 -0.006924 0.000000 0.000000 0.000000
# 2 -0.003942 0.008825 -0.002331 0.000000 0.000000 0.000000
# 3 -0.006924 -0.002331 0.014517 0.000000 0.000000 0.000000
# 4 0.000000 0.000000 0.000000 0.074646 0.000000 0.000000
# 5 0.000000 0.000000 0.000000 0.000000 0.090739 0.000000
# 6 0.000000 0.000000 0.000000 0.000000 0.000000 0.034046
#
#
# Mechanical properties :
#
#
# Convention : Reuss Voigt Hill
#
# Bulk Modulus (GPa) = 46.60566 54.16445 50.38505
# Shear Modulus (GPa) = 17.80452 22.80732 20.30592
#
# Velocity S-wave (km/s) = 3.12425 3.53604 3.33650
# Velocity P-wave (km/s) = 6.21008 6.80925 6.51655
#
# Compressibility (1/GPa) = 0.02145662
#
# Stress axis : x y z
#
# Youngs Moduli (GPa) = 40.80225 113.31415 68.88586
#
# Poissons Ratio (x) = 0.44667 0.47694
# Poissons Ratio (y) = 0.16084 0.16059
# Poissons Ratio (z) = 0.28250 0.26416
#
# Static dielectric constant tensor:
#      x y z
#    x 3.372830 0.000000 0.000000 
#    y 0.000000 3.677700 0.000000 
#    z 0.000000 0.000000 2.978980 
# 
# 
# High freq. dielectric constant tensor:
#      x y z
#    x 1.698640 0.000000 0.000000 
#    y 0.000000 1.725140 0.000000 
#    z 0.000000 0.000000 1.669170 
# 
# From -- ./inp_files/10203.got.cif
#   From: 2010.03.12/outbox.cif.g09.slc.cpg/sg41_6_cif.got.tgz:10203.got - 2010.04.14 01:55:53.
