data_PCOD8184535
_publ_section_title
;
Structure prediction by ZEFSAII (Michael W. Deem and Ramdas Pophale) SiO2 
 PCOD8184535
Probable space group: A M A 2
;
_chemical_formula_sum "Si O2"
_cell_formula_units_Z 28
_cell_length_a 26.809907
_cell_length_b 5.263191
_cell_length_c 8.772238
_cell_angle_alpha 90.000000
_cell_angle_beta 90.000000
_cell_angle_gamma 90.000000
_cell_volume 1237.812443
_symmetry_space_group_name_H-M "A M A 2"
_symmetry_group_IT_number 40
_symmetry_cell_setting 'orthorhombic'
loop_
_space_group_symop_operation_xyz
x,y,z
-x,-y,z
1/2-x,y,z
1/2+x,-y,z
x,1/2+y,1/2+z
-x,1/2-y,1/2+z
1/2-x,1/2+y,1/2+z
1/2+x,1/2-y,1/2+z
loop_
_atom_site_type_symbol
_atom_site_label
_atom_site_fract_x
_atom_site_fract_y
_atom_site_fract_z
Si Si1 0.307692 0.988005 0.260140
Si Si2 0.454598 0.345596 0.067357
Si Si3 0.000000 0.500000 0.354799
Si Si4 0.844571 0.510370 0.095460
O O1 0.250000 0.986178 0.214352
O O2 0.333093 0.731694 0.199885
O O3 0.312354 0.001447 0.442123
O O4 0.333441 0.232195 0.186371
O O5 0.500000 0.500000 0.987225
O O6 0.471199 0.298176 0.243754
O O7 0.402827 0.494262 0.054091
O O8 0.454514 0.094002 0.963425
#
# Coordination Sequence:
#
# PCOD8184535 Si02
#       4
#     8   8   4   8
#     4  12  26  47  71 103 137 179 233 293 343 406
#     4  10  26  41  68  98 139 176 224 273 334 409
#     4  10  24  38  66  90 142 172 220 270 328 390
#     4  12  27  44  76 101 139 182 232 278 355 407
#
# _framework density 22.620549
#
# number of rings (size 3 to 8) (size 9 to 14) (size 15 to 20)
#    0.857    0.000    0.000    6.000   10.000    0.000 
#    0.000    0.000    0.000    0.000    0.000    0.000 
#    0.000    0.000    0.000    0.000    0.000    0.000 
#
# Total GULP energy -173488.589268 kJ/mol
# GULP energy per Si atom -12392.042091 kJ/mol
# Density = 2.256906 g / cm^3
# Si number density = 22.620549 Si / 1000 Ang^3
#
#
#
# Elastic Constant Matrix: (Units=GPa)
#
#
# Indices 1 2 3 4 5 6 
#
# 1 108.4508 30.6916 0.9898 0.0000 0.0000 0.0000
# 2 30.6916 110.1880 45.3109 0.0000 0.0000 0.0000
# 3 0.9898 45.3109 138.0144 0.0000 0.0000 0.0000
# 4 0.0000 0.0000 0.0000 27.6732 0.0000 0.0000
# 5 0.0000 0.0000 0.0000 0.0000 27.6536 0.0000
# 6 0.0000 0.0000 0.0000 0.0000 0.0000 24.4383
#
#
#
# Elastic Compliance Matrix: (Units=1/GPa)
#
#
# Indices 1 2 3 4 5 6 
#
# 1 0.010125 -0.003226 0.000986 0.000000 0.000000 0.000000
# 2 -0.003226 0.011520 -0.003759 0.000000 0.000000 0.000000
# 3 0.000986 -0.003759 0.008473 0.000000 0.000000 0.000000
# 4 0.000000 0.000000 0.000000 0.036136 0.000000 0.000000
# 5 0.000000 0.000000 0.000000 0.000000 0.036162 0.000000
# 6 0.000000 0.000000 0.000000 0.000000 0.000000 0.040919
#
#
# Mechanical properties :
#
#
# Convention : Reuss Voigt Hill
#
# Bulk Modulus (GPa) = 55.18595 56.73754 55.96175
# Shear Modulus (GPa) = 30.98465 34.59709 32.79087
#
# Velocity S-wave (km/s) = 3.70504 3.91507 3.81150
# Velocity P-wave (km/s) = 6.53853 6.75083 6.64553
#
# Compressibility (1/GPa) = 0.01812055
#
# Stress axis : x y z
#
# Youngs Moduli (GPa) = 98.76882 86.80885 118.02779
#
# Poissons Ratio (x) = 0.28002 -0.11642
# Poissons Ratio (y) = 0.31860 0.44364
# Poissons Ratio (z) = -0.09743 0.32630
#
# Static dielectric constant tensor:
#      x y z
#    x 4.055730 0.000000 0.000000 
#    y 0.000000 4.108980 0.000000 
#    z 0.000000 0.000000 4.134220 
# 
# 
# High freq. dielectric constant tensor:
#      x y z
#    x 1.897610 0.000000 0.000000 
#    y 0.000000 1.881800 0.000000 
#    z 0.000000 0.000000 1.912840 
# 
# From -- ./inp_files/8999.got.cif
#   From: 2010.03.12/outbox.cif.g09.slc.cpg/sg40_5_cif.got.tgz:8999.got - 2010.04.14 01:38:03.
