data_PCOD8184660
_publ_section_title
;
Structure prediction by ZEFSAII (Michael W. Deem and Ramdas Pophale) SiO2 
 PCOD8184660
Probable space group: A M A 2
;
_chemical_formula_sum "Si O2"
_cell_formula_units_Z 48
_cell_length_a 24.077490
_cell_length_b 17.193936
_cell_length_c 5.145460
_cell_angle_alpha 90.000000
_cell_angle_beta 90.000000
_cell_angle_gamma 90.000000
_cell_volume 2130.152634
_symmetry_space_group_name_H-M "A M A 2"
_symmetry_group_IT_number 40
_symmetry_cell_setting 'orthorhombic'
loop_
_space_group_symop_operation_xyz
x,y,z
-x,-y,z
1/2-x,y,z
1/2+x,-y,z
x,1/2+y,1/2+z
-x,1/2-y,1/2+z
1/2-x,1/2+y,1/2+z
1/2+x,1/2-y,1/2+z
loop_
_atom_site_type_symbol
_atom_site_label
_atom_site_fract_x
_atom_site_fract_y
_atom_site_fract_z
Si Si1 0.861379 0.025975 0.255390
Si Si2 0.750000 0.120818 0.292654
Si Si3 0.375516 0.574639 0.257754
Si Si4 0.856233 0.293803 0.593216
Si Si5 0.447725 0.184013 0.485994
Si Si6 0.250000 0.776380 0.800343
Si Si7 0.072560 0.824626 0.320806
O O1 0.803112 0.068752 0.232868
O O2 0.912250 0.085676 0.287254
O O3 0.854852 0.964729 0.490891
O O4 0.878034 0.988698 0.981993
O O5 0.750000 0.155173 0.583858
O O6 0.750000 0.191597 0.090981
O O7 0.337024 0.646484 0.363181
O O8 0.434376 0.618818 0.205366
O O9 0.908120 0.335606 0.741226
O O10 0.803918 0.278177 0.776440
O O11 0.877648 0.210917 0.491259
O O12 0.513024 0.179505 0.454514
O O13 0.431517 0.272859 0.560506
#
# Coordination Sequence:
#
# PCOD8184660 Si02
#       7
#     8   4   8   8   8   4   8
#     4  12  26  48  71 104 144 190 232 293 358 423
#     4  12  26  46  73 109 138 179 244 296 351 420
#     4  11  27  48  67 104 149 183 236 282 362 431
#     4  11  24  48  71 109 140 184 240 292 358 417
#     4  11  23  47  69 109 141 189 243 295 353 424
#     4  12  26  44  79 107 136 181 240 304 341 426
#     4  11  24  41  78  99 143 189 241 298 350 414
#
# _framework density 22.533595999999999
#
# number of rings (size 3 to 8) (size 9 to 14) (size 15 to 20)
#    0.000    0.667    5.000    2.000    4.667    2.000 
#    3.000    0.833    0.000    0.000    0.000    0.000 
#    0.000    0.000    0.000    0.000    0.000    0.000 
#
# Total GULP energy -297432.715051 kJ/mol
# GULP energy per Si atom -12393.029794 kJ/mol
# Density = 2.248231 g / cm^3
# Si number density = 22.533596 Si / 1000 Ang^3
#
#
#
# Elastic Constant Matrix: (Units=GPa)
#
#
# Indices 1 2 3 4 5 6 
#
# 1 88.6082 23.2124 4.3778 0.0000 0.0000 0.0000
# 2 23.2124 89.1305 15.3870 0.0000 0.0000 0.0000
# 3 4.3778 15.3870 83.0479 0.0000 0.0000 0.0000
# 4 0.0000 0.0000 0.0000 51.2464 0.0000 0.0000
# 5 0.0000 0.0000 0.0000 0.0000 22.5922 0.0000
# 6 0.0000 0.0000 0.0000 0.0000 0.0000 16.3442
#
#
#
# Elastic Compliance Matrix: (Units=1/GPa)
#
#
# Indices 1 2 3 4 5 6 
#
# 1 0.012112 -0.003145 -0.000056 0.000000 0.000000 0.000000
# 2 -0.003145 0.012407 -0.002133 0.000000 0.000000 0.000000
# 3 -0.000056 -0.002133 0.012439 0.000000 0.000000 0.000000
# 4 0.000000 0.000000 0.000000 0.019514 0.000000 0.000000
# 5 0.000000 0.000000 0.000000 0.000000 0.044263 0.000000
# 6 0.000000 0.000000 0.000000 0.000000 0.000000 0.061184
#
#
# Mechanical properties :
#
#
# Convention : Reuss Voigt Hill
#
# Bulk Modulus (GPa) = 38.03544 38.52678 38.28111
# Shear Modulus (GPa) = 27.57109 32.55719 30.06414
#
# Velocity S-wave (km/s) = 3.50173 3.80521 3.65662
# Velocity P-wave (km/s) = 5.76763 6.03662 5.90366
#
# Compressibility (1/GPa) = 0.02629127
#
# Stress axis : x y z
#
# Youngs Moduli (GPa) = 82.56126 80.60147 80.38992
#
# Poissons Ratio (x) = 0.25347 0.00449
# Poissons Ratio (y) = 0.25964 0.17147
# Poissons Ratio (z) = 0.00461 0.17192
#
# Static dielectric constant tensor:
#      x y z
#    x 3.911750 0.000000 0.000000 
#    y 0.000000 4.250770 0.000000 
#    z 0.000000 0.000000 4.242780 
# 
# 
# High freq. dielectric constant tensor:
#      x y z
#    x 1.879190 0.000000 0.000000 
#    y 0.000000 1.898780 0.000000 
#    z 0.000000 0.000000 1.898730 
# 
# From -- ./inp_files/2744.got.cif
#   From: 2010.03.12/outbox.cif.g09.slc.cpg/sg40_2_cif.got.tgz:2744.got - 2010.04.14 01:38:03.
