data_PCOD8184646
_publ_section_title
;
Structure prediction by ZEFSAII (Michael W. Deem and Ramdas Pophale) SiO2 
 PCOD8184646
Probable space group: A M A 2
;
_chemical_formula_sum "Si O2"
_cell_formula_units_Z 48
_cell_length_a 8.460912
_cell_length_b 20.311258
_cell_length_c 14.268460
_cell_angle_alpha 90.000000
_cell_angle_beta 90.000000
_cell_angle_gamma 90.000000
_cell_volume 2452.060057
_symmetry_space_group_name_H-M "A M A 2"
_symmetry_group_IT_number 40
_symmetry_cell_setting 'orthorhombic'
loop_
_space_group_symop_operation_xyz
x,y,z
-x,-y,z
1/2-x,y,z
1/2+x,-y,z
x,1/2+y,1/2+z
-x,1/2-y,1/2+z
1/2-x,1/2+y,1/2+z
1/2+x,1/2-y,1/2+z
loop_
_atom_site_type_symbol
_atom_site_label
_atom_site_fract_x
_atom_site_fract_y
_atom_site_fract_z
Si Si1 0.933182 0.372096 0.523070
Si Si2 0.431332 0.803687 0.724824
Si Si3 0.065191 0.431365 0.338981
Si Si4 0.563935 0.569564 0.709673
Si Si5 0.432058 0.311599 0.843125
Si Si6 0.068837 0.729253 0.032590
O O1 0.750000 0.352419 0.523382
O O2 0.971973 0.416724 0.434188
O O3 0.973108 0.413571 0.614725
O O4 0.035752 0.306181 0.518192
O O5 0.250000 0.785504 0.745576
O O6 0.472486 0.876286 0.761473
O O7 0.539972 0.750963 0.776918
O O8 0.462378 0.801702 0.614163
O O9 0.250000 0.435694 0.361313
O O10 0.000000 0.500000 0.298056
O O11 0.500000 0.500000 0.747034
O O12 0.750000 0.567926 0.689876
O O13 0.519806 0.622711 0.788306
O O14 0.250000 0.311932 0.872804
O O15 0.535877 0.309137 0.936591
O O16 0.250000 0.720226 0.061054
#
# Coordination Sequence:
#
# PCOD8184646 Si02
#       6
#     8   8   8   8   8   8
#     4  12  23  37  62  91 126 163 202 253 310 367
#     4  11  23  40  64  91 123 162 206 253 304 365
#     4  11  24  41  62  90 126 163 205 252 307 369
#     4  11  24  41  62  90 126 163 205 252 307 369
#     4  11  23  40  64  91 123 162 206 253 304 365
#     4  12  24  39  62  93 126 159 206 257 306 363
#
# _framework density 19.575378000000001
#
# number of rings (size 3 to 8) (size 9 to 14) (size 15 to 20)
#    0.000    0.667    3.333    5.500    0.000    4.000 
#    0.000    0.833    0.000    0.000    0.000    0.000 
#    0.000    0.000    0.000    0.000    0.000    0.000 
#
# Total GULP energy -297809.098686 kJ/mol
# GULP energy per Si atom -12408.712445 kJ/mol
# Density = 1.953082 g / cm^3
# Si number density = 19.575378 Si / 1000 Ang^3
#
#
#
# Elastic Constant Matrix: (Units=GPa)
#
#
# Indices 1 2 3 4 5 6 
#
# 1 69.1259 28.7065 13.8894 0.0000 0.0000 0.0000
# 2 28.7065 135.4219 48.5108 0.0000 0.0000 0.0000
# 3 13.8894 48.5108 102.3482 0.0000 0.0000 0.0000
# 4 0.0000 0.0000 0.0000 1800.5368 0.0000 0.0000
# 5 0.0000 0.0000 0.0000 0.0000 24.4842 0.0000
# 6 0.0000 0.0000 0.0000 0.0000 0.0000 31.3453
#
#
#
# Elastic Compliance Matrix: (Units=1/GPa)
#
#
# Indices 1 2 3 4 5 6 
#
# 1 0.015901 -0.003129 -0.000675 0.000000 0.000000 0.000000
# 2 -0.003129 0.009510 -0.004083 0.000000 0.000000 0.000000
# 3 -0.000675 -0.004083 0.011797 0.000000 0.000000 0.000000
# 4 0.000000 0.000000 0.000000 0.000555 0.000000 0.000000
# 5 0.000000 0.000000 0.000000 0.000000 0.040843 0.000000
# 6 0.000000 0.000000 0.000000 0.000000 0.000000 0.031903
#
#
# Mechanical properties :
#
#
# Convention : Reuss Voigt Hill
#
# Bulk Modulus (GPa) = 46.65210 54.34549 50.49879
# Shear Modulus (GPa) = 37.47324 385.65920 211.56622
#
# Velocity S-wave (km/s) = 4.38002 14.05134 10.40732
# Velocity P-wave (km/s) = 7.03301 17.06095 13.04874
#
# Compressibility (1/GPa) = 0.02143526
#
# Stress axis : x y z
#
# Youngs Moduli (GPa) = 62.88771 105.15003 84.76437
#
# Poissons Ratio (x) = 0.32901 0.05720
# Poissons Ratio (y) = 0.19678 0.34609
# Poissons Ratio (z) = 0.04244 0.42933
#
# Static dielectric constant tensor:
#      x y z
#    x 3.685610 0.000000 0.000000 
#    y 0.000000 1.557560 0.000000 
#    z 0.000000 0.000000 3.566230 
# 
# 
# High freq. dielectric constant tensor:
#      x y z
#    x 1.778290 0.000000 0.000000 
#    y 0.000000 1.761910 0.000000 
#    z 0.000000 0.000000 1.761200 
# 
# From -- ./inp_files/15022.got.cif
#   From: 2010.03.12/outbox.cif.g09.slc.cpg/sg40_8_cif.got.tgz:15022.got - 2010.04.14 01:38:03.
