data_PCOD8184124
_publ_section_title
;
Structure prediction by ZEFSAII (Michael W. Deem and Ramdas Pophale) SiO2 
 PCOD8184124
Probable space group: A M A 2
;
_chemical_formula_sum "Si O2"
_cell_formula_units_Z 64
_cell_length_a 14.506497
_cell_length_b 21.846996
_cell_length_c 9.579741
_cell_angle_alpha 90.000000
_cell_angle_beta 90.000000
_cell_angle_gamma 90.000000
_cell_volume 3036.043916
_symmetry_space_group_name_H-M "A M A 2"
_symmetry_group_IT_number 40
_symmetry_cell_setting 'orthorhombic'
loop_
_space_group_symop_operation_xyz
x,y,z
-x,-y,z
1/2-x,y,z
1/2+x,-y,z
x,1/2+y,1/2+z
-x,1/2-y,1/2+z
1/2-x,1/2+y,1/2+z
1/2+x,1/2-y,1/2+z
loop_
_atom_site_type_symbol
_atom_site_label
_atom_site_fract_x
_atom_site_fract_y
_atom_site_fract_z
Si Si1 0.851923 0.890456 0.872300
Si Si2 0.455841 0.600234 0.812064
Si Si3 0.353394 0.685073 0.622256
Si Si4 0.960255 0.357841 0.109501
Si Si5 0.850981 0.613603 0.696585
Si Si6 0.356346 0.264790 0.522148
Si Si7 0.146639 0.814001 0.716789
Si Si8 0.101438 0.509117 0.576690
O O1 0.750000 0.870613 0.825914
O O2 0.911762 0.893409 0.734536
O O3 0.895903 0.840066 0.977359
O O4 0.845233 0.953697 0.958079
O O5 0.415418 0.663576 0.752153
O O6 0.567005 0.600182 0.803444
O O7 0.407772 0.544564 0.727312
O O8 0.438154 0.598745 0.977233
O O9 0.250000 0.657908 0.642268
O O10 0.350322 0.757576 0.609668
O O11 0.921999 0.289239 0.080447
O O12 0.068558 0.358101 0.152997
O O13 0.750000 0.618143 0.769992
O O14 0.872674 0.676138 0.617267
O O15 0.847298 0.555588 0.591529
O O16 0.250000 0.242316 0.526647
O O17 0.382140 0.286243 0.366506
O O18 0.250000 0.844496 0.723062
O O19 0.000000 0.500000 0.515398
#
# Coordination Sequence:
#
# PCOD8184124 Si02
#       8
#     8   8   8   8   8   8   8   8
#     4  10  22  38  61  93 121 155 206 258 304 352
#     4  10  21  37  59  89 117 158 200 248 299 355
#     4   9  18  35  57  81 117 160 205 245 288 351
#     4  12  24  35  62  91 131 160 196 250 312 364
#     4  10  21  39  66  90 117 156 206 253 293 355
#     4  10  22  38  59  92 128 162 198 244 305 365
#     4  10  22  36  54  84 126 171 203 237 298 372
#     4   9  20  40  67  87 115 156 209 254 297 358
#
# _framework density 21.080062999999999
#
# number of rings (size 3 to 8) (size 9 to 14) (size 15 to 20)
#    0.000    2.000    1.250    1.500    7.000    1.500 
#    0.000    4.375    0.000    0.000    0.000    0.000 
#    0.000    0.000    0.000    0.000    0.000    0.000 
#
# Total GULP energy -396554.633652 kJ/mol
# GULP energy per Si atom -12392.332302 kJ/mol
# Density = 2.103208 g / cm^3
# Si number density = 21.080063 Si / 1000 Ang^3
#
#
#
# Elastic Constant Matrix: (Units=GPa)
#
#
# Indices 1 2 3 4 5 6 
#
# 1 98.0452 7.5953 38.0832 0.0000 0.0000 0.0000
# 2 7.5953 55.0957 19.2170 0.0000 0.0000 0.0000
# 3 38.0832 19.2170 122.5527 0.0000 0.0000 0.0000
# 4 0.0000 0.0000 0.0000 13.8825 0.0000 0.0000
# 5 0.0000 0.0000 0.0000 0.0000 24.3166 0.0000
# 6 0.0000 0.0000 0.0000 0.0000 0.0000 22.2985
#
#
#
# Elastic Compliance Matrix: (Units=1/GPa)
#
#
# Indices 1 2 3 4 5 6 
#
# 1 0.011606 -0.000362 -0.003550 0.000000 0.000000 0.000000
# 2 -0.000362 0.019212 -0.002900 0.000000 0.000000 0.000000
# 3 -0.003550 -0.002900 0.009718 0.000000 0.000000 0.000000
# 4 0.000000 0.000000 0.000000 0.072033 0.000000 0.000000
# 5 0.000000 0.000000 0.000000 0.000000 0.041124 0.000000
# 6 0.000000 0.000000 0.000000 0.000000 0.000000 0.044846
#
#
# Mechanical properties :
#
#
# Convention : Reuss Voigt Hill
#
# Bulk Modulus (GPa) = 37.15820 45.05384 41.10602
# Shear Modulus (GPa) = 22.61084 26.15274 24.38179
#
# Velocity S-wave (km/s) = 3.27864 3.52609 3.40461
# Velocity P-wave (km/s) = 5.65668 6.16416 5.91587
#
# Compressibility (1/GPa) = 0.02691196
#
# Stress axis : x y z
#
# Youngs Moduli (GPa) = 86.16029 52.05182 102.90573
#
# Poissons Ratio (x) = 0.01883 0.36531
# Poissons Ratio (y) = 0.03117 0.29843
# Poissons Ratio (z) = 0.30586 0.15095
#
# Static dielectric constant tensor:
#      x y z
#    x 4.039990 0.000000 0.000000 
#    y 0.000000 3.634360 0.000000 
#    z 0.000000 0.000000 3.605930 
# 
# 
# High freq. dielectric constant tensor:
#      x y z
#    x 1.840210 0.000000 0.000000 
#    y 0.000000 1.804040 0.000000 
#    z 0.000000 0.000000 1.805500 
# 
# From -- ./inp_files/6905.got.cif
#   From: 2010.03.12/outbox.cif.g09.slc.cpg/sg40_4_cif.got.tgz:6905.got - 2010.04.14 01:38:03.
