data_PCOD8184329
_publ_section_title
;
Structure prediction by ZEFSAII (Michael W. Deem and Ramdas Pophale) SiO2 
 PCOD8184329
Probable space group: A M A 2
;
_chemical_formula_sum "Si O2"
_cell_formula_units_Z 64
_cell_length_a 17.406208
_cell_length_b 28.051779
_cell_length_c 6.848537
_cell_angle_alpha 90.000000
_cell_angle_beta 90.000000
_cell_angle_gamma 90.000000
_cell_volume 3343.970089
_symmetry_space_group_name_H-M "A M A 2"
_symmetry_group_IT_number 40
_symmetry_cell_setting 'orthorhombic'
loop_
_space_group_symop_operation_xyz
x,y,z
-x,-y,z
1/2-x,y,z
1/2+x,-y,z
x,1/2+y,1/2+z
-x,1/2-y,1/2+z
1/2-x,1/2+y,1/2+z
1/2+x,1/2-y,1/2+z
loop_
_atom_site_type_symbol
_atom_site_label
_atom_site_fract_x
_atom_site_fract_y
_atom_site_fract_z
Si Si1 0.939102 0.037839 0.985620
Si Si2 0.077299 0.695615 0.684737
Si Si3 0.336299 0.758702 0.934687
Si Si4 0.039688 0.089230 0.302865
Si Si5 0.837191 0.675881 0.095006
Si Si6 0.841320 0.493481 0.804434
Si Si7 0.428626 0.255230 0.825539
Si Si8 0.903787 0.075754 0.577173
O O1 0.907345 0.067478 0.807147
O O2 0.000000 0.000000 0.902655
O O3 0.982993 0.071202 0.136482
O O4 0.866476 0.013518 0.093483
O O5 0.156359 0.714681 0.780603
O O6 0.067708 0.640684 0.734767
O O7 0.075789 0.705887 0.450994
O O8 0.015817 0.730043 0.789321
O O9 0.250000 0.761173 0.013181
O O10 0.357792 0.807688 0.817317
O O11 0.389353 0.748352 0.118380
O O12 0.114067 0.056261 0.339176
O O13 0.989047 0.089261 0.500218
O O14 0.750000 0.690367 0.050110
O O15 0.846766 0.620003 0.057217
O O16 0.890515 0.701668 0.940293
O O17 0.750000 0.484656 0.809533
O O18 0.866873 0.530090 0.972473
#
# Coordination Sequence:
#
# PCOD8184329 Si02
#       8
#     8   8   8   8   8   8   8   8
#     4   9  20  37  57  82 112 151 194 240 291 345
#     4  11  22  36  63  89 114 156 206 244 297 360
#     4  10  23  40  57  84 122 156 194 247 302 352
#     4  10  22  38  59  88 118 155 197 250 299 354
#     4  10  22  36  56  87 118 149 188 240 304 362
#     4  10  22  39  57  83 120 159 198 244 300 360
#     4  11  21  38  59  84 117 155 196 245 295 355
#     4  11  20  36  64  88 117 150 198 246 302 359
#
# _framework density 19.138925
#
# number of rings (size 3 to 8) (size 9 to 14) (size 15 to 20)
#    0.000    1.750    2.500    2.625    1.750    3.000 
#    0.000    1.250    0.000    0.000    0.000    0.000 
#    0.000    0.000    0.000    0.000    0.000    0.000 
#
# Total GULP energy -396719.944497 kJ/mol
# GULP energy per Si atom -12397.498266 kJ/mol
# Density = 1.909536 g / cm^3
# Si number density = 19.138925 Si / 1000 Ang^3
#
#
#
# Elastic Constant Matrix: (Units=GPa)
#
#
# Indices 1 2 3 4 5 6 
#
# 1 90.9465 34.0390 31.1634 0.0000 0.0000 0.0000
# 2 34.0390 112.6563 24.3630 0.0000 0.0000 0.0000
# 3 31.1634 24.3630 89.5502 0.0000 0.0000 0.0000
# 4 0.0000 0.0000 0.0000 25.7870 0.0000 0.0000
# 5 0.0000 0.0000 0.0000 0.0000 61.9109 0.0000
# 6 0.0000 0.0000 0.0000 0.0000 0.0000 25.4056
#
#
#
# Elastic Compliance Matrix: (Units=1/GPa)
#
#
# Indices 1 2 3 4 5 6 
#
# 1 0.013525 -0.003260 -0.003819 0.000000 0.000000 0.000000
# 2 -0.003260 0.010217 -0.001645 0.000000 0.000000 0.000000
# 3 -0.003819 -0.001645 0.012944 0.000000 0.000000 0.000000
# 4 0.000000 0.000000 0.000000 0.038779 0.000000 0.000000
# 5 0.000000 0.000000 0.000000 0.000000 0.016152 0.000000
# 6 0.000000 0.000000 0.000000 0.000000 0.000000 0.039361
#
#
# Mechanical properties :
#
#
# Convention : Reuss Voigt Hill
#
# Bulk Modulus (GPa) = 51.98704 52.47599 52.23151
# Shear Modulus (GPa) = 32.29130 36.19322 34.24226
#
# Velocity S-wave (km/s) = 4.11202 4.35337 4.23441
# Velocity P-wave (km/s) = 7.05456 7.26272 7.15940
#
# Compressibility (1/GPa) = 0.01923556
#
# Stress axis : x y z
#
# Youngs Moduli (GPa) = 73.93967 97.87164 77.25783
#
# Poissons Ratio (x) = 0.31910 0.29509
# Poissons Ratio (y) = 0.24107 0.12710
# Poissons Ratio (z) = 0.28241 0.16101
#
# Static dielectric constant tensor:
#      x y z
#    x 3.413110 0.000000 0.000000 
#    y 0.000000 3.432690 0.000000 
#    z 0.000000 0.000000 3.549580 
# 
# 
# High freq. dielectric constant tensor:
#      x y z
#    x 1.745150 0.000000 0.000000 
#    y 0.000000 1.737420 0.000000 
#    z 0.000000 0.000000 1.750850 
# 
# From -- ./inp_files/2001.got.cif
#   From: 2010.03.12/outbox.cif.g09.slc.cpg/sg40_2_cif.got.tgz:2001.got - 2010.04.14 01:38:03.
