data_PCOD8184708
_publ_section_title
;
Structure prediction by ZEFSAII (Michael W. Deem and Ramdas Pophale) SiO2 
 PCOD8184708
Probable space group: A M A 2
;
_chemical_formula_sum "Si O2"
_cell_formula_units_Z 60
_cell_length_a 19.895005
_cell_length_b 16.688718
_cell_length_c 8.160835
_cell_angle_alpha 90.000000
_cell_angle_beta 90.000000
_cell_angle_gamma 90.000000
_cell_volume 2709.577803
_symmetry_space_group_name_H-M "A M A 2"
_symmetry_group_IT_number 40
_symmetry_cell_setting 'orthorhombic'
loop_
_space_group_symop_operation_xyz
x,y,z
-x,-y,z
1/2-x,y,z
1/2+x,-y,z
x,1/2+y,1/2+z
-x,1/2-y,1/2+z
1/2-x,1/2+y,1/2+z
1/2+x,1/2-y,1/2+z
loop_
_atom_site_type_symbol
_atom_site_label
_atom_site_fract_x
_atom_site_fract_y
_atom_site_fract_z
Si Si1 0.033316 0.847070 0.635310
Si Si2 0.330164 0.237301 0.542168
Si Si3 0.175578 0.335713 0.041578
Si Si4 0.101598 0.551125 0.580223
Si Si5 0.448287 0.186177 0.317679
Si Si6 0.000000 0.000000 0.828643
Si Si7 0.322908 0.904481 0.186122
Si Si8 0.827569 0.822381 0.884837
O O1 0.112981 0.872993 0.640812
O O2 0.020434 0.764307 0.731218
O O3 0.995166 0.919532 0.722550
O O4 0.002812 0.839911 0.452998
O O5 0.250000 0.226964 0.505686
O O6 0.373847 0.205795 0.389418
O O7 0.349956 0.330161 0.576712
O O8 0.355651 0.185232 0.699296
O O9 0.250000 0.337388 0.131673
O O10 0.185154 0.378981 0.871560
O O11 0.146319 0.246235 0.008655
O O12 0.058000 0.613334 0.687637
O O13 0.062556 0.498961 0.448658
O O14 0.132538 0.483770 0.695909
O O15 0.158112 0.594102 0.470457
O O16 0.250000 0.927920 0.115362
O O17 0.750000 0.804333 0.863632
#
# Coordination Sequence:
#
# PCOD8184708 Si02
#       8
#     8   8   8   8   8   4   8   8
#     4  12  27  46  66 100 135 177 229 285 343 416
#     4   9  20  41  68  99 133 176 222 273 335 406
#     4   9  20  41  70  96 126 171 217 272 336 400
#     4  12  24  42  64  96 131 180 225 280 331 400
#     4  12  27  41  70  98 133 181 229 287 334 409
#     4  12  30  44  64  92 140 180 228 276 346 412
#     4   9  20  38  67  97 131 170 216 272 332 394
#     4   9  18  39  68  97 130 167 217 277 332 390
#
# _framework density 22.14367
#
# number of rings (size 3 to 8) (size 9 to 14) (size 15 to 20)
#    0.000    1.600    1.333    4.400    7.467    1.600 
#    0.000    1.333    0.000    0.000    0.000    0.000 
#    0.000    0.000    0.000    0.000    0.000    0.000 
#
# Total GULP energy -371795.496300 kJ/mol
# GULP energy per Si atom -12393.183210 kJ/mol
# Density = 2.209327 g / cm^3
# Si number density = 22.143670 Si / 1000 Ang^3
#
#
#
# Elastic Constant Matrix: (Units=GPa)
#
#
# Indices 1 2 3 4 5 6 
#
# 1 66.5829 26.1783 15.7980 0.0000 0.0000 0.0000
# 2 26.1783 112.2318 32.5409 0.0000 0.0000 0.0000
# 3 15.7980 32.5409 75.0124 0.0000 0.0000 0.0000
# 4 0.0000 0.0000 0.0000 73.6335 0.0000 0.0000
# 5 0.0000 0.0000 0.0000 0.0000 38.6363 0.0000
# 6 0.0000 0.0000 0.0000 0.0000 0.0000 22.7300
#
#
#
# Elastic Compliance Matrix: (Units=1/GPa)
#
#
# Indices 1 2 3 4 5 6 
#
# 1 0.016821 -0.003313 -0.002105 0.000000 0.000000 0.000000
# 2 -0.003313 0.010845 -0.004007 0.000000 0.000000 0.000000
# 3 -0.002105 -0.004007 0.015513 0.000000 0.000000 0.000000
# 4 0.000000 0.000000 0.000000 0.013581 0.000000 0.000000
# 5 0.000000 0.000000 0.000000 0.000000 0.025882 0.000000
# 6 0.000000 0.000000 0.000000 0.000000 0.000000 0.043995
#
#
# Mechanical properties :
#
#
# Convention : Reuss Voigt Hill
#
# Bulk Modulus (GPa) = 41.10492 44.76238 42.93365
# Shear Modulus (GPa) = 32.55298 38.95396 35.75347
#
# Velocity S-wave (km/s) = 3.83832 4.19877 4.02258
# Velocity P-wave (km/s) = 6.18440 6.61548 6.40357
#
# Compressibility (1/GPa) = 0.02432799
#
# Stress axis : x y z
#
# Youngs Moduli (GPa) = 59.44945 92.21145 64.46351
#
# Poissons Ratio (x) = 0.30551 0.13572
# Poissons Ratio (y) = 0.19696 0.25829
# Poissons Ratio (z) = 0.12516 0.36946
#
# Static dielectric constant tensor:
#      x y z
#    x 3.829650 0.000000 0.000000 
#    y 0.000000 3.325440 0.000000 
#    z 0.000000 0.000000 3.954210 
# 
# 
# High freq. dielectric constant tensor:
#      x y z
#    x 1.878730 0.000000 0.000000 
#    y 0.000000 1.863050 0.000000 
#    z 0.000000 0.000000 1.868520 
# 
# From -- ./inp_files/7702.got.cif
#   From: 2010.03.12/outbox.cif.g09.slc.cpg/sg40_4_cif.got.tgz:7702.got - 2010.04.14 01:38:03.
