data_PCOD8184447
_publ_section_title
;
Structure prediction by ZEFSAII (Michael W. Deem and Ramdas Pophale) SiO2 
 PCOD8184447
Probable space group: A M A 2
;
_chemical_formula_sum "Si O2"
_cell_formula_units_Z 56
_cell_length_a 14.430642
_cell_length_b 12.771753
_cell_length_c 12.845291
_cell_angle_alpha 90.000000
_cell_angle_beta 90.000000
_cell_angle_gamma 90.000000
_cell_volume 2367.446159
_symmetry_space_group_name_H-M "A M A 2"
_symmetry_group_IT_number 40
_symmetry_cell_setting 'orthorhombic'
loop_
_space_group_symop_operation_xyz
x,y,z
-x,-y,z
1/2-x,y,z
1/2+x,-y,z
x,1/2+y,1/2+z
-x,1/2-y,1/2+z
1/2-x,1/2+y,1/2+z
1/2+x,1/2-y,1/2+z
loop_
_atom_site_type_symbol
_atom_site_label
_atom_site_fract_x
_atom_site_fract_y
_atom_site_fract_z
Si Si1 0.898876 0.949880 0.668460
Si Si2 0.528978 0.703090 0.457447
Si Si3 0.890048 0.006951 0.234832
Si Si4 0.145777 0.273777 0.658943
Si Si5 0.354367 0.181523 0.092819
Si Si6 0.586211 0.428637 0.942707
Si Si7 0.852626 0.650800 0.269539
O O1 0.897285 0.830783 0.715649
O O2 0.858257 0.929274 0.551484
O O3 0.834667 0.033864 0.725338
O O4 0.000000 0.000000 0.671834
O O5 0.589017 0.685391 0.560199
O O6 0.422311 0.680566 0.491653
O O7 0.541384 0.818339 0.413562
O O8 0.571543 0.635133 0.362159
O O9 0.855933 0.126359 0.234546
O O10 0.852112 0.935001 0.141784
O O11 0.851043 0.963226 0.345114
O O12 0.000000 0.000000 0.235495
O O13 0.250000 0.247106 0.626044
O O14 0.250000 0.208046 0.054403
O O15 0.387191 0.268644 0.178430
O O16 0.500000 0.500000 0.964371
O O17 0.750000 0.688373 0.309449
#
# Coordination Sequence:
#
# PCOD8184447 Si02
#       7
#     8   8   8   8   8   8   8
#     4  10  22  42  69 101 141 191 237 294 356 427
#     4  11  22  43  71 102 141 192 237 295 363 442
#     4  11  21  40  71 102 143 190 239 298 370 431
#     4  11  23  41  68 105 147 190 245 302 362 432
#     4  11  23  42  73 111 143 184 244 308 363 431
#     4   9  19  36  69 102 132 181 237 283 353 427
#     4  11  23  43  72 105 143 186 238 293 364 437
#
# _framework density 23.654183
#
# number of rings (size 3 to 8) (size 9 to 14) (size 15 to 20)
#    0.000    1.429    2.857    3.857    0.000    0.000 
#    2.571    2.143    0.000   22.286    0.000    0.000 
#    0.000    0.000    0.000    0.000    0.000    0.000 
#
# Total GULP energy -346902.720097 kJ/mol
# GULP energy per Si atom -12389.382861 kJ/mol
# Density = 2.360035 g / cm^3
# Si number density = 23.654183 Si / 1000 Ang^3
#
#
#
# Elastic Constant Matrix: (Units=GPa)
#
#
# Indices 1 2 3 4 5 6 
#
# 1 128.2707 14.9157 41.1937 0.0000 0.0000 0.0000
# 2 14.9157 182.2883 50.2909 0.0000 0.0000 0.0000
# 3 41.1937 50.2909 89.6491 0.0000 0.0000 0.0000
# 4 0.0000 0.0000 0.0000 37.8573 0.0000 0.0000
# 5 0.0000 0.0000 0.0000 0.0000 12.8038 0.0000
# 6 0.0000 0.0000 0.0000 0.0000 0.0000 25.0274
#
#
#
# Elastic Compliance Matrix: (Units=1/GPa)
#
#
# Indices 1 2 3 4 5 6 
#
# 1 0.009182 0.000488 -0.004493 0.000000 0.000000 0.000000
# 2 0.000488 0.006516 -0.003880 0.000000 0.000000 0.000000
# 3 -0.004493 -0.003880 0.015396 0.000000 0.000000 0.000000
# 4 0.000000 0.000000 0.000000 0.026415 0.000000 0.000000
# 5 0.000000 0.000000 0.000000 0.000000 0.078102 0.000000
# 6 0.000000 0.000000 0.000000 0.000000 0.000000 0.039956
#
#
# Mechanical properties :
#
#
# Convention : Reuss Voigt Hill
#
# Bulk Modulus (GPa) = 65.25383 68.11209 66.68296
# Shear Modulus (GPa) = 25.45249 34.72490 30.08869
#
# Velocity S-wave (km/s) = 3.28384 3.83564 3.57041
# Velocity P-wave (km/s) = 6.48264 6.96230 6.72675
#
# Compressibility (1/GPa) = 0.01532477
#
# Stress axis : x y z
#
# Youngs Moduli (GPa) = 108.90657 153.46251 64.95342
#
# Poissons Ratio (x) = -0.07493 0.29184
# Poissons Ratio (y) = -0.05317 0.25201
# Poissons Ratio (z) = 0.48933 0.59540
#
# Static dielectric constant tensor:
#      x y z
#    x 4.088310 0.000000 0.000000 
#    y 0.000000 4.439160 0.000000 
#    z 0.000000 0.000000 4.483700 
# 
# 
# High freq. dielectric constant tensor:
#      x y z
#    x 1.931820 0.000000 0.000000 
#    y 0.000000 1.946660 0.000000 
#    z 0.000000 0.000000 1.916200 
# 
# From -- ./inp_files/17101.got.cif
#   From: 2010.03.12/outbox.cif.g09.slc.cpg/sg40_9_cif.got.tgz:17101.got - 2010.04.14 01:38:03.
