data_PCOD8184577
_publ_section_title
;
Structure prediction by ZEFSAII (Michael W. Deem and Ramdas Pophale) SiO2 
 PCOD8184577
Probable space group: A M A 2
;
_chemical_formula_sum "Si O2"
_cell_formula_units_Z 48
_cell_length_a 8.459318
_cell_length_b 13.630288
_cell_length_c 18.823661
_cell_angle_alpha 90.000000
_cell_angle_beta 90.000000
_cell_angle_gamma 90.000000
_cell_volume 2170.423467
_symmetry_space_group_name_H-M "A M A 2"
_symmetry_group_IT_number 40
_symmetry_cell_setting 'orthorhombic'
loop_
_space_group_symop_operation_xyz
x,y,z
-x,-y,z
1/2-x,y,z
1/2+x,-y,z
x,1/2+y,1/2+z
-x,1/2-y,1/2+z
1/2-x,1/2+y,1/2+z
1/2+x,1/2-y,1/2+z
loop_
_atom_site_type_symbol
_atom_site_label
_atom_site_fract_x
_atom_site_fract_y
_atom_site_fract_z
Si Si1 0.934611 0.308023 0.771360
Si Si2 0.069220 0.231300 0.523797
Si Si3 0.431894 0.601509 0.278506
Si Si4 0.931482 0.608065 0.628884
Si Si5 0.569461 0.092330 0.628558
Si Si6 0.565070 0.104990 0.405274
O O1 0.750000 0.327395 0.778480
O O2 0.972349 0.198668 0.800892
O O3 0.984987 0.325270 0.689605
O O4 0.026008 0.384427 0.821911
O O5 0.250000 0.197381 0.534960
O O6 0.051443 0.345062 0.548991
O O7 0.945790 0.183231 0.577575
O O8 0.015150 0.199063 0.445169
O O9 0.500000 0.500000 0.312852
O O10 0.250000 0.613265 0.301027
O O11 0.448440 0.597069 0.193955
O O12 0.750000 0.601994 0.651580
O O13 0.000000 0.500000 0.625971
O O14 0.750000 0.083128 0.655364
O O15 0.500000 0.000000 0.583926
O O16 0.750000 0.107946 0.419911
O O17 0.500000 0.000000 0.432354
#
# Coordination Sequence:
#
# PCOD8184577 Si02
#       6
#     8   8   8   8   8   8
#     4  12  24  42  67  96 133 173 220 270 327 389
#     4  11  23  41  63  91 127 166 212 266 323 385
#     4  11  21  36  58  90 127 165 210 261 319 376
#     4  11  24  42  67  96 130 169 217 271 326 388
#     4  11  20  32  54  85 121 161 202 252 310 369
#     4  12  26  45  68  96 132 172 218 268 329 395
#
# _framework density 22.115500000000001
#
# number of rings (size 3 to 8) (size 9 to 14) (size 15 to 20)
#    0.000    0.667    1.667    9.000    0.000    2.000 
#    0.000    0.833    0.000    2.000    0.000    0.000 
#    0.000    0.000    0.000    0.000    0.000    0.000 
#
# Total GULP energy -297410.581314 kJ/mol
# GULP energy per Si atom -12392.107555 kJ/mol
# Density = 2.206516 g / cm^3
# Si number density = 22.115500 Si / 1000 Ang^3
#
#
#
# Elastic Constant Matrix: (Units=GPa)
#
#
# Indices 1 2 3 4 5 6 
#
# 1 137.7733 42.2944 20.6469 0.0000 0.0000 0.0000
# 2 42.2944 122.6646 27.4315 0.0000 0.0000 0.0000
# 3 20.6469 27.4315 76.6736 0.0000 0.0000 0.0000
# 4 0.0000 0.0000 0.0000 26.7415 0.0000 0.0000
# 5 0.0000 0.0000 0.0000 0.0000 30.4769 0.0000
# 6 0.0000 0.0000 0.0000 0.0000 0.0000 32.0567
#
#
#
# Elastic Compliance Matrix: (Units=1/GPa)
#
#
# Indices 1 2 3 4 5 6 
#
# 1 0.008236 -0.002548 -0.001306 0.000000 0.000000 0.000000
# 2 -0.002548 0.009649 -0.002766 0.000000 0.000000 0.000000
# 3 -0.001306 -0.002766 0.014384 0.000000 0.000000 0.000000
# 4 0.000000 0.000000 0.000000 0.037395 0.000000 0.000000
# 5 0.000000 0.000000 0.000000 0.000000 0.032812 0.000000
# 6 0.000000 0.000000 0.000000 0.000000 0.000000 0.031195
#
#
# Mechanical properties :
#
#
# Convention : Reuss Voigt Hill
#
# Bulk Modulus (GPa) = 52.55204 57.53971 55.04588
# Shear Modulus (GPa) = 32.62554 34.30427 33.46491
#
# Velocity S-wave (km/s) = 3.84504 3.94273 3.89419
# Velocity P-wave (km/s) = 6.59747 6.84113 6.72041
#
# Compressibility (1/GPa) = 0.01902876
#
# Stress axis : x y z
#
# Youngs Moduli (GPa) = 121.41561 103.63402 69.52293
#
# Poissons Ratio (x) = 0.26402 0.09082
# Poissons Ratio (y) = 0.30933 0.19231
# Poissons Ratio (z) = 0.15862 0.28667
#
# Static dielectric constant tensor:
#      x y z
#    x 3.929080 0.000000 0.000000 
#    y 0.000000 4.399320 0.000000 
#    z 0.000000 0.000000 3.738790 
# 
# 
# High freq. dielectric constant tensor:
#      x y z
#    x 1.884020 0.000000 0.000000 
#    y 0.000000 1.879780 0.000000 
#    z 0.000000 0.000000 1.838200 
# 
# From -- ./inp_files/22005.got.cif
#   From: 2010.03.12/outbox.cif.g09.slc.cpg/sg40_12_cif.got.tgz:22005.got - 2010.04.14 01:38:03.
