data_PCOD8184270
_publ_section_title
;
Structure prediction by ZEFSAII (Michael W. Deem and Ramdas Pophale) SiO2 
 PCOD8184270
Probable space group: A M A 2
;
_chemical_formula_sum "Si O2"
_cell_formula_units_Z 64
_cell_length_a 17.411979
_cell_length_b 11.891246
_cell_length_c 15.176046
_cell_angle_alpha 90.000000
_cell_angle_beta 90.000000
_cell_angle_gamma 90.000000
_cell_volume 3142.202231
_symmetry_space_group_name_H-M "A M A 2"
_symmetry_group_IT_number 40
_symmetry_cell_setting 'orthorhombic'
loop_
_space_group_symop_operation_xyz
x,y,z
-x,-y,z
1/2-x,y,z
1/2+x,-y,z
x,1/2+y,1/2+z
-x,1/2-y,1/2+z
1/2-x,1/2+y,1/2+z
1/2+x,1/2-y,1/2+z
loop_
_atom_site_type_symbol
_atom_site_label
_atom_site_fract_x
_atom_site_fract_y
_atom_site_fract_z
Si Si1 0.410445 0.981419 0.343810
Si Si2 0.660259 0.474376 0.027360
Si Si3 0.911850 0.019038 0.022659
Si Si4 0.838408 0.240450 0.286470
Si Si5 0.835502 0.728418 0.585518
Si Si6 0.410623 0.521916 0.322147
Si Si7 0.659692 0.387701 0.681112
Si Si8 0.659083 0.635034 0.180564
O O1 0.387072 0.030050 0.437831
O O2 0.384557 0.850846 0.344064
O O3 0.500000 0.000000 0.329766
O O4 0.369481 0.048434 0.266507
O O5 0.750000 0.490583 0.005952
O O6 0.642607 0.358144 0.076513
O O7 0.628968 0.571038 0.093004
O O8 0.894640 0.151592 0.031767
O O9 0.861401 0.948377 0.090530
O O10 0.889582 0.982321 0.924821
O O11 0.000000 0.000000 0.045363
O O12 0.750000 0.254766 0.319855
O O13 0.838563 0.194142 0.187475
O O14 0.884308 0.356644 0.288912
O O15 0.750000 0.706728 0.548057
O O16 0.500000 0.500000 0.305878
O O17 0.365989 0.425609 0.270018
O O18 0.750000 0.382407 0.688264
O O19 0.625477 0.261226 0.679726
O O20 0.750000 0.633706 0.178686
#
# Coordination Sequence:
#
# PCOD8184270 Si02
#       8
#     8   8   8   8   8   8   8   8
#     4  12  27  42  65  99 136 171 214 266 328 388
#     4  10  22  44  67  95 127 166 219 269 316 384
#     4  11  25  42  62  94 132 170 211 266 325 392
#     4  11  23  44  70  95 128 178 228 266 314 392
#     4  10  21  40  68  92 121 168 222 267 313 379
#     4  11  26  42  65  97 134 169 213 271 331 394
#     4  11  24  43  66  94 130 171 215 267 325 386
#     4  10  23  43  66  94 129 168 216 270 326 387
#
# _framework density 20.36788
#
# number of rings (size 3 to 8) (size 9 to 14) (size 15 to 20)
#    0.000    1.250    2.500    2.250    5.250    3.500 
#    0.000    0.000    0.000    0.000    0.000    0.000 
#    0.000    0.000    0.000    0.000    0.000    0.000 
#
# Total GULP energy -396923.871213 kJ/mol
# GULP energy per Si atom -12403.870975 kJ/mol
# Density = 2.032152 g / cm^3
# Si number density = 20.367880 Si / 1000 Ang^3
#
#
#
# Elastic Constant Matrix: (Units=GPa)
#
#
# Indices 1 2 3 4 5 6 
#
# 1 80.7474 46.8677 29.0616 0.0000 0.0000 0.0000
# 2 46.8677 125.6935 30.3087 0.0000 0.0000 0.0000
# 3 29.0616 30.3087 96.1087 0.0000 0.0000 0.0000
# 4 0.0000 0.0000 0.0000 26.1286 0.0000 0.0000
# 5 0.0000 0.0000 0.0000 0.0000 14.1492 0.0000
# 6 0.0000 0.0000 0.0000 0.0000 0.0000 23.7281
#
#
#
# Elastic Compliance Matrix: (Units=1/GPa)
#
#
# Indices 1 2 3 4 5 6 
#
# 1 0.016745 -0.005436 -0.003349 0.000000 0.000000 0.000000
# 2 -0.005436 0.010375 -0.001628 0.000000 0.000000 0.000000
# 3 -0.003349 -0.001628 0.011931 0.000000 0.000000 0.000000
# 4 0.000000 0.000000 0.000000 0.038272 0.000000 0.000000
# 5 0.000000 0.000000 0.000000 0.000000 0.070675 0.000000
# 6 0.000000 0.000000 0.000000 0.000000 0.000000 0.042144
#
#
# Mechanical properties :
#
#
# Convention : Reuss Voigt Hill
#
# Bulk Modulus (GPa) = 54.87077 57.22509 56.04793
# Shear Modulus (GPa) = 23.03672 25.88863 24.46267
#
# Velocity S-wave (km/s) = 3.36673 3.56905 3.46936
# Velocity P-wave (km/s) = 6.48934 6.71870 6.60501
#
# Compressibility (1/GPa) = 0.01822464
#
# Stress axis : x y z
#
# Youngs Moduli (GPa) = 59.71963 96.38122 83.81500
#
# Poissons Ratio (x) = 0.52394 0.28070
# Poissons Ratio (y) = 0.32465 0.13647
# Poissons Ratio (z) = 0.20000 0.15693
#
# Static dielectric constant tensor:
#      x y z
#    x 4.030560 0.000000 0.000000 
#    y 0.000000 3.954310 0.000000 
#    z 0.000000 0.000000 3.735980 
# 
# 
# High freq. dielectric constant tensor:
#      x y z
#    x 1.792170 0.000000 0.000000 
#    y 0.000000 1.810890 0.000000 
#    z 0.000000 0.000000 1.802600 
# 
# From -- ./inp_files/17841.got.cif
#   From: 2010.03.12/outbox.cif.g09.slc.cpg/sg40_9_cif.got.tgz:17841.got - 2010.04.14 01:38:03.
