data_PCOD8184710
_publ_section_title
;
Structure prediction by ZEFSAII (Michael W. Deem and Ramdas Pophale) SiO2 
 PCOD8184710
Probable space group: A M A 2
;
_chemical_formula_sum "Si O2"
_cell_formula_units_Z 32
_cell_length_a 21.339146
_cell_length_b 4.745354
_cell_length_c 13.097585
_cell_angle_alpha 90.000000
_cell_angle_beta 90.000000
_cell_angle_gamma 90.000000
_cell_volume 1326.285057
_symmetry_space_group_name_H-M "A M A 2"
_symmetry_group_IT_number 40
_symmetry_cell_setting 'orthorhombic'
loop_
_space_group_symop_operation_xyz
x,y,z
-x,-y,z
1/2-x,y,z
1/2+x,-y,z
x,1/2+y,1/2+z
-x,1/2-y,1/2+z
1/2-x,1/2+y,1/2+z
1/2+x,1/2-y,1/2+z
loop_
_atom_site_type_symbol
_atom_site_label
_atom_site_fract_x
_atom_site_fract_y
_atom_site_fract_z
Si Si1 0.544077 0.248993 0.635800
Si Si2 0.631276 0.266653 0.818754
Si Si3 0.250000 0.064240 0.204636
Si Si4 0.250000 0.042952 0.560734
Si Si5 0.632787 0.234512 0.453531
O O1 0.500000 0.500000 0.671585
O O2 0.585990 0.147440 0.731180
O O3 0.588954 0.348509 0.543983
O O4 0.500000 0.000000 0.597442
O O5 0.688112 0.458145 0.773360
O O6 0.594998 0.504421 0.885477
O O7 0.654927 0.004651 0.887651
O O8 0.250000 0.385838 0.168169
O O9 0.250000 0.868841 0.101259
O O10 0.310247 0.955849 0.495759
#
# Coordination Sequence:
#
# PCOD8184710 Si02
#       5
#     8   8   4   4   8
#     4  12  28  47  72 101 142 190 244 296 352 424
#     4  12  26  46  74 105 144 186 239 296 365 429
#     4  12  24  44  76 105 147 186 232 295 370 430
#     4  12  24  44  76 105 147 186 232 295 370 430
#     4  12  26  46  74 105 144 186 239 296 365 429
#
# _framework density 24.127541999999998
#
# number of rings (size 3 to 8) (size 9 to 14) (size 15 to 20)
#    0.000    0.000    2.500    7.500    3.500    6.000 
#    0.000    0.000    0.000    0.000    0.000    0.000 
#    0.000    0.000    0.000    0.000    0.000    0.000 
#
# Total GULP energy -198362.239787 kJ/mol
# GULP energy per Si atom -12397.639987 kJ/mol
# Density = 2.407263 g / cm^3
# Si number density = 24.127542 Si / 1000 Ang^3
#
#
#
# Elastic Constant Matrix: (Units=GPa)
#
#
# Indices 1 2 3 4 5 6 
#
# 1 115.9969 29.3883 51.5954 0.0000 0.0000 0.0000
# 2 29.3883 122.7569 44.9788 0.0000 0.0000 0.0000
# 3 51.5954 44.9788 137.7279 0.0000 0.0000 0.0000
# 4 0.0000 0.0000 0.0000 60.9187 0.0000 0.0000
# 5 0.0000 0.0000 0.0000 0.0000 11.7210 0.0000
# 6 0.0000 0.0000 0.0000 0.0000 0.0000 32.4145
#
#
#
# Elastic Compliance Matrix: (Units=1/GPa)
#
#
# Indices 1 2 3 4 5 6 
#
# 1 0.010503 -0.001219 -0.003537 0.000000 0.000000 0.000000
# 2 -0.001219 0.009395 -0.002612 0.000000 0.000000 0.000000
# 3 -0.003537 -0.002612 0.009438 0.000000 0.000000 0.000000
# 4 0.000000 0.000000 0.000000 0.016415 0.000000 0.000000
# 5 0.000000 0.000000 0.000000 0.000000 0.085317 0.000000
# 6 0.000000 0.000000 0.000000 0.000000 0.000000 0.030850
#
#
# Mechanical properties :
#
#
# Convention : Reuss Voigt Hill
#
# Bulk Modulus (GPa) = 68.48153 69.82297 69.15225
# Shear Modulus (GPa) = 27.54520 37.71212 32.62866
#
# Velocity S-wave (km/s) = 3.38250 3.95781 3.68141
# Velocity P-wave (km/s) = 6.61058 7.06312 6.84059
#
# Compressibility (1/GPa) = 0.01460248
#
# Stress axis : x y z
#
# Youngs Moduli (GPa) = 95.21357 106.44153 105.94957
#
# Poissons Ratio (x) = 0.12971 0.37470
# Poissons Ratio (y) = 0.11602 0.27670
# Poissons Ratio (z) = 0.33673 0.27799
#
# Static dielectric constant tensor:
#      x y z
#    x 4.152240 0.000000 0.000000 
#    y 0.000000 4.004180 0.000000 
#    z 0.000000 0.000000 4.640130 
# 
# 
# High freq. dielectric constant tensor:
#      x y z
#    x 1.940550 0.000000 0.000000 
#    y 0.000000 1.967870 0.000000 
#    z 0.000000 0.000000 1.981180 
# 
# From -- ./inp_files/17379.got.cif
#   From: 2010.03.12/outbox.cif.g09.slc.cpg/sg40_9_cif.got.tgz:17379.got - 2010.04.14 01:38:03.
