data_PCOD8184998
_publ_section_title
;
Structure prediction by ZEFSAII (Michael W. Deem and Ramdas Pophale) SiO2 
 PCOD8184998
Probable space group: A B A 2
;
_chemical_formula_sum "Si O2"
_cell_formula_units_Z 56
_cell_length_a 16.936994
_cell_length_b 7.573343
_cell_length_c 21.605605
_cell_angle_alpha 90.000000
_cell_angle_beta 90.000000
_cell_angle_gamma 90.000000
_cell_volume 2771.343714
_symmetry_space_group_name_H-M "A B A 2"
_symmetry_group_IT_number 41
_symmetry_cell_setting 'orthorhombic'
loop_
_space_group_symop_operation_xyz
x,y,z
-x,-y,z
1/2-x,y,1/2+z
1/2+x,-y,1/2+z
x,1/2+y,1/2+z
-x,1/2-y,1/2+z
1/2-x,1/2+y,z
1/2+x,1/2-y,z
loop_
_atom_site_type_symbol
_atom_site_label
_atom_site_fract_x
_atom_site_fract_y
_atom_site_fract_z
Si Si1 0.065373 0.854160 0.798550
Si Si2 0.938761 0.650021 0.156933
Si Si3 0.175942 0.980849 0.557809
Si Si4 0.500000 0.000000 0.850461
Si Si5 0.154121 0.387345 0.535197
Si Si6 0.147097 0.425012 0.922698
Si Si7 0.187037 0.324220 0.399999
Si Si8 0.500000 0.500000 0.102780
O O1 0.090411 0.869858 0.727297
O O2 0.141257 0.900945 0.840661
O O3 0.038802 0.651365 0.808602
O O4 0.000000 0.000000 0.815211
O O5 0.862466 0.624378 0.114355
O O6 0.000000 0.500000 0.138238
O O7 0.982869 0.835433 0.147314
O O8 0.148132 0.181740 0.552490
O O9 0.149614 0.875768 0.495409
O O10 0.270061 0.973669 0.568576
O O11 0.438140 0.888452 0.892784
O O12 0.164240 0.432757 0.462061
O O13 0.074788 0.476894 0.558432
O O14 0.218564 0.324843 0.887449
O O15 0.160295 0.630024 0.914145
#
# Coordination Sequence:
#
# PCOD8184998 Si02
#       8
#     8   8   8   4   8   8   8   4
#     4  10  23  40  60  86 118 160 198 243 295 358
#     4  11  23  41  61  84 125 158 203 248 294 367
#     4  10  20  40  58  91 129 158 202 252 308 367
#     4  10  21  40  62  88 121 154 206 248 306 350
#     4  10  21  37  63  92 123 158 201 261 310 359
#     4   9  20  35  62  88 121 156 191 260 305 351
#     4   9  20  38  57  90 120 153 203 241 307 361
#     4  12  23  38  66  92 117 164 206 254 314 352
#
# _framework density 20.206804999999999
#
# number of rings (size 3 to 8) (size 9 to 14) (size 15 to 20)
#    0.000    2.000    1.429    1.286    4.000    2.286 
#    0.000    7.143    0.000    0.000    0.000    0.000 
#    0.000    0.000    0.000    0.000    0.000    0.000 
#
# Total GULP energy -347184.334071 kJ/mol
# GULP energy per Si atom -12399.440503 kJ/mol
# Density = 2.016081 g / cm^3
# Si number density = 20.206805 Si / 1000 Ang^3
#
#
#
# Elastic Constant Matrix: (Units=GPa)
#
#
# Indices 1 2 3 4 5 6 
#
# 1 132.8480 20.2615 71.4095 0.0000 0.0000 0.0000
# 2 20.2615 61.6140 22.3549 0.0000 0.0000 0.0000
# 3 71.4095 22.3549 112.7856 0.0000 0.0000 0.0000
# 4 0.0000 0.0000 0.0000 23.3000 0.0000 0.0000
# 5 0.0000 0.0000 0.0000 0.0000 36.1765 0.0000
# 6 0.0000 0.0000 0.0000 0.0000 0.0000 334.4441
#
#
#
# Elastic Compliance Matrix: (Units=1/GPa)
#
#
# Indices 1 2 3 4 5 6 
#
# 1 0.011496 -0.001228 -0.007036 0.000000 0.000000 0.000000
# 2 -0.001228 0.017619 -0.002715 0.000000 0.000000 0.000000
# 3 -0.007036 -0.002715 0.013859 0.000000 0.000000 0.000000
# 4 0.000000 0.000000 0.000000 0.042918 0.000000 0.000000
# 5 0.000000 0.000000 0.000000 0.000000 0.027642 0.000000
# 6 0.000000 0.000000 0.000000 0.000000 0.000000 0.002990
#
#
# Mechanical properties :
#
#
# Convention : Reuss Voigt Hill
#
# Bulk Modulus (GPa) = 47.57848 59.47772 53.52810
# Shear Modulus (GPa) = 34.36724 91.66558 63.01641
#
# Velocity S-wave (km/s) = 4.12852 6.74257 5.59048
# Velocity P-wave (km/s) = 6.80611 9.49287 8.25947
#
# Compressibility (1/GPa) = 0.02101791
#
# Stress axis : x y z
#
# Youngs Moduli (GPa) = 86.98317 56.75742 72.15544
#
# Poissons Ratio (x) = 0.06969 0.50765
# Poissons Ratio (y) = 0.10681 0.19588
# Poissons Ratio (z) = 0.61197 0.15408
#
# Static dielectric constant tensor:
#      x y z
#    x 3.358260 0.000000 0.000000 
#    y 0.000000 3.628500 0.000000 
#    z 0.000000 0.000000 3.674060 
# 
# 
# High freq. dielectric constant tensor:
#      x y z
#    x 1.790660 0.000000 0.000000 
#    y 0.000000 1.794880 0.000000 
#    z 0.000000 0.000000 1.774910 
# 
# From -- ./inp_files/11580.got.cif
#   From: 2010.03.12/outbox.cif.g09.slc.cpg/sg41_6_cif.got.tgz:11580.got - 2010.04.14 01:55:53.
