data_PCOD8184094
_publ_section_title
;
Structure prediction by ZEFSAII (Michael W. Deem and Ramdas Pophale) SiO2 
 PCOD8184094
Probable space group: A M A 2
;
_chemical_formula_sum "Si O2"
_cell_formula_units_Z 56
_cell_length_a 17.022008
_cell_length_b 13.803320
_cell_length_c 11.002756
_cell_angle_alpha 90.000000
_cell_angle_beta 90.000000
_cell_angle_gamma 90.000000
_cell_volume 2585.210009
_symmetry_space_group_name_H-M "A M A 2"
_symmetry_group_IT_number 40
_symmetry_cell_setting 'orthorhombic'
loop_
_space_group_symop_operation_xyz
x,y,z
-x,-y,z
1/2-x,y,z
1/2+x,-y,z
x,1/2+y,1/2+z
-x,1/2-y,1/2+z
1/2-x,1/2+y,1/2+z
1/2+x,1/2-y,1/2+z
loop_
_atom_site_type_symbol
_atom_site_label
_atom_site_fract_x
_atom_site_fract_y
_atom_site_fract_z
Si Si1 0.340747 0.105189 0.776520
Si Si2 0.160400 0.168717 0.209713
Si Si3 0.577864 0.455883 0.047498
Si Si4 0.924041 0.248492 0.931054
Si Si5 0.449150 0.594840 0.490817
Si Si6 0.663181 0.533136 0.834840
Si Si7 0.341808 0.804297 0.166999
O O1 0.250000 0.097447 0.810971
O O2 0.356220 0.049340 0.650933
O O3 0.389055 0.058904 0.887177
O O4 0.369015 0.214965 0.750677
O O5 0.250000 0.201990 0.169215
O O6 0.117919 0.248091 0.297900
O O7 0.172023 0.075381 0.291119
O O8 0.102039 0.143174 0.098861
O O9 0.500000 0.500000 0.107925
O O10 0.556829 0.355612 0.980321
O O11 0.608559 0.535730 0.952382
O O12 0.000418 0.180361 0.928385
O O13 0.867654 0.197651 0.028318
O O14 0.500000 0.500000 0.532150
O O15 0.750000 0.573838 0.867788
O O16 0.623205 0.599626 0.730965
O O17 0.250000 0.808962 0.160822
#
# Coordination Sequence:
#
# PCOD8184094 Si02
#       7
#     8   8   8   8   8   8   8
#     4  10  22  41  61  84 127 177 218 264 330 402
#     4  10  22  42  66  93 132 175 222 273 333 407
#     4  10  21  36  62  92 127 163 211 271 331 386
#     4  10  23  38  64  94 131 164 215 276 337 393
#     4  12  26  42  65  94 133 175 224 276 344 400
#     4   9  18  34  61  94 124 162 214 265 319 390
#     4   9  18  35  62  92 126 167 213 263 327 396
#
# _framework density 21.661684000000001
#
# number of rings (size 3 to 8) (size 9 to 14) (size 15 to 20)
#    0.000    2.000    0.000    2.571    6.000    6.857 
#    0.000    2.143    0.000    0.000    0.000    0.000 
#    0.000    0.000    0.000    0.000    0.000    0.000 
#
# Total GULP energy -347002.320284 kJ/mol
# GULP energy per Si atom -12392.940010 kJ/mol
# Density = 2.161238 g / cm^3
# Si number density = 21.661684 Si / 1000 Ang^3
#
#
#
# Elastic Constant Matrix: (Units=GPa)
#
#
# Indices 1 2 3 4 5 6 
#
# 1 102.4283 35.5672 65.3470 0.0000 0.0000 0.0000
# 2 35.5672 54.4181 41.5232 0.0000 0.0000 0.0000
# 3 65.3470 41.5232 128.9801 0.0000 0.0000 0.0000
# 4 0.0000 0.0000 0.0000 36.9545 0.0000 0.0000
# 5 0.0000 0.0000 0.0000 0.0000 40.0540 0.0000
# 6 0.0000 0.0000 0.0000 0.0000 0.0000 29.0852
#
#
#
# Elastic Compliance Matrix: (Units=1/GPa)
#
#
# Indices 1 2 3 4 5 6 
#
# 1 0.015582 -0.005515 -0.006119 0.000000 0.000000 0.000000
# 2 -0.005515 0.026312 -0.005677 0.000000 0.000000 0.000000
# 3 -0.006119 -0.005677 0.012681 0.000000 0.000000 0.000000
# 4 0.000000 0.000000 0.000000 0.027060 0.000000 0.000000
# 5 0.000000 0.000000 0.000000 0.000000 0.024966 0.000000
# 6 0.000000 0.000000 0.000000 0.000000 0.000000 0.034382
#
#
# Mechanical properties :
#
#
# Convention : Reuss Voigt Hill
#
# Bulk Modulus (GPa) = 50.11647 63.41125 56.76386
# Shear Modulus (GPa) = 27.43398 30.77801 29.10599
#
# Velocity S-wave (km/s) = 3.56262 3.77351 3.66958
# Velocity P-wave (km/s) = 6.33318 6.95146 6.64951
#
# Compressibility (1/GPa) = 0.01995352
#
# Stress axis : x y z
#
# Youngs Moduli (GPa) = 64.17785 38.00484 78.85984
#
# Poissons Ratio (x) = 0.20960 0.48253
# Poissons Ratio (y) = 0.35395 0.44766
# Poissons Ratio (z) = 0.39269 0.21574
#
# Static dielectric constant tensor:
#      x y z
#    x 4.051230 0.000000 0.000000 
#    y 0.000000 4.120830 0.000000 
#    z 0.000000 0.000000 3.917960 
# 
# 
# High freq. dielectric constant tensor:
#      x y z
#    x 1.857810 0.000000 0.000000 
#    y 0.000000 1.835030 0.000000 
#    z 0.000000 0.000000 1.849210 
# 
# From -- ./inp_files/12216.got.cif
#   From: 2010.03.12/outbox.cif.g09.slc.cpg/sg40_7_cif.got.tgz:12216.got - 2010.04.14 01:38:03.
