data_PCOD8184445
_publ_section_title
;
Structure prediction by ZEFSAII (Michael W. Deem and Ramdas Pophale) SiO2 
 PCOD8184445
Probable space group: A M A 2
;
_chemical_formula_sum "Si O2"
_cell_formula_units_Z 40
_cell_length_a 18.257146
_cell_length_b 11.288361
_cell_length_c 8.757510
_cell_angle_alpha 90.000000
_cell_angle_beta 90.000000
_cell_angle_gamma 90.000000
_cell_volume 1804.863741
_symmetry_space_group_name_H-M "A M A 2"
_symmetry_group_IT_number 40
_symmetry_cell_setting 'orthorhombic'
loop_
_space_group_symop_operation_xyz
x,y,z
-x,-y,z
1/2-x,y,z
1/2+x,-y,z
x,1/2+y,1/2+z
-x,1/2-y,1/2+z
1/2-x,1/2+y,1/2+z
1/2+x,1/2-y,1/2+z
loop_
_atom_site_type_symbol
_atom_site_label
_atom_site_fract_x
_atom_site_fract_y
_atom_site_fract_z
Si Si1 0.832395 0.322928 0.938150
Si Si2 0.076606 0.448460 0.935524
Si Si3 0.543451 0.878766 0.965270
Si Si4 0.062049 0.260979 0.677832
Si Si5 0.834645 0.247201 0.606676
O O1 0.750000 0.357898 0.976078
O O2 0.875252 0.439699 0.893130
O O3 0.838463 0.239514 0.789750
O O4 0.862104 0.256537 0.088301
O O5 0.063659 0.379517 0.777483
O O6 0.000000 0.500000 0.003015
O O7 0.122772 0.369684 0.052964
O O8 0.545496 0.852855 0.784434
O O9 0.500000 0.000000 0.997602
O O10 0.500617 0.770803 0.049088
O O11 0.625713 0.866022 0.035563
O O12 0.750000 0.248919 0.550992
#
# Coordination Sequence:
#
# PCOD8184445 Si02
#       5
#     8   8   8   8   8
#     4  11  24  42  64  93 130 171 213 263 325 386
#     4  11  23  42  69  95 125 169 216 267 324 384
#     4  11  23  41  65  92 125 165 211 259 314 376
#     4  11  24  39  63  96 126 163 215 268 314 377
#     4  10  22  42  68  98 133 170 213 267 325 387
#
# _framework density 22.162337999999998
#
# number of rings (size 3 to 8) (size 9 to 14) (size 15 to 20)
#    0.000    1.200    0.000    7.200    0.000    9.600 
#    0.000    2.000    0.000    3.600    0.000    0.000 
#    0.000    0.000    0.000    0.000    0.000    0.000 
#
# Total GULP energy -247944.341509 kJ/mol
# GULP energy per Si atom -12397.217075 kJ/mol
# Density = 2.211190 g / cm^3
# Si number density = 22.162338 Si / 1000 Ang^3
#
#
#
# Elastic Constant Matrix: (Units=GPa)
#
#
# Indices 1 2 3 4 5 6 
#
# 1 189.4970 62.7425 61.8068 0.0000 0.0000 0.0000
# 2 62.7425 91.2009 28.7517 0.0000 0.0000 0.0000
# 3 61.8068 28.7517 119.2432 0.0000 0.0000 0.0000
# 4 0.0000 0.0000 0.0000 15.3246 0.0000 0.0000
# 5 0.0000 0.0000 0.0000 0.0000 38.9138 0.0000
# 6 0.0000 0.0000 0.0000 0.0000 0.0000 39.2806
#
#
#
# Elastic Compliance Matrix: (Units=1/GPa)
#
#
# Indices 1 2 3 4 5 6 
#
# 1 0.007674 -0.004357 -0.002927 0.000000 0.000000 0.000000
# 2 -0.004357 0.014340 -0.001199 0.000000 0.000000 0.000000
# 3 -0.002927 -0.001199 0.010193 0.000000 0.000000 0.000000
# 4 0.000000 0.000000 0.000000 0.065254 0.000000 0.000000
# 5 0.000000 0.000000 0.000000 0.000000 0.025698 0.000000
# 6 0.000000 0.000000 0.000000 0.000000 0.000000 0.025458
#
#
# Mechanical properties :
#
#
# Convention : Reuss Voigt Hill
#
# Bulk Modulus (GPa) = 65.61593 78.50479 72.06036
# Shear Modulus (GPa) = 29.29718 35.14648 32.22183
#
# Velocity S-wave (km/s) = 3.63979 3.98661 3.81714
# Velocity P-wave (km/s) = 6.88007 7.52930 7.21199
#
# Compressibility (1/GPa) = 0.01524020
#
# Stress axis : x y z
#
# Youngs Moduli (GPa) = 130.30201 69.73373 98.10896
#
# Poissons Ratio (x) = 0.30382 0.28720
# Poissons Ratio (y) = 0.56771 0.11767
# Poissons Ratio (z) = 0.38144 0.08364
#
# Static dielectric constant tensor:
#      x y z
#    x 4.323760 0.000000 0.000000 
#    y 0.000000 3.863190 0.000000 
#    z 0.000000 0.000000 4.016970 
# 
# 
# High freq. dielectric constant tensor:
#      x y z
#    x 1.882400 0.000000 0.000000 
#    y 0.000000 1.862710 0.000000 
#    z 0.000000 0.000000 1.883790 
# 
# From -- ./inp_files/7147.got.cif
#   From: 2010.03.12/outbox.cif.g09.slc.cpg/sg40_4_cif.got.tgz:7147.got - 2010.04.14 01:38:03.
