data_PCOD8184865
_publ_section_title
;
Structure prediction by ZEFSAII (Michael W. Deem and Ramdas Pophale) SiO2 
 PCOD8184865
Probable space group: A B A 2
;
_chemical_formula_sum "Si O2"
_cell_formula_units_Z 64
_cell_length_a 17.042361
_cell_length_b 12.129585
_cell_length_c 14.841012
_cell_angle_alpha 90.000000
_cell_angle_beta 90.000000
_cell_angle_gamma 90.000000
_cell_volume 3067.886010
_symmetry_space_group_name_H-M "A B A 2"
_symmetry_group_IT_number 41
_symmetry_cell_setting 'orthorhombic'
loop_
_space_group_symop_operation_xyz
x,y,z
-x,-y,z
1/2-x,y,1/2+z
1/2+x,-y,1/2+z
x,1/2+y,1/2+z
-x,1/2-y,1/2+z
1/2-x,1/2+y,z
1/2+x,1/2-y,z
loop_
_atom_site_type_symbol
_atom_site_label
_atom_site_fract_x
_atom_site_fract_y
_atom_site_fract_z
Si Si1 0.495380 0.119290 0.600900
Si Si2 0.581399 0.780086 0.767252
Si Si3 0.417851 0.251173 0.314690
Si Si4 0.852379 0.343385 0.491797
Si Si5 0.805916 0.669010 0.141808
Si Si6 0.362169 0.246902 0.126395
Si Si7 0.305540 0.539246 0.528076
Si Si8 0.910150 0.004516 0.362370
O O1 0.460926 0.202386 0.672725
O O2 0.437344 0.105671 0.515786
O O3 0.580391 0.167656 0.574462
O O4 0.500000 0.000000 0.647821
O O5 0.512371 0.731720 0.832814
O O6 0.650687 0.694972 0.738275
O O7 0.615308 0.895397 0.806095
O O8 0.361512 0.199935 0.390150
O O9 0.397051 0.196529 0.218852
O O10 0.402055 0.383394 0.304383
O O11 0.835536 0.243215 0.559067
O O12 0.784658 0.436186 0.499225
O O13 0.715241 0.690620 0.157574
O O14 0.812842 0.541229 0.114071
O O15 0.347415 0.152481 0.053780
O O16 0.351661 0.484488 0.446008
O O17 0.000000 0.000000 0.397385
#
# Coordination Sequence:
#
# PCOD8184865 Si02
#       8
#     8   8   8   8   8   8   8   8
#     4  10  19  38  60  84 119 168 209 259 313 393
#     4   9  20  35  63  89 119 158 215 261 318 378
#     4  10  20  40  58  93 124 162 207 270 318 382
#     4  10  22  38  61  87 129 163 217 263 323 387
#     4  10  21  42  59  91 126 170 204 267 324 390
#     4  10  23  36  63  90 125 162 221 259 325 386
#     4  11  23  39  62  94 124 169 212 264 332 385
#     4  10  21  36  67  94 120 165 218 258 320 396
#
# _framework density 20.861270000000001
#
# number of rings (size 3 to 8) (size 9 to 14) (size 15 to 20)
#    0.000    2.000    1.250    2.625    5.250    3.000 
#    0.000    1.250    0.000    0.000    0.000    0.000 
#    0.000    0.000    0.000    0.000    0.000    0.000 
#
# Total GULP energy -396559.047608 kJ/mol
# GULP energy per Si atom -12392.470238 kJ/mol
# Density = 2.081379 g / cm^3
# Si number density = 20.861270 Si / 1000 Ang^3
#
#
#
# Elastic Constant Matrix: (Units=GPa)
#
#
# Indices 1 2 3 4 5 6 
#
# 1 132.4132 45.4512 32.2563 0.0000 0.0000 0.0000
# 2 45.4512 70.6904 10.0351 0.0000 0.0000 0.0000
# 3 32.2563 10.0351 60.5891 0.0000 0.0000 0.0000
# 4 0.0000 0.0000 0.0000 36.3004 0.0000 0.0000
# 5 0.0000 0.0000 0.0000 0.0000 33.9318 0.0000
# 6 0.0000 0.0000 0.0000 0.0000 0.0000 24.5139
#
#
#
# Elastic Compliance Matrix: (Units=1/GPa)
#
#
# Indices 1 2 3 4 5 6 
#
# 1 0.010877 -0.006320 -0.004744 0.000000 0.000000 0.000000
# 2 -0.006320 0.018159 0.000357 0.000000 0.000000 0.000000
# 3 -0.004744 0.000357 0.018971 0.000000 0.000000 0.000000
# 4 0.000000 0.000000 0.000000 0.027548 0.000000 0.000000
# 5 0.000000 0.000000 0.000000 0.000000 0.029471 0.000000
# 6 0.000000 0.000000 0.000000 0.000000 0.000000 0.040793
#
#
# Mechanical properties :
#
#
# Convention : Reuss Voigt Hill
#
# Bulk Modulus (GPa) = 37.60350 48.79755 43.20053
# Shear Modulus (GPa) = 28.39330 30.67923 29.53626
#
# Velocity S-wave (km/s) = 3.69325 3.83904 3.76685
# Velocity P-wave (km/s) = 6.02091 6.56454 6.29860
#
# Compressibility (1/GPa) = 0.02659327
#
# Stress axis : x y z
#
# Youngs Moduli (GPa) = 91.93557 55.06876 52.71178
#
# Poissons Ratio (x) = 0.34804 0.25006
# Poissons Ratio (y) = 0.58105 -0.01882
# Poissons Ratio (z) = 0.43614 -0.01966
#
# Static dielectric constant tensor:
#      x y z
#    x 4.208800 0.000000 0.000000 
#    y 0.000000 3.574380 0.000000 
#    z 0.000000 0.000000 3.541030 
# 
# 
# High freq. dielectric constant tensor:
#      x y z
#    x 1.828870 0.000000 0.000000 
#    y 0.000000 1.797630 0.000000 
#    z 0.000000 0.000000 1.798490 
# 
# From -- ./inp_files/8837.got.cif
#   From: 2010.03.12/outbox.cif.g09.slc.cpg/sg41_5_cif.got.tgz:8837.got - 2010.04.14 01:55:53.
