data_PCOD8184945
_publ_section_title
;
Structure prediction by ZEFSAII (Michael W. Deem and Ramdas Pophale) SiO2 
 PCOD8184945
Probable space group: A B A 2
;
_chemical_formula_sum "Si O2"
_cell_formula_units_Z 52
_cell_length_a 16.658737
_cell_length_b 9.400236
_cell_length_c 16.198342
_cell_angle_alpha 90.000000
_cell_angle_beta 90.000000
_cell_angle_gamma 90.000000
_cell_volume 2536.596524
_symmetry_space_group_name_H-M "A B A 2"
_symmetry_group_IT_number 41
_symmetry_cell_setting 'orthorhombic'
loop_
_space_group_symop_operation_xyz
x,y,z
-x,-y,z
1/2-x,y,1/2+z
1/2+x,-y,1/2+z
x,1/2+y,1/2+z
-x,1/2-y,1/2+z
1/2-x,1/2+y,z
1/2+x,1/2-y,z
loop_
_atom_site_type_symbol
_atom_site_label
_atom_site_fract_x
_atom_site_fract_y
_atom_site_fract_z
Si Si1 0.969598 0.776481 0.708380
Si Si2 0.664483 0.181007 0.596618
Si Si3 0.500000 0.500000 0.311642
Si Si4 0.803419 0.658908 0.410466
Si Si5 0.886620 0.052722 0.752749
Si Si6 0.826912 0.448680 0.855704
Si Si7 0.263994 0.573089 0.180112
O O1 0.921789 0.750376 0.622090
O O2 0.970846 0.629881 0.756385
O O3 0.059091 0.839435 0.697430
O O4 0.923963 0.894991 0.763555
O O5 0.668770 0.128407 0.502774
O O6 0.734486 0.291576 0.626117
O O7 0.670225 0.025989 0.637554
O O8 0.577252 0.463916 0.367759
O O9 0.872027 0.612016 0.345221
O O10 0.718252 0.592313 0.382454
O O11 0.793228 0.828576 0.415964
O O12 0.807076 0.037613 0.699419
O O13 0.805477 0.381491 0.765912
#
# Coordination Sequence:
#
# PCOD8184945 Si02
#       7
#     8   8   4   8   8   8   8
#     4  10  21  39  63  89 119 161 211 253 311 381
#     4  11  22  38  61  93 124 156 205 265 314 366
#     4  12  22  38  66  94 118 162 224 264 292 372
#     4  11  23  40  62  95 128 163 208 266 319 376
#     4   9  20  39  65  84 120 166 207 250 316 385
#     4  11  23  40  66  90 124 170 217 256 312 388
#     4  10  20  37  63  88 116 164 214 248 301 385
#
# _framework density 20.499908999999999
#
# number of rings (size 3 to 8) (size 9 to 14) (size 15 to 20)
#    0.000    1.538    3.077    2.769    4.308    0.000 
#    0.000    6.154    0.000    0.000    0.000    0.000 
#    0.000    0.000    0.000    0.000    0.000    0.000 
#
# Total GULP energy -322131.792716 kJ/mol
# GULP energy per Si atom -12389.684335 kJ/mol
# Density = 2.045325 g / cm^3
# Si number density = 20.499909 Si / 1000 Ang^3
#
#
#
# Elastic Constant Matrix: (Units=GPa)
#
#
# Indices 1 2 3 4 5 6 
#
# 1 103.6028 15.6595 25.4970 0.0000 0.0000 0.0000
# 2 15.6595 88.7367 10.7355 0.0000 0.0000 0.0000
# 3 25.4970 10.7355 81.8705 0.0000 0.0000 0.0000
# 4 0.0000 0.0000 0.0000 27.1992 0.0000 0.0000
# 5 0.0000 0.0000 0.0000 0.0000 13.0279 0.0000
# 6 0.0000 0.0000 0.0000 0.0000 0.0000 26.8444
#
#
#
# Elastic Compliance Matrix: (Units=1/GPa)
#
#
# Indices 1 2 3 4 5 6 
#
# 1 0.010647 -0.001502 -0.003119 0.000000 0.000000 0.000000
# 2 -0.001502 0.011663 -0.001062 0.000000 0.000000 0.000000
# 3 -0.003119 -0.001062 0.013325 0.000000 0.000000 0.000000
# 4 0.000000 0.000000 0.000000 0.036766 0.000000 0.000000
# 5 0.000000 0.000000 0.000000 0.000000 0.076758 0.000000
# 6 0.000000 0.000000 0.000000 0.000000 0.000000 0.037252
#
#
# Mechanical properties :
#
#
# Convention : Reuss Voigt Hill
#
# Bulk Modulus (GPa) = 41.20263 41.99936 41.60099
# Shear Modulus (GPa) = 24.28786 28.23551 26.26169
#
# Velocity S-wave (km/s) = 3.44580 3.71529 3.58308
# Velocity P-wave (km/s) = 5.99783 6.23992 6.12007
#
# Compressibility (1/GPa) = 0.02427029
#
# Stress axis : x y z
#
# Youngs Moduli (GPa) = 93.92528 85.74326 75.04733
#
# Poissons Ratio (x) = 0.12875 0.23406
# Poissons Ratio (y) = 0.14103 0.07968
# Poissons Ratio (z) = 0.29294 0.09103
#
# Static dielectric constant tensor:
#      x y z
#    x 3.922470 0.000000 0.000000 
#    y 0.000000 3.871160 0.000000 
#    z 0.000000 0.000000 3.401280 
# 
# 
# High freq. dielectric constant tensor:
#      x y z
#    x 1.801140 0.000000 0.000000 
#    y 0.000000 1.825630 0.000000 
#    z 0.000000 0.000000 1.764640 
# 
# From -- ./inp_files/10543.got.cif
#   From: 2010.03.12/outbox.cif.g09.slc.cpg/sg41_6_cif.got.tgz:10543.got - 2010.04.14 01:55:53.
