data_PCOD8184958
_publ_section_title
;
Structure prediction by ZEFSAII (Michael W. Deem and Ramdas Pophale) SiO2 
 PCOD8184958
Probable space group: A B A 2
;
_chemical_formula_sum "Si O2"
_cell_formula_units_Z 60
_cell_length_a 29.259507
_cell_length_b 8.867679
_cell_length_c 11.481146
_cell_angle_alpha 90.000000
_cell_angle_beta 90.000000
_cell_angle_gamma 90.000000
_cell_volume 2978.943099
_symmetry_space_group_name_H-M "A B A 2"
_symmetry_group_IT_number 41
_symmetry_cell_setting 'orthorhombic'
loop_
_space_group_symop_operation_xyz
x,y,z
-x,-y,z
1/2-x,y,1/2+z
1/2+x,-y,1/2+z
x,1/2+y,1/2+z
-x,1/2-y,1/2+z
1/2-x,1/2+y,z
1/2+x,1/2-y,z
loop_
_atom_site_type_symbol
_atom_site_label
_atom_site_fract_x
_atom_site_fract_y
_atom_site_fract_z
Si Si1 0.693332 0.445046 0.579020
Si Si2 0.247993 0.812879 0.963253
Si Si3 0.409289 0.534232 0.585048
Si Si4 0.532326 0.694876 0.435129
Si Si5 0.000000 0.000000 0.242537
Si Si6 0.909437 0.961282 0.852757
Si Si7 0.193631 0.066079 0.846651
Si Si8 0.047947 0.347296 0.550768
O O1 0.708718 0.294782 0.512424
O O2 0.728478 0.582838 0.561273
O O3 0.642371 0.493424 0.539707
O O4 0.692459 0.397938 0.711850
O O5 0.287924 0.715537 0.907169
O O6 0.224963 0.920440 0.867880
O O7 0.444061 0.445909 0.501349
O O8 0.415190 0.483366 0.719402
O O9 0.418048 0.712954 0.581985
O O10 0.497503 0.641603 0.331978
O O11 0.503624 0.786610 0.530696
O O12 0.571134 0.794408 0.373920
O O13 0.044091 0.967259 0.158595
O O14 0.857043 0.963835 0.894045
O O15 0.936599 0.077260 0.931926
#
# Coordination Sequence:
#
# PCOD8184958 Si02
#       8
#     8   8   8   8   4   8   8   8
#     4  10  21  38  60  88 115 152 188 237 285 346
#     4  10  20  38  62  84 120 148 190 230 290 346
#     4  11  24  39  61  87 119 151 197 241 291 342
#     4  12  24  40  60  85 117 157 197 241 291 345
#     4  12  24  40  60  84 116 156 198 242 292 340
#     4  11  24  39  61  87 119 151 197 241 291 342
#     4  10  21  38  60  88 115 152 188 237 285 346
#     4  12  24  40  60  85 117 157 197 241 291 345
#
# _framework density 20.141373000000002
#
# number of rings (size 3 to 8) (size 9 to 14) (size 15 to 20)
#    0.000    1.067    4.000    2.400    1.867    1.067 
#    0.000    0.000    2.933    0.000    0.000    0.000 
#    0.000    0.000    0.000    0.000    0.000    0.000 
#
# Total GULP energy -371937.452200 kJ/mol
# GULP energy per Si atom -12397.915073 kJ/mol
# Density = 2.009553 g / cm^3
# Si number density = 20.141373 Si / 1000 Ang^3
#
#
#
# Elastic Constant Matrix: (Units=GPa)
#
#
# Indices 1 2 3 4 5 6 
#
# 1 93.8855 38.3751 41.5675 0.0000 0.0000 0.0000
# 2 38.3751 96.3707 32.3658 0.0000 0.0000 0.0000
# 3 41.5675 32.3658 81.8422 0.0000 0.0000 0.0000
# 4 0.0000 0.0000 0.0000 29.1142 0.0000 0.0000
# 5 0.0000 0.0000 0.0000 0.0000 33.2324 0.0000
# 6 0.0000 0.0000 0.0000 0.0000 0.0000 29.1821
#
#
#
# Elastic Compliance Matrix: (Units=1/GPa)
#
#
# Indices 1 2 3 4 5 6 
#
# 1 0.014922 -0.003917 -0.006030 0.000000 0.000000 0.000000
# 2 -0.003917 0.012994 -0.003149 0.000000 0.000000 0.000000
# 3 -0.006030 -0.003149 0.016527 0.000000 0.000000 0.000000
# 4 0.000000 0.000000 0.000000 0.034347 0.000000 0.000000
# 5 0.000000 0.000000 0.000000 0.000000 0.030091 0.000000
# 6 0.000000 0.000000 0.000000 0.000000 0.000000 0.034268
#
#
# Mechanical properties :
#
#
# Convention : Reuss Voigt Hill
#
# Bulk Modulus (GPa) = 54.79292 55.19057 54.99174
# Shear Modulus (GPa) = 28.50232 28.95841 28.73037
#
# Velocity S-wave (km/s) = 3.76588 3.79589 3.78092
# Velocity P-wave (km/s) = 6.79502 6.83175 6.81341
#
# Compressibility (1/GPa) = 0.01825053
#
# Stress axis : x y z
#
# Youngs Moduli (GPa) = 67.01532 76.95869 60.50839
#
# Poissons Ratio (x) = 0.30144 0.36486
# Poissons Ratio (y) = 0.26249 0.19056
# Poissons Ratio (z) = 0.40409 0.24237
#
# Static dielectric constant tensor:
#      x y z
#    x 3.837570 0.000000 0.000000 
#    y 0.000000 3.635490 0.000000 
#    z 0.000000 0.000000 3.632690 
# 
# 
# High freq. dielectric constant tensor:
#      x y z
#    x 1.784820 0.000000 0.000000 
#    y 0.000000 1.792920 0.000000 
#    z 0.000000 0.000000 1.791410 
# 
# From -- ./inp_files/6578.got.cif
#   From: 2010.03.12/outbox.cif.g09.slc.cpg/sg41_4_cif.got.tgz:6578.got - 2010.04.14 01:55:53.
