data_PCOD8184815
_publ_section_title
;
Structure prediction by ZEFSAII (Michael W. Deem and Ramdas Pophale) SiO2 
 PCOD8184815
Probable space group: A B A 2
;
_chemical_formula_sum "Si O2"
_cell_formula_units_Z 64
_cell_length_a 20.788945
_cell_length_b 12.897258
_cell_length_c 12.800024
_cell_angle_alpha 90.000000
_cell_angle_beta 90.000000
_cell_angle_gamma 90.000000
_cell_volume 3431.947391
_symmetry_space_group_name_H-M "A B A 2"
_symmetry_group_IT_number 41
_symmetry_cell_setting 'orthorhombic'
loop_
_space_group_symop_operation_xyz
x,y,z
-x,-y,z
1/2-x,y,1/2+z
1/2+x,-y,1/2+z
x,1/2+y,1/2+z
-x,1/2-y,1/2+z
1/2-x,1/2+y,z
1/2+x,1/2-y,z
loop_
_atom_site_type_symbol
_atom_site_label
_atom_site_fract_x
_atom_site_fract_y
_atom_site_fract_z
Si Si1 0.060890 0.256133 0.751290
Si Si2 0.433732 0.481961 0.329201
Si Si3 0.059388 0.651848 0.652806
Si Si4 0.184886 0.320376 0.654884
Si Si5 0.556749 0.422978 0.920299
Si Si6 0.186368 0.988156 0.986675
Si Si7 0.796486 0.340772 0.657840
Si Si8 0.203752 0.996119 0.325940
O O1 0.071583 0.360449 0.814742
O O2 0.122891 0.246334 0.674553
O O3 0.059053 0.162150 0.830556
O O4 0.993318 0.264006 0.689250
O O5 0.500000 0.500000 0.395972
O O6 0.442177 0.544496 0.219019
O O7 0.366434 0.518029 0.381200
O O8 0.043804 0.626540 0.533124
O O9 0.130334 0.702070 0.665736
O O10 0.170936 0.384038 0.549856
O O11 0.248917 0.253745 0.638997
O O12 0.195922 0.399928 0.748604
O O13 0.500000 0.500000 0.889996
O O14 0.623986 0.484169 0.919039
O O15 0.245240 0.964455 0.911192
O O16 0.207331 0.082301 0.060133
O O17 0.775467 0.400810 0.763318
#
# Coordination Sequence:
#
# PCOD8184815 Si02
#       8
#     8   8   8   8   8   8   8   8
#     4  10  19  33  56  81 105 136 176 220 264 315
#     4   8  15  32  56  77 103 138 175 216 261 312
#     4   9  18  36  57  77 106 139 178 220 264 321
#     4  10  20  35  55  78 107 143 180 220 266 316
#     4  11  21  34  55  80 106 138 179 219 263 318
#     4  10  21  36  55  78 108 145 181 219 266 320
#     4   9  19  34  52  77 106 140 178 223 269 313
#     4   9  18  32  52  78 106 135 178 227 265 309
#
# _framework density 18.648305000000001
#
# number of rings (size 3 to 8) (size 9 to 14) (size 15 to 20)
#    0.000    2.500    0.000    4.875    0.000    6.000 
#    0.000    6.250    0.000    2.250    0.000    0.000 
#    0.000    0.000    0.000    0.000    0.000    0.000 
#
# Total GULP energy -396581.997592 kJ/mol
# GULP energy per Si atom -12393.187425 kJ/mol
# Density = 1.860586 g / cm^3
# Si number density = 18.648305 Si / 1000 Ang^3
#
#
#
# Elastic Constant Matrix: (Units=GPa)
#
#
# Indices 1 2 3 4 5 6 
#
# 1 160.9602 67.6339 60.6395 0.0000 0.0000 0.0000
# 2 67.6339 93.5597 40.8075 0.0000 0.0000 0.0000
# 3 60.6395 40.8075 81.8090 0.0000 0.0000 0.0000
# 4 0.0000 0.0000 0.0000 15.9625 0.0000 0.0000
# 5 0.0000 0.0000 0.0000 0.0000 28.7924 0.0000
# 6 0.0000 0.0000 0.0000 0.0000 0.0000 35.2587
#
#
#
# Elastic Compliance Matrix: (Units=1/GPa)
#
#
# Indices 1 2 3 4 5 6 
#
# 1 0.010318 -0.005269 -0.005020 0.000000 0.000000 0.000000
# 2 -0.005269 0.016352 -0.004251 0.000000 0.000000 0.000000
# 3 -0.005020 -0.004251 0.018064 0.000000 0.000000 0.000000
# 4 0.000000 0.000000 0.000000 0.062647 0.000000 0.000000
# 5 0.000000 0.000000 0.000000 0.000000 0.034731 0.000000
# 6 0.000000 0.000000 0.000000 0.000000 0.000000 0.028362
#
#
# Mechanical properties :
#
#
# Convention : Reuss Voigt Hill
#
# Bulk Modulus (GPa) = 63.87738 74.94340 69.41039
# Shear Modulus (GPa) = 24.41750 27.15258 25.78504
#
# Velocity S-wave (km/s) = 3.62244 3.81994 3.72250
# Velocity P-wave (km/s) = 7.19890 7.72858 7.46844
#
# Compressibility (1/GPa) = 0.01565499
#
# Stress axis : x y z
#
# Youngs Moduli (GPa) = 96.91882 61.15632 55.35740
#
# Poissons Ratio (x) = 0.32226 0.27787
# Poissons Ratio (y) = 0.51071 0.23530
# Poissons Ratio (z) = 0.48648 0.25995
#
# Static dielectric constant tensor:
#      x y z
#    x 4.047460 0.000000 0.000000 
#    y 0.000000 3.187380 0.000000 
#    z 0.000000 0.000000 3.132990 
# 
# 
# High freq. dielectric constant tensor:
#      x y z
#    x 1.753190 0.000000 0.000000 
#    y 0.000000 1.705470 0.000000 
#    z 0.000000 0.000000 1.690790 
# 
# From -- ./inp_files/6456.got.cif
#   From: 2010.03.12/outbox.cif.g09.slc.cpg/sg41_4_cif.got.tgz:6456.got - 2010.04.14 01:55:53.
