data_PCOD8184302
_publ_section_title
;
Structure prediction by ZEFSAII (Michael W. Deem and Ramdas Pophale) SiO2 
 PCOD8184302
Probable space group: A M A 2
;
_chemical_formula_sum "Si O2"
_cell_formula_units_Z 64
_cell_length_a 17.237529
_cell_length_b 12.786228
_cell_length_c 14.836434
_cell_angle_alpha 90.000000
_cell_angle_beta 90.000000
_cell_angle_gamma 90.000000
_cell_volume 3269.994206
_symmetry_space_group_name_H-M "A M A 2"
_symmetry_group_IT_number 40
_symmetry_cell_setting 'orthorhombic'
loop_
_space_group_symop_operation_xyz
x,y,z
-x,-y,z
1/2-x,y,z
1/2+x,-y,z
x,1/2+y,1/2+z
-x,1/2-y,1/2+z
1/2-x,1/2+y,1/2+z
1/2+x,1/2-y,1/2+z
loop_
_atom_site_type_symbol
_atom_site_label
_atom_site_fract_x
_atom_site_fract_y
_atom_site_fract_z
Si Si1 0.837547 0.884435 0.714270
Si Si2 0.018550 0.878763 0.022910
Si Si3 0.841835 0.111973 0.415859
Si Si4 0.936933 0.784000 0.194402
Si Si5 0.339529 0.400671 0.122486
Si Si6 0.161591 0.838970 0.125020
Si Si7 0.592647 0.495223 0.761945
Si Si8 0.053632 0.206683 0.843707
O O1 0.750000 0.892427 0.751992
O O2 0.848344 0.780421 0.655347
O O3 0.898689 0.886874 0.796281
O O4 0.858376 0.982395 0.652600
O O5 0.110633 0.860151 0.035664
O O6 0.975086 0.811199 0.098663
O O7 0.000000 0.000000 0.036848
O O8 0.996999 0.840598 0.923758
O O9 0.750000 0.117992 0.400135
O O10 0.865309 0.103360 0.519339
O O11 0.880360 0.216181 0.378540
O O12 0.877500 0.011160 0.364184
O O13 0.886569 0.680138 0.183738
O O14 0.882282 0.880484 0.226404
O O15 0.000543 0.766719 0.271916
O O16 0.250000 0.371310 0.133494
O O17 0.250000 0.865025 0.100383
O O18 0.132593 0.914151 0.204263
O O19 0.500000 0.500000 0.753620
#
# Coordination Sequence:
#
# PCOD8184302 Si02
#       8
#     8   8   8   8   8   8   8   8
#     4  10  21  42  66  91 127 171 218 266 321 392
#     4  12  24  44  64 100 136 166 220 272 322 394
#     4  11  22  41  67  98 127 168 225 271 321 394
#     4  12  23  43  64  94 137 171 211 271 332 386
#     4  10  25  44  62  92 132 172 219 271 327 389
#     4  11  21  40  69  95 126 173 219 266 326 390
#     4  12  20  38  65  98 133 164 215 274 325 386
#     4  12  24  40  68  98 126 175 218 269 324 392
#
# _framework density 19.571899999999999
#
# number of rings (size 3 to 8) (size 9 to 14) (size 15 to 20)
#    0.000    0.750    7.500    0.750    1.750    2.000 
#    2.250    1.875    0.000    0.000    0.000    0.000 
#    0.000    0.000    0.000    0.000    0.000    0.000 
#
# Total GULP energy -396844.026321 kJ/mol
# GULP energy per Si atom -12401.375823 kJ/mol
# Density = 1.952735 g / cm^3
# Si number density = 19.571900 Si / 1000 Ang^3
#
#
#
# Elastic Constant Matrix: (Units=GPa)
#
#
# Indices 1 2 3 4 5 6 
#
# 1 101.6382 52.3598 49.7420 0.0000 0.0000 0.0000
# 2 52.3598 126.4898 41.9451 0.0000 0.0000 0.0000
# 3 49.7420 41.9451 104.3656 0.0000 0.0000 0.0000
# 4 0.0000 0.0000 0.0000 32.9416 0.0000 0.0000
# 5 0.0000 0.0000 0.0000 0.0000 38.0437 0.0000
# 6 0.0000 0.0000 0.0000 0.0000 0.0000 22.5913
#
#
#
# Elastic Compliance Matrix: (Units=1/GPa)
#
#
# Indices 1 2 3 4 5 6 
#
# 1 0.014625 -0.004318 -0.005235 0.000000 0.000000 0.000000
# 2 -0.004318 0.010396 -0.002120 0.000000 0.000000 0.000000
# 3 -0.005235 -0.002120 0.012929 0.000000 0.000000 0.000000
# 4 0.000000 0.000000 0.000000 0.030357 0.000000 0.000000
# 5 0.000000 0.000000 0.000000 0.000000 0.026286 0.000000
# 6 0.000000 0.000000 0.000000 0.000000 0.000000 0.044265
#
#
# Mechanical properties :
#
#
# Convention : Reuss Voigt Hill
#
# Bulk Modulus (GPa) = 68.47612 68.95415 68.71513
# Shear Modulus (GPa) = 29.92702 31.27842 30.60272
#
# Velocity S-wave (km/s) = 3.91459 4.00200 3.95853
# Velocity P-wave (km/s) = 7.44949 7.52744 7.48857
#
# Compressibility (1/GPa) = 0.01460363
#
# Stress axis : x y z
#
# Youngs Moduli (GPa) = 68.37396 96.18778 77.34537
#
# Poissons Ratio (x) = 0.41535 0.40492
# Poissons Ratio (y) = 0.29525 0.16399
# Poissons Ratio (z) = 0.35795 0.20395
#
# Static dielectric constant tensor:
#      x y z
#    x 3.742050 0.000000 0.000000 
#    y 0.000000 3.724540 0.000000 
#    z 0.000000 0.000000 3.729570 
# 
# 
# High freq. dielectric constant tensor:
#      x y z
#    x 1.765810 0.000000 0.000000 
#    y 0.000000 1.769300 0.000000 
#    z 0.000000 0.000000 1.759770 
# 
# From -- ./inp_files/17901.got.cif
#   From: 2010.03.12/outbox.cif.g09.slc.cpg/sg40_9_cif.got.tgz:17901.got - 2010.04.14 01:38:03.
