data_PCOD8184588
_publ_section_title
;
Structure prediction by ZEFSAII (Michael W. Deem and Ramdas Pophale) SiO2 
 PCOD8184588
Probable space group: A M A 2
;
_chemical_formula_sum "Si O2"
_cell_formula_units_Z 64
_cell_length_a 16.815714
_cell_length_b 11.733322
_cell_length_c 15.431197
_cell_angle_alpha 90.000000
_cell_angle_beta 90.000000
_cell_angle_gamma 90.000000
_cell_volume 3044.639779
_symmetry_space_group_name_H-M "A M A 2"
_symmetry_group_IT_number 40
_symmetry_cell_setting 'orthorhombic'
loop_
_space_group_symop_operation_xyz
x,y,z
-x,-y,z
1/2-x,y,z
1/2+x,-y,z
x,1/2+y,1/2+z
-x,1/2-y,1/2+z
1/2-x,1/2+y,1/2+z
1/2+x,1/2-y,1/2+z
loop_
_atom_site_type_symbol
_atom_site_label
_atom_site_fract_x
_atom_site_fract_y
_atom_site_fract_z
Si Si1 0.593244 0.016822 0.356820
Si Si2 0.917418 0.673681 0.697428
Si Si3 0.589696 0.044496 0.859589
Si Si4 0.660325 0.271205 0.817110
Si Si5 0.915229 0.558574 0.048690
Si Si6 0.159199 0.582676 0.198528
Si Si7 0.094329 0.991991 0.049712
Si Si8 0.908077 0.789364 0.143316
O O1 0.638301 0.898719 0.343084
O O2 0.500000 0.000000 0.354772
O O3 0.615987 0.107598 0.282028
O O4 0.620212 0.062128 0.451427
O O5 0.893843 0.804820 0.700537
O O6 0.881517 0.615113 0.610407
O O7 0.013223 0.667396 0.694600
O O8 0.596015 0.182211 0.856129
O O9 0.500000 0.000000 0.847927
O O10 0.642419 0.991607 0.783683
O O11 0.628044 0.015131 0.952563
O O12 0.750000 0.243792 0.848534
O O13 0.657597 0.254858 0.713430
O O14 0.857123 0.490720 0.112626
O O15 0.927943 0.687524 0.078741
O O16 0.000000 0.500000 0.050426
O O17 0.250000 0.620944 0.198166
O O18 0.129508 0.107061 0.089653
O O19 0.000000 0.000000 0.042801
#
# Coordination Sequence:
#
# PCOD8184588 Si02
#       8
#     8   8   8   8   8   8   8   8
#     4  11  24  41  71 100 130 172 225 278 330 401
#     4  11  21  43  68  96 128 169 221 275 334 392
#     4  11  24  42  70  97 127 173 224 277 328 403
#     4  12  25  43  67  96 135 180 223 275 339 401
#     4  11  24  40  67 100 128 172 226 269 328 401
#     4  12  26  42  60  91 135 174 211 271 338 399
#     4   9  21  38  68  99 121 158 218 274 325 381
#     4  11  20  42  69  93 128 171 217 276 321 397
#
# _framework density 21.02055
#
# number of rings (size 3 to 8) (size 9 to 14) (size 15 to 20)
#    0.000    1.000    5.000    1.875    3.500    3.000 
#    0.000    1.875    0.000    0.000    0.000    0.000 
#    0.000    0.000    0.000    0.000    0.000    0.000 
#
# Total GULP energy -396808.838507 kJ/mol
# GULP energy per Si atom -12400.276203 kJ/mol
# Density = 2.097271 g / cm^3
# Si number density = 21.020550 Si / 1000 Ang^3
#
#
#
# Elastic Constant Matrix: (Units=GPa)
#
#
# Indices 1 2 3 4 5 6 
#
# 1 60.6138 11.8608 17.8708 0.0000 0.0000 0.0000
# 2 11.8608 126.5968 48.6182 0.0000 0.0000 0.0000
# 3 17.8708 48.6182 170.8051 0.0000 0.0000 0.0000
# 4 0.0000 0.0000 0.0000 30.7911 0.0000 0.0000
# 5 0.0000 0.0000 0.0000 0.0000 -2.8597 0.0000
# 6 0.0000 0.0000 0.0000 0.0000 0.0000 14.2828
#
#
#
# Elastic Compliance Matrix: (Units=1/GPa)
#
#
# Indices 1 2 3 4 5 6 
#
# 1 0.017142 -0.001030 -0.001500 0.000000 0.000000 0.000000
# 2 -0.001030 0.008930 -0.002434 0.000000 0.000000 0.000000
# 3 -0.001500 -0.002434 0.006704 0.000000 0.000000 0.000000
# 4 0.000000 0.000000 0.000000 0.032477 0.000000 0.000000
# 5 0.000000 0.000000 0.000000 0.000000 -0.349685 0.000000
# 6 0.000000 0.000000 0.000000 0.000000 0.000000 0.070014
#
#
# Mechanical properties :
#
#
# Convention : Reuss Voigt Hill
#
# Bulk Modulus (GPa) = 43.76773 57.19059 50.47916
# Shear Modulus (GPa) = -25.39717 27.08722 0.84502
#
# Velocity S-wave (km/s) = -3.47970 3.59361 0.63472
# Velocity P-wave (km/s) = 2.17306 6.66969 4.96019
#
# Compressibility (1/GPa) = 0.02284788
#
# Stress axis : x y z
#
# Youngs Moduli (GPa) = 58.33706 111.97685 149.15389
#
# Poissons Ratio (x) = 0.11531 0.22378
# Poissons Ratio (y) = 0.06008 0.36307
# Poissons Ratio (z) = 0.08753 0.27258
#
# Static dielectric constant tensor:
#      x y z
#    x 3.387510 0.000000 0.000000 
#    y 0.000000 3.903950 0.000000 
#    z 0.000000 0.000000 4.301020 
# 
# 
# High freq. dielectric constant tensor:
#      x y z
#    x 1.787070 0.000000 0.000000 
#    y 0.000000 1.837820 0.000000 
#    z 0.000000 0.000000 1.839160 
# 
# From -- ./inp_files/17898.got.cif
#   From: 2010.03.12/outbox.cif.g09.slc.cpg/sg40_9_cif.got.tgz:17898.got - 2010.04.14 01:38:03.
