data_PCOD8184018
_publ_section_title
;
Structure prediction by ZEFSAII (Michael W. Deem and Ramdas Pophale) SiO2 
 PCOD8184018
Probable space group: A M A 2
;
_chemical_formula_sum "Si O2"
_cell_formula_units_Z 64
_cell_length_a 26.055203
_cell_length_b 12.278955
_cell_length_c 8.601606
_cell_angle_alpha 90.000000
_cell_angle_beta 90.000000
_cell_angle_gamma 90.000000
_cell_volume 2751.917529
_symmetry_space_group_name_H-M "A M A 2"
_symmetry_group_IT_number 40
_symmetry_cell_setting 'orthorhombic'
loop_
_space_group_symop_operation_xyz
x,y,z
-x,-y,z
1/2-x,y,z
1/2+x,-y,z
x,1/2+y,1/2+z
-x,1/2-y,1/2+z
1/2-x,1/2+y,1/2+z
1/2+x,1/2-y,1/2+z
loop_
_atom_site_type_symbol
_atom_site_label
_atom_site_fract_x
_atom_site_fract_y
_atom_site_fract_z
Si Si1 0.033909 0.196132 0.196800
Si Si2 0.615497 0.181821 0.527997
Si Si3 0.641316 0.025701 0.010028
Si Si4 0.305430 0.086873 0.553106
Si Si5 0.108738 0.025267 0.342116
Si Si6 0.031118 0.892843 0.934471
Si Si7 0.805969 0.131185 0.757091
Si Si8 0.309453 0.183973 0.866332
O O1 0.059981 0.097832 0.293642
O O2 0.020911 0.297442 0.308204
O O3 0.983593 0.148211 0.109706
O O4 0.068897 0.234141 0.049989
O O5 0.644973 0.196399 0.694367
O O6 0.660657 0.205240 0.404127
O O7 0.592233 0.065842 0.470442
O O8 0.635724 0.031484 0.194628
O O9 0.589385 0.068178 0.929851
O O10 0.656102 0.904589 0.956810
O O11 0.686070 0.103330 0.939746
O O12 0.250000 0.098453 0.470243
O O13 0.348589 0.101706 0.422764
O O14 0.312824 0.180340 0.680659
O O15 0.307533 0.975922 0.650023
O O16 0.000000 0.000000 0.884961
O O17 0.750000 0.188573 0.740658
O O18 0.250000 0.182311 0.923005
#
# Coordination Sequence:
#
# PCOD8184018 Si02
#       8
#     8   8   8   8   8   8   8   8
#     4  12  28  49  71 106 139 186 241 307 370 433
#     4  11  22  43  69  99 141 189 234 298 364 428
#     4  11  21  42  68 100 142 181 236 302 359 428
#     4   8  18  36  61  97 138 180 230 280 338 423
#     4  11  24  42  70 101 142 181 238 298 351 426
#     4  12  27  50  75 102 141 183 251 306 375 439
#     4   9  18  37  65  98 137 184 232 281 352 438
#     4  10  20  40  69 104 146 195 239 287 358 438
#
# _framework density 23.256512000000001
#
# number of rings (size 3 to 8) (size 9 to 14) (size 15 to 20)
#    0.000    1.500    3.750    1.500    1.750    3.500 
#    0.000    0.000    0.000    0.000    0.000    0.000 
#    0.000    0.000    0.000    0.000    0.000    0.000 
#
# Total GULP energy -396448.305344 kJ/mol
# GULP energy per Si atom -12389.009542 kJ/mol
# Density = 2.320358 g / cm^3
# Si number density = 23.256512 Si / 1000 Ang^3
#
#
#
# Elastic Constant Matrix: (Units=GPa)
#
#
# Indices 1 2 3 4 5 6 
#
# 1 98.9566 33.0553 25.9376 0.0000 0.0000 0.0000
# 2 33.0553 78.9961 18.8295 0.0000 0.0000 0.0000
# 3 25.9376 18.8295 64.3002 0.0000 0.0000 0.0000
# 4 0.0000 0.0000 0.0000 40.8851 0.0000 0.0000
# 5 0.0000 0.0000 0.0000 0.0000 35.6733 0.0000
# 6 0.0000 0.0000 0.0000 0.0000 0.0000 29.0523
#
#
#
# Elastic Compliance Matrix: (Units=1/GPa)
#
#
# Indices 1 2 3 4 5 6 
#
# 1 0.012551 -0.004349 -0.003790 0.000000 0.000000 0.000000
# 2 -0.004349 0.015115 -0.002672 0.000000 0.000000 0.000000
# 3 -0.003790 -0.002672 0.017863 0.000000 0.000000 0.000000
# 4 0.000000 0.000000 0.000000 0.024459 0.000000 0.000000
# 5 0.000000 0.000000 0.000000 0.000000 0.028032 0.000000
# 6 0.000000 0.000000 0.000000 0.000000 0.000000 0.034421
#
#
# Mechanical properties :
#
#
# Convention : Reuss Voigt Hill
#
# Bulk Modulus (GPa) = 41.82498 44.21084 43.01791
# Shear Modulus (GPa) = 30.85804 32.08416 31.47110
#
# Velocity S-wave (km/s) = 3.64656 3.71830 3.68260
# Velocity P-wave (km/s) = 5.97939 6.12255 6.05139
#
# Compressibility (1/GPa) = 0.02390916
#
# Stress axis : x y z
#
# Youngs Moduli (GPa) = 79.67260 66.15732 55.98105
#
# Poissons Ratio (x) = 0.28770 0.21214
# Poissons Ratio (y) = 0.34648 0.14959
# Poissons Ratio (z) = 0.30192 0.17678
#
# Static dielectric constant tensor:
#      x y z
#    x 4.339500 0.000000 0.000000 
#    y 0.000000 4.138370 0.000000 
#    z 0.000000 0.000000 4.205880 
# 
# 
# High freq. dielectric constant tensor:
#      x y z
#    x 1.921680 0.000000 0.000000 
#    y 0.000000 1.912530 0.000000 
#    z 0.000000 0.000000 1.915370 
# 
# From -- ./inp_files/8945.got.cif
#   From: 2010.03.12/outbox.cif.g09.slc.cpg/sg40_5_cif.got.tgz:8945.got - 2010.04.14 01:38:03.
