data_PCOD8184532
_publ_section_title
;
Structure prediction by ZEFSAII (Michael W. Deem and Ramdas Pophale) SiO2 
 PCOD8184532
Probable space group: A M A 2
;
_chemical_formula_sum "Si O2"
_cell_formula_units_Z 40
_cell_length_a 15.551560
_cell_length_b 8.615390
_cell_length_c 12.293194
_cell_angle_alpha 90.000000
_cell_angle_beta 90.000000
_cell_angle_gamma 90.000000
_cell_volume 1647.075994
_symmetry_space_group_name_H-M "A M A 2"
_symmetry_group_IT_number 40
_symmetry_cell_setting 'orthorhombic'
loop_
_space_group_symop_operation_xyz
x,y,z
-x,-y,z
1/2-x,y,z
1/2+x,-y,z
x,1/2+y,1/2+z
-x,1/2-y,1/2+z
1/2-x,1/2+y,1/2+z
1/2+x,1/2-y,1/2+z
loop_
_atom_site_type_symbol
_atom_site_label
_atom_site_fract_x
_atom_site_fract_y
_atom_site_fract_z
Si Si1 0.598262 0.353160 0.071580
Si Si2 0.655094 0.878127 0.342354
Si Si3 0.552295 0.341776 0.485224
Si Si4 0.649603 0.177887 0.653094
Si Si5 0.648573 0.714618 0.791554
O O1 0.595450 0.525398 0.122050
O O2 0.629758 0.236493 0.164573
O O3 0.662965 0.340753 0.969690
O O4 0.508196 0.303516 0.017535
O O5 0.750000 0.893495 0.291787
O O6 0.613634 0.737966 0.271060
O O7 0.611527 0.045460 0.324164
O O8 0.500000 0.500000 0.501425
O O9 0.632403 0.319431 0.568390
O O10 0.591754 0.333457 0.363868
O O11 0.750000 0.131430 0.653649
O O12 0.750000 0.736684 0.816955
#
# Coordination Sequence:
#
# PCOD8184532 Si02
#       5
#     8   8   8   8   8
#     4  12  26  46  75 109 149 191 253 316 383 444
#     4  10  23  45  75 107 144 194 247 305 378 453
#     4  12  28  46  73 112 154 201 255 316 381 447
#     4  11  24  48  78 108 150 201 251 313 385 463
#     4  11  25  49  77 106 151 204 252 308 381 464
#
# _framework density 24.285458999999999
#
# number of rings (size 3 to 8) (size 9 to 14) (size 15 to 20)
#    0.000    0.800    2.000    4.200    5.600    0.000 
#    0.000    4.000    0.000    0.000    0.000    0.000 
#    0.000    0.000    0.000    0.000    0.000    0.000 
#
# Total GULP energy -247881.027211 kJ/mol
# GULP energy per Si atom -12394.051361 kJ/mol
# Density = 2.423018 g / cm^3
# Si number density = 24.285459 Si / 1000 Ang^3
#
#
#
# Elastic Constant Matrix: (Units=GPa)
#
#
# Indices 1 2 3 4 5 6 
#
# 1 77.1348 44.8087 27.7082 0.0000 0.0000 0.0000
# 2 44.8087 119.9630 74.9523 0.0000 0.0000 0.0000
# 3 27.7082 74.9523 197.2539 0.0000 0.0000 0.0000
# 4 0.0000 0.0000 0.0000 47.1760 0.0000 0.0000
# 5 0.0000 0.0000 0.0000 0.0000 17.2673 0.0000
# 6 0.0000 0.0000 0.0000 0.0000 0.0000 30.7418
#
#
#
# Elastic Compliance Matrix: (Units=1/GPa)
#
#
# Indices 1 2 3 4 5 6 
#
# 1 0.016557 -0.006204 0.000032 0.000000 0.000000 0.000000
# 2 -0.006204 0.013256 -0.004165 0.000000 0.000000 0.000000
# 3 0.000032 -0.004165 0.006648 0.000000 0.000000 0.000000
# 4 0.000000 0.000000 0.000000 0.021197 0.000000 0.000000
# 5 0.000000 0.000000 0.000000 0.000000 0.057913 0.000000
# 6 0.000000 0.000000 0.000000 0.000000 0.000000 0.032529
#
#
# Mechanical properties :
#
#
# Convention : Reuss Voigt Hill
#
# Bulk Modulus (GPa) = 63.35152 76.58778 69.96965
# Shear Modulus (GPa) = 28.72946 35.49587 32.11267
#
# Velocity S-wave (km/s) = 3.44319 3.82725 3.64029
# Velocity P-wave (km/s) = 6.47690 7.15090 6.82223
#
# Compressibility (1/GPa) = 0.01578494
#
# Stress axis : x y z
#
# Youngs Moduli (GPa) = 60.39726 75.43847 150.42278
#
# Poissons Ratio (x) = 0.46804 -0.00477
# Poissons Ratio (y) = 0.37472 0.62658
# Poissons Ratio (z) = -0.00191 0.31423
#
# Static dielectric constant tensor:
#      x y z
#    x 4.283270 0.000000 0.000000 
#    y 0.000000 4.285760 0.000000 
#    z 0.000000 0.000000 4.582240 
# 
# 
# High freq. dielectric constant tensor:
#      x y z
#    x 1.961790 0.000000 0.000000 
#    y 0.000000 1.959110 0.000000 
#    z 0.000000 0.000000 1.979040 
# 
# From -- ./inp_files/12703.got.cif
#   From: 2010.03.12/outbox.cif.g09.slc.cpg/sg40_7_cif.got.tgz:12703.got - 2010.04.14 01:38:03.
