data_PCOD8184085
_publ_section_title
;
Structure prediction by ZEFSAII (Michael W. Deem and Ramdas Pophale) SiO2 
 PCOD8184085
Probable space group: A M A 2
;
_chemical_formula_sum "Si O2"
_cell_formula_units_Z 48
_cell_length_a 15.429851
_cell_length_b 12.811425
_cell_length_c 12.736253
_cell_angle_alpha 90.000000
_cell_angle_beta 90.000000
_cell_angle_gamma 90.000000
_cell_volume 2517.681846
_symmetry_space_group_name_H-M "A M A 2"
_symmetry_group_IT_number 40
_symmetry_cell_setting 'orthorhombic'
loop_
_space_group_symop_operation_xyz
x,y,z
-x,-y,z
1/2-x,y,z
1/2+x,-y,z
x,1/2+y,1/2+z
-x,1/2-y,1/2+z
1/2-x,1/2+y,1/2+z
1/2+x,1/2-y,1/2+z
loop_
_atom_site_type_symbol
_atom_site_label
_atom_site_fract_x
_atom_site_fract_y
_atom_site_fract_z
Si Si1 0.421278 0.422028 0.667800
Si Si2 0.913588 0.654441 0.905094
Si Si3 0.915130 0.264850 0.007468
Si Si4 0.750000 0.993022 0.070921
Si Si5 0.250000 0.240574 0.988218
Si Si6 0.750000 0.600598 0.176874
Si Si7 0.404802 0.511580 0.085782
Si Si8 0.750000 0.172514 0.907960
O O1 0.500000 0.500000 0.649911
O O2 0.418814 0.381711 0.786034
O O3 0.435608 0.324250 0.591642
O O4 0.333219 0.483787 0.642662
O O5 0.834471 0.735205 0.918276
O O6 0.000755 0.714908 0.936603
O O7 0.900181 0.551656 0.976158
O O8 0.836119 0.236404 0.932708
O O9 0.884600 0.367839 0.067962
O O10 0.750000 0.876786 0.027914
O O11 0.750000 0.063440 0.967738
O O12 0.250000 0.311668 0.089842
O O13 0.664585 0.529714 0.168735
O O14 0.750000 0.657906 0.285446
O O15 0.500000 0.500000 0.136771
#
# Coordination Sequence:
#
# PCOD8184085 Si02
#       8
#     8   8   8   4   4   4   8   4
#     4  11  22  38  59  84 114 152 192 235 287 342
#     4  10  21  37  59  86 113 146 188 235 285 337
#     4  10  21  37  56  80 112 148 186 229 279 338
#     4  10  23  40  56  82 120 152 189 234 282 348
#     4  10  21  38  60  88 118 148 189 236 282 340
#     4  10  21  36  58  84 110 142 185 232 278 328
#     4   9  19  36  55  81 112 141 180 228 274 331
#     4  10  23  38  54  80 112 148 187 228 280 336
#
# _framework density 19.065156999999999
#
# number of rings (size 3 to 8) (size 9 to 14) (size 15 to 20)
#    0.000    2.000    0.000    3.500    0.000    8.000 
#    0.000    3.333    0.000    0.000    0.000    0.000 
#    0.000    0.000    0.000    0.000    0.000    0.000 
#
# Total GULP energy -297669.612992 kJ/mol
# GULP energy per Si atom -12402.900541 kJ/mol
# Density = 1.902176 g / cm^3
# Si number density = 19.065157 Si / 1000 Ang^3
#
#
#
# Elastic Constant Matrix: (Units=GPa)
#
#
# Indices 1 2 3 4 5 6 
#
# 1 148.9466 74.1264 42.3750 0.0000 0.0000 0.0000
# 2 74.1264 142.7629 40.1049 0.0000 0.0000 0.0000
# 3 42.3750 40.1049 75.2327 0.0000 0.0000 0.0000
# 4 0.0000 0.0000 0.0000 17.2726 0.0000 0.0000
# 5 0.0000 0.0000 0.0000 0.0000 18.8734 0.0000
# 6 0.0000 0.0000 0.0000 0.0000 0.0000 33.8801
#
#
#
# Elastic Compliance Matrix: (Units=1/GPa)
#
#
# Indices 1 2 3 4 5 6 
#
# 1 0.009690 -0.004114 -0.003265 0.000000 0.000000 0.000000
# 2 -0.004114 0.009985 -0.003006 0.000000 0.000000 0.000000
# 3 -0.003265 -0.003006 0.016733 0.000000 0.000000 0.000000
# 4 0.000000 0.000000 0.000000 0.057895 0.000000 0.000000
# 5 0.000000 0.000000 0.000000 0.000000 0.052985 0.000000
# 6 0.000000 0.000000 0.000000 0.000000 0.000000 0.029516
#
#
# Mechanical properties :
#
#
# Convention : Reuss Voigt Hill
#
# Bulk Modulus (GPa) = 63.94110 75.57276 69.75693
# Shear Modulus (GPa) = 24.65650 28.02762 26.34206
#
# Velocity S-wave (km/s) = 3.60012 3.83834 3.72114
# Velocity P-wave (km/s) = 7.13387 7.70513 7.42500
#
# Compressibility (1/GPa) = 0.01563939
#
# Stress axis : x y z
#
# Youngs Moduli (GPa) = 103.19714 100.14852 59.76151
#
# Poissons Ratio (x) = 0.41204 0.19511
# Poissons Ratio (y) = 0.42458 0.17961
# Poissons Ratio (z) = 0.33692 0.30100
#
# Static dielectric constant tensor:
#      x y z
#    x 3.581110 0.000000 0.000000 
#    y 0.000000 3.619600 0.000000 
#    z 0.000000 0.000000 3.274520 
# 
# 
# High freq. dielectric constant tensor:
#      x y z
#    x 1.764130 0.000000 0.000000 
#    y 0.000000 1.752710 0.000000 
#    z 0.000000 0.000000 1.730100 
# 
# From -- ./inp_files/12949.got.cif
#   From: 2010.03.12/outbox.cif.g09.slc.cpg/sg40_7_cif.got.tgz:12949.got - 2010.04.14 01:38:03.
