data_PCOD8184932
_publ_section_title
;
Structure prediction by ZEFSAII (Michael W. Deem and Ramdas Pophale) SiO2 
 PCOD8184932
Probable space group: A B A 2
;
_chemical_formula_sum "Si O2"
_cell_formula_units_Z 52
_cell_length_a 7.990868
_cell_length_b 15.085286
_cell_length_c 19.620187
_cell_angle_alpha 90.000000
_cell_angle_beta 90.000000
_cell_angle_gamma 90.000000
_cell_volume 2365.106204
_symmetry_space_group_name_H-M "A B A 2"
_symmetry_group_IT_number 41
_symmetry_cell_setting 'orthorhombic'
loop_
_space_group_symop_operation_xyz
x,y,z
-x,-y,z
1/2-x,y,1/2+z
1/2+x,-y,1/2+z
x,1/2+y,1/2+z
-x,1/2-y,1/2+z
1/2-x,1/2+y,z
1/2+x,1/2-y,z
loop_
_atom_site_type_symbol
_atom_site_label
_atom_site_fract_x
_atom_site_fract_y
_atom_site_fract_z
Si Si1 0.840479 0.603670 0.736630
Si Si2 0.153920 0.933309 0.085169
Si Si3 0.000000 0.500000 0.044527
Si Si4 0.476154 0.335162 0.958409
Si Si5 0.665933 0.906546 0.798103
Si Si6 0.476616 0.397087 0.810722
Si Si7 0.856979 0.860409 0.448781
O O1 0.854123 0.619297 0.656039
O O2 0.834063 0.500928 0.759951
O O3 0.670875 0.647970 0.766067
O O4 0.008254 0.648814 0.768325
O O5 0.332317 0.983665 0.088277
O O6 0.000000 0.000000 0.079664
O O7 0.140904 0.866919 0.020886
O O8 0.027725 0.587640 0.000961
O O9 0.430665 0.389257 0.890335
O O10 0.443503 0.233921 0.939388
O O11 0.669531 0.350216 0.978100
O O12 0.642466 0.916906 0.879160
O O13 0.843346 0.854012 0.789120
O O14 0.500000 0.500000 0.794010
#
# Coordination Sequence:
#
# PCOD8184932 Si02
#       7
#     8   8   4   8   8   8   8
#     4  10  20  36  66  94 129 167 215 268 327 392
#     4  12  24  41  65  98 135 179 219 272 335 403
#     4  12  26  40  70  96 126 176 228 266 332 402
#     4  11  24  43  66  99 140 169 224 282 332 395
#     4   9  19  35  60  91 122 163 213 270 312 379
#     4   9  20  36  64  93 126 167 219 271 319 389
#     4  11  24  42  69  99 130 174 225 280 333 388
#
# _framework density 21.986326999999999
#
# number of rings (size 3 to 8) (size 9 to 14) (size 15 to 20)
#    0.000    1.538    3.077    2.308   11.846    0.000 
#    0.000    0.000   10.154    0.000    0.000    0.000 
#    0.000    0.000    0.000    0.000    0.000    0.000 
#
# Total GULP energy -322238.379033 kJ/mol
# GULP energy per Si atom -12393.783809 kJ/mol
# Density = 2.193628 g / cm^3
# Si number density = 21.986327 Si / 1000 Ang^3
#
#
#
# Elastic Constant Matrix: (Units=GPa)
#
#
# Indices 1 2 3 4 5 6 
#
# 1 187.3517 19.5608 65.3551 0.0000 0.0000 0.0000
# 2 19.5608 29.2356 8.6339 0.0000 0.0000 0.0000
# 3 65.3551 8.6339 125.6721 0.0000 0.0000 0.0000
# 4 0.0000 0.0000 0.0000 5.0848 0.0000 0.0000
# 5 0.0000 0.0000 0.0000 0.0000 23.7664 0.0000
# 6 0.0000 0.0000 0.0000 0.0000 0.0000 25.6024
#
#
#
# Elastic Compliance Matrix: (Units=1/GPa)
#
#
# Indices 1 2 3 4 5 6 
#
# 1 0.006876 -0.003618 -0.003327 0.000000 0.000000 0.000000
# 2 -0.003618 0.036817 -0.000648 0.000000 0.000000 0.000000
# 3 -0.003327 -0.000648 0.009732 0.000000 0.000000 0.000000
# 4 0.000000 0.000000 0.000000 0.196666 0.000000 0.000000
# 5 0.000000 0.000000 0.000000 0.000000 0.042076 0.000000
# 6 0.000000 0.000000 0.000000 0.000000 0.000000 0.039059
#
#
# Mechanical properties :
#
#
# Convention : Reuss Voigt Hill
#
# Bulk Modulus (GPa) = 26.15151 58.81765 42.48458
# Shear Modulus (GPa) = 13.92145 27.47137 20.69641
#
# Velocity S-wave (km/s) = 2.51905 3.53863 3.07144
# Velocity P-wave (km/s) = 4.51454 6.59590 5.65185
#
# Compressibility (1/GPa) = 0.03823871
#
# Stress axis : x y z
#
# Youngs Moduli (GPa) = 145.43441 27.16149 102.75337
#
# Poissons Ratio (x) = 0.09827 0.34189
# Poissons Ratio (y) = 0.52617 0.06657
# Poissons Ratio (z) = 0.48390 0.01760
#
# Static dielectric constant tensor:
#      x y z
#    x 7.079600 0.000000 0.000000 
#    y 0.000000 3.404050 0.000000 
#    z 0.000000 0.000000 3.859580 
# 
# 
# High freq. dielectric constant tensor:
#      x y z
#    x 1.901740 0.000000 0.000000 
#    y 0.000000 1.819800 0.000000 
#    z 0.000000 0.000000 1.853160 
# 
# From -- ./inp_files/9725.got.cif
#   From: 2010.03.12/outbox.cif.g09.slc.cpg/sg41_5_cif.got.tgz:9725.got - 2010.04.14 01:55:53.
