data_PCOD8184621
_publ_section_title
;
Structure prediction by ZEFSAII (Michael W. Deem and Ramdas Pophale) SiO2 
 PCOD8184621
Probable space group: A M A 2
;
_chemical_formula_sum "Si O2"
_cell_formula_units_Z 52
_cell_length_a 19.753934
_cell_length_b 13.054928
_cell_length_c 9.695543
_cell_angle_alpha 90.000000
_cell_angle_beta 90.000000
_cell_angle_gamma 90.000000
_cell_volume 2500.346606
_symmetry_space_group_name_H-M "A M A 2"
_symmetry_group_IT_number 40
_symmetry_cell_setting 'orthorhombic'
loop_
_space_group_symop_operation_xyz
x,y,z
-x,-y,z
1/2-x,y,z
1/2+x,-y,z
x,1/2+y,1/2+z
-x,1/2-y,1/2+z
1/2-x,1/2+y,1/2+z
1/2+x,1/2-y,1/2+z
loop_
_atom_site_type_symbol
_atom_site_label
_atom_site_fract_x
_atom_site_fract_y
_atom_site_fract_z
Si Si1 0.250000 0.620907 0.789270
Si Si2 0.885812 0.594527 0.101810
Si Si3 0.043241 0.405225 0.385668
Si Si4 0.519177 0.186896 0.376837
Si Si5 0.250000 0.795956 0.584340
Si Si6 0.750000 0.623033 0.777258
Si Si7 0.385066 0.316584 0.630004
Si Si8 0.378947 0.120024 0.465916
O O1 0.250000 0.677393 0.638797
O O2 0.250000 0.498868 0.785143
O O3 0.317311 0.657131 0.869715
O O4 0.926047 0.564883 0.238369
O O5 0.817337 0.652108 0.145210
O O6 0.864665 0.493648 0.018445
O O7 0.932899 0.665619 0.007307
O O8 0.103754 0.383511 0.492672
O O9 0.000000 0.500000 0.440620
O O10 0.994977 0.307261 0.376909
O O11 0.555412 0.155991 0.235840
O O12 0.449694 0.121769 0.382146
O O13 0.250000 0.812505 0.419507
O O14 0.685798 0.655963 0.692729
O O15 0.385795 0.196007 0.595521
#
# Coordination Sequence:
#
# PCOD8184621 Si02
#       8
#     4   8   8   8   4   4   8   8
#     4  12  25  45  68 101 131 182 230 281 344 433
#     4  12  23  44  70  97 134 187 231 278 347 424
#     4  11  24  40  63 101 136 173 231 287 353 416
#     4  11  22  40  66  94 132 178 222 285 338 408
#     4  12  24  43  72  95 136 177 240 276 344 430
#     4  12  25  48  64 100 139 181 226 285 354 423
#     4  11  24  42  66  96 139 170 225 293 341 410
#     4  11  23  43  70  94 135 179 228 280 347 417
#
# _framework density 20.797115999999999
#
# number of rings (size 3 to 8) (size 9 to 14) (size 15 to 20)
#    0.000    0.615    3.077    6.462    0.000    4.308 
#    2.769    0.000    0.000    0.000    0.000    0.000 
#    0.000    0.000    0.000    0.000    0.000    0.000 
#
# Total GULP energy -322492.015441 kJ/mol
# GULP energy per Si atom -12403.539055 kJ/mol
# Density = 2.074978 g / cm^3
# Si number density = 20.797116 Si / 1000 Ang^3
#
#
#
# Elastic Constant Matrix: (Units=GPa)
#
#
# Indices 1 2 3 4 5 6 
#
# 1 146.0059 39.5841 53.6141 0.0000 0.0000 0.0000
# 2 39.5841 88.4595 49.2608 0.0000 0.0000 0.0000
# 3 53.6141 49.2608 119.8420 0.0000 0.0000 0.0000
# 4 0.0000 0.0000 0.0000 27.2994 0.0000 0.0000
# 5 0.0000 0.0000 0.0000 0.0000 44.7226 0.0000
# 6 0.0000 0.0000 0.0000 0.0000 0.0000 26.3295
#
#
#
# Elastic Compliance Matrix: (Units=1/GPa)
#
#
# Indices 1 2 3 4 5 6 
#
# 1 0.008510 -0.002189 -0.002907 0.000000 0.000000 0.000000
# 2 -0.002189 0.015223 -0.005278 0.000000 0.000000 0.000000
# 3 -0.002907 -0.005278 0.011815 0.000000 0.000000 0.000000
# 4 0.000000 0.000000 0.000000 0.036631 0.000000 0.000000
# 5 0.000000 0.000000 0.000000 0.000000 0.022360 0.000000
# 6 0.000000 0.000000 0.000000 0.000000 0.000000 0.037980
#
#
# Mechanical properties :
#
#
# Convention : Reuss Voigt Hill
#
# Bulk Modulus (GPa) = 67.57300 71.02505 69.29902
# Shear Modulus (GPa) = 31.60522 33.79352 32.69937
#
# Velocity S-wave (km/s) = 3.90255 4.03540 3.96953
# Velocity P-wave (km/s) = 7.27108 7.47918 7.37586
#
# Compressibility (1/GPa) = 0.01479881
#
# Stress axis : x y z
#
# Youngs Moduli (GPa) = 117.50686 65.68793 84.64092
#
# Poissons Ratio (x) = 0.14380 0.24608
# Poissons Ratio (y) = 0.25723 0.44675
# Poissons Ratio (z) = 0.34164 0.34672
#
# Static dielectric constant tensor:
#      x y z
#    x 3.974460 0.000000 0.000000 
#    y 0.000000 3.753850 0.000000 
#    z 0.000000 0.000000 3.888970 
# 
# 
# High freq. dielectric constant tensor:
#      x y z
#    x 1.833050 0.000000 0.000000 
#    y 0.000000 1.815190 0.000000 
#    z 0.000000 0.000000 1.817130 
# 
# From -- ./inp_files/8277.got.cif
#   From: 2010.03.12/outbox.cif.g09.slc.cpg/sg40_5_cif.got.tgz:8277.got - 2010.04.14 01:38:03.
