data_PCOD8184548
_publ_section_title
;
Structure prediction by ZEFSAII (Michael W. Deem and Ramdas Pophale) SiO2 
 PCOD8184548
Probable space group: A M A 2
;
_chemical_formula_sum "Si O2"
_cell_formula_units_Z 60
_cell_length_a 30.530045
_cell_length_b 8.169472
_cell_length_c 11.490733
_cell_angle_alpha 90.000000
_cell_angle_beta 90.000000
_cell_angle_gamma 90.000000
_cell_volume 2865.953677
_symmetry_space_group_name_H-M "A M A 2"
_symmetry_group_IT_number 40
_symmetry_cell_setting 'orthorhombic'
loop_
_space_group_symop_operation_xyz
x,y,z
-x,-y,z
1/2-x,y,z
1/2+x,-y,z
x,1/2+y,1/2+z
-x,1/2-y,1/2+z
1/2-x,1/2+y,1/2+z
1/2+x,1/2-y,1/2+z
loop_
_atom_site_type_symbol
_atom_site_label
_atom_site_fract_x
_atom_site_fract_y
_atom_site_fract_z
Si Si1 0.500000 0.500000 0.312150
Si Si2 0.070457 0.299990 0.423891
Si Si3 0.843352 0.223045 0.284773
Si Si4 0.198703 0.627065 0.823220
Si Si5 0.700880 0.709126 0.564380
Si Si6 0.622839 0.714577 0.207013
Si Si7 0.363461 0.567536 0.497994
Si Si8 0.419716 0.128656 0.668615
O O1 0.478581 0.360500 0.394173
O O2 0.465638 0.591809 0.229144
O O3 0.091641 0.213585 0.310229
O O4 0.098482 0.464942 0.438130
O O5 0.071413 0.181349 0.534990
O O6 0.812594 0.301591 0.183432
O O7 0.838025 0.326964 0.401467
O O8 0.893797 0.226360 0.236763
O O9 0.827008 0.040561 0.306832
O O10 0.250000 0.617319 0.787625
O O11 0.173887 0.766450 0.746962
O O12 0.192828 0.669409 0.958389
O O13 0.750000 0.645867 0.569232
O O14 0.671801 0.546442 0.559869
O O15 0.613242 0.818196 0.092102
O O16 0.612175 0.527970 0.174530
#
# Coordination Sequence:
#
# PCOD8184548 Si02
#       8
#     4   8   8   8   8   8   8   8
#     4  10  24  44  68 108 134 166 228 288 336 416
#     4  11  23  47  70  97 140 174 220 281 340 406
#     4  12  23  41  68  98 133 184 224 276 341 410
#     4  11  23  42  67  98 137 179 232 284 333 395
#     4  11  24  43  64  96 137 179 231 285 328 394
#     4  11  23  41  69 101 134 180 225 272 334 409
#     4  12  24  39  72  95 132 187 223 271 346 402
#     4  11  23  46  72  99 137 178 224 275 349 410
#
# _framework density 20.935438999999999
#
# number of rings (size 3 to 8) (size 9 to 14) (size 15 to 20)
#    0.000    0.800    6.667    0.400    3.733    3.200 
#    0.000    1.333    0.000    0.000    0.000    0.000 
#    0.000    0.000    0.000    0.000    0.000    0.000 
#
# Total GULP energy -371939.784157 kJ/mol
# GULP energy per Si atom -12397.992805 kJ/mol
# Density = 2.088779 g / cm^3
# Si number density = 20.935439 Si / 1000 Ang^3
#
#
#
# Elastic Constant Matrix: (Units=GPa)
#
#
# Indices 1 2 3 4 5 6 
#
# 1 131.4624 75.3768 49.1256 0.0000 0.0000 0.0000
# 2 75.3768 95.7275 61.2830 0.0000 0.0000 0.0000
# 3 49.1256 61.2830 143.0246 0.0000 0.0000 0.0000
# 4 0.0000 0.0000 0.0000 34.8179 0.0000 0.0000
# 5 0.0000 0.0000 0.0000 0.0000 28.2689 0.0000
# 6 0.0000 0.0000 0.0000 0.0000 0.0000 28.1616
#
#
#
# Elastic Compliance Matrix: (Units=1/GPa)
#
#
# Indices 1 2 3 4 5 6 
#
# 1 0.013869 -0.010846 -0.000116 0.000000 0.000000 0.000000
# 2 -0.010846 0.022877 -0.006077 0.000000 0.000000 0.000000
# 3 -0.000116 -0.006077 0.009636 0.000000 0.000000 0.000000
# 4 0.000000 0.000000 0.000000 0.028721 0.000000 0.000000
# 5 0.000000 0.000000 0.000000 0.000000 0.035375 0.000000
# 6 0.000000 0.000000 0.000000 0.000000 0.000000 0.035509
#
#
# Mechanical properties :
#
#
# Convention : Reuss Voigt Hill
#
# Bulk Modulus (GPa) = 81.28207 82.42061 81.85134
# Shear Modulus (GPa) = 27.14934 30.54494 28.84714
#
# Velocity S-wave (km/s) = 3.60504 3.82384 3.71605
# Velocity P-wave (km/s) = 7.49918 7.67789 7.58907
#
# Compressibility (1/GPa) = 0.01230284
#
# Stress axis : x y z
#
# Youngs Moduli (GPa) = 72.10254 43.71186 103.78179
#
# Poissons Ratio (x) = 0.47411 0.01208
# Poissons Ratio (y) = 0.78204 0.63067
# Poissons Ratio (z) = 0.00839 0.26563
#
# Static dielectric constant tensor:
#      x y z
#    x 3.888640 0.000000 0.000000 
#    y 0.000000 3.631230 0.000000 
#    z 0.000000 0.000000 4.271880 
# 
# 
# High freq. dielectric constant tensor:
#      x y z
#    x 1.814900 0.000000 0.000000 
#    y 0.000000 1.806210 0.000000 
#    z 0.000000 0.000000 1.846980 
# 
# From -- ./inp_files/14371.got.cif
#   From: 2010.03.12/outbox.cif.g09.slc.cpg/sg40_8_cif.got.tgz:14371.got - 2010.04.14 01:38:03.
