data_PCOD8184252
_publ_section_title
;
Structure prediction by ZEFSAII (Michael W. Deem and Ramdas Pophale) SiO2 
 PCOD8184252
Probable space group: A M A 2
;
_chemical_formula_sum "Si O2"
_cell_formula_units_Z 48
_cell_length_a 8.728496
_cell_length_b 22.784041
_cell_length_c 11.737018
_cell_angle_alpha 90.000000
_cell_angle_beta 90.000000
_cell_angle_gamma 90.000000
_cell_volume 2334.145590
_symmetry_space_group_name_H-M "A M A 2"
_symmetry_group_IT_number 40
_symmetry_cell_setting 'orthorhombic'
loop_
_space_group_symop_operation_xyz
x,y,z
-x,-y,z
1/2-x,y,z
1/2+x,-y,z
x,1/2+y,1/2+z
-x,1/2-y,1/2+z
1/2-x,1/2+y,1/2+z
1/2+x,1/2-y,1/2+z
loop_
_atom_site_type_symbol
_atom_site_label
_atom_site_fract_x
_atom_site_fract_y
_atom_site_fract_z
Si Si1 0.569520 0.373873 0.680490
Si Si2 0.926899 0.058580 0.983061
Si Si3 0.430779 0.435058 0.892694
Si Si4 0.577385 0.853803 0.829706
Si Si5 0.923173 0.265850 0.524417
Si Si6 0.572837 0.352876 0.067388
O O1 0.750000 0.375329 0.700293
O O2 0.522054 0.425580 0.595569
O O3 0.487116 0.387300 0.799689
O O4 0.519316 0.312007 0.621949
O O5 0.750000 0.052426 0.015071
O O6 0.948975 0.104708 0.882472
O O7 0.000000 0.000000 0.933501
O O8 0.500000 0.500000 0.875245
O O9 0.250000 0.441399 0.885701
O O10 0.479027 0.407308 0.014063
O O11 0.750000 0.880104 0.842308
O O12 0.531919 0.845741 0.699517
O O13 0.570076 0.792886 0.897926
O O14 0.750000 0.246494 0.553923
O O15 0.031010 0.209703 0.513929
O O16 0.750000 0.366060 0.045252
#
# Coordination Sequence:
#
# PCOD8184252 Si02
#       6
#     8   8   8   8   8   8
#     4  10  21  40  64  93 127 162 205 258 311 366
#     4  11  21  35  59  89 120 158 201 249 305 363
#     4  12  26  44  65  91 127 169 216 263 317 379
#     4   9  21  41  60  84 120 159 202 254 306 364
#     4   9  20  39  63  92 124 159 201 256 314 370
#     4  11  24  41  63  91 124 165 209 256 312 374
#
# _framework density 20.564271000000002
#
# number of rings (size 3 to 8) (size 9 to 14) (size 15 to 20)
#    0.000    1.667    0.000    5.500    2.333    5.333 
#    0.000    0.000    0.000    0.000    0.000    0.000 
#    0.000    0.000    0.000    0.000    0.000    0.000 
#
# Total GULP energy -297598.147335 kJ/mol
# GULP energy per Si atom -12399.922806 kJ/mol
# Density = 2.051747 g / cm^3
# Si number density = 20.564271 Si / 1000 Ang^3
#
#
#
# Elastic Constant Matrix: (Units=GPa)
#
#
# Indices 1 2 3 4 5 6 
#
# 1 104.7279 36.4157 31.5348 0.0000 0.0000 0.0000
# 2 36.4157 82.7597 26.8196 0.0000 0.0000 0.0000
# 3 31.5348 26.8196 110.3215 0.0000 0.0000 0.0000
# 4 0.0000 0.0000 0.0000 252.6432 0.0000 0.0000
# 5 0.0000 0.0000 0.0000 0.0000 27.0242 0.0000
# 6 0.0000 0.0000 0.0000 0.0000 0.0000 34.5323
#
#
#
# Elastic Compliance Matrix: (Units=1/GPa)
#
#
# Indices 1 2 3 4 5 6 
#
# 1 0.011782 -0.004443 -0.002288 0.000000 0.000000 0.000000
# 2 -0.004443 0.014792 -0.002326 0.000000 0.000000 0.000000
# 3 -0.002288 -0.002326 0.010284 0.000000 0.000000 0.000000
# 4 0.000000 0.000000 0.000000 0.003958 0.000000 0.000000
# 5 0.000000 0.000000 0.000000 0.000000 0.037004 0.000000
# 6 0.000000 0.000000 0.000000 0.000000 0.000000 0.028958
#
#
# Mechanical properties :
#
#
# Convention : Reuss Voigt Hill
#
# Bulk Modulus (GPa) = 53.34890 54.14990 53.74940
# Shear Modulus (GPa) = 38.12710 76.37588 57.25149
#
# Velocity S-wave (km/s) = 4.31053 6.10088 5.28211
# Velocity P-wave (km/s) = 7.12553 8.71876 7.96210
#
# Compressibility (1/GPa) = 0.01874453
#
# Stress axis : x y z
#
# Youngs Moduli (GPa) = 84.87259 67.60429 97.24010
#
# Poissons Ratio (x) = 0.30037 0.22247
# Poissons Ratio (y) = 0.37709 0.22618
# Poissons Ratio (z) = 0.19417 0.15725
#
# Static dielectric constant tensor:
#      x y z
#    x 3.739130 0.000000 0.000000 
#    y 0.000000 3.515360 0.000000 
#    z 0.000000 0.000000 3.801900 
# 
# 
# High freq. dielectric constant tensor:
#      x y z
#    x 1.807750 0.000000 0.000000 
#    y 0.000000 1.801110 0.000000 
#    z 0.000000 0.000000 1.805750 
# 
# From -- ./inp_files/10258.got.cif
#   From: 2010.03.12/outbox.cif.g09.slc.cpg/sg40_6_cif.got.tgz:10258.got - 2010.04.14 01:38:03.
