data_PCOD8184556
_publ_section_title
;
Structure prediction by ZEFSAII (Michael W. Deem and Ramdas Pophale) SiO2 
 PCOD8184556
Probable space group: A M A 2
;
_chemical_formula_sum "Si O2"
_cell_formula_units_Z 56
_cell_length_a 22.291623
_cell_length_b 10.548026
_cell_length_c 10.640529
_cell_angle_alpha 90.000000
_cell_angle_beta 90.000000
_cell_angle_gamma 90.000000
_cell_volume 2501.935451
_symmetry_space_group_name_H-M "A M A 2"
_symmetry_group_IT_number 40
_symmetry_cell_setting 'orthorhombic'
loop_
_space_group_symop_operation_xyz
x,y,z
-x,-y,z
1/2-x,y,z
1/2+x,-y,z
x,1/2+y,1/2+z
-x,1/2-y,1/2+z
1/2-x,1/2+y,1/2+z
1/2+x,1/2-y,1/2+z
loop_
_atom_site_type_symbol
_atom_site_label
_atom_site_fract_x
_atom_site_fract_y
_atom_site_fract_z
Si Si1 0.317534 0.756534 0.710000
Si Si2 0.505651 0.246052 0.925507
Si Si3 0.591023 0.091362 0.560455
Si Si4 0.096307 0.865808 0.111162
Si Si5 0.592720 0.381229 0.259081
Si Si6 0.902658 0.938445 0.317218
Si Si7 0.682468 0.528264 0.416285
O O1 0.250000 0.735403 0.660858
O O2 0.357082 0.808320 0.594060
O O3 0.343299 0.623363 0.758546
O O4 0.318921 0.852428 0.825080
O O5 0.464806 0.161774 0.836679
O O6 0.546920 0.331692 0.835748
O O7 0.469267 0.336113 0.020455
O O8 0.544787 0.148601 0.006786
O O9 0.574777 0.005439 0.680177
O O10 0.615333 0.003785 0.448103
O O11 0.115151 0.729245 0.166004
O O12 0.071804 0.954268 0.223474
O O13 0.154068 0.930712 0.048640
O O14 0.646452 0.411299 0.355246
O O15 0.750000 0.481592 0.441329
#
# Coordination Sequence:
#
# PCOD8184556 Si02
#       7
#     8   8   8   8   8   8   8
#     4  10  24  48  75 100 138 188 240 291 347 414
#     4  12  27  43  66 104 144 181 229 287 350 425
#     4  11  25  45  69 100 139 180 234 288 347 415
#     4  12  27  43  70 104 138 184 228 285 353 414
#     4  11  26  44  71 102 134 184 231 283 353 412
#     4  12  26  44  67 103 141 183 231 284 353 417
#     4  10  24  49  72 100 138 181 234 291 350 416
#
# _framework density 22.382670999999998
#
# number of rings (size 3 to 8) (size 9 to 14) (size 15 to 20)
#    0.000    0.857    4.286    0.429    4.000    4.571 
#    0.000    2.857    0.000    0.000    0.000    0.000 
#    0.000    0.000    0.000    0.000    0.000    0.000 
#
# Total GULP energy -347394.068625 kJ/mol
# GULP energy per Si atom -12406.931022 kJ/mol
# Density = 2.233173 g / cm^3
# Si number density = 22.382671 Si / 1000 Ang^3
#
#
#
# Elastic Constant Matrix: (Units=GPa)
#
#
# Indices 1 2 3 4 5 6 
#
# 1 138.2072 48.2490 50.7312 0.0000 0.0000 0.0000
# 2 48.2490 60.8308 41.2822 0.0000 0.0000 0.0000
# 3 50.7312 41.2822 94.0688 0.0000 0.0000 0.0000
# 4 0.0000 0.0000 0.0000 51.7776 0.0000 0.0000
# 5 0.0000 0.0000 0.0000 0.0000 25.1219 0.0000
# 6 0.0000 0.0000 0.0000 0.0000 0.0000 22.4773
#
#
#
# Elastic Compliance Matrix: (Units=1/GPa)
#
#
# Indices 1 2 3 4 5 6 
#
# 1 0.010522 -0.006401 -0.002865 0.000000 0.000000 0.000000
# 2 -0.006401 0.027306 -0.008531 0.000000 0.000000 0.000000
# 3 -0.002865 -0.008531 0.015920 0.000000 0.000000 0.000000
# 4 0.000000 0.000000 0.000000 0.019313 0.000000 0.000000
# 5 0.000000 0.000000 0.000000 0.000000 0.039806 0.000000
# 6 0.000000 0.000000 0.000000 0.000000 0.000000 0.044489
#
#
# Mechanical properties :
#
#
# Convention : Reuss Voigt Hill
#
# Bulk Modulus (GPa) = 55.08936 63.73684 59.41310
# Shear Modulus (GPa) = 25.12542 30.06497 27.59520
#
# Velocity S-wave (km/s) = 3.35407 3.66898 3.51505
# Velocity P-wave (km/s) = 6.29806 6.81809 6.56323
#
# Compressibility (1/GPa) = 0.01815233
#
# Stress axis : x y z
#
# Youngs Moduli (GPa) = 95.03935 36.62242 62.81560
#
# Poissons Ratio (x) = 0.23443 0.17999
# Poissons Ratio (y) = 0.60836 0.53588
# Poissons Ratio (z) = 0.27232 0.31243
#
# Static dielectric constant tensor:
#      x y z
#    x 4.058940 0.000000 0.000000 
#    y 0.000000 4.205280 0.000000 
#    z 0.000000 0.000000 4.203660 
# 
# 
# High freq. dielectric constant tensor:
#      x y z
#    x 1.868180 0.000000 0.000000 
#    y 0.000000 1.894440 0.000000 
#    z 0.000000 0.000000 1.897060 
# 
# From -- ./inp_files/13544.got.cif
#   From: 2010.03.12/outbox.cif.g09.slc.cpg/sg40_7_cif.got.tgz:13544.got - 2010.04.14 01:38:03.
