data_PCOD8184192
_publ_section_title
;
Structure prediction by ZEFSAII (Michael W. Deem and Ramdas Pophale) SiO2 
 PCOD8184192
Probable space group: A M A 2
;
_chemical_formula_sum "Si O2"
_cell_formula_units_Z 28
_cell_length_a 7.464732
_cell_length_b 22.258852
_cell_length_c 9.421449
_cell_angle_alpha 90.000000
_cell_angle_beta 90.000000
_cell_angle_gamma 90.000000
_cell_volume 1565.433717
_symmetry_space_group_name_H-M "A M A 2"
_symmetry_group_IT_number 40
_symmetry_cell_setting 'orthorhombic'
loop_
_space_group_symop_operation_xyz
x,y,z
-x,-y,z
1/2-x,y,z
1/2+x,-y,z
x,1/2+y,1/2+z
-x,1/2-y,1/2+z
1/2-x,1/2+y,1/2+z
1/2+x,1/2-y,1/2+z
loop_
_atom_site_type_symbol
_atom_site_label
_atom_site_fract_x
_atom_site_fract_y
_atom_site_fract_z
Si Si1 0.958681 0.568324 0.269980
Si Si2 0.750000 0.756011 0.477451
Si Si3 0.447040 0.356548 0.538172
Si Si4 0.250000 0.116598 0.568368
Si Si5 0.750000 0.352993 0.762339
O O1 0.750000 0.578788 0.235847
O O2 0.024204 0.608214 0.402624
O O3 0.000000 0.500000 0.309290
O O4 0.071381 0.587792 0.133031
O O5 0.572993 0.714471 0.498962
O O6 0.750000 0.810819 0.591144
O O7 0.750000 0.783798 0.318094
O O8 0.250000 0.382885 0.578031
O O9 0.574417 0.365900 0.671125
O O10 0.250000 0.102651 0.398887
#
# Coordination Sequence:
#
# PCOD8184192 Si02
#       5
#     8   4   8   4   4
#     4  11  22  40  66  87 120 166 213 249 299 369
#     4   8  22  35  56  91 121 155 200 239 324 356
#     4   9  21  38  60  89 118 163 202 250 308 366
#     4  10  23  36  59  92 122 158 202 254 309 362
#     4  10  21  39  57  89 127 147 204 253 315 360
#
# _framework density 17.886417000000002
#
# number of rings (size 3 to 8) (size 9 to 14) (size 15 to 20)
#    1.714    0.571    1.429    0.857    4.000    1.143 
#    2.571    1.429    0.000    0.000    0.000    0.000 
#    0.000    0.000    0.000    0.000    0.000    0.000 
#
# Total GULP energy -173486.545203 kJ/mol
# GULP energy per Si atom -12391.896086 kJ/mol
# Density = 1.784571 g / cm^3
# Si number density = 17.886417 Si / 1000 Ang^3
#
#
#
# Elastic Constant Matrix: (Units=GPa)
#
#
# Indices 1 2 3 4 5 6 
#
# 1 105.5260 19.7282 69.8339 0.0000 0.0000 0.0000
# 2 19.7282 91.4983 31.3283 0.0000 0.0000 0.0000
# 3 69.8339 31.3283 132.9760 0.0000 0.0000 0.0000
# 4 0.0000 0.0000 0.0000 30.9820 0.0000 0.0000
# 5 0.0000 0.0000 0.0000 0.0000 31.0684 0.0000
# 6 0.0000 0.0000 0.0000 0.0000 0.0000 14.2334
#
#
#
# Elastic Compliance Matrix: (Units=1/GPa)
#
#
# Indices 1 2 3 4 5 6 
#
# 1 0.014551 -0.000567 -0.007508 0.000000 0.000000 0.000000
# 2 -0.000567 0.011910 -0.002508 0.000000 0.000000 0.000000
# 3 -0.007508 -0.002508 0.012054 0.000000 0.000000 0.000000
# 4 0.000000 0.000000 0.000000 0.032277 0.000000 0.000000
# 5 0.000000 0.000000 0.000000 0.000000 0.032187 0.000000
# 6 0.000000 0.000000 0.000000 0.000000 0.000000 0.070257
#
#
# Mechanical properties :
#
#
# Convention : Reuss Voigt Hill
#
# Bulk Modulus (GPa) = 57.64042 63.53124 60.58583
# Shear Modulus (GPa) = 24.97682 29.19741 27.08711
#
# Velocity S-wave (km/s) = 3.74091 4.04465 3.89575
# Velocity P-wave (km/s) = 7.13828 7.57685 7.36083
#
# Compressibility (1/GPa) = 0.01734894
#
# Stress axis : x y z
#
# Youngs Moduli (GPa) = 68.72438 83.96168 82.95955
#
# Poissons Ratio (x) = 0.04758 0.62287
# Poissons Ratio (y) = 0.03894 0.20809
# Poissons Ratio (z) = 0.51599 0.21061
#
# Static dielectric constant tensor:
#      x y z
#    x 3.210190 0.000000 0.000000 
#    y 0.000000 3.264240 0.000000 
#    z 0.000000 0.000000 3.093380 
# 
# 
# High freq. dielectric constant tensor:
#      x y z
#    x 1.692090 0.000000 0.000000 
#    y 0.000000 1.685120 0.000000 
#    z 0.000000 0.000000 1.681220 
# 
# From -- ./inp_files/4189.got.cif
#   From: 2010.03.12/outbox.cif.g09.slc.cpg/sg40_3_cif.got.tgz:4189.got - 2010.04.14 01:38:03.
