data_PCOD8184763
_publ_section_title
;
Structure prediction by ZEFSAII (Michael W. Deem and Ramdas Pophale) SiO2 
 PCOD8184763
Probable space group: A B A 2
;
_chemical_formula_sum "Si O2"
_cell_formula_units_Z 56
_cell_length_a 5.134641
_cell_length_b 26.217387
_cell_length_c 23.743871
_cell_angle_alpha 90.000000
_cell_angle_beta 90.000000
_cell_angle_gamma 90.000000
_cell_volume 3196.325601
_symmetry_space_group_name_H-M "A B A 2"
_symmetry_group_IT_number 41
_symmetry_cell_setting 'orthorhombic'
loop_
_space_group_symop_operation_xyz
x,y,z
-x,-y,z
1/2-x,y,1/2+z
1/2+x,-y,1/2+z
x,1/2+y,1/2+z
-x,1/2-y,1/2+z
1/2-x,1/2+y,z
1/2+x,1/2-y,z
loop_
_atom_site_type_symbol
_atom_site_label
_atom_site_fract_x
_atom_site_fract_y
_atom_site_fract_z
Si Si1 0.448071 0.942442 0.383290
Si Si2 0.952373 0.878717 0.370102
Si Si3 0.380796 0.642500 0.496040
Si Si4 0.962725 0.216379 0.290451
Si Si5 0.535561 0.443688 0.013166
Si Si6 0.423807 0.282333 0.162153
Si Si7 0.881691 0.653856 0.556050
O O1 0.676699 0.906101 0.360553
O O2 0.418346 0.941726 0.450504
O O3 0.175786 0.920904 0.360243
O O4 0.500000 0.000000 0.361708
O O5 0.960080 0.851760 0.431157
O O6 0.994605 0.834236 0.325621
O O7 0.329101 0.581268 0.509594
O O8 0.599504 0.670888 0.533527
O O9 0.109742 0.671592 0.512042
O O10 0.689104 0.243124 0.304224
O O11 0.963120 0.197929 0.225524
O O12 0.500000 0.500000 0.038155
O O13 0.367713 0.407988 0.054923
O O14 0.639803 0.240004 0.150024
O O15 0.450626 0.328947 0.118882
#
# Coordination Sequence:
#
# PCOD8184763 Si02
#       7
#     8   8   8   8   8   8   8
#     4  10  19  31  53  80 110 144 177 204 255 319
#     4  11  18  35  53  77 114 136 171 226 258 308
#     4   9  18  30  49  75 108 130 166 199 259 310
#     4  10  22  38  57  79  98 138 187 220 262 315
#     4   8  17  29  49  75 106 138 166 201 240 309
#     4  10  21  38  57  74  97 133 185 221 252 306
#     4  10  18  33  50  75 105 132 170 210 255 302
#
# _framework density 17.520116000000002
#
# number of rings (size 3 to 8) (size 9 to 14) (size 15 to 20)
#    0.857    1.429    1.429    2.143    0.000    0.571 
#    0.000    4.286    0.000    1.714    0.000    0.000 
#    0.000    0.000    0.000    0.000    0.000    0.000 
#
# Total GULP energy -346865.751802 kJ/mol
# GULP energy per Si atom -12388.062564 kJ/mol
# Density = 1.748024 g / cm^3
# Si number density = 17.520116 Si / 1000 Ang^3
#
#
#
# Elastic Constant Matrix: (Units=GPa)
#
#
# Indices 1 2 3 4 5 6 
#
# 1 94.2637 11.4138 27.6988 0.0000 0.0000 0.0000
# 2 11.4138 71.3136 53.0553 0.0000 0.0000 0.0000
# 3 27.6988 53.0553 79.8993 0.0000 0.0000 0.0000
# 4 0.0000 0.0000 0.0000 12.4802 0.0000 0.0000
# 5 0.0000 0.0000 0.0000 0.0000 17.5347 0.0000
# 6 0.0000 0.0000 0.0000 0.0000 0.0000 21.6054
#
#
#
# Elastic Compliance Matrix: (Units=1/GPa)
#
#
# Indices 1 2 3 4 5 6 
#
# 1 0.012003 0.002322 -0.005703 0.000000 0.000000 0.000000
# 2 0.002322 0.028163 -0.019506 0.000000 0.000000 0.000000
# 3 -0.005703 -0.019506 0.027445 0.000000 0.000000 0.000000
# 4 0.000000 0.000000 0.000000 0.080127 0.000000 0.000000
# 5 0.000000 0.000000 0.000000 0.000000 0.057030 0.000000
# 6 0.000000 0.000000 0.000000 0.000000 0.000000 0.046285
#
#
# Mechanical properties :
#
#
# Convention : Reuss Voigt Hill
#
# Bulk Modulus (GPa) = 45.79331 47.75693 46.77512
# Shear Modulus (GPa) = 16.44171 20.54464 18.49318
#
# Velocity S-wave (km/s) = 3.06673 3.42809 3.25243
# Velocity P-wave (km/s) = 6.22367 6.55641 6.39221
#
# Compressibility (1/GPa) = 0.02183725
#
# Stress axis : x y z
#
# Youngs Moduli (GPa) = 83.31150 35.50812 36.43659
#
# Poissons Ratio (x) = -0.08243 0.20779
# Poissons Ratio (y) = -0.19341 0.71072
# Poissons Ratio (z) = 0.47510 0.69260
#
# Static dielectric constant tensor:
#      x y z
#    x 3.449180 0.000000 0.000000 
#    y 0.000000 3.108110 0.000000 
#    z 0.000000 0.000000 3.038980 
# 
# 
# High freq. dielectric constant tensor:
#      x y z
#    x 1.696540 0.000000 0.000000 
#    y 0.000000 1.657840 0.000000 
#    z 0.000000 0.000000 1.645070 
# 
# From -- ./inp_files/11890.got.cif
#   From: 2010.03.12/outbox.cif.g09.slc.cpg/sg41_6_cif.got.tgz:11890.got - 2010.04.14 01:55:53.
