data_PCOD8184974
_publ_section_title
;
Structure prediction by ZEFSAII (Michael W. Deem and Ramdas Pophale) SiO2 
 PCOD8184974
Probable space group: A B A 2
;
_chemical_formula_sum "Si O2"
_cell_formula_units_Z 48
_cell_length_a 16.081482
_cell_length_b 17.067722
_cell_length_c 7.971803
_cell_angle_alpha 90.000000
_cell_angle_beta 90.000000
_cell_angle_gamma 90.000000
_cell_volume 2188.054762
_symmetry_space_group_name_H-M "A B A 2"
_symmetry_group_IT_number 41
_symmetry_cell_setting 'orthorhombic'
loop_
_space_group_symop_operation_xyz
x,y,z
-x,-y,z
1/2-x,y,1/2+z
1/2+x,-y,1/2+z
x,1/2+y,1/2+z
-x,1/2-y,1/2+z
1/2-x,1/2+y,z
1/2+x,1/2-y,z
loop_
_atom_site_type_symbol
_atom_site_label
_atom_site_fract_x
_atom_site_fract_y
_atom_site_fract_z
Si Si1 0.666650 0.654194 0.563690
Si Si2 0.914301 0.456688 0.863261
Si Si3 0.398240 0.209948 0.741470
Si Si4 0.462399 0.818249 0.501296
Si Si5 0.169653 0.899670 0.218850
Si Si6 0.495099 0.585555 0.698513
O O1 0.673537 0.741682 0.643910
O O2 0.742596 0.600037 0.624895
O O3 0.669360 0.666829 0.363349
O O4 0.581971 0.609525 0.611958
O O5 0.887330 0.383336 0.747079
O O6 0.841961 0.519262 0.824145
O O7 0.000000 0.500000 0.809864
O O8 0.923747 0.422224 0.053120
O O9 0.482829 0.225810 0.638182
O O10 0.406540 0.248644 0.924566
O O11 0.402820 0.883686 0.583841
O O12 0.520952 0.856745 0.355688
O O13 0.500000 0.500000 0.781176
#
# Coordination Sequence:
#
# PCOD8184974 Si02
#       6
#     8   8   8   8   8   8
#     4  11  23  42  66  96 140 182 227 283 359 413
#     4  11  21  43  70 100 137 178 236 284 345 417
#     4  11  22  39  66 101 126 179 226 278 333 424
#     4  11  22  37  69  99 136 172 238 279 344 410
#     4  12  24  45  68  99 144 184 223 302 357 419
#     4  10  20  38  68 103 131 181 230 280 337 423
#
# _framework density 21.937290999999998
#
# number of rings (size 3 to 8) (size 9 to 14) (size 15 to 20)
#    0.000    1.000    5.000    5.000    2.333    0.000 
#    0.000    3.333    0.000    0.000    0.000    0.000 
#    0.000    0.000    0.000    0.000    0.000    0.000 
#
# Total GULP energy -297333.609934 kJ/mol
# GULP energy per Si atom -12388.900414 kJ/mol
# Density = 2.188736 g / cm^3
# Si number density = 21.937291 Si / 1000 Ang^3
#
#
#
# Elastic Constant Matrix: (Units=GPa)
#
#
# Indices 1 2 3 4 5 6 
#
# 1 61.3307 21.8931 33.5784 0.0000 0.0000 0.0000
# 2 21.8931 118.1370 40.2891 0.0000 0.0000 0.0000
# 3 33.5784 40.2891 113.7362 0.0000 0.0000 0.0000
# 4 0.0000 0.0000 0.0000 29.0478 0.0000 0.0000
# 5 0.0000 0.0000 0.0000 0.0000 25.1509 0.0000
# 6 0.0000 0.0000 0.0000 0.0000 0.0000 24.9351
#
#
#
# Elastic Compliance Matrix: (Units=1/GPa)
#
#
# Indices 1 2 3 4 5 6 
#
# 1 0.019820 -0.001908 -0.005176 0.000000 0.000000 0.000000
# 2 -0.001908 0.009812 -0.002912 0.000000 0.000000 0.000000
# 3 -0.005176 -0.002912 0.011352 0.000000 0.000000 0.000000
# 4 0.000000 0.000000 0.000000 0.034426 0.000000 0.000000
# 5 0.000000 0.000000 0.000000 0.000000 0.039760 0.000000
# 6 0.000000 0.000000 0.000000 0.000000 0.000000 0.040104
#
#
# Mechanical properties :
#
#
# Convention : Reuss Voigt Hill
#
# Bulk Modulus (GPa) = 47.63806 53.85834 50.74820
# Shear Modulus (GPa) = 27.43302 28.98963 28.21133
#
# Velocity S-wave (km/s) = 3.54011 3.63916 3.58997
# Velocity P-wave (km/s) = 6.20262 6.50095 6.35353
#
# Compressibility (1/GPa) = 0.02099162
#
# Stress axis : x y z
#
# Youngs Moduli (GPa) = 50.45479 101.92101 88.09113
#
# Poissons Ratio (x) = 0.19446 0.45592
# Poissons Ratio (y) = 0.09626 0.25655
# Poissons Ratio (z) = 0.26113 0.29682
#
# Static dielectric constant tensor:
#      x y z
#    x 3.529270 0.000000 0.000000 
#    y 0.000000 4.141550 0.000000 
#    z 0.000000 0.000000 4.264260 
# 
# 
# High freq. dielectric constant tensor:
#      x y z
#    x 1.811420 0.000000 0.000000 
#    y 0.000000 1.868920 0.000000 
#    z 0.000000 0.000000 1.877820 
# 
# From -- ./inp_files/2552.got.cif
#   From: 2010.03.12/outbox.cif.g09.slc.cpg/sg41_2_cif.got.tgz:2552.got - 2010.04.14 01:55:53.
