data_PCOD8184043
_publ_section_title
;
Structure prediction by ZEFSAII (Michael W. Deem and Ramdas Pophale) SiO2 
 PCOD8184043
Probable space group: A M A 2
;
_chemical_formula_sum "Si O2"
_cell_formula_units_Z 48
_cell_length_a 23.191183
_cell_length_b 11.699494
_cell_length_c 9.457429
_cell_angle_alpha 90.000000
_cell_angle_beta 90.000000
_cell_angle_gamma 90.000000
_cell_volume 2566.037929
_symmetry_space_group_name_H-M "A M A 2"
_symmetry_group_IT_number 40
_symmetry_cell_setting 'orthorhombic'
loop_
_space_group_symop_operation_xyz
x,y,z
-x,-y,z
1/2-x,y,z
1/2+x,-y,z
x,1/2+y,1/2+z
-x,1/2-y,1/2+z
1/2-x,1/2+y,1/2+z
1/2+x,1/2-y,1/2+z
loop_
_atom_site_type_symbol
_atom_site_label
_atom_site_fract_x
_atom_site_fract_y
_atom_site_fract_z
Si Si1 0.976624 0.888090 0.590320
Si Si2 0.113184 0.267022 0.718454
Si Si3 0.683926 0.381121 0.432703
Si Si4 0.684513 0.686171 0.144689
Si Si5 0.316904 0.860603 0.961902
Si Si6 0.911202 0.078135 0.465109
O O1 0.948983 0.788101 0.682362
O O2 0.033815 0.840804 0.509711
O O3 0.930299 0.944371 0.477348
O O4 0.000000 0.000000 0.681563
O O5 0.147839 0.174194 0.807306
O O6 0.146416 0.291683 0.574894
O O7 0.105455 0.384653 0.805955
O O8 0.750000 0.382448 0.382343
O O9 0.675817 0.311313 0.577795
O O10 0.661732 0.508678 0.459447
O O11 0.750000 0.641990 0.121685
O O12 0.670761 0.696338 0.310257
O O13 0.642923 0.595475 0.069284
O O14 0.250000 0.853120 0.004792
#
# Coordination Sequence:
#
# PCOD8184043 Si02
#       6
#     8   8   8   8   8   8
#     4   8  20  38  51  75 111 134 174 232 261 305
#     4  11  19  35  59  78  99 147 183 216 268 316
#     4   9  19  35  53  80 115 140 171 219 265 320
#     4   9  17  33  55  80 111 143 172 214 270 320
#     4  10  21  33  52  84 112 138 178 220 264 319
#     4   8  19  36  55  78 106 140 177 216 269 314
#
# _framework density 18.705881999999999
#
# number of rings (size 3 to 8) (size 9 to 14) (size 15 to 20)
#    1.000    1.667    0.000    1.500    0.000    3.333 
#    0.000    4.167    0.000   12.000    0.000    0.000 
#    0.000    0.000    0.000    0.000    0.000    0.000 
#
# Total GULP energy -297349.341154 kJ/mol
# GULP energy per Si atom -12389.555881 kJ/mol
# Density = 1.866331 g / cm^3
# Si number density = 18.705882 Si / 1000 Ang^3
#
#
#
# Elastic Constant Matrix: (Units=GPa)
#
#
# Indices 1 2 3 4 5 6 
#
# 1 87.7543 24.3604 54.6730 0.0000 0.0000 0.0000
# 2 24.3604 54.6027 32.9077 0.0000 0.0000 0.0000
# 3 54.6730 32.9077 114.8979 0.0000 0.0000 0.0000
# 4 0.0000 0.0000 0.0000 17.0031 0.0000 0.0000
# 5 0.0000 0.0000 0.0000 0.0000 -4.8734 0.0000
# 6 0.0000 0.0000 0.0000 0.0000 0.0000 16.6362
#
#
#
# Elastic Compliance Matrix: (Units=1/GPa)
#
#
# Indices 1 2 3 4 5 6 
#
# 1 0.016649 -0.003207 -0.007004 0.000000 0.000000 0.000000
# 2 -0.003207 0.022752 -0.004991 0.000000 0.000000 0.000000
# 3 -0.007004 -0.004991 0.013465 0.000000 0.000000 0.000000
# 4 0.000000 0.000000 0.000000 0.058813 0.000000 0.000000
# 5 0.000000 0.000000 0.000000 0.000000 -0.205194 0.000000
# 6 0.000000 0.000000 0.000000 0.000000 0.000000 0.060110
#
#
# Mechanical properties :
#
#
# Convention : Reuss Voigt Hill
#
# Bulk Modulus (GPa) = 44.51445 53.45967 48.98706
# Shear Modulus (GPa) = 1114.50705 15.44077 564.97391
#
# Velocity S-wave (km/s) = 24.43561 2.87618 17.39787
# Velocity P-wave (km/s) = 28.63531 6.29849 20.73224
#
# Compressibility (1/GPa) = 0.02246461
#
# Stress axis : x y z
#
# Youngs Moduli (GPa) = 60.06271 43.95127 74.26405
#
# Poissons Ratio (x) = 0.14094 0.52014
# Poissons Ratio (y) = 0.19261 0.37062
# Poissons Ratio (z) = 0.42067 0.21934
#
# Static dielectric constant tensor:
#      x y z
#    x 3.524060 0.000000 0.000000 
#    y 0.000000 3.226720 0.000000 
#    z 0.000000 0.000000 3.266280 
# 
# 
# High freq. dielectric constant tensor:
#      x y z
#    x 1.733490 0.000000 0.000000 
#    y 0.000000 1.707310 0.000000 
#    z 0.000000 0.000000 1.710300 
# 
# From -- ./inp_files/8171.got.cif
#   From: 2010.03.12/outbox.cif.g09.slc.cpg/sg40_5_cif.got.tgz:8171.got - 2010.04.14 01:38:03.
