data_PCOD8184665
_publ_section_title
;
Structure prediction by ZEFSAII (Michael W. Deem and Ramdas Pophale) SiO2 
 PCOD8184665
Probable space group: A M A 2
;
_chemical_formula_sum "Si O2"
_cell_formula_units_Z 64
_cell_length_a 20.027355
_cell_length_b 18.357427
_cell_length_c 8.872864
_cell_angle_alpha 90.000000
_cell_angle_beta 90.000000
_cell_angle_gamma 90.000000
_cell_volume 3262.114726
_symmetry_space_group_name_H-M "A M A 2"
_symmetry_group_IT_number 40
_symmetry_cell_setting 'orthorhombic'
loop_
_space_group_symop_operation_xyz
x,y,z
-x,-y,z
1/2-x,y,z
1/2+x,-y,z
x,1/2+y,1/2+z
-x,1/2-y,1/2+z
1/2-x,1/2+y,1/2+z
1/2+x,1/2-y,1/2+z
loop_
_atom_site_type_symbol
_atom_site_label
_atom_site_fract_x
_atom_site_fract_y
_atom_site_fract_z
Si Si1 0.326940 0.209235 0.862030
Si Si2 0.562644 0.050486 0.360959
Si Si3 0.326946 0.709131 0.709431
Si Si4 0.327344 0.041773 0.208916
Si Si5 0.559031 0.204991 0.212513
Si Si6 0.062692 0.449581 0.210332
Si Si7 0.059082 0.795076 0.858847
Si Si8 0.172664 0.541879 0.362245
O O1 0.250000 0.226996 0.829449
O O2 0.369806 0.261711 0.757310
O O3 0.342866 0.125611 0.822175
O O4 0.344478 0.224637 0.035748
O O5 0.554567 0.122089 0.262730
O O6 0.565660 0.072030 0.535662
O O7 0.500000 0.000000 0.323440
O O8 0.630386 0.009206 0.318010
O O9 0.250000 0.726849 0.742062
O O10 0.342889 0.625489 0.749145
O O11 0.369822 0.761561 0.814212
O O12 0.250000 0.024232 0.237559
O O13 0.346201 0.026120 0.035559
O O14 0.500034 0.250177 0.285547
O O15 0.550197 0.209065 0.035671
O O16 0.054868 0.378021 0.308805
O O17 0.130392 0.491011 0.252954
O O18 0.000000 0.500000 0.247909
O O19 0.250000 0.524327 0.333577
#
# Coordination Sequence:
#
# PCOD8184665 Si02
#       8
#     8   8   8   8   8   8   8   8
#     4   9  19  38  63  89 119 154 191 234 285 341
#     4  11  24  40  59  85 115 149 192 239 287 341
#     4   9  19  38  63  89 119 154 191 234 285 341
#     4   9  19  37  61  88 117 151 190 231 281 340
#     4  12  25  40  60  85 116 153 193 239 289 343
#     4  11  24  40  59  85 115 149 192 239 287 341
#     4  12  25  40  60  85 116 153 193 239 289 343
#     4   9  19  37  61  88 117 151 190 231 281 340
#
# _framework density 19.619176
#
# number of rings (size 3 to 8) (size 9 to 14) (size 15 to 20)
#    0.000    1.750    0.000    6.000    0.000    9.000 
#    0.000    2.500    0.000    0.000    0.000    0.000 
#    0.000    0.000    0.000    0.000    0.000    0.000 
#
# Total GULP energy -396974.781829 kJ/mol
# GULP energy per Si atom -12405.461932 kJ/mol
# Density = 1.957452 g / cm^3
# Si number density = 19.619176 Si / 1000 Ang^3
#
#
#
# Elastic Constant Matrix: (Units=GPa)
#
#
# Indices 1 2 3 4 5 6 
#
# 1 107.2553 65.6250 64.9549 0.0000 0.0000 0.0000
# 2 65.6250 117.9653 73.6042 0.0000 0.0000 0.0000
# 3 64.9549 73.6042 133.7961 0.0000 0.0000 0.0000
# 4 0.0000 0.0000 0.0000 17.2620 0.0000 0.0000
# 5 0.0000 0.0000 0.0000 0.0000 31.8836 0.0000
# 6 0.0000 0.0000 0.0000 0.0000 0.0000 38.2058
#
#
#
# Elastic Compliance Matrix: (Units=1/GPa)
#
#
# Indices 1 2 3 4 5 6 
#
# 1 0.015579 -0.006011 -0.004257 0.000000 0.000000 0.000000
# 2 -0.006011 0.015227 -0.005458 0.000000 0.000000 0.000000
# 3 -0.004257 -0.005458 0.012543 0.000000 0.000000 0.000000
# 4 0.000000 0.000000 0.000000 0.057931 0.000000 0.000000
# 5 0.000000 0.000000 0.000000 0.000000 0.031364 0.000000
# 6 0.000000 0.000000 0.000000 0.000000 0.000000 0.026174
#
#
# Mechanical properties :
#
#
# Convention : Reuss Voigt Hill
#
# Bulk Modulus (GPa) = 84.05184 85.26500 84.65842
# Shear Modulus (GPa) = 25.74191 27.79247 26.76719
#
# Velocity S-wave (km/s) = 3.62619 3.76785 3.69770
# Velocity P-wave (km/s) = 7.77606 7.90464 7.84061
#
# Compressibility (1/GPa) = 0.01189742
#
# Stress axis : x y z
#
# Youngs Moduli (GPa) = 64.18800 65.67387 79.72371
#
# Poissons Ratio (x) = 0.39476 0.33935
# Poissons Ratio (y) = 0.38583 0.43516
# Poissons Ratio (z) = 0.27322 0.35847
#
# Static dielectric constant tensor:
#      x y z
#    x 3.674460 0.000000 0.000000 
#    y 0.000000 4.229920 0.000000 
#    z 0.000000 0.000000 3.547910 
# 
# 
# High freq. dielectric constant tensor:
#      x y z
#    x 1.777850 0.000000 0.000000 
#    y 0.000000 1.769710 0.000000 
#    z 0.000000 0.000000 1.764980 
# 
# From -- ./inp_files/8462.got.cif
#   From: 2010.03.12/outbox.cif.g09.slc.cpg/sg40_5_cif.got.tgz:8462.got - 2010.04.14 01:38:03.
