data_PCOD8184321
_publ_section_title
;
Structure prediction by ZEFSAII (Michael W. Deem and Ramdas Pophale) SiO2 
 PCOD8184321
Probable space group: A M A 2
;
_chemical_formula_sum "Si O2"
_cell_formula_units_Z 48
_cell_length_a 10.559967
_cell_length_b 24.716779
_cell_length_c 8.180850
_cell_angle_alpha 90.000000
_cell_angle_beta 90.000000
_cell_angle_gamma 90.000000
_cell_volume 2135.270329
_symmetry_space_group_name_H-M "A M A 2"
_symmetry_group_IT_number 40
_symmetry_cell_setting 'orthorhombic'
loop_
_space_group_symop_operation_xyz
x,y,z
-x,-y,z
1/2-x,y,z
1/2+x,-y,z
x,1/2+y,1/2+z
-x,1/2-y,1/2+z
1/2-x,1/2+y,1/2+z
1/2+x,1/2-y,1/2+z
loop_
_atom_site_type_symbol
_atom_site_label
_atom_site_fract_x
_atom_site_fract_y
_atom_site_fract_z
Si Si1 0.471570 0.181908 0.792360
Si Si2 0.250000 0.484953 0.269125
Si Si3 0.103157 0.791369 0.460449
Si Si4 0.250000 0.078306 0.257809
Si Si5 0.750000 0.394446 0.386368
Si Si6 0.979599 0.104632 0.297898
Si Si7 0.885143 0.598190 0.461857
Si Si8 0.250000 0.966677 0.398677
O O1 0.507736 0.199478 0.610495
O O2 0.416059 0.231647 0.892692
O O3 0.371095 0.133032 0.801832
O O4 0.595779 0.155849 0.873164
O O5 0.250000 0.542626 0.350721
O O6 0.124972 0.450886 0.329893
O O7 0.250000 0.493639 0.076245
O O8 0.250000 0.798782 0.511601
O O9 0.062900 0.833374 0.319859
O O10 0.376063 0.096154 0.359137
O O11 0.250000 0.012427 0.256245
O O12 0.250000 0.109036 0.083538
O O13 0.879129 0.067604 0.391972
O O14 0.987065 0.088485 0.104895
O O15 0.750000 0.602981 0.556244
#
# Coordination Sequence:
#
# PCOD8184321 Si02
#       8
#     8   4   8   4   4   8   8   4
#     4  12  26  46  77 105 146 190 250 312 379 448
#     4  10  26  44  72 111 149 193 248 309 367 452
#     4  12  27  49  75 107 147 197 251 320 376 458
#     4  12  28  46  69 110 149 187 253 314 370 449
#     4  12  26  49  71 107 152 190 242 311 387 445
#     4  12  24  47  77 103 149 196 250 305 385 450
#     4  10  21  46  73 107 140 199 240 295 371 456
#     4  12  24  47  74 108 148 202 253 306 380 466
#
# _framework density 22.479590999999999
#
# number of rings (size 3 to 8) (size 9 to 14) (size 15 to 20)
#    0.500    0.000    4.167    4.000    2.333    0.667 
#    7.500    0.000    0.000    0.000    0.000    0.000 
#    0.000    0.000    0.000    0.000    0.000    0.000 
#
# Total GULP energy -297487.506780 kJ/mol
# GULP energy per Si atom -12395.312783 kJ/mol
# Density = 2.242843 g / cm^3
# Si number density = 22.479591 Si / 1000 Ang^3
#
#
#
# Elastic Constant Matrix: (Units=GPa)
#
#
# Indices 1 2 3 4 5 6 
#
# 1 147.2124 49.9536 26.2573 0.0000 0.0000 0.0000
# 2 49.9536 132.6251 25.1616 0.0000 0.0000 0.0000
# 3 26.2573 25.1616 97.4882 0.0000 0.0000 0.0000
# 4 0.0000 0.0000 0.0000 34.2229 0.0000 0.0000
# 5 0.0000 0.0000 0.0000 0.0000 22.8285 0.0000
# 6 0.0000 0.0000 0.0000 0.0000 0.0000 40.1057
#
#
#
# Elastic Compliance Matrix: (Units=1/GPa)
#
#
# Indices 1 2 3 4 5 6 
#
# 1 0.007977 -0.002731 -0.001444 0.000000 0.000000 0.000000
# 2 -0.002731 0.008863 -0.001552 0.000000 0.000000 0.000000
# 3 -0.001444 -0.001552 0.011047 0.000000 0.000000 0.000000
# 4 0.000000 0.000000 0.000000 0.029220 0.000000 0.000000
# 5 0.000000 0.000000 0.000000 0.000000 0.043805 0.000000
# 6 0.000000 0.000000 0.000000 0.000000 0.000000 0.024934
#
#
# Mechanical properties :
#
#
# Convention : Reuss Voigt Hill
#
# Bulk Modulus (GPa) = 60.84870 64.45230 62.65050
# Shear Modulus (GPa) = 35.01957 37.82830 36.42394
#
# Velocity S-wave (km/s) = 3.95123 4.10663 4.02968
# Velocity P-wave (km/s) = 6.92412 7.15678 7.04141
#
# Compressibility (1/GPa) = 0.01643421
#
# Stress axis : x y z
#
# Youngs Moduli (GPa) = 125.36030 112.82842 90.52160
#
# Poissons Ratio (x) = 0.30810 0.13069
# Poissons Ratio (y) = 0.34232 0.14050
# Poissons Ratio (z) = 0.18099 0.17512
#
# Static dielectric constant tensor:
#      x y z
#    x 4.223130 0.000000 0.000000 
#    y 0.000000 3.985130 0.000000 
#    z 0.000000 0.000000 3.817090 
# 
# 
# High freq. dielectric constant tensor:
#      x y z
#    x 1.898570 0.000000 0.000000 
#    y 0.000000 1.890160 0.000000 
#    z 0.000000 0.000000 1.876700 
# 
# From -- ./inp_files/5468.got.cif
#   From: 2010.03.12/outbox.cif.g09.slc.cpg/sg40_3_cif.got.tgz:5468.got - 2010.04.14 01:38:03.
