data_PCOD8184250
_publ_section_title
;
Structure prediction by ZEFSAII (Michael W. Deem and Ramdas Pophale) SiO2 
 PCOD8184250
Probable space group: A M A 2
;
_chemical_formula_sum "Si O2"
_cell_formula_units_Z 64
_cell_length_a 8.979443
_cell_length_b 30.539071
_cell_length_c 11.856201
_cell_angle_alpha 90.000000
_cell_angle_beta 90.000000
_cell_angle_gamma 90.000000
_cell_volume 3251.253053
_symmetry_space_group_name_H-M "A M A 2"
_symmetry_group_IT_number 40
_symmetry_cell_setting 'orthorhombic'
loop_
_space_group_symop_operation_xyz
x,y,z
-x,-y,z
1/2-x,y,z
1/2+x,-y,z
x,1/2+y,1/2+z
-x,1/2-y,1/2+z
1/2-x,1/2+y,1/2+z
1/2+x,1/2-y,1/2+z
loop_
_atom_site_type_symbol
_atom_site_label
_atom_site_fract_x
_atom_site_fract_y
_atom_site_fract_z
Si Si1 0.079995 0.209849 0.669280
Si Si2 0.574636 0.044636 0.136700
Si Si3 0.924487 0.571745 0.386900
Si Si4 0.573708 0.127280 0.281294
Si Si5 0.577571 0.799543 0.138356
Si Si6 0.580479 0.338672 0.396635
Si Si7 0.924998 0.957426 0.666712
Si Si8 0.923828 0.373783 0.020273
O O1 0.250000 0.224215 0.647128
O O2 0.057314 0.196491 0.798656
O O3 0.035695 0.170027 0.587636
O O4 0.970747 0.249458 0.644469
O O5 0.750000 0.039646 0.149221
O O6 0.515650 0.085013 0.212179
O O7 0.500000 0.000000 0.180704
O O8 0.526599 0.053336 0.008223
O O9 0.750000 0.566049 0.365264
O O10 0.964685 0.622605 0.379186
O O11 0.015127 0.545207 0.293961
O O12 0.750000 0.129964 0.277657
O O13 0.511653 0.171589 0.227602
O O14 0.520319 0.123558 0.408593
O O15 0.750000 0.803285 0.169238
O O16 0.542945 0.815278 0.012951
O O17 0.750000 0.357102 0.393232
O O18 0.750000 0.963932 0.670067
O O19 0.971062 0.914546 0.597751
O O20 0.000000 0.000000 0.608700
O O21 0.750000 0.375741 0.989490
#
# Coordination Sequence:
#
# PCOD8184250 Si02
#       8
#     8   8   8   8   8   8   8   8
#     4  10  22  42  64  89 124 162 200 250 308 358
#     4  10  23  40  60  89 121 157 199 247 301 357
#     4  11  21  37  62  93 126 159 202 249 304 363
#     4  11  24  43  63  87 123 162 205 253 304 361
#     4  11  24  40  63  95 124 159 206 249 304 365
#     4  10  21  40  64  90 123 162 200 248 308 361
#     4  11  23  41  63  91 126 161 204 252 306 364
#     4  10  23  43  64  88 121 161 205 253 305 362
#
# _framework density 19.684716999999999
#
# number of rings (size 3 to 8) (size 9 to 14) (size 15 to 20)
#    0.000    1.500    2.500    1.875    1.750    6.000 
#    0.000    2.500    0.000    0.000    0.000    0.000 
#    0.000    0.000    0.000    0.000    0.000    0.000 
#
# Total GULP energy -396979.304815 kJ/mol
# GULP energy per Si atom -12405.603275 kJ/mol
# Density = 1.963991 g / cm^3
# Si number density = 19.684717 Si / 1000 Ang^3
#
#
#
# Elastic Constant Matrix: (Units=GPa)
#
#
# Indices 1 2 3 4 5 6 
#
# 1 67.6324 48.0268 47.9695 0.0000 0.0000 0.0000
# 2 48.0268 137.9927 45.0276 0.0000 0.0000 0.0000
# 3 47.9695 45.0276 111.7070 0.0000 0.0000 0.0000
# 4 0.0000 0.0000 0.0000 33.6541 0.0000 0.0000
# 5 0.0000 0.0000 0.0000 0.0000 52.7108 0.0000
# 6 0.0000 0.0000 0.0000 0.0000 0.0000 40.8360
#
#
#
# Elastic Compliance Matrix: (Units=1/GPa)
#
#
# Indices 1 2 3 4 5 6 
#
# 1 0.024898 -0.005961 -0.008289 0.000000 0.000000 0.000000
# 2 -0.005961 0.009771 -0.001379 0.000000 0.000000 0.000000
# 3 -0.008289 -0.001379 0.013067 0.000000 0.000000 0.000000
# 4 0.000000 0.000000 0.000000 0.029714 0.000000 0.000000
# 5 0.000000 0.000000 0.000000 0.000000 0.018971 0.000000
# 6 0.000000 0.000000 0.000000 0.000000 0.000000 0.024488
#
#
# Mechanical properties :
#
#
# Convention : Reuss Voigt Hill
#
# Bulk Modulus (GPa) = 60.68333 66.59775 63.64054
# Shear Modulus (GPa) = 31.71380 37.19407 34.45393
#
# Velocity S-wave (km/s) = 4.01819 4.35154 4.18818
# Velocity P-wave (km/s) = 7.24033 7.69113 7.46913
#
# Compressibility (1/GPa) = 0.01647899
#
# Stress axis : x y z
#
# Youngs Moduli (GPa) = 40.16450 102.34086 76.52675
#
# Poissons Ratio (x) = 0.61001 0.63433
# Poissons Ratio (y) = 0.23940 0.10553
# Poissons Ratio (z) = 0.33292 0.14113
#
# Static dielectric constant tensor:
#      x y z
#    x 3.512140 0.000000 0.000000 
#    y 0.000000 3.275170 0.000000 
#    z 0.000000 0.000000 3.674370 
# 
# 
# High freq. dielectric constant tensor:
#      x y z
#    x 1.767050 0.000000 0.000000 
#    y 0.000000 1.779500 0.000000 
#    z 0.000000 0.000000 1.772210 
# 
# From -- ./inp_files/10615.got.cif
#   From: 2010.03.12/outbox.cif.g09.slc.cpg/sg40_6_cif.got.tgz:10615.got - 2010.04.14 01:38:03.
