data_PCOD8184631
_publ_section_title
;
Structure prediction by ZEFSAII (Michael W. Deem and Ramdas Pophale) SiO2 
 PCOD8184631
Probable space group: A M A 2
;
_chemical_formula_sum "Si O2"
_cell_formula_units_Z 40
_cell_length_a 13.597400
_cell_length_b 17.578866
_cell_length_c 7.627927
_cell_angle_alpha 90.000000
_cell_angle_beta 90.000000
_cell_angle_gamma 90.000000
_cell_volume 1823.279535
_symmetry_space_group_name_H-M "A M A 2"
_symmetry_group_IT_number 40
_symmetry_cell_setting 'orthorhombic'
loop_
_space_group_symop_operation_xyz
x,y,z
-x,-y,z
1/2-x,y,z
1/2+x,-y,z
x,1/2+y,1/2+z
-x,1/2-y,1/2+z
1/2-x,1/2+y,1/2+z
1/2+x,1/2-y,1/2+z
loop_
_atom_site_type_symbol
_atom_site_label
_atom_site_fract_x
_atom_site_fract_y
_atom_site_fract_z
Si Si1 0.002880 0.824729 0.859620
Si Si2 0.394658 0.965244 0.421799
Si Si3 0.365891 0.294614 0.046829
Si Si4 0.860090 0.066316 0.034476
Si Si5 0.144468 0.555605 0.243778
O O1 0.940523 0.881586 0.735826
O O2 0.089197 0.788549 0.741759
O O3 0.925473 0.763762 0.927046
O O4 0.058802 0.866334 0.021741
O O5 0.382440 0.877167 0.466361
O O6 0.362088 0.976231 0.221211
O O7 0.500000 0.000000 0.450277
O O8 0.332722 0.015412 0.557700
O O9 0.250000 0.274055 0.051820
O O10 0.750000 0.098732 0.001728
O O11 0.889173 0.006508 0.885683
O O12 0.250000 0.591486 0.301151
#
# Coordination Sequence:
#
# PCOD8184631 Si02
#       5
#     8   8   8   8   8
#     4  12  24  45  68 101 145 188 235 295 351 419
#     4  12  22  42  71 100 134 181 234 286 344 420
#     4  12  26  45  70 100 142 191 236 291 361 424
#     4  11  23  40  69 103 140 185 234 287 349 417
#     4  11  22  42  69 101 137 180 234 289 347 413
#
# _framework density 21.938490999999999
#
# number of rings (size 3 to 8) (size 9 to 14) (size 15 to 20)
#    0.000    0.400    4.000    6.000    0.000    0.000 
#    0.000    3.000    0.000    0.000    0.000    0.000 
#    0.000    0.000    0.000    0.000    0.000    0.000 
#
# Total GULP energy -247908.671532 kJ/mol
# GULP energy per Si atom -12395.433577 kJ/mol
# Density = 2.188856 g / cm^3
# Si number density = 21.938491 Si / 1000 Ang^3
#
#
#
# Elastic Constant Matrix: (Units=GPa)
#
#
# Indices 1 2 3 4 5 6 
#
# 1 157.0849 46.7670 19.5910 0.0000 0.0000 0.0000
# 2 46.7670 73.1571 21.5069 0.0000 0.0000 0.0000
# 3 19.5910 21.5069 122.7560 0.0000 0.0000 0.0000
# 4 0.0000 0.0000 0.0000 -20.0667 0.0000 0.0000
# 5 0.0000 0.0000 0.0000 0.0000 47.7609 0.0000
# 6 0.0000 0.0000 0.0000 0.0000 0.0000 19.4110
#
#
#
# Elastic Compliance Matrix: (Units=1/GPa)
#
#
# Indices 1 2 3 4 5 6 
#
# 1 0.007881 -0.004922 -0.000395 0.000000 0.000000 0.000000
# 2 -0.004922 0.017485 -0.002278 0.000000 0.000000 0.000000
# 3 -0.000395 -0.002278 0.008608 0.000000 0.000000 0.000000
# 4 0.000000 0.000000 0.000000 -0.049834 0.000000 0.000000
# 5 0.000000 0.000000 0.000000 0.000000 0.020938 0.000000
# 6 0.000000 0.000000 0.000000 0.000000 0.000000 0.051517
#
#
# Mechanical properties :
#
#
# Convention : Reuss Voigt Hill
#
# Bulk Modulus (GPa) = 53.23610 58.74753 55.99181
# Shear Modulus (GPa) = 64.06462 27.09659 45.58060
#
# Velocity S-wave (km/s) = 5.40974 3.51823 4.56307
# Velocity P-wave (km/s) = 7.95859 6.58334 7.30341
#
# Compressibility (1/GPa) = 0.01878425
#
# Stress axis : x y z
#
# Youngs Moduli (GPa) = 126.89514 57.19170 116.16495
#
# Poissons Ratio (x) = 0.28147 0.04593
# Poissons Ratio (y) = 0.62452 0.26462
# Poissons Ratio (z) = 0.05018 0.13028
#
# Static dielectric constant tensor:
#      x y z
#    x 4.275190 0.000000 0.000000 
#    y 0.000000 3.949020 0.000000 
#    z 0.000000 0.000000 4.171120 
# 
# 
# High freq. dielectric constant tensor:
#      x y z
#    x 1.896390 0.000000 0.000000 
#    y 0.000000 1.838220 0.000000 
#    z 0.000000 0.000000 1.866100 
# 
# From -- ./inp_files/6135.got.cif
#   From: 2010.03.12/outbox.cif.g09.slc.cpg/sg40_4_cif.got.tgz:6135.got - 2010.04.14 01:38:03.
