data_PCOD8184561
_publ_section_title
;
Structure prediction by ZEFSAII (Michael W. Deem and Ramdas Pophale) SiO2 
 PCOD8184561
Probable space group: A M A 2
;
_chemical_formula_sum "Si O2"
_cell_formula_units_Z 52
_cell_length_a 15.119719
_cell_length_b 21.646841
_cell_length_c 7.685436
_cell_angle_alpha 90.000000
_cell_angle_beta 90.000000
_cell_angle_gamma 90.000000
_cell_volume 2515.398267
_symmetry_space_group_name_H-M "A M A 2"
_symmetry_group_IT_number 40
_symmetry_cell_setting 'orthorhombic'
loop_
_space_group_symop_operation_xyz
x,y,z
-x,-y,z
1/2-x,y,z
1/2+x,-y,z
x,1/2+y,1/2+z
-x,1/2-y,1/2+z
1/2-x,1/2+y,1/2+z
1/2+x,1/2-y,1/2+z
loop_
_atom_site_type_symbol
_atom_site_label
_atom_site_fract_x
_atom_site_fract_y
_atom_site_fract_z
Si Si1 0.750000 0.677164 0.893270
Si Si2 0.148371 0.610080 0.915215
Si Si3 0.603245 0.775037 0.889991
Si Si4 0.349579 0.091037 0.792543
Si Si5 0.912361 0.765380 0.291086
Si Si6 0.750000 0.078367 0.096329
Si Si7 0.902810 0.980267 0.110882
Si Si8 0.750000 0.178644 0.801022
O O1 0.662790 0.715953 0.844064
O O2 0.750000 0.616514 0.775585
O O3 0.750000 0.658727 0.097656
O O4 0.250000 0.631460 0.919764
O O5 0.089941 0.672118 0.903946
O O6 0.135198 0.565193 0.754633
O O7 0.123465 0.574363 0.094038
O O8 0.645716 0.835255 0.806165
O O9 0.506170 0.766884 0.812698
O O10 0.602278 0.786112 0.094623
O O11 0.250000 0.069131 0.834469
O O12 0.412518 0.055348 0.926646
O O13 0.836702 0.717901 0.349549
O O14 0.839091 0.038613 0.093589
O O15 0.750000 0.118657 0.921530
O O16 0.000000 0.000000 0.169669
#
# Coordination Sequence:
#
# PCOD8184561 Si02
#       8
#     4   8   8   8   8   4   8   4
#     4  10  26  43  63  99 137 178 214 273 338 400
#     4  11  23  43  72 100 130 178 233 282 333 398
#     4  11  23  40  67 101 140 171 218 279 340 402
#     4  11  23  43  72 100 130 178 233 282 333 398
#     4  11  23  40  67 101 140 171 218 279 340 402
#     4  12  28  46  70  90 142 184 224 268 344 402
#     4  12  28  48  70  98 136 186 231 283 329 404
#     4  10  26  43  63  99 137 178 214 273 338 400
#
# _framework density 20.672671000000001
#
# number of rings (size 3 to 8) (size 9 to 14) (size 15 to 20)
#    0.000    0.923    4.615    0.923    8.615    1.846 
#    0.000    0.000    0.000    0.000    0.000    0.000 
#    0.000    0.000    0.000    0.000    0.000    0.000 
#
# Total GULP energy -322535.177886 kJ/mol
# GULP energy per Si atom -12405.199149 kJ/mol
# Density = 2.062562 g / cm^3
# Si number density = 20.672671 Si / 1000 Ang^3
#
#
#
# Elastic Constant Matrix: (Units=GPa)
#
#
# Indices 1 2 3 4 5 6 
#
# 1 105.7695 27.5370 20.6522 0.0000 0.0000 0.0000
# 2 27.5370 102.6035 49.2192 0.0000 0.0000 0.0000
# 3 20.6522 49.2192 110.7371 0.0000 0.0000 0.0000
# 4 0.0000 0.0000 0.0000 -8.8050 0.0000 0.0000
# 5 0.0000 0.0000 0.0000 0.0000 25.3499 0.0000
# 6 0.0000 0.0000 0.0000 0.0000 0.0000 22.9510
#
#
#
# Elastic Compliance Matrix: (Units=1/GPa)
#
#
# Indices 1 2 3 4 5 6 
#
# 1 0.010231 -0.002327 -0.000874 0.000000 0.000000 0.000000
# 2 -0.002327 0.012916 -0.005307 0.000000 0.000000 0.000000
# 3 -0.000874 -0.005307 0.011552 0.000000 0.000000 0.000000
# 4 0.000000 0.000000 0.000000 -0.113572 0.000000 0.000000
# 5 0.000000 0.000000 0.000000 0.000000 0.039448 0.000000
# 6 0.000000 0.000000 0.000000 0.000000 0.000000 0.043571
#
#
# Mechanical properties :
#
#
# Convention : Reuss Voigt Hill
#
# Bulk Modulus (GPa) = 56.54696 57.10298 56.82497
# Shear Modulus (GPa) = 184.79959 22.67930 103.73945
#
# Velocity S-wave (km/s) = 9.46505 3.31579 7.09161
# Velocity P-wave (km/s) = 12.11869 6.50705 9.72636
#
# Compressibility (1/GPa) = 0.01768442
#
# Stress axis : x y z
#
# Youngs Moduli (GPa) = 97.74325 77.42050 86.56344
#
# Poissons Ratio (x) = 0.18012 0.07565
# Poissons Ratio (y) = 0.22740 0.45940
# Poissons Ratio (z) = 0.08542 0.41088
#
# Static dielectric constant tensor:
#      x y z
#    x 3.577660 0.000000 0.000000 
#    y 0.000000 8.267230 0.000000 
#    z 0.000000 0.000000 3.956120 
# 
# 
# High freq. dielectric constant tensor:
#      x y z
#    x 1.810130 0.000000 0.000000 
#    y 0.000000 1.801800 0.000000 
#    z 0.000000 0.000000 1.827220 
# 
# From -- ./inp_files/6684.got.cif
#   From: 2010.03.12/outbox.cif.g09.slc.cpg/sg40_4_cif.got.tgz:6684.got - 2010.04.14 01:38:03.
