data_PCOD8184820
_publ_section_title
;
Structure prediction by ZEFSAII (Michael W. Deem and Ramdas Pophale) SiO2 
 PCOD8184820
Probable space group: A B A 2
;
_chemical_formula_sum "Si O2"
_cell_formula_units_Z 48
_cell_length_a 18.346940
_cell_length_b 8.909571
_cell_length_c 16.144617
_cell_angle_alpha 90.000000
_cell_angle_beta 90.000000
_cell_angle_gamma 90.000000
_cell_volume 2639.053414
_symmetry_space_group_name_H-M "A B A 2"
_symmetry_group_IT_number 41
_symmetry_cell_setting 'orthorhombic'
loop_
_space_group_symop_operation_xyz
x,y,z
-x,-y,z
1/2-x,y,1/2+z
1/2+x,-y,1/2+z
x,1/2+y,1/2+z
-x,1/2-y,1/2+z
1/2-x,1/2+y,z
1/2+x,1/2-y,z
loop_
_atom_site_type_symbol
_atom_site_label
_atom_site_fract_x
_atom_site_fract_y
_atom_site_fract_z
Si Si1 0.076103 0.073027 0.959940
Si Si2 0.922051 0.076273 0.488103
Si Si3 0.292541 0.580047 0.067886
Si Si4 0.826229 0.618801 0.141572
Si Si5 0.798005 0.889264 0.408593
Si Si6 0.171035 0.429669 0.330618
O O1 0.071499 0.252527 0.958762
O O2 0.102172 0.015190 0.870361
O O3 0.133939 0.012895 0.027805
O O4 0.000000 0.000000 0.984621
O O5 0.890826 0.064688 0.581227
O O6 0.868594 0.991174 0.425175
O O7 0.000000 0.000000 0.485766
O O8 0.251011 0.450392 0.115506
O O9 0.314544 0.703752 0.135178
O O10 0.244270 0.651774 0.993542
O O11 0.846808 0.573088 0.233785
O O12 0.823288 0.737242 0.366033
O O13 0.745684 0.981182 0.347052
#
# Coordination Sequence:
#
# PCOD8184820 Si02
#       6
#     8   8   8   8   8   8
#     4  10  20  35  56  78 103 139 180 215 256 311
#     4  10  21  37  55  76 103 141 180 214 254 311
#     4   9  18  34  53  76 102 137 177 209 252 311
#     4  10  20  33  54  80 107 133 168 217 264 305
#     4  10  19  34  55  78 105 139 178 212 253 311
#     4  11  20  33  55  82 108 135 169 219 265 305
#
# _framework density 18.188338999999999
#
# number of rings (size 3 to 8) (size 9 to 14) (size 15 to 20)
#    0.000    2.000    0.000    7.000    0.000    2.000 
#    0.000    0.000    0.000   23.000    0.000    0.000 
#    0.000    0.000    0.000    0.000    0.000    0.000 
#
# Total GULP energy -297643.643140 kJ/mol
# GULP energy per Si atom -12401.818464 kJ/mol
# Density = 1.814694 g / cm^3
# Si number density = 18.188339 Si / 1000 Ang^3
#
#
#
# Elastic Constant Matrix: (Units=GPa)
#
#
# Indices 1 2 3 4 5 6 
#
# 1 120.9314 44.0903 31.6786 0.0000 0.0000 0.0000
# 2 44.0903 98.3858 44.3303 0.0000 0.0000 0.0000
# 3 31.6786 44.3303 110.2985 0.0000 0.0000 0.0000
# 4 0.0000 0.0000 0.0000 24.8503 0.0000 0.0000
# 5 0.0000 0.0000 0.0000 0.0000 14.6084 0.0000
# 6 0.0000 0.0000 0.0000 0.0000 0.0000 34.9846
#
#
#
# Elastic Compliance Matrix: (Units=1/GPa)
#
#
# Indices 1 2 3 4 5 6 
#
# 1 0.010037 -0.003907 -0.001313 0.000000 0.000000 0.000000
# 2 -0.003907 0.013932 -0.004478 0.000000 0.000000 0.000000
# 3 -0.001313 -0.004478 0.011243 0.000000 0.000000 0.000000
# 4 0.000000 0.000000 0.000000 0.040241 0.000000 0.000000
# 5 0.000000 0.000000 0.000000 0.000000 0.068454 0.000000
# 6 0.000000 0.000000 0.000000 0.000000 0.000000 0.028584
#
#
# Mechanical properties :
#
#
# Convention : Reuss Voigt Hill
#
# Bulk Modulus (GPa) = 63.21593 63.31266 63.26430
# Shear Modulus (GPa) = 25.36040 28.85643 27.10842
#
# Velocity S-wave (km/s) = 3.73811 3.98745 3.86479
# Velocity P-wave (km/s) = 7.31184 7.48898 7.40094
#
# Compressibility (1/GPa) = 0.01581880
#
# Stress axis : x y z
#
# Youngs Moduli (GPa) = 99.62802 71.77592 88.94513
#
# Poissons Ratio (x) = 0.28040 0.11676
# Poissons Ratio (y) = 0.38921 0.39825
# Poissons Ratio (z) = 0.13078 0.32138
#
# Static dielectric constant tensor:
#      x y z
#    x 3.421520 0.000000 0.000000 
#    y 0.000000 3.411330 0.000000 
#    z 0.000000 0.000000 3.278720 
# 
# 
# High freq. dielectric constant tensor:
#      x y z
#    x 1.703760 0.000000 0.000000 
#    y 0.000000 1.715640 0.000000 
#    z 0.000000 0.000000 1.691300 
# 
# From -- ./inp_files/8704.got.cif
#   From: 2010.03.12/outbox.cif.g09.slc.cpg/sg41_5_cif.got.tgz:8704.got - 2010.04.14 01:55:53.
