data_PCOD8184210
_publ_section_title
;
Structure prediction by ZEFSAII (Michael W. Deem and Ramdas Pophale) SiO2 
 PCOD8184210
Probable space group: A M A 2
;
_chemical_formula_sum "Si O2"
_cell_formula_units_Z 48
_cell_length_a 8.723023
_cell_length_b 18.420617
_cell_length_c 14.938096
_cell_angle_alpha 90.000000
_cell_angle_beta 90.000000
_cell_angle_gamma 90.000000
_cell_volume 2400.305037
_symmetry_space_group_name_H-M "A M A 2"
_symmetry_group_IT_number 40
_symmetry_cell_setting 'orthorhombic'
loop_
_space_group_symop_operation_xyz
x,y,z
-x,-y,z
1/2-x,y,z
1/2+x,-y,z
x,1/2+y,1/2+z
-x,1/2-y,1/2+z
1/2-x,1/2+y,1/2+z
1/2+x,1/2-y,1/2+z
loop_
_atom_site_type_symbol
_atom_site_label
_atom_site_fract_x
_atom_site_fract_y
_atom_site_fract_z
Si Si1 0.427806 0.698278 0.948810
Si Si2 0.929999 0.646594 0.644372
Si Si3 0.074095 0.687041 0.153168
Si Si4 0.930328 0.075726 0.784955
Si Si5 0.569413 0.850951 0.953631
Si Si6 0.069339 0.575234 0.812260
O O1 0.250000 0.719372 0.935135
O O2 0.527422 0.768843 0.926712
O O3 0.484363 0.636280 0.881912
O O4 0.454633 0.669401 0.049087
O O5 0.750000 0.633397 0.642564
O O6 0.969406 0.729255 0.671132
O O7 0.994973 0.627006 0.547452
O O8 0.006948 0.592682 0.714192
O O9 0.250000 0.671724 0.180243
O O10 0.963888 0.637383 0.211738
O O11 0.750000 0.068513 0.797347
O O12 0.006570 0.094452 0.879457
O O13 0.000000 0.000000 0.750092
O O14 0.750000 0.859068 0.960495
O O15 0.250000 0.568825 0.808750
O O16 0.000000 0.500000 0.846685
#
# Coordination Sequence:
#
# PCOD8184210 Si02
#       6
#     8   8   8   8   8   8
#     4   9  20  39  62  87 116 151 192 237 282 334
#     4  10  21  39  62  87 116 150 190 236 284 337
#     4   9  19  38  62  88 116 147 187 236 286 336
#     4  12  25  40  58  83 117 154 192 235 286 342
#     4  11  22  38  62  89 115 147 190 237 286 340
#     4  11  23  38  57  84 118 155 194 235 284 339
#
# _framework density 19.997458000000002
#
# number of rings (size 3 to 8) (size 9 to 14) (size 15 to 20)
#    0.000    1.667    0.000    6.000    0.000    8.667 
#    0.000    5.000    0.000    0.000    0.000    0.000 
#    0.000    0.000    0.000    0.000    0.000    0.000 
#
# Total GULP energy -297754.003510 kJ/mol
# GULP energy per Si atom -12406.416813 kJ/mol
# Density = 1.995194 g / cm^3
# Si number density = 19.997458 Si / 1000 Ang^3
#
#
#
# Elastic Constant Matrix: (Units=GPa)
#
#
# Indices 1 2 3 4 5 6 
#
# 1 32.9793 13.2656 -0.6020 0.0000 0.0000 0.0000
# 2 13.2656 49.7535 14.2028 0.0000 0.0000 0.0000
# 3 -0.6020 14.2028 57.5213 0.0000 0.0000 0.0000
# 4 0.0000 0.0000 0.0000 14.7279 0.0000 0.0000
# 5 0.0000 0.0000 0.0000 0.0000 33.8598 0.0000
# 6 0.0000 0.0000 0.0000 0.0000 0.0000 35.1102
#
#
#
# Elastic Compliance Matrix: (Units=1/GPa)
#
#
# Indices 1 2 3 4 5 6 
#
# 1 0.034385 -0.009974 0.002823 0.000000 0.000000 0.000000
# 2 -0.009974 0.024516 -0.006158 0.000000 0.000000 0.000000
# 3 0.002823 -0.006158 0.018935 0.000000 0.000000 0.000000
# 4 0.000000 0.000000 0.000000 0.067899 0.000000 0.000000
# 5 0.000000 0.000000 0.000000 0.000000 0.029534 0.000000
# 6 0.000000 0.000000 0.000000 0.000000 0.000000 0.028482
#
#
# Mechanical properties :
#
#
# Convention : Reuss Voigt Hill
#
# Bulk Modulus (GPa) = 19.52424 21.55412 20.53918
# Shear Modulus (GPa) = 20.20682 24.29875 22.25278
#
# Velocity S-wave (km/s) = 3.18224 3.48960 3.33946
# Velocity P-wave (km/s) = 4.82563 5.19983 5.01622
#
# Compressibility (1/GPa) = 0.05121837
#
# Stress axis : x y z
#
# Youngs Moduli (GPa) = 29.08205 40.78936 52.81273
#
# Poissons Ratio (x) = 0.40683 -0.14907
# Poissons Ratio (y) = 0.29006 0.32521
# Poissons Ratio (z) = -0.08209 0.25117
#
# Static dielectric constant tensor:
#      x y z
#    x 3.604690 0.000000 0.000000 
#    y 0.000000 3.623480 0.000000 
#    z 0.000000 0.000000 3.742890 
# 
# 
# High freq. dielectric constant tensor:
#      x y z
#    x 1.786660 0.000000 0.000000 
#    y 0.000000 1.778510 0.000000 
#    z 0.000000 0.000000 1.789400 
# 
# From -- ./inp_files/15015.got.cif
#   From: 2010.03.12/outbox.cif.g09.slc.cpg/sg40_8_cif.got.tgz:15015.got - 2010.04.14 01:38:03.
