data_PCOD8184731
_publ_section_title
;
Structure prediction by ZEFSAII (Michael W. Deem and Ramdas Pophale) SiO2 
 PCOD8184731
Probable space group: A B A 2
;
_chemical_formula_sum "Si O2"
_cell_formula_units_Z 48
_cell_length_a 5.294666
_cell_length_b 12.733262
_cell_length_c 27.590516
_cell_angle_alpha 90.000000
_cell_angle_beta 90.000000
_cell_angle_gamma 90.000000
_cell_volume 1860.107599
_symmetry_space_group_name_H-M "A B A 2"
_symmetry_group_IT_number 41
_symmetry_cell_setting 'orthorhombic'
loop_
_space_group_symop_operation_xyz
x,y,z
-x,-y,z
1/2-x,y,1/2+z
1/2+x,-y,1/2+z
x,1/2+y,1/2+z
-x,1/2-y,1/2+z
1/2-x,1/2+y,z
1/2+x,1/2-y,z
loop_
_atom_site_type_symbol
_atom_site_label
_atom_site_fract_x
_atom_site_fract_y
_atom_site_fract_z
Si Si1 0.753576 0.107382 0.507340
Si Si2 0.755672 0.875579 0.048580
Si Si3 0.653239 0.360709 0.160153
Si Si4 0.205542 0.317494 0.406186
Si Si5 0.267927 0.815582 0.800956
Si Si6 0.347050 0.875499 0.199218
O O1 0.508867 0.173588 0.524879
O O2 0.746874 0.096717 0.448761
O O3 0.000426 0.172326 0.524960
O O4 0.748857 0.997782 0.534855
O O5 0.756833 0.851745 0.105255
O O6 0.603059 0.247323 0.184899
O O7 0.381937 0.420169 0.165559
O O8 0.875400 0.426372 0.188451
O O9 0.423819 0.229509 0.411140
O O10 0.232732 0.372845 0.353233
O O11 0.555200 0.775046 0.797348
O O12 0.222486 0.892874 0.755658
#
# Coordination Sequence:
#
# PCOD8184731 Si02
#       6
#     8   8   8   8   8   8
#     4  10  21  40  54  77 106 151 189 231 265 325
#     4  10  21  37  58  73 106 154 194 221 266 321
#     4  10  18  30  48  79 104 148 175 218 263 323
#     4  10  21  35  55  84 113 141 179 232 282 322
#     4  10  16  30  51  75 113 146 165 214 283 334
#     4  10  17  30  48  78 120 132 170 224 271 327
#
# _framework density 25.804957999999999
#
# number of rings (size 3 to 8) (size 9 to 14) (size 15 to 20)
#    0.000    2.000    3.333    2.000    0.000    0.000 
#   18.000    0.000    0.000    0.000    0.000   28.000 
#    0.000    0.000    0.000    0.000    0.000    0.000 
#
# Total GULP energy -297325.046183 kJ/mol
# GULP energy per Si atom -12388.543591 kJ/mol
# Density = 2.574623 g / cm^3
# Si number density = 25.804958 Si / 1000 Ang^3
#
#
#
# Elastic Constant Matrix: (Units=GPa)
#
#
# Indices 1 2 3 4 5 6 
#
# 1 250.0004 -8.5690 43.4014 0.0000 0.0000 0.0000
# 2 -8.5690 44.2937 -3.1414 0.0000 0.0000 0.0000
# 3 43.4014 -3.1414 214.4907 0.0000 0.0000 0.0000
# 4 0.0000 0.0000 0.0000 -262.2337 0.0000 0.0000
# 5 0.0000 0.0000 0.0000 0.0000 52.2746 0.0000
# 6 0.0000 0.0000 0.0000 0.0000 0.0000 -60.9139
#
#
#
# Elastic Compliance Matrix: (Units=1/GPa)
#
#
# Indices 1 2 3 4 5 6 
#
# 1 0.004170 0.000748 -0.000833 0.000000 0.000000 0.000000
# 2 0.000748 0.022734 0.000182 0.000000 0.000000 0.000000
# 3 -0.000833 0.000182 0.004833 0.000000 0.000000 0.000000
# 4 0.000000 0.000000 0.000000 -0.003813 0.000000 0.000000
# 5 0.000000 0.000000 0.000000 0.000000 0.019130 0.000000
# 6 0.000000 0.000000 0.000000 0.000000 0.000000 -0.016417
#
#
# Mechanical properties :
#
#
# Convention : Reuss Voigt Hill
#
# Bulk Modulus (GPa) = 31.31786 63.57410 47.44598
# Shear Modulus (GPa) = 121.68998 -22.36834 49.66082
#
# Velocity S-wave (km/s) = 6.87459 -2.94738 4.39164
# Velocity P-wave (km/s) = 8.67041 3.62038 6.64391
#
# Compressibility (1/GPa) = 0.03193066
#
# Stress axis : x y z
#
# Youngs Moduli (GPa) = 239.79586 43.98682 206.89383
#
# Poissons Ratio (x) = -0.03289 0.17232
# Poissons Ratio (y) = -0.17929 -0.03759
# Poissons Ratio (z) = 0.19972 -0.00799
#
# Static dielectric constant tensor:
#      x y z
#    x 1.457220 0.000000 0.000000 
#    y 0.000000 4.141590 0.000000 
#    z 0.000000 0.000000 4.830090 
# 
# 
# High freq. dielectric constant tensor:
#      x y z
#    x 2.083130 0.000000 0.000000 
#    y 0.000000 2.003890 0.000000 
#    z 0.000000 0.000000 2.034170 
# 
# From -- ./inp_files/11848.got.cif
#   From: 2010.03.12/outbox.cif.g09.slc.cpg/sg41_6_cif.got.tgz:11848.got - 2010.04.14 01:55:53.
