data_PCOD8184092
_publ_section_title
;
Structure prediction by ZEFSAII (Michael W. Deem and Ramdas Pophale) SiO2 
 PCOD8184092
Probable space group: A M A 2
;
_chemical_formula_sum "Si O2"
_cell_formula_units_Z 40
_cell_length_a 16.415684
_cell_length_b 12.142802
_cell_length_c 9.949352
_cell_angle_alpha 90.000000
_cell_angle_beta 90.000000
_cell_angle_gamma 90.000000
_cell_volume 1983.228218
_symmetry_space_group_name_H-M "A M A 2"
_symmetry_group_IT_number 40
_symmetry_cell_setting 'orthorhombic'
loop_
_space_group_symop_operation_xyz
x,y,z
-x,-y,z
1/2-x,y,z
1/2+x,-y,z
x,1/2+y,1/2+z
-x,1/2-y,1/2+z
1/2-x,1/2+y,1/2+z
1/2+x,1/2-y,1/2+z
loop_
_atom_site_type_symbol
_atom_site_label
_atom_site_fract_x
_atom_site_fract_y
_atom_site_fract_z
Si Si1 0.660336 0.746123 0.814160
Si Si2 0.161708 0.999067 0.816009
Si Si3 0.500000 0.500000 0.719067
Si Si4 0.889614 0.645922 0.543964
Si Si5 0.000000 0.500000 0.156411
Si Si6 0.996202 0.829890 0.432366
O O1 0.750000 0.703645 0.858085
O O2 0.650785 0.873340 0.853004
O O3 0.652738 0.726793 0.652327
O O4 0.592300 0.681956 0.899567
O O5 0.250000 0.985607 0.739832
O O6 0.080584 0.965085 0.737233
O O7 0.170771 0.919666 0.945857
O O8 0.568211 0.548614 0.624788
O O9 0.540951 0.404194 0.811781
O O10 0.951729 0.713339 0.447362
O O11 0.019186 0.607979 0.071251
#
# Coordination Sequence:
#
# PCOD8184092 Si02
#       6
#     8   8   4   8   4   8
#     4  10  21  38  58  86 120 158 203 254 307 360
#     4  11  23  38  61  91 121 160 205 249 303 367
#     4   9  21  34  56  92 111 149 208 248 292 361
#     4  11  20  38  62  84 120 159 196 252 301 359
#     4  11  21  40  60  90 127 155 204 258 296 367
#     4  10  21  36  61  88 115 160 203 244 305 362
#
# _framework density 20.169136999999999
#
# number of rings (size 3 to 8) (size 9 to 14) (size 15 to 20)
#    0.000    1.600    2.000    3.600    2.800    0.800 
#    0.000    0.000    0.000    2.400    0.000    0.000 
#    0.000    0.000    0.000    0.000    0.000    0.000 
#
# Total GULP energy -247802.919637 kJ/mol
# GULP energy per Si atom -12390.145982 kJ/mol
# Density = 2.012323 g / cm^3
# Si number density = 20.169137 Si / 1000 Ang^3
#
#
#
# Elastic Constant Matrix: (Units=GPa)
#
#
# Indices 1 2 3 4 5 6 
#
# 1 111.4997 41.7540 37.2067 0.0000 0.0000 0.0000
# 2 41.7540 102.2406 38.9786 0.0000 0.0000 0.0000
# 3 37.2067 38.9786 73.4789 0.0000 0.0000 0.0000
# 4 0.0000 0.0000 0.0000 27.7332 0.0000 0.0000
# 5 0.0000 0.0000 0.0000 0.0000 18.9508 0.0000
# 6 0.0000 0.0000 0.0000 0.0000 0.0000 17.7532
#
#
#
# Elastic Compliance Matrix: (Units=1/GPa)
#
#
# Indices 1 2 3 4 5 6 
#
# 1 0.011532 -0.003113 -0.004188 0.000000 0.000000 0.000000
# 2 -0.003113 0.013101 -0.005373 0.000000 0.000000 0.000000
# 3 -0.004188 -0.005373 0.018580 0.000000 0.000000 0.000000
# 4 0.000000 0.000000 0.000000 0.036058 0.000000 0.000000
# 5 0.000000 0.000000 0.000000 0.000000 0.052768 0.000000
# 6 0.000000 0.000000 0.000000 0.000000 0.000000 0.056328
#
#
# Mechanical properties :
#
#
# Convention : Reuss Voigt Hill
#
# Bulk Modulus (GPa) = 55.97670 58.12197 57.04933
# Shear Modulus (GPa) = 22.76141 24.17276 23.46708
#
# Velocity S-wave (km/s) = 3.36300 3.46569 3.41473
# Velocity P-wave (km/s) = 6.54932 6.70034 6.62526
#
# Compressibility (1/GPa) = 0.01786458
#
# Stress axis : x y z
#
# Youngs Moduli (GPa) = 86.71665 76.33208 53.82022
#
# Poissons Ratio (x) = 0.23761 0.22540
# Poissons Ratio (y) = 0.26993 0.28919
# Poissons Ratio (z) = 0.36317 0.41016
#
# Static dielectric constant tensor:
#      x y z
#    x 3.611770 0.000000 0.000000 
#    y 0.000000 3.496750 0.000000 
#    z 0.000000 0.000000 3.670600 
# 
# 
# High freq. dielectric constant tensor:
#      x y z
#    x 1.780190 0.000000 0.000000 
#    y 0.000000 1.798610 0.000000 
#    z 0.000000 0.000000 1.777130 
# 
# From -- ./inp_files/7170.got.cif
#   From: 2010.03.12/outbox.cif.g09.slc.cpg/sg40_4_cif.got.tgz:7170.got - 2010.04.14 01:38:03.
