data_PCOD8184038
_publ_section_title
;
Structure prediction by ZEFSAII (Michael W. Deem and Ramdas Pophale) SiO2 
 PCOD8184038
Probable space group: A M A 2
;
_chemical_formula_sum "Si O2"
_cell_formula_units_Z 40
_cell_length_a 10.205692
_cell_length_b 12.133786
_cell_length_c 15.268218
_cell_angle_alpha 90.000000
_cell_angle_beta 90.000000
_cell_angle_gamma 90.000000
_cell_volume 1890.719663
_symmetry_space_group_name_H-M "A M A 2"
_symmetry_group_IT_number 40
_symmetry_cell_setting 'orthorhombic'
loop_
_space_group_symop_operation_xyz
x,y,z
-x,-y,z
1/2-x,y,z
1/2+x,-y,z
x,1/2+y,1/2+z
-x,1/2-y,1/2+z
1/2-x,1/2+y,1/2+z
1/2+x,1/2-y,1/2+z
loop_
_atom_site_type_symbol
_atom_site_label
_atom_site_fract_x
_atom_site_fract_y
_atom_site_fract_z
Si Si1 0.750000 0.906314 0.832180
Si Si2 0.500000 0.000000 0.103026
Si Si3 0.953414 0.384879 0.184281
Si Si4 0.250000 0.690931 0.046516
Si Si5 0.750000 0.567148 0.494982
Si Si6 0.964397 0.828635 0.243376
Si Si7 0.250000 0.579075 0.870960
Si Si8 0.250000 0.335336 0.818655
O O1 0.875121 0.920584 0.770723
O O2 0.750000 0.780676 0.873655
O O3 0.750000 0.002322 0.903545
O O4 0.617231 0.040506 0.043951
O O5 0.432709 0.093664 0.162015
O O6 0.875237 0.319756 0.109138
O O7 0.066603 0.298795 0.216482
O O8 0.000000 0.500000 0.142185
O O9 0.250000 0.800984 0.987176
O O10 0.250000 0.596660 0.974067
O O11 0.120778 0.836245 0.258680
O O12 0.879326 0.868863 0.325964
O O13 0.250000 0.446537 0.873775
#
# Coordination Sequence:
#
# PCOD8184038 Si02
#       8
#     4   4   8   4   4   8   4   4
#     4   9  24  41  68  97 129 182 222 279 338 414
#     4  12  22  42  70  96 136 172 224 284 342 402
#     4  10  23  45  68  91 139 183 225 278 357 409
#     4  11  26  45  64  99 138 181 222 295 348 398
#     4  12  26  42  67 102 140 173 230 286 339 399
#     4  11  22  41  69  97 127 178 226 277 344 407
#     4  12  24  37  71 100 131 172 237 281 324 425
#     4  10  20  43  66  90 134 176 217 273 343 400
#
# _framework density 21.155965999999999
#
# number of rings (size 3 to 8) (size 9 to 14) (size 15 to 20)
#    0.000    1.200    4.000    1.800    4.200    4.000 
#    3.600    0.000    0.000    0.000    0.000    0.000 
#    0.000    0.000    0.000    0.000    0.000    0.000 
#
# Total GULP energy -247839.326574 kJ/mol
# GULP energy per Si atom -12391.966329 kJ/mol
# Density = 2.110781 g / cm^3
# Si number density = 21.155966 Si / 1000 Ang^3
#
#
#
# Elastic Constant Matrix: (Units=GPa)
#
#
# Indices 1 2 3 4 5 6 
#
# 1 75.1456 14.2146 13.8613 0.0000 0.0000 0.0000
# 2 14.2146 176.6969 49.4262 0.0000 0.0000 0.0000
# 3 13.8613 49.4262 116.7206 0.0000 0.0000 0.0000
# 4 0.0000 0.0000 0.0000 40.3175 0.0000 0.0000
# 5 0.0000 0.0000 0.0000 0.0000 -6.3798 0.0000
# 6 0.0000 0.0000 0.0000 0.0000 0.0000 16.4394
#
#
#
# Elastic Compliance Matrix: (Units=1/GPa)
#
#
# Indices 1 2 3 4 5 6 
#
# 1 0.013689 -0.000733 -0.001315 0.000000 0.000000 0.000000
# 2 -0.000733 0.006459 -0.002648 0.000000 0.000000 0.000000
# 3 -0.001315 -0.002648 0.009845 0.000000 0.000000 0.000000
# 4 0.000000 0.000000 0.000000 0.024803 0.000000 0.000000
# 5 0.000000 0.000000 0.000000 0.000000 -0.156745 0.000000
# 6 0.000000 0.000000 0.000000 0.000000 0.000000 0.060829
#
#
# Mechanical properties :
#
#
# Convention : Reuss Voigt Hill
#
# Bulk Modulus (GPa) = 48.54396 58.17415 53.35905
# Shear Modulus (GPa) = -201.12940 29.47949 -85.82495
#
# Velocity S-wave (km/s) = -9.76095 3.73693 -6.37619
# Velocity P-wave (km/s) = 10.19997 6.79536 5.37878
#
# Compressibility (1/GPa) = 0.02059989
#
# Stress axis : x y z
#
# Youngs Moduli (GPa) = 73.05245 154.81958 101.57450
#
# Poissons Ratio (x) = 0.11354 0.13358
# Poissons Ratio (y) = 0.05357 0.26898
# Poissons Ratio (z) = 0.09607 0.40997
#
# Static dielectric constant tensor:
#      x y z
#    x 3.984870 0.000000 0.000000 
#    y 0.000000 4.383530 0.000000 
#    z 0.000000 0.000000 3.556270 
# 
# 
# High freq. dielectric constant tensor:
#      x y z
#    x 1.820840 0.000000 0.000000 
#    y 0.000000 1.857080 0.000000 
#    z 0.000000 0.000000 1.810820 
# 
# From -- ./inp_files/16241.got.cif
#   From: 2010.03.12/outbox.cif.g09.slc.cpg/sg40_9_cif.got.tgz:16241.got - 2010.04.14 01:38:03.
