data_PCOD8184495
_publ_section_title
;
Structure prediction by ZEFSAII (Michael W. Deem and Ramdas Pophale) SiO2 
 PCOD8184495
Probable space group: A M A 2
;
_chemical_formula_sum "Si O2"
_cell_formula_units_Z 64
_cell_length_a 15.845302
_cell_length_b 15.336847
_cell_length_c 11.948439
_cell_angle_alpha 90.000000
_cell_angle_beta 90.000000
_cell_angle_gamma 90.000000
_cell_volume 2903.673471
_symmetry_space_group_name_H-M "A M A 2"
_symmetry_group_IT_number 40
_symmetry_cell_setting 'orthorhombic'
loop_
_space_group_symop_operation_xyz
x,y,z
-x,-y,z
1/2-x,y,z
1/2+x,-y,z
x,1/2+y,1/2+z
-x,1/2-y,1/2+z
1/2-x,1/2+y,1/2+z
1/2+x,1/2-y,1/2+z
loop_
_atom_site_type_symbol
_atom_site_label
_atom_site_fract_x
_atom_site_fract_y
_atom_site_fract_z
Si Si1 0.851356 0.181667 0.138620
Si Si2 0.849265 0.826476 0.233823
Si Si3 0.590732 0.541893 0.008540
Si Si4 0.899651 0.006899 0.752961
Si Si5 0.895478 0.819308 0.815436
Si Si6 0.912047 0.176880 0.885465
Si Si7 0.154251 0.985698 0.271788
Si Si8 0.655410 0.722526 0.021580
O O1 0.750000 0.187717 0.134362
O O2 0.889523 0.268169 0.197420
O O3 0.885641 0.098056 0.209437
O O4 0.889759 0.172782 0.015567
O O5 0.750000 0.838239 0.239346
O O6 0.875068 0.766179 0.337255
O O7 0.891449 0.922944 0.239682
O O8 0.879505 0.786091 0.117214
O O9 0.500000 0.500000 0.985805
O O10 0.651643 0.520621 0.905849
O O11 0.585474 0.646807 0.015176
O O12 0.632495 0.511166 0.124880
O O13 0.871174 0.091978 0.823517
O O14 0.861307 0.918248 0.803604
O O15 0.000000 0.000000 0.749618
O O16 0.835801 0.771808 0.904028
O O17 0.988767 0.821631 0.865860
O O18 0.250000 0.988347 0.231747
O O19 0.750000 0.687728 0.050856
#
# Coordination Sequence:
#
# PCOD8184495 Si02
#       8
#     8   8   8   8   8   8   8   8
#     4  11  25  46  68  98 139 180 224 282 348 409
#     4  10  23  41  65  96 131 174 223 276 338 405
#     4  11  22  40  67  96 129 171 224 278 335 401
#     4   9  22  43  62  95 132 165 217 279 338 396
#     4  11  25  42  69  98 132 176 225 280 338 412
#     4  11  24  43  68  97 135 174 220 287 340 402
#     4  10  23  43  64  94 133 173 221 274 333 409
#     4  11  23  44  68  94 132 178 224 275 339 413
#
# _framework density 22.041045
#
# number of rings (size 3 to 8) (size 9 to 14) (size 15 to 20)
#    0.000    1.500    2.500    1.125    7.000    0.000 
#    0.000    3.750    0.000    0.000    0.000    0.000 
#    0.000    0.000    0.000    0.000    0.000    0.000 
#
# Total GULP energy -396732.052640 kJ/mol
# GULP energy per Si atom -12397.876645 kJ/mol
# Density = 2.199088 g / cm^3
# Si number density = 22.041045 Si / 1000 Ang^3
#
#
#
# Elastic Constant Matrix: (Units=GPa)
#
#
# Indices 1 2 3 4 5 6 
#
# 1 47.4330 27.9195 25.5798 0.0000 0.0000 0.0000
# 2 27.9195 158.3217 45.3899 0.0000 0.0000 0.0000
# 3 25.5798 45.3899 148.5292 0.0000 0.0000 0.0000
# 4 0.0000 0.0000 0.0000 40.5762 0.0000 0.0000
# 5 0.0000 0.0000 0.0000 0.0000 26.2828 0.0000
# 6 0.0000 0.0000 0.0000 0.0000 0.0000 16.9543
#
#
#
# Elastic Compliance Matrix: (Units=1/GPa)
#
#
# Indices 1 2 3 4 5 6 
#
# 1 0.024857 -0.003459 -0.003224 0.000000 0.000000 0.000000
# 2 -0.003459 0.007404 -0.001667 0.000000 0.000000 0.000000
# 3 -0.003224 -0.001667 0.007797 0.000000 0.000000 0.000000
# 4 0.000000 0.000000 0.000000 0.024645 0.000000 0.000000
# 5 0.000000 0.000000 0.000000 0.000000 0.038048 0.000000
# 6 0.000000 0.000000 0.000000 0.000000 0.000000 0.058982
#
#
# Mechanical properties :
#
#
# Convention : Reuss Voigt Hill
#
# Bulk Modulus (GPa) = 42.81068 61.34025 52.07547
# Shear Modulus (GPa) = 26.85005 33.78897 30.31951
#
# Velocity S-wave (km/s) = 3.49404 3.91960 3.71292
# Velocity P-wave (km/s) = 5.97855 6.95520 6.48529
#
# Compressibility (1/GPa) = 0.02335865
#
# Stress axis : x y z
#
# Youngs Moduli (GPa) = 40.23003 135.05892 128.24970
#
# Poissons Ratio (x) = 0.46720 0.41345
# Poissons Ratio (y) = 0.13916 0.21378
# Poissons Ratio (z) = 0.12969 0.22513
#
# Static dielectric constant tensor:
#      x y z
#    x 3.610260 0.000000 0.000000 
#    y 0.000000 4.491720 0.000000 
#    z 0.000000 0.000000 4.088240 
# 
# 
# High freq. dielectric constant tensor:
#      x y z
#    x 1.842280 0.000000 0.000000 
#    y 0.000000 1.884600 0.000000 
#    z 0.000000 0.000000 1.876210 
# 
# From -- ./inp_files/13145.got.cif
#   From: 2010.03.12/outbox.cif.g09.slc.cpg/sg40_7_cif.got.tgz:13145.got - 2010.04.14 01:38:03.
