data_PCOD8184939
_publ_section_title
;
Structure prediction by ZEFSAII (Michael W. Deem and Ramdas Pophale) SiO2 
 PCOD8184939
Probable space group: A B A 2
;
_chemical_formula_sum "Si O2"
_cell_formula_units_Z 56
_cell_length_a 14.643559
_cell_length_b 12.750949
_cell_length_c 14.597656
_cell_angle_alpha 90.000000
_cell_angle_beta 90.000000
_cell_angle_gamma 90.000000
_cell_volume 2725.663730
_symmetry_space_group_name_H-M "A B A 2"
_symmetry_group_IT_number 41
_symmetry_cell_setting 'orthorhombic'
loop_
_space_group_symop_operation_xyz
x,y,z
-x,-y,z
1/2-x,y,1/2+z
1/2+x,-y,1/2+z
x,1/2+y,1/2+z
-x,1/2-y,1/2+z
1/2-x,1/2+y,z
1/2+x,1/2-y,z
loop_
_atom_site_type_symbol
_atom_site_label
_atom_site_fract_x
_atom_site_fract_y
_atom_site_fract_z
Si Si1 0.354813 0.801365 0.769370
Si Si2 0.796185 0.689362 0.120684
Si Si3 0.188311 0.982824 0.042885
Si Si4 0.840695 0.318614 0.451177
Si Si5 0.398159 0.526981 0.226566
Si Si6 0.562072 0.247231 0.262838
Si Si7 0.537235 0.113034 0.432282
O O1 0.287263 0.777428 0.686238
O O2 0.314688 0.742259 0.858339
O O3 0.453845 0.754637 0.744801
O O4 0.357846 0.928353 0.784818
O O5 0.780839 0.574338 0.075220
O O6 0.891816 0.692638 0.174553
O O7 0.792486 0.765538 0.035756
O O8 0.153819 0.047387 0.131310
O O9 0.110836 0.897244 0.014026
O O10 0.199826 0.061983 0.956191
O O11 0.950379 0.319084 0.465790
O O12 0.500000 0.500000 0.197279
O O13 0.395221 0.636668 0.282276
O O14 0.585335 0.173605 0.348647
O O15 0.500000 0.000000 0.398422
#
# Coordination Sequence:
#
# PCOD8184939 Si02
#       7
#     8   8   8   8   8   8   8
#     4   9  22  39  60  94 124 159 213 256 315 386
#     4  11  23  36  61  93 121 163 208 259 309 373
#     4  10  20  37  60  89 116 162 211 248 303 382
#     4  10  20  41  60  89 122 163 204 261 310 375
#     4   9  16  34  64  88 112 155 206 252 301 366
#     4  10  20  39  62  92 123 159 207 266 312 360
#     4   9  20  38  66  90 118 165 213 251 311 382
#
# _framework density 20.545453999999999
#
# number of rings (size 3 to 8) (size 9 to 14) (size 15 to 20)
#    0.000    2.286    1.429    1.286    6.000    0.000 
#   10.286    0.000    0.000    4.286    0.000    0.000 
#    0.000    0.000    0.000    0.000    0.000    0.000 
#
# Total GULP energy -346999.599177 kJ/mol
# GULP energy per Si atom -12392.842828 kJ/mol
# Density = 2.049869 g / cm^3
# Si number density = 20.545454 Si / 1000 Ang^3
#
#
#
# Elastic Constant Matrix: (Units=GPa)
#
#
# Indices 1 2 3 4 5 6 
#
# 1 60.6631 39.5696 45.1822 0.0000 0.0000 0.0000
# 2 39.5696 110.6041 64.0578 0.0000 0.0000 0.0000
# 3 45.1822 64.0578 110.8935 0.0000 0.0000 0.0000
# 4 0.0000 0.0000 0.0000 47.3190 0.0000 0.0000
# 5 0.0000 0.0000 0.0000 0.0000 29.0933 0.0000
# 6 0.0000 0.0000 0.0000 0.0000 0.0000 30.3434
#
#
#
# Elastic Compliance Matrix: (Units=1/GPa)
#
#
# Indices 1 2 3 4 5 6 
#
# 1 0.025133 -0.004600 -0.007583 0.000000 0.000000 0.000000
# 2 -0.004600 0.014429 -0.006461 0.000000 0.000000 0.000000
# 3 -0.007583 -0.006461 0.015839 0.000000 0.000000 0.000000
# 4 0.000000 0.000000 0.000000 0.021133 0.000000 0.000000
# 5 0.000000 0.000000 0.000000 0.000000 0.034372 0.000000
# 6 0.000000 0.000000 0.000000 0.000000 0.000000 0.032956
#
#
# Mechanical properties :
#
#
# Convention : Reuss Voigt Hill
#
# Bulk Modulus (GPa) = 55.20608 64.41999 59.81304
# Shear Modulus (GPa) = 26.71134 30.24120 28.47627
#
# Velocity S-wave (km/s) = 3.60961 3.84072 3.72696
# Velocity P-wave (km/s) = 6.65590 7.14780 6.90623
#
# Compressibility (1/GPa) = 0.01811395
#
# Stress axis : x y z
#
# Youngs Moduli (GPa) = 39.78890 69.30699 63.13432
#
# Poissons Ratio (x) = 0.31879 0.47875
# Poissons Ratio (y) = 0.18301 0.40789
# Poissons Ratio (z) = 0.30172 0.44777
#
# Static dielectric constant tensor:
#      x y z
#    x 3.656530 0.000000 0.000000 
#    y 0.000000 4.051690 0.000000 
#    z 0.000000 0.000000 3.638690 
# 
# 
# High freq. dielectric constant tensor:
#      x y z
#    x 1.790220 0.000000 0.000000 
#    y 0.000000 1.804740 0.000000 
#    z 0.000000 0.000000 1.790540 
# 
# From -- ./inp_files/8488.got.cif
#   From: 2010.03.12/outbox.cif.g09.slc.cpg/sg41_5_cif.got.tgz:8488.got - 2010.04.14 01:55:53.
