data_PCOD8184227
_publ_section_title
;
Structure prediction by ZEFSAII (Michael W. Deem and Ramdas Pophale) SiO2 
 PCOD8184227
Probable space group: A M A 2
;
_chemical_formula_sum "Si O2"
_cell_formula_units_Z 40
_cell_length_a 16.360244
_cell_length_b 4.878212
_cell_length_c 21.791104
_cell_angle_alpha 90.000000
_cell_angle_beta 90.000000
_cell_angle_gamma 90.000000
_cell_volume 1739.120523
_symmetry_space_group_name_H-M "A M A 2"
_symmetry_group_IT_number 40
_symmetry_cell_setting 'orthorhombic'
loop_
_space_group_symop_operation_xyz
x,y,z
-x,-y,z
1/2-x,y,z
1/2+x,-y,z
x,1/2+y,1/2+z
-x,1/2-y,1/2+z
1/2-x,1/2+y,1/2+z
1/2+x,1/2-y,1/2+z
loop_
_atom_site_type_symbol
_atom_site_label
_atom_site_fract_x
_atom_site_fract_y
_atom_site_fract_z
Si Si1 0.158601 0.987754 0.468860
Si Si2 0.341709 0.498881 0.386734
Si Si3 0.657021 0.588949 0.689400
Si Si4 0.052923 0.247131 0.575929
Si Si5 0.591318 0.075058 0.755981
O O1 0.250000 0.940727 0.495987
O O2 0.161352 0.197323 0.413359
O O3 0.100624 0.093827 0.522077
O O4 0.124014 0.706529 0.438918
O O5 0.250000 0.593946 0.367517
O O6 0.399943 0.481192 0.328172
O O7 0.750000 0.493955 0.678936
O O8 0.613048 0.606993 0.623872
O O9 0.610209 0.385412 0.735936
O O10 0.655559 0.886831 0.719923
O O11 0.000000 0.500000 0.549149
O O12 0.000000 0.000000 0.607010
O O13 0.500000 0.000000 0.736042
#
# Coordination Sequence:
#
# PCOD8184227 Si02
#       5
#     8   8   8   8   8
#     4  10  22  41  64  91 126 169 216 262 316 387
#     4  10  21  39  64  93 127 168 214 262 317 387
#     4  12  25  44  68  93 128 175 223 266 324 398
#     4  12  25  42  65  95 132 169 216 275 332 387
#     4  12  25  42  66  98 133 167 214 275 334 387
#
# _framework density 23.000129000000001
#
# number of rings (size 3 to 8) (size 9 to 14) (size 15 to 20)
#    0.000    0.800    0.000    8.400    0.000    4.000 
#    0.000    6.000    0.000    0.000    0.000    0.000 
#    0.000    0.000    0.000    0.000    0.000    0.000 
#
# Total GULP energy -248048.073127 kJ/mol
# GULP energy per Si atom -12402.403656 kJ/mol
# Density = 2.294778 g / cm^3
# Si number density = 23.000129 Si / 1000 Ang^3
#
#
#
# Elastic Constant Matrix: (Units=GPa)
#
#
# Indices 1 2 3 4 5 6 
#
# 1 118.5086 28.0090 44.7858 0.0000 0.0000 0.0000
# 2 28.0090 95.0539 11.9921 0.0000 0.0000 0.0000
# 3 44.7858 11.9921 102.5985 0.0000 0.0000 0.0000
# 4 0.0000 0.0000 0.0000 42.4440 0.0000 0.0000
# 5 0.0000 0.0000 0.0000 0.0000 27.3830 0.0000
# 6 0.0000 0.0000 0.0000 0.0000 0.0000 26.8326
#
#
#
# Elastic Compliance Matrix: (Units=1/GPa)
#
#
# Indices 1 2 3 4 5 6 
#
# 1 0.010704 -0.002603 -0.004368 0.000000 0.000000 0.000000
# 2 -0.002603 0.011311 -0.000186 0.000000 0.000000 0.000000
# 3 -0.004368 -0.000186 0.011675 0.000000 0.000000 0.000000
# 4 0.000000 0.000000 0.000000 0.023560 0.000000 0.000000
# 5 0.000000 0.000000 0.000000 0.000000 0.036519 0.000000
# 6 0.000000 0.000000 0.000000 0.000000 0.000000 0.037268
#
#
# Mechanical properties :
#
#
# Convention : Reuss Voigt Hill
#
# Bulk Modulus (GPa) = 51.61009 53.97054 52.79031
# Shear Modulus (GPa) = 32.93571 34.75685 33.84628
#
# Velocity S-wave (km/s) = 3.78826 3.89158 3.84027
# Velocity P-wave (km/s) = 6.45153 6.61126 6.53189
#
# Compressibility (1/GPa) = 0.01937606
#
# Stress axis : x y z
#
# Youngs Moduli (GPa) = 93.42069 88.41094 85.65097
#
# Poissons Ratio (x) = 0.23014 0.37415
# Poissons Ratio (y) = 0.24318 0.01591
# Poissons Ratio (z) = 0.40809 0.01643
#
# Static dielectric constant tensor:
#      x y z
#    x 4.244240 0.000000 0.000000 
#    y 0.000000 4.327150 0.000000 
#    z 0.000000 0.000000 3.863190 
# 
# 
# High freq. dielectric constant tensor:
#      x y z
#    x 1.907630 0.000000 0.000000 
#    y 0.000000 1.926750 0.000000 
#    z 0.000000 0.000000 1.904610 
# 
# From -- ./inp_files/24676.got.cif
#   From: 2010.03.12/outbox.cif.g09.slc.cpg/sg40_13_cif.got.tgz:24676.got - 2010.04.14 01:38:03.
