data_PCOD8184742
_publ_section_title
;
Structure prediction by ZEFSAII (Michael W. Deem and Ramdas Pophale) SiO2 
 PCOD8184742
Probable space group: A B A 2
;
_chemical_formula_sum "Si O2"
_cell_formula_units_Z 60
_cell_length_a 23.779797
_cell_length_b 33.641758
_cell_length_c 5.090128
_cell_angle_alpha 90.000000
_cell_angle_beta 90.000000
_cell_angle_gamma 90.000000
_cell_volume 4072.072755
_symmetry_space_group_name_H-M "A B A 2"
_symmetry_group_IT_number 41
_symmetry_cell_setting 'orthorhombic'
loop_
_space_group_symop_operation_xyz
x,y,z
-x,-y,z
1/2-x,y,1/2+z
1/2+x,-y,1/2+z
x,1/2+y,1/2+z
-x,1/2-y,1/2+z
1/2-x,1/2+y,z
1/2+x,1/2-y,z
loop_
_atom_site_type_symbol
_atom_site_label
_atom_site_fract_x
_atom_site_fract_y
_atom_site_fract_z
Si Si1 0.530964 0.237951 0.310330
Si Si2 0.092316 0.545573 0.916181
Si Si3 0.500000 0.500000 0.651378
Si Si4 0.473414 0.663410 0.910191
Si Si5 0.285546 0.060036 0.847687
Si Si6 0.462124 0.575124 0.895094
Si Si7 0.906458 0.810655 0.410431
Si Si8 0.213603 0.152546 0.382150
O O1 0.482379 0.255804 0.502725
O O2 0.529838 0.190422 0.369262
O O3 0.587809 0.262175 0.383988
O O4 0.157374 0.534459 0.874460
O O5 0.067807 0.569407 0.671429
O O6 0.086560 0.574226 0.171135
O O7 0.055725 0.505322 0.969065
O O8 0.506875 0.539599 0.832816
O O9 0.492789 0.617643 0.885092
O O10 0.425683 0.674955 0.697761
O O11 0.447329 0.669216 0.197669
O O12 0.258305 0.048377 0.572061
O O13 0.302624 0.106202 0.865089
O O14 0.842348 0.821627 0.356378
O O15 0.243460 0.163749 0.652796
#
# Coordination Sequence:
#
# PCOD8184742 Si02
#       8
#     8   8   4   8   8   8   8   8
#     4   8  16  27  40  60  84 107 138 175 207 247
#     4  10  19  32  45  62  89 118 149 180 224 265
#     4   8  22  30  46  64  88 120 146 188 220 270
#     4  10  17  27  45  64  83 112 148 174 210 266
#     4  10  19  29  42  62  85 113 147 185 212 250
#     4  10  18  29  45  64  86 117 148 177 219 263
#     4  10  18  29  42  60  86 118 144 175 216 237
#     4  10  19  28  39  58  84 113 150 177 199 242
#
# _framework density 14.73451
#
# number of rings (size 3 to 8) (size 9 to 14) (size 15 to 20)
#    0.800    1.600    0.000    4.400    0.000    2.133 
#    0.000    0.000    0.000    0.000    0.000    0.000 
#    0.000    2.133    0.000    0.000    0.000    0.000 
#
# Total GULP energy -371677.985200 kJ/mol
# GULP energy per Si atom -12389.266173 kJ/mol
# Density = 1.470097 g / cm^3
# Si number density = 14.734510 Si / 1000 Ang^3
#
#
#
# Elastic Constant Matrix: (Units=GPa)
#
#
# Indices 1 2 3 4 5 6 
#
# 1 63.1825 36.1251 -5.1323 0.0000 0.0000 0.0000
# 2 36.1251 87.4410 9.4424 0.0000 0.0000 0.0000
# 3 -5.1323 9.4424 54.9151 0.0000 0.0000 0.0000
# 4 0.0000 0.0000 0.0000 8.5625 0.0000 0.0000
# 5 0.0000 0.0000 0.0000 0.0000 14.3387 0.0000
# 6 0.0000 0.0000 0.0000 0.0000 0.0000 22.8567
#
#
#
# Elastic Compliance Matrix: (Units=1/GPa)
#
#
# Indices 1 2 3 4 5 6 
#
# 1 0.021393 -0.009226 0.003586 0.000000 0.000000 0.000000
# 2 -0.009226 0.015631 -0.003550 0.000000 0.000000 0.000000
# 3 0.003586 -0.003550 0.019155 0.000000 0.000000 0.000000
# 4 0.000000 0.000000 0.000000 0.116788 0.000000 0.000000
# 5 0.000000 0.000000 0.000000 0.000000 0.069741 0.000000
# 6 0.000000 0.000000 0.000000 0.000000 0.000000 0.043751
#
#
# Mechanical properties :
#
#
# Convention : Reuss Voigt Hill
#
# Bulk Modulus (GPa) = 26.45494 31.82324 29.13909
# Shear Modulus (GPa) = 15.75105 20.15848 17.95477
#
# Velocity S-wave (km/s) = 3.27309 3.70281 3.49456
# Velocity P-wave (km/s) = 5.68133 6.31868 6.00846
#
# Compressibility (1/GPa) = 0.03780012
#
# Stress axis : x y z
#
# Youngs Moduli (GPa) = 46.74390 63.97538 52.20457
#
# Poissons Ratio (x) = 0.59021 -0.18719
# Poissons Ratio (y) = 0.43124 0.18532
# Poissons Ratio (z) = -0.16761 0.22711
#
# Static dielectric constant tensor:
#      x y z
#    x 2.614120 0.000000 0.000000 
#    y 0.000000 2.843120 0.000000 
#    z 0.000000 0.000000 3.061900 
# 
# 
# High freq. dielectric constant tensor:
#      x y z
#    x 1.523940 0.000000 0.000000 
#    y 0.000000 1.538110 0.000000 
#    z 0.000000 0.000000 1.592390 
# 
# From -- ./inp_files/1058.got.cif
#   From: 2010.03.12/outbox.cif.g09.slc.cpg/sg41_1_cif.got.tgz:1058.got - 2010.04.14 01:55:53.
