data_PCOD8184287
_publ_section_title
;
Structure prediction by ZEFSAII (Michael W. Deem and Ramdas Pophale) SiO2 
 PCOD8184287
Probable space group: A M A 2
;
_chemical_formula_sum "Si O2"
_cell_formula_units_Z 64
_cell_length_a 18.064835
_cell_length_b 22.646646
_cell_length_c 7.518494
_cell_angle_alpha 90.000000
_cell_angle_beta 90.000000
_cell_angle_gamma 90.000000
_cell_volume 3075.875467
_symmetry_space_group_name_H-M "A M A 2"
_symmetry_group_IT_number 40
_symmetry_cell_setting 'orthorhombic'
loop_
_space_group_symop_operation_xyz
x,y,z
-x,-y,z
1/2-x,y,z
1/2+x,-y,z
x,1/2+y,1/2+z
-x,1/2-y,1/2+z
1/2-x,1/2+y,1/2+z
1/2+x,1/2-y,1/2+z
loop_
_atom_site_type_symbol
_atom_site_label
_atom_site_fract_x
_atom_site_fract_y
_atom_site_fract_z
Si Si1 0.415835 0.164878 0.174190
Si Si2 0.542306 0.349617 0.286807
Si Si3 0.376552 0.850273 0.902317
Si Si4 0.332990 0.277276 0.086158
Si Si5 0.426219 0.783212 0.231780
Si Si6 0.333473 0.979242 0.949511
Si Si7 0.922683 0.970036 0.629111
Si Si8 0.663699 0.948078 0.297986
O O1 0.365785 0.222648 0.196771
O O2 0.499216 0.177833 0.239473
O O3 0.381880 0.112512 0.288696
O O4 0.410671 0.146847 0.967412
O O5 0.458186 0.362814 0.332517
O O6 0.552403 0.285158 0.198330
O O7 0.570582 0.399465 0.152839
O O8 0.329926 0.829448 0.731122
O O9 0.339721 0.909332 0.978003
O O10 0.376528 0.803260 0.064498
O O11 0.250000 0.264084 0.018130
O O12 0.383322 0.293377 0.916244
O O13 0.250000 0.996355 0.892436
O O14 0.392363 0.000214 0.806262
O O15 0.354506 0.009853 0.133827
O O16 0.864556 0.982432 0.472047
O O17 0.000000 0.000000 0.577881
O O18 0.750000 0.933508 0.314351
#
# Coordination Sequence:
#
# PCOD8184287 Si02
#       8
#     8   8   8   8   8   8   8   8
#     4  10  21  41  70  94 131 177 221 273 329 398
#     4  10  21  41  67 100 131 168 218 277 326 389
#     4  11  23  41  69  94 130 176 219 262 334 401
#     4  11  24  40  64 100 135 172 222 273 333 398
#     4  10  24  42  67  97 138 173 217 277 334 394
#     4  11  25  47  66  91 137 177 219 278 333 390
#     4  12  25  41  70 100 128 170 230 277 330 398
#     4  11  26  44  65  97 135 176 220 275 341 398
#
# _framework density 20.807082999999999
#
# number of rings (size 3 to 8) (size 9 to 14) (size 15 to 20)
#    0.000    1.250    3.750    1.125    3.500    4.500 
#    0.000    1.875    0.000    0.000    0.000    0.000 
#    0.000    0.000    0.000    0.000    0.000    0.000 
#
# Total GULP energy -396929.337839 kJ/mol
# GULP energy per Si atom -12404.041807 kJ/mol
# Density = 2.075973 g / cm^3
# Si number density = 20.807083 Si / 1000 Ang^3
#
#
#
# Elastic Constant Matrix: (Units=GPa)
#
#
# Indices 1 2 3 4 5 6 
#
# 1 97.6444 35.2906 46.5992 0.0000 0.0000 0.0000
# 2 35.2906 107.1847 50.4699 0.0000 0.0000 0.0000
# 3 46.5992 50.4699 113.6687 0.0000 0.0000 0.0000
# 4 0.0000 0.0000 0.0000 24.2236 0.0000 0.0000
# 5 0.0000 0.0000 0.0000 0.0000 28.2611 0.0000
# 6 0.0000 0.0000 0.0000 0.0000 0.0000 25.9819
#
#
#
# Elastic Compliance Matrix: (Units=1/GPa)
#
#
# Indices 1 2 3 4 5 6 
#
# 1 0.013153 -0.002265 -0.004386 0.000000 0.000000 0.000000
# 2 -0.002265 0.012186 -0.004482 0.000000 0.000000 0.000000
# 3 -0.004386 -0.004482 0.012586 0.000000 0.000000 0.000000
# 4 0.000000 0.000000 0.000000 0.041282 0.000000 0.000000
# 5 0.000000 0.000000 0.000000 0.000000 0.035384 0.000000
# 6 0.000000 0.000000 0.000000 0.000000 0.000000 0.038488
#
#
# Mechanical properties :
#
#
# Convention : Reuss Voigt Hill
#
# Bulk Modulus (GPa) = 63.86692 64.80193 64.33442
# Shear Modulus (GPa) = 27.69061 28.10252 27.89656
#
# Velocity S-wave (km/s) = 3.65201 3.67907 3.66556
# Velocity P-wave (km/s) = 6.96737 7.01849 6.99298
#
# Compressibility (1/GPa) = 0.01565756
#
# Stress axis : x y z
#
# Youngs Moduli (GPa) = 76.02630 82.06148 79.45445
#
# Poissons Ratio (x) = 0.18589 0.34853
# Poissons Ratio (y) = 0.17222 0.35612
# Poissons Ratio (z) = 0.33349 0.36780
#
# Static dielectric constant tensor:
#      x y z
#    x 3.712360 0.000000 0.000000 
#    y 0.000000 3.785000 0.000000 
#    z 0.000000 0.000000 3.738100 
# 
# 
# High freq. dielectric constant tensor:
#      x y z
#    x 1.814610 0.000000 0.000000 
#    y 0.000000 1.816240 0.000000 
#    z 0.000000 0.000000 1.819280 
# 
# From -- ./inp_files/7829.got.cif
#   From: 2010.03.12/outbox.cif.g09.slc.cpg/sg40_4_cif.got.tgz:7829.got - 2010.04.14 01:38:03.
