data_PCOD8184745
_publ_section_title
;
Structure prediction by ZEFSAII (Michael W. Deem and Ramdas Pophale) SiO2 
 PCOD8184745
Probable space group: A B A 2
;
_chemical_formula_sum "Si O2"
_cell_formula_units_Z 64
_cell_length_a 22.569232
_cell_length_b 8.756167
_cell_length_c 16.799682
_cell_angle_alpha 90.000000
_cell_angle_beta 90.000000
_cell_angle_gamma 90.000000
_cell_volume 3319.952560
_symmetry_space_group_name_H-M "A B A 2"
_symmetry_group_IT_number 41
_symmetry_cell_setting 'orthorhombic'
loop_
_space_group_symop_operation_xyz
x,y,z
-x,-y,z
1/2-x,y,1/2+z
1/2+x,-y,1/2+z
x,1/2+y,1/2+z
-x,1/2-y,1/2+z
1/2-x,1/2+y,z
1/2+x,1/2-y,z
loop_
_atom_site_type_symbol
_atom_site_label
_atom_site_fract_x
_atom_site_fract_y
_atom_site_fract_z
Si Si1 0.020085 0.161309 0.738630
Si Si2 0.367242 0.339938 0.250646
Si Si3 0.177567 0.790935 0.084099
Si Si4 0.432698 0.803567 0.027668
Si Si5 0.058186 0.148089 0.558045
Si Si6 0.745805 0.454589 0.000305
Si Si7 0.944142 0.898388 0.178139
Si Si8 0.325140 0.294308 0.419960
O O1 0.081235 0.220255 0.775997
O O2 0.028637 0.151843 0.644258
O O3 0.966596 0.283109 0.747939
O O4 0.000000 0.000000 0.776328
O O5 0.325833 0.279291 0.179701
O O6 0.393925 0.500481 0.220321
O O7 0.327284 0.351221 0.328935
O O8 0.111853 0.765987 0.047471
O O9 0.223460 0.661511 0.060377
O O10 0.197397 0.955138 0.052191
O O11 0.502719 0.800349 0.001645
O O12 0.417561 0.692296 0.102190
O O13 0.416557 0.979235 0.046170
O O14 0.390600 0.758010 0.954382
O O15 0.794750 0.566734 0.965772
O O16 0.713838 0.359639 0.929538
O O17 0.000000 0.000000 0.148356
#
# Coordination Sequence:
#
# PCOD8184745 Si02
#       8
#     8   8   8   8   8   8   8   8
#     4   9  15  32  54  80 119 155 192 226 286 344
#     4  10  22  35  55  85 122 143 193 250 296 344
#     4  10  20  40  62  87 105 154 207 240 282 348
#     4  10  17  32  60  86 114 149 193 229 289 343
#     4   9  16  31  59  89 112 149 191 241 276 350
#     4  10  23  41  64  76 112 156 204 244 281 350
#     4   9  17  32  55  86 118 159 193 235 275 353
#     4  11  23  41  56  87 118 152 187 246 306 343
#
# _framework density 19.277384000000001
#
# number of rings (size 3 to 8) (size 9 to 14) (size 15 to 20)
#    0.000    2.250    3.750    1.500    0.000    1.000 
#    6.750    4.375    0.000    0.000    0.000    0.000 
#    0.000    0.000    0.000    0.000    0.000    0.000 
#
# Total GULP energy -396593.246360 kJ/mol
# GULP energy per Si atom -12393.538949 kJ/mol
# Density = 1.923351 g / cm^3
# Si number density = 19.277384 Si / 1000 Ang^3
#
#
#
# Elastic Constant Matrix: (Units=GPa)
#
#
# Indices 1 2 3 4 5 6 
#
# 1 100.7222 44.5582 46.2898 0.0000 0.0000 0.0000
# 2 44.5582 107.3813 36.6752 0.0000 0.0000 0.0000
# 3 46.2898 36.6752 86.6952 0.0000 0.0000 0.0000
# 4 0.0000 0.0000 0.0000 15.6362 0.0000 0.0000
# 5 0.0000 0.0000 0.0000 0.0000 19.0287 0.0000
# 6 0.0000 0.0000 0.0000 0.0000 0.0000 24.9680
#
#
#
# Elastic Compliance Matrix: (Units=1/GPa)
#
#
# Indices 1 2 3 4 5 6 
#
# 1 0.014448 -0.003928 -0.006052 0.000000 0.000000 0.000000
# 2 -0.003928 0.011953 -0.002959 0.000000 0.000000 0.000000
# 3 -0.006052 -0.002959 0.016018 0.000000 0.000000 0.000000
# 4 0.000000 0.000000 0.000000 0.063954 0.000000 0.000000
# 5 0.000000 0.000000 0.000000 0.000000 0.052552 0.000000
# 6 0.000000 0.000000 0.000000 0.000000 0.000000 0.040051
#
#
# Mechanical properties :
#
#
# Convention : Reuss Voigt Hill
#
# Bulk Modulus (GPa) = 60.46120 61.09391 60.77756
# Shear Modulus (GPa) = 21.70430 23.07829 22.39130
#
# Velocity S-wave (km/s) = 3.35908 3.46377 3.41182
# Velocity P-wave (km/s) = 6.81736 6.91070 6.86419
#
# Compressibility (1/GPa) = 0.01653953
#
# Stress axis : x y z
#
# Youngs Moduli (GPa) = 69.21606 83.65914 62.42884
#
# Poissons Ratio (x) = 0.32860 0.37785
# Poissons Ratio (y) = 0.27187 0.18475
# Poissons Ratio (z) = 0.41893 0.24758
#
# Static dielectric constant tensor:
#      x y z
#    x 3.673670 0.000000 0.000000 
#    y 0.000000 3.925680 0.000000 
#    z 0.000000 0.000000 3.111430 
# 
# 
# High freq. dielectric constant tensor:
#      x y z
#    x 1.752290 0.000000 0.000000 
#    y 0.000000 1.763460 0.000000 
#    z 0.000000 0.000000 1.705800 
# 
# From -- ./inp_files/10755.got.cif
#   From: 2010.03.12/outbox.cif.g09.slc.cpg/sg41_6_cif.got.tgz:10755.got - 2010.04.14 01:55:53.
