data_PCOD8184534
_publ_section_title
;
Structure prediction by ZEFSAII (Michael W. Deem and Ramdas Pophale) SiO2 
 PCOD8184534
Probable space group: A M A 2
;
_chemical_formula_sum "Si O2"
_cell_formula_units_Z 48
_cell_length_a 14.179639
_cell_length_b 16.904844
_cell_length_c 8.807388
_cell_angle_alpha 90.000000
_cell_angle_beta 90.000000
_cell_angle_gamma 90.000000
_cell_volume 2111.171288
_symmetry_space_group_name_H-M "A M A 2"
_symmetry_group_IT_number 40
_symmetry_cell_setting 'orthorhombic'
loop_
_space_group_symop_operation_xyz
x,y,z
-x,-y,z
1/2-x,y,z
1/2+x,-y,z
x,1/2+y,1/2+z
-x,1/2-y,1/2+z
1/2-x,1/2+y,1/2+z
1/2+x,1/2-y,1/2+z
loop_
_atom_site_type_symbol
_atom_site_label
_atom_site_fract_x
_atom_site_fract_y
_atom_site_fract_z
Si Si1 0.558280 0.783179 0.369590
Si Si2 0.250000 0.890563 0.194475
Si Si3 0.932232 0.829582 0.703309
Si Si4 0.250000 0.902499 0.845967
Si Si5 0.250000 0.225962 0.861746
Si Si6 0.144439 0.005886 0.645225
Si Si7 0.570314 0.567035 0.847285
Si Si8 0.750000 0.767212 0.218431
O O1 0.572654 0.776580 0.550652
O O2 0.522657 0.698829 0.301696
O O3 0.478165 0.847494 0.334157
O O4 0.657534 0.806973 0.293741
O O5 0.250000 0.814877 0.303065
O O6 0.342993 0.940131 0.231443
O O7 0.250000 0.871534 0.016680
O O8 0.840560 0.819598 0.804177
O O9 0.932354 0.923230 0.661475
O O10 0.157182 0.955000 0.801072
O O11 0.250000 0.826122 0.740977
O O12 0.250000 0.218261 0.041070
O O13 0.250000 0.037346 0.596581
O O14 0.105518 0.946401 0.518318
O O15 0.500000 0.500000 0.791302
#
# Coordination Sequence:
#
# PCOD8184534 Si02
#       8
#     8   4   8   4   4   8   8   4
#     4  12  28  45  76 112 147 204 257 322 377 466
#     4  12  24  48  72 103 154 188 247 326 376 458
#     4  12  24  46  74 112 149 198 260 310 385 463
#     4  10  25  47  75 110 148 209 238 323 399 449
#     4  12  23  47  75 102 149 199 242 327 378 452
#     4  10  23  46  77 107 149 203 250 302 399 465
#     4  12  25  47  77 106 146 202 249 305 392 461
#     4  12  28  48  72 107 161 196 265 316 397 451
#
# _framework density 22.736194999999999
#
# number of rings (size 3 to 8) (size 9 to 14) (size 15 to 20)
#    0.500    0.000    5.000    3.500    2.333    0.667 
#    9.000    0.833    0.000    0.000    0.000    0.000 
#    0.000    0.000    0.000    0.000    0.000    0.000 
#
# Total GULP energy -297588.247209 kJ/mol
# GULP energy per Si atom -12399.510300 kJ/mol
# Density = 2.268445 g / cm^3
# Si number density = 22.736195 Si / 1000 Ang^3
#
#
#
# Elastic Constant Matrix: (Units=GPa)
#
#
# Indices 1 2 3 4 5 6 
#
# 1 121.5150 24.3178 40.6580 0.0000 0.0000 0.0000
# 2 24.3178 84.1383 25.2269 0.0000 0.0000 0.0000
# 3 40.6580 25.2269 147.9365 0.0000 0.0000 0.0000
# 4 0.0000 0.0000 0.0000 34.7384 0.0000 0.0000
# 5 0.0000 0.0000 0.0000 0.0000 38.9256 0.0000
# 6 0.0000 0.0000 0.0000 0.0000 0.0000 32.3786
#
#
#
# Elastic Compliance Matrix: (Units=1/GPa)
#
#
# Indices 1 2 3 4 5 6 
#
# 1 0.009385 -0.002044 -0.002231 0.000000 0.000000 0.000000
# 2 -0.002044 0.012971 -0.001650 0.000000 0.000000 0.000000
# 3 -0.002231 -0.001650 0.007654 0.000000 0.000000 0.000000
# 4 0.000000 0.000000 0.000000 0.028787 0.000000 0.000000
# 5 0.000000 0.000000 0.000000 0.000000 0.025690 0.000000
# 6 0.000000 0.000000 0.000000 0.000000 0.000000 0.030885
#
#
# Mechanical properties :
#
#
# Convention : Reuss Voigt Hill
#
# Bulk Modulus (GPa) = 55.06455 59.33279 57.19867
# Shear Modulus (GPa) = 37.51690 38.76767 38.14228
#
# Velocity S-wave (km/s) = 4.06654 4.13377 4.10030
# Velocity P-wave (km/s) = 6.80592 6.99550 6.90136
#
# Compressibility (1/GPa) = 0.01816051
#
# Stress axis : x y z
#
# Youngs Moduli (GPa) = 106.55524 77.09749 130.64811
#
# Poissons Ratio (x) = 0.15755 0.29145
# Poissons Ratio (y) = 0.21775 0.21559
# Poissons Ratio (z) = 0.23770 0.12722
#
# Static dielectric constant tensor:
#      x y z
#    x 4.528170 0.000000 0.000000 
#    y 0.000000 3.935610 0.000000 
#    z 0.000000 0.000000 3.947700 
# 
# 
# High freq. dielectric constant tensor:
#      x y z
#    x 1.917850 0.000000 0.000000 
#    y 0.000000 1.887850 0.000000 
#    z 0.000000 0.000000 1.889940 
# 
# From -- ./inp_files/6529.got.cif
#   From: 2010.03.12/outbox.cif.g09.slc.cpg/sg40_4_cif.got.tgz:6529.got - 2010.04.14 01:38:03.
