data_PCOD8184670
_publ_section_title
;
Structure prediction by ZEFSAII (Michael W. Deem and Ramdas Pophale) SiO2 
 PCOD8184670
Probable space group: A M A 2
;
_chemical_formula_sum "Si O2"
_cell_formula_units_Z 40
_cell_length_a 9.934730
_cell_length_b 7.619201
_cell_length_c 25.684312
_cell_angle_alpha 90.000000
_cell_angle_beta 90.000000
_cell_angle_gamma 90.000000
_cell_volume 1944.166414
_symmetry_space_group_name_H-M "A M A 2"
_symmetry_group_IT_number 40
_symmetry_cell_setting 'orthorhombic'
loop_
_space_group_symop_operation_xyz
x,y,z
-x,-y,z
1/2-x,y,z
1/2+x,-y,z
x,1/2+y,1/2+z
-x,1/2-y,1/2+z
1/2-x,1/2+y,1/2+z
1/2+x,1/2-y,1/2+z
loop_
_atom_site_type_symbol
_atom_site_label
_atom_site_fract_x
_atom_site_fract_y
_atom_site_fract_z
Si Si1 0.404641 0.336618 0.583450
Si Si2 0.489902 0.703814 0.973259
Si Si3 0.250000 0.716145 0.415295
Si Si4 0.407122 0.666297 0.191839
Si Si5 0.750000 0.976531 0.329440
Si Si6 0.000000 0.000000 0.255164
Si Si7 0.750000 0.168102 0.904408
O O1 0.500000 0.500000 0.596410
O O2 0.250000 0.399769 0.575281
O O3 0.461164 0.236445 0.533479
O O4 0.411635 0.197935 0.630186
O O5 0.500000 0.500000 0.961067
O O6 0.628311 0.788040 0.955657
O O7 0.378399 0.794265 0.938900
O O8 0.250000 0.874275 0.374106
O O9 0.250000 0.532585 0.384112
O O10 0.500000 0.500000 0.206174
O O11 0.250000 0.640053 0.209503
O O12 0.477053 0.831099 0.219490
O O13 0.876362 0.985787 0.293093
O O14 0.750000 0.784647 0.353492
#
# Coordination Sequence:
#
# PCOD8184670 Si02
#       7
#     8   8   4   8   4   4   4
#     4  11  24  42  69 106 143 188 237 285 357 433
#     4  12  23  43  67 102 142 187 230 287 353 425
#     4  12  26  44  71  99 141 186 234 295 354 423
#     4  11  26  48  75 109 145 187 240 300 363 434
#     4  12  26  46  74 102 138 190 244 302 364 418
#     4  12  26  48  76 102 142 192 244 302 366 418
#     4  12  24  46  69  99 139 182 238 293 346 425
#
# _framework density 20.574370999999999
#
# number of rings (size 3 to 8) (size 9 to 14) (size 15 to 20)
#    0.000    0.400    5.000    3.600    2.800    2.400 
#    0.000    0.000    0.000    0.000    0.000    0.000 
#    0.000    0.000    0.000    0.000    0.000    0.000 
#
# Total GULP energy -248008.783996 kJ/mol
# GULP energy per Si atom -12400.439200 kJ/mol
# Density = 2.052754 g / cm^3
# Si number density = 20.574371 Si / 1000 Ang^3
#
#
#
# Elastic Constant Matrix: (Units=GPa)
#
#
# Indices 1 2 3 4 5 6 
#
# 1 178.9772 53.1247 53.4667 0.0000 0.0000 0.0000
# 2 53.1247 145.8032 30.1822 0.0000 0.0000 0.0000
# 3 53.4667 30.1822 109.6411 0.0000 0.0000 0.0000
# 4 0.0000 0.0000 0.0000 31.1647 0.0000 0.0000
# 5 0.0000 0.0000 0.0000 0.0000 24.7741 0.0000
# 6 0.0000 0.0000 0.0000 0.0000 0.0000 37.8285
#
#
#
# Elastic Compliance Matrix: (Units=1/GPa)
#
#
# Indices 1 2 3 4 5 6 
#
# 1 0.007034 -0.001965 -0.002889 0.000000 0.000000 0.000000
# 2 -0.001965 0.007822 -0.001195 0.000000 0.000000 0.000000
# 3 -0.002889 -0.001195 0.010859 0.000000 0.000000 0.000000
# 4 0.000000 0.000000 0.000000 0.032088 0.000000 0.000000
# 5 0.000000 0.000000 0.000000 0.000000 0.040365 0.000000
# 6 0.000000 0.000000 0.000000 0.000000 0.000000 0.026435
#
#
# Mechanical properties :
#
#
# Convention : Reuss Voigt Hill
#
# Bulk Modulus (GPa) = 73.44240 78.66319 76.05280
# Shear Modulus (GPa) = 35.40131 38.59666 36.99898
#
# Velocity S-wave (km/s) = 4.15257 4.33593 4.24524
# Velocity P-wave (km/s) = 7.66586 7.96139 7.81502
#
# Compressibility (1/GPa) = 0.01361611
#
# Stress axis : x y z
#
# Youngs Moduli (GPa) = 142.17605 127.84776 92.09353
#
# Poissons Ratio (x) = 0.25118 0.26607
# Poissons Ratio (y) = 0.27933 0.11006
# Poissons Ratio (z) = 0.41076 0.15279
#
# Static dielectric constant tensor:
#      x y z
#    x 4.050030 0.000000 0.000000 
#    y 0.000000 3.972990 0.000000 
#    z 0.000000 0.000000 3.830420 
# 
# 
# High freq. dielectric constant tensor:
#      x y z
#    x 1.828560 0.000000 0.000000 
#    y 0.000000 1.812740 0.000000 
#    z 0.000000 0.000000 1.811590 
# 
# From -- ./inp_files/23871.got.cif
#   From: 2010.03.12/outbox.cif.g09.slc.cpg/sg40_12_cif.got.tgz:23871.got - 2010.04.14 01:38:03.
