data_PCOD8184424
_publ_section_title
;
Structure prediction by ZEFSAII (Michael W. Deem and Ramdas Pophale) SiO2 
 PCOD8184424
Probable space group: A M A 2
;
_chemical_formula_sum "Si O2"
_cell_formula_units_Z 48
_cell_length_a 16.683232
_cell_length_b 23.875046
_cell_length_c 5.053662
_cell_angle_alpha 90.000000
_cell_angle_beta 90.000000
_cell_angle_gamma 90.000000
_cell_volume 2012.938926
_symmetry_space_group_name_H-M "A M A 2"
_symmetry_group_IT_number 40
_symmetry_cell_setting 'orthorhombic'
loop_
_space_group_symop_operation_xyz
x,y,z
-x,-y,z
1/2-x,y,z
1/2+x,-y,z
x,1/2+y,1/2+z
-x,1/2-y,1/2+z
1/2-x,1/2+y,1/2+z
1/2+x,1/2-y,1/2+z
loop_
_atom_site_type_symbol
_atom_site_label
_atom_site_fract_x
_atom_site_fract_y
_atom_site_fract_z
Si Si1 0.750000 0.592233 0.243500
Si Si2 0.750000 0.021111 0.258838
Si Si3 0.947895 0.745813 0.404128
Si Si4 0.413055 0.873776 0.837631
Si Si5 0.155759 0.150300 0.253914
Si Si6 0.414742 0.992344 0.078031
Si Si7 0.417767 0.095572 0.736509
O O1 0.750000 0.572544 0.549581
O O2 0.669860 0.627224 0.169829
O O3 0.750000 0.537445 0.063730
O O4 0.666952 0.985856 0.221495
O O5 0.914230 0.685126 0.494821
O O6 0.876744 0.789318 0.347644
O O7 0.003427 0.768107 0.637442
O O8 0.492450 0.883567 0.660235
O O9 0.406679 0.926154 0.036521
O O10 0.250000 0.154687 0.201949
O O11 0.138462 0.105048 0.484179
O O12 0.111423 0.132109 0.987039
O O13 0.500000 0.000000 0.236441
O O14 0.420041 0.029568 0.809536
#
# Coordination Sequence:
#
# PCOD8184424 Si02
#       7
#     4   4   8   8   8   8   8
#     4  10  24  40  68  96 132 178 216 294 325 412
#     4  10  22  42  62  96 140 170 234 270 345 398
#     4  12  24  45  71  95 134 182 230 287 342 405
#     4  10  22  45  69  99 139 174 236 278 352 402
#     4  12  26  44  69 103 138 181 237 282 346 410
#     4   9  22  42  70 100 136 185 227 282 348 415
#     4  11  24  45  70 100 139 183 227 286 343 424
#
# _framework density 23.845728999999999
#
# number of rings (size 3 to 8) (size 9 to 14) (size 15 to 20)
#    0.000    1.333    3.333    0.500    3.500    9.333 
#    0.000    7.500    0.000    0.000    0.000    0.000 
#    0.000    0.000    0.000    0.000    0.000    0.000 
#
# Total GULP energy -297368.402845 kJ/mol
# GULP energy per Si atom -12390.350119 kJ/mol
# Density = 2.379145 g / cm^3
# Si number density = 23.845729 Si / 1000 Ang^3
#
#
#
# Elastic Constant Matrix: (Units=GPa)
#
#
# Indices 1 2 3 4 5 6 
#
# 1 223.6730 44.7512 31.9435 0.0000 0.0000 0.0000
# 2 44.7512 117.9776 5.6282 0.0000 0.0000 0.0000
# 3 31.9435 5.6282 67.5403 0.0000 0.0000 0.0000
# 4 0.0000 0.0000 0.0000 23.5829 0.0000 0.0000
# 5 0.0000 0.0000 0.0000 0.0000 8.6020 0.0000
# 6 0.0000 0.0000 0.0000 0.0000 0.0000 16.6270
#
#
#
# Elastic Compliance Matrix: (Units=1/GPa)
#
#
# Indices 1 2 3 4 5 6 
#
# 1 0.005168 -0.001851 -0.002290 0.000000 0.000000 0.000000
# 2 -0.001851 0.009173 0.000111 0.000000 0.000000 0.000000
# 3 -0.002290 0.000111 0.015880 0.000000 0.000000 0.000000
# 4 0.000000 0.000000 0.000000 0.042404 0.000000 0.000000
# 5 0.000000 0.000000 0.000000 0.000000 0.116253 0.000000
# 6 0.000000 0.000000 0.000000 0.000000 0.000000 0.060143
#
#
# Mechanical properties :
#
#
# Convention : Reuss Voigt Hill
#
# Bulk Modulus (GPa) = 45.12459 63.75964 54.44212
# Shear Modulus (GPa) = 18.90590 31.55358 25.22974
#
# Velocity S-wave (km/s) = 2.81880 3.64158 3.25628
# Velocity P-wave (km/s) = 5.43680 6.66918 6.08427
#
# Compressibility (1/GPa) = 0.02216086
#
# Stress axis : x y z
#
# Youngs Moduli (GPa) = 193.48959 109.01482 62.97299
#
# Poissons Ratio (x) = 0.20180 0.14421
# Poissons Ratio (y) = 0.35818 -0.00700
# Poissons Ratio (z) = 0.44311 -0.01211
#
# Static dielectric constant tensor:
#      x y z
#    x 5.245210 0.000000 0.000000 
#    y 0.000000 4.320750 0.000000 
#    z 0.000000 0.000000 3.819390 
# 
# 
# High freq. dielectric constant tensor:
#      x y z
#    x 1.971320 0.000000 0.000000 
#    y 0.000000 1.949730 0.000000 
#    z 0.000000 0.000000 1.908700 
# 
# From -- ./inp_files/1895.got.cif
#   From: 2010.03.12/outbox.cif.g09.slc.cpg/sg40_1_cif.got.tgz:1895.got - 2010.04.14 01:38:03.
