data_PCOD8184129
_publ_section_title
;
Structure prediction by ZEFSAII (Michael W. Deem and Ramdas Pophale) SiO2 
 PCOD8184129
Probable space group: A M A 2
;
_chemical_formula_sum "Si O2"
_cell_formula_units_Z 48
_cell_length_a 8.839606
_cell_length_b 22.668587
_cell_length_c 11.750271
_cell_angle_alpha 90.000000
_cell_angle_beta 90.000000
_cell_angle_gamma 90.000000
_cell_volume 2354.535491
_symmetry_space_group_name_H-M "A M A 2"
_symmetry_group_IT_number 40
_symmetry_cell_setting 'orthorhombic'
loop_
_space_group_symop_operation_xyz
x,y,z
-x,-y,z
1/2-x,y,z
1/2+x,-y,z
x,1/2+y,1/2+z
-x,1/2-y,1/2+z
1/2-x,1/2+y,1/2+z
1/2+x,1/2-y,1/2+z
loop_
_atom_site_type_symbol
_atom_site_label
_atom_site_fract_x
_atom_site_fract_y
_atom_site_fract_z
Si Si1 0.431104 0.635831 0.970410
Si Si2 0.075942 0.274823 0.129778
Si Si3 0.925802 0.857223 0.083374
Si Si4 0.581709 0.838397 0.831551
Si Si5 0.069831 0.934848 0.265881
Si Si6 0.085730 0.056710 0.671612
O O1 0.250000 0.638425 0.957283
O O2 0.506073 0.614023 0.853950
O O3 0.486725 0.699439 0.018844
O O4 0.490348 0.589858 0.065409
O O5 0.250000 0.291141 0.110719
O O6 0.051467 0.205197 0.145237
O O7 0.022285 0.299047 0.251174
O O8 0.750000 0.876589 0.082304
O O9 0.021760 0.909231 0.142952
O O10 0.988974 0.846672 0.956144
O O11 0.750000 0.809532 0.839295
O O12 0.595055 0.903311 0.781733
O O13 0.250000 0.939651 0.275772
O O14 0.000000 0.000000 0.286573
O O15 0.250000 0.036794 0.629627
O O16 0.000000 0.000000 0.711983
#
# Coordination Sequence:
#
# PCOD8184129 Si02
#       6
#     8   8   8   8   8   8
#     4  10  21  39  62  89 123 162 204 253 310 368
#     4  10  21  37  61  94 124 156 205 260 315 371
#     4  10  23  42  62  87 122 164 207 255 311 374
#     4   9  20  39  58  81 118 159 198 246 307 369
#     4  12  26  43  64  91 126 168 214 260 314 376
#     4   9  18  32  54  82 111 149 190 238 294 348
#
# _framework density 20.386188000000001
#
# number of rings (size 3 to 8) (size 9 to 14) (size 15 to 20)
#    0.000    2.000    0.000    4.000    2.333    7.333 
#    0.000    1.667    0.000    0.000    0.000    0.000 
#    0.000    0.000    0.000    0.000    0.000    0.000 
#
# Total GULP energy -297496.996604 kJ/mol
# GULP energy per Si atom -12395.708192 kJ/mol
# Density = 2.033979 g / cm^3
# Si number density = 20.386188 Si / 1000 Ang^3
#
#
#
# Elastic Constant Matrix: (Units=GPa)
#
#
# Indices 1 2 3 4 5 6 
#
# 1 107.3430 36.6456 33.2219 0.0000 0.0000 0.0000
# 2 36.6456 64.7022 17.4433 0.0000 0.0000 0.0000
# 3 33.2219 17.4433 108.0706 0.0000 0.0000 0.0000
# 4 0.0000 0.0000 0.0000 15.8308 0.0000 0.0000
# 5 0.0000 0.0000 0.0000 0.0000 34.0363 0.0000
# 6 0.0000 0.0000 0.0000 0.0000 0.0000 28.6298
#
#
#
# Elastic Compliance Matrix: (Units=1/GPa)
#
#
# Indices 1 2 3 4 5 6 
#
# 1 0.012298 -0.006216 -0.002777 0.000000 0.000000 0.000000
# 2 -0.006216 0.019301 -0.001204 0.000000 0.000000 0.000000
# 3 -0.002777 -0.001204 0.010301 0.000000 0.000000 0.000000
# 4 0.000000 0.000000 0.000000 0.063168 0.000000 0.000000
# 5 0.000000 0.000000 0.000000 0.000000 0.029380 0.000000
# 6 0.000000 0.000000 0.000000 0.000000 0.000000 0.034929
#
#
# Mechanical properties :
#
#
# Convention : Reuss Voigt Hill
#
# Bulk Modulus (GPa) = 46.50229 50.52640 48.51434
# Shear Modulus (GPa) = 25.38838 28.55303 26.97071
#
# Velocity S-wave (km/s) = 3.53281 3.74653 3.64124
# Velocity P-wave (km/s) = 6.28500 6.59952 6.44418
#
# Compressibility (1/GPa) = 0.02150432
#
# Stress axis : x y z
#
# Youngs Moduli (GPa) = 81.31665 51.81110 97.07530
#
# Poissons Ratio (x) = 0.32208 0.26958
# Poissons Ratio (y) = 0.50549 0.11691
# Poissons Ratio (z) = 0.22582 0.06240
#
# Static dielectric constant tensor:
#      x y z
#    x 3.596540 0.000000 0.000000 
#    y 0.000000 3.675790 0.000000 
#    z 0.000000 0.000000 3.716590 
# 
# 
# High freq. dielectric constant tensor:
#      x y z
#    x 1.792440 0.000000 0.000000 
#    y 0.000000 1.794620 0.000000 
#    z 0.000000 0.000000 1.801170 
# 
# From -- ./inp_files/10241.got.cif
#   From: 2010.03.12/outbox.cif.g09.slc.cpg/sg40_6_cif.got.tgz:10241.got - 2010.04.14 01:38:03.
