data_PCOD8184093
_publ_section_title
;
Structure prediction by ZEFSAII (Michael W. Deem and Ramdas Pophale) SiO2 
 PCOD8184093
Probable space group: A M A 2
;
_chemical_formula_sum "Si O2"
_cell_formula_units_Z 44
_cell_length_a 13.934847
_cell_length_b 8.949484
_cell_length_c 17.858881
_cell_angle_alpha 90.000000
_cell_angle_beta 90.000000
_cell_angle_gamma 90.000000
_cell_volume 2227.175518
_symmetry_space_group_name_H-M "A M A 2"
_symmetry_group_IT_number 40
_symmetry_cell_setting 'orthorhombic'
loop_
_space_group_symop_operation_xyz
x,y,z
-x,-y,z
1/2-x,y,z
1/2+x,-y,z
x,1/2+y,1/2+z
-x,1/2-y,1/2+z
1/2-x,1/2+y,1/2+z
1/2+x,1/2-y,1/2+z
loop_
_atom_site_type_symbol
_atom_site_label
_atom_site_fract_x
_atom_site_fract_y
_atom_site_fract_z
Si Si1 0.038788 0.243065 0.710100
Si Si2 0.000000 0.000000 0.313380
Si Si3 0.857813 0.851929 0.425928
Si Si4 0.527227 0.170636 0.040096
Si Si5 0.646437 0.622800 0.035785
Si Si6 0.140910 0.447472 0.201618
O O1 0.061385 0.387472 0.760820
O O2 0.059077 0.289291 0.624248
O O3 0.928815 0.188579 0.725399
O O4 0.108873 0.107639 0.734807
O O5 0.929615 0.889379 0.358371
O O6 0.750000 0.812597 0.397194
O O7 0.892538 0.715191 0.478784
O O8 0.856360 0.002668 0.471811
O O9 0.431603 0.255887 0.016706
O O10 0.500000 0.000000 0.032588
O O11 0.750000 0.703996 0.038894
O O12 0.627925 0.535051 0.112690
O O13 0.250000 0.411071 0.226575
#
# Coordination Sequence:
#
# PCOD8184093 Si02
#       6
#     8   4   8   8   8   8
#     4  10  21  36  61  92 125 161 201 252 316 369
#     4  12  24  42  60  92 132 164 194 258 324 378
#     4  11  23  41  64  87 120 168 213 250 305 378
#     4  11  20  37  62  91 124 160 209 264 303 359
#     4   9  17  34  62  90 114 153 205 252 296 354
#     4   9  18  36  62  88 119 157 204 251 297 362
#
# _framework density 19.755965
#
# number of rings (size 3 to 8) (size 9 to 14) (size 15 to 20)
#    0.000    1.818    4.545    0.000    0.000    2.182 
#    3.273    0.000    0.000    0.000    0.000    0.000 
#    0.000    0.000    0.000    0.000    0.000    0.000 
#
# Total GULP energy -272684.514116 kJ/mol
# GULP energy per Si atom -12394.750642 kJ/mol
# Density = 1.971100 g / cm^3
# Si number density = 19.755965 Si / 1000 Ang^3
#
#
#
# Elastic Constant Matrix: (Units=GPa)
#
#
# Indices 1 2 3 4 5 6 
#
# 1 100.3312 23.1319 18.9522 0.0000 0.0000 0.0000
# 2 23.1319 93.3299 26.3176 0.0000 0.0000 0.0000
# 3 18.9522 26.3176 64.8970 0.0000 0.0000 0.0000
# 4 0.0000 0.0000 0.0000 25.6998 0.0000 0.0000
# 5 0.0000 0.0000 0.0000 0.0000 12.3787 0.0000
# 6 0.0000 0.0000 0.0000 0.0000 0.0000 15.3076
#
#
#
# Elastic Compliance Matrix: (Units=1/GPa)
#
#
# Indices 1 2 3 4 5 6 
#
# 1 0.010880 -0.002033 -0.002353 0.000000 0.000000 0.000000
# 2 -0.002033 0.012478 -0.004466 0.000000 0.000000 0.000000
# 3 -0.002353 -0.004466 0.017907 0.000000 0.000000 0.000000
# 4 0.000000 0.000000 0.000000 0.038911 0.000000 0.000000
# 5 0.000000 0.000000 0.000000 0.000000 0.080784 0.000000
# 6 0.000000 0.000000 0.000000 0.000000 0.000000 0.065327
#
#
# Mechanical properties :
#
#
# Convention : Reuss Voigt Hill
#
# Bulk Modulus (GPa) = 42.44367 43.92908 43.18637
# Shear Modulus (GPa) = 19.85338 23.35430 21.60384
#
# Velocity S-wave (km/s) = 3.17350 3.44196 3.31045
# Velocity P-wave (km/s) = 5.91260 6.17092 6.04314
#
# Compressibility (1/GPa) = 0.02356064
#
# Stress axis : x y z
#
# Youngs Moduli (GPa) = 91.91007 80.14050 55.84274
#
# Poissons Ratio (x) = 0.16294 0.13139
# Poissons Ratio (y) = 0.18687 0.24942
# Poissons Ratio (z) = 0.21625 0.35794
#
# Static dielectric constant tensor:
#      x y z
#    x 4.043420 0.000000 0.000000 
#    y 0.000000 3.496980 0.000000 
#    z 0.000000 0.000000 3.493890 
# 
# 
# High freq. dielectric constant tensor:
#      x y z
#    x 1.769540 0.000000 0.000000 
#    y 0.000000 1.762640 0.000000 
#    z 0.000000 0.000000 1.755590 
# 
# From -- ./inp_files/20479.got.cif
#   From: 2010.03.12/outbox.cif.g09.slc.cpg/sg40_11_cif.got.tgz:20479.got - 2010.04.14 01:38:03.
