data_PCOD8184244
_publ_section_title
;
Structure prediction by ZEFSAII (Michael W. Deem and Ramdas Pophale) SiO2 
 PCOD8184244
Probable space group: A M A 2
;
_chemical_formula_sum "Si O2"
_cell_formula_units_Z 48
_cell_length_a 15.264117
_cell_length_b 8.613570
_cell_length_c 18.765057
_cell_angle_alpha 90.000000
_cell_angle_beta 90.000000
_cell_angle_gamma 90.000000
_cell_volume 2467.202302
_symmetry_space_group_name_H-M "A M A 2"
_symmetry_group_IT_number 40
_symmetry_cell_setting 'orthorhombic'
loop_
_space_group_symop_operation_xyz
x,y,z
-x,-y,z
1/2-x,y,z
1/2+x,-y,z
x,1/2+y,1/2+z
-x,1/2-y,1/2+z
1/2-x,1/2+y,1/2+z
1/2+x,1/2-y,1/2+z
loop_
_atom_site_type_symbol
_atom_site_label
_atom_site_fract_x
_atom_site_fract_y
_atom_site_fract_z
Si Si1 0.094243 0.431395 0.272380
Si Si2 0.250000 0.067808 0.027623
Si Si3 0.750000 0.571245 0.861069
Si Si4 0.091607 0.564129 0.775047
Si Si5 0.750000 0.070887 0.527660
Si Si6 0.750000 0.433722 0.360994
Si Si7 0.595715 0.942544 0.618968
Si Si8 0.347434 0.893885 0.137805
O O1 0.089776 0.247853 0.272921
O O2 0.163305 0.489055 0.329961
O O3 0.124599 0.486883 0.194561
O O4 0.000000 0.500000 0.292837
O O5 0.250000 0.248552 0.045735
O O6 0.336587 0.991581 0.064225
O O7 0.250000 0.032197 0.944672
O O8 0.835330 0.492563 0.829127
O O9 0.750000 0.752655 0.843041
O O10 0.750000 0.538444 0.944406
O O11 0.106830 0.502152 0.695582
O O12 0.000000 0.500000 0.804599
O O13 0.663831 0.991723 0.559069
O O14 0.592830 0.756185 0.624900
O O15 0.500000 0.000000 0.595872
O O16 0.250000 0.843386 0.165494
#
# Coordination Sequence:
#
# PCOD8184244 Si02
#       8
#     8   4   4   8   4   4   8   8
#     4  11  24  39  61  93 121 157 205 253 305 364
#     4   9  22  39  62  87 117 165 204 247 310 361
#     4  11  24  41  60  91 125 165 200 255 310 359
#     4  12  23  40  65  92 123 158 207 255 307 370
#     4  11  22  41  62  87 125 163 208 251 302 375
#     4  11  22  41  64  81 125 165 200 247 308 373
#     4  11  22  39  63  91 123 162 204 255 308 363
#     4  10  21  40  63  89 125 158 202 257 310 356
#
# _framework density 19.455234999999998
#
# number of rings (size 3 to 8) (size 9 to 14) (size 15 to 20)
#    0.500    0.667    1.667    6.000    0.000    3.333 
#    0.000    4.167    0.000    0.000    0.000    0.000 
#    0.000    0.000    0.000    0.000    0.000    0.000 
#
# Total GULP energy -297679.732940 kJ/mol
# GULP energy per Si atom -12403.322206 kJ/mol
# Density = 1.941095 g / cm^3
# Si number density = 19.455235 Si / 1000 Ang^3
#
#
#
# Elastic Constant Matrix: (Units=GPa)
#
#
# Indices 1 2 3 4 5 6 
#
# 1 142.6106 70.0068 60.5364 0.0000 0.0000 0.0000
# 2 70.0068 189.7226 80.3779 0.0000 0.0000 0.0000
# 3 60.5364 80.3779 111.9228 0.0000 0.0000 0.0000
# 4 0.0000 0.0000 0.0000 32.3060 0.0000 0.0000
# 5 0.0000 0.0000 0.0000 0.0000 134.6441 0.0000
# 6 0.0000 0.0000 0.0000 0.0000 0.0000 37.5516
#
#
#
# Elastic Compliance Matrix: (Units=1/GPa)
#
#
# Indices 1 2 3 4 5 6 
#
# 1 0.009566 -0.001923 -0.003793 0.000000 0.000000 0.000000
# 2 -0.001923 0.007962 -0.004678 0.000000 0.000000 0.000000
# 3 -0.003793 -0.004678 0.014346 0.000000 0.000000 0.000000
# 4 0.000000 0.000000 0.000000 0.030954 0.000000 0.000000
# 5 0.000000 0.000000 0.000000 0.000000 0.007427 0.000000
# 6 0.000000 0.000000 0.000000 0.000000 0.000000 0.026630
#
#
# Mechanical properties :
#
#
# Convention : Reuss Voigt Hill
#
# Bulk Modulus (GPa) = 90.20309 96.23313 93.21811
# Shear Modulus (GPa) = 41.19656 56.45601 48.82629
#
# Velocity S-wave (km/s) = 4.60663 5.39272 5.01510
# Velocity P-wave (km/s) = 8.64637 9.39928 9.03068
#
# Compressibility (1/GPa) = 0.01108609
#
# Stress axis : x y z
#
# Youngs Moduli (GPa) = 104.53474 125.59149 69.70564
#
# Poissons Ratio (x) = 0.24149 0.26441
# Poissons Ratio (y) = 0.20100 0.32609
# Poissons Ratio (z) = 0.39652 0.58754
#
# Static dielectric constant tensor:
#      x y z
#    x 3.044980 0.000000 0.000000 
#    y 0.000000 3.704690 0.000000 
#    z 0.000000 0.000000 3.480560 
# 
# 
# High freq. dielectric constant tensor:
#      x y z
#    x 1.762070 0.000000 0.000000 
#    y 0.000000 1.778660 0.000000 
#    z 0.000000 0.000000 1.751810 
# 
# From -- ./inp_files/23011.got.cif
#   From: 2010.03.12/outbox.cif.g09.slc.cpg/sg40_12_cif.got.tgz:23011.got - 2010.04.14 01:38:03.
