data_PCOD8184116
_publ_section_title
;
Structure prediction by ZEFSAII (Michael W. Deem and Ramdas Pophale) SiO2 
 PCOD8184116
Probable space group: A M A 2
;
_chemical_formula_sum "Si O2"
_cell_formula_units_Z 60
_cell_length_a 30.175255
_cell_length_b 9.134741
_cell_length_c 11.979320
_cell_angle_alpha 90.000000
_cell_angle_beta 90.000000
_cell_angle_gamma 90.000000
_cell_volume 3302.017368
_symmetry_space_group_name_H-M "A M A 2"
_symmetry_group_IT_number 40
_symmetry_cell_setting 'orthorhombic'
loop_
_space_group_symop_operation_xyz
x,y,z
-x,-y,z
1/2-x,y,z
1/2+x,-y,z
x,1/2+y,1/2+z
-x,1/2-y,1/2+z
1/2-x,1/2+y,1/2+z
1/2+x,1/2-y,1/2+z
loop_
_atom_site_type_symbol
_atom_site_label
_atom_site_fract_x
_atom_site_fract_y
_atom_site_fract_z
Si Si1 0.300352 0.254831 0.775760
Si Si2 0.068001 0.802083 0.994813
Si Si3 0.000000 0.500000 0.369021
Si Si4 0.377595 0.410693 0.682219
Si Si5 0.863120 0.822012 0.330789
Si Si6 0.843676 0.533218 0.209838
Si Si7 0.698702 0.027439 0.470062
Si Si8 0.430394 0.643244 0.209326
O O1 0.250000 0.261210 0.735555
O O2 0.327221 0.349879 0.683734
O O3 0.306626 0.324409 0.898401
O O4 0.316796 0.088066 0.779520
O O5 0.092429 0.721210 0.894791
O O6 0.103465 0.911743 0.055663
O O7 0.050787 0.681352 0.084939
O O8 0.027140 0.893757 0.949177
O O9 0.969464 0.399580 0.291644
O O10 0.380429 0.570755 0.733755
O O11 0.406210 0.291390 0.754954
O O12 0.839239 0.683710 0.276107
O O13 0.827283 0.895048 0.411650
O O14 0.895231 0.488802 0.198888
O O15 0.822333 0.557247 0.089460
O O16 0.750000 0.981924 0.481653
#
# Coordination Sequence:
#
# PCOD8184116 Si02
#       8
#     8   8   4   8   8   8   8   8
#     4   9  18  35  60  87 120 158 194 240 289 341
#     4  10  22  40  59  86 118 150 196 241 306 353
#     4  12  22  42  62  88 120 146 194 268 288 364
#     4   8  20  40  57  88 120 155 195 234 295 361
#     4  11  20  38  62  85 118 160 196 237 296 352
#     4  11  20  36  62  84 116 157 198 241 289 352
#     4  10  21  37  58  89 123 156 198 242 288 351
#     4   9  21  43  57  87 117 149 199 239 301 357
#
# _framework density 18.17071
#
# number of rings (size 3 to 8) (size 9 to 14) (size 15 to 20)
#    0.800    1.333    2.667    0.400    0.000    3.200 
#    4.800    0.000    0.000    3.200    0.000    0.000 
#    0.000    0.000    0.000    0.000    0.000    0.000 
#
# Total GULP energy -371868.458384 kJ/mol
# GULP energy per Si atom -12395.615279 kJ/mol
# Density = 1.812935 g / cm^3
# Si number density = 18.170710 Si / 1000 Ang^3
#
#
#
# Elastic Constant Matrix: (Units=GPa)
#
#
# Indices 1 2 3 4 5 6 
#
# 1 111.3454 51.5878 41.6314 0.0000 0.0000 0.0000
# 2 51.5878 98.3733 50.5290 0.0000 0.0000 0.0000
# 3 41.6314 50.5290 77.8325 0.0000 0.0000 0.0000
# 4 0.0000 0.0000 0.0000 34.3945 0.0000 0.0000
# 5 0.0000 0.0000 0.0000 0.0000 35.5467 0.0000
# 6 0.0000 0.0000 0.0000 0.0000 0.0000 22.7073
#
#
#
# Elastic Compliance Matrix: (Units=1/GPa)
#
#
# Indices 1 2 3 4 5 6 
#
# 1 0.012519 -0.004689 -0.003652 0.000000 0.000000 0.000000
# 2 -0.004689 0.017007 -0.008533 0.000000 0.000000 0.000000
# 3 -0.003652 -0.008533 0.020341 0.000000 0.000000 0.000000
# 4 0.000000 0.000000 0.000000 0.029074 0.000000 0.000000
# 5 0.000000 0.000000 0.000000 0.000000 0.028132 0.000000
# 6 0.000000 0.000000 0.000000 0.000000 0.000000 0.044039
#
#
# Mechanical properties :
#
#
# Convention : Reuss Voigt Hill
#
# Bulk Modulus (GPa) = 62.03826 63.89419 62.96622
# Shear Modulus (GPa) = 26.28335 28.11657 27.19996
#
# Velocity S-wave (km/s) = 3.80737 3.93791 3.87319
# Velocity P-wave (km/s) = 7.31739 7.47769 7.39797
#
# Compressibility (1/GPa) = 0.01611909
#
# Stress axis : x y z
#
# Youngs Moduli (GPa) = 79.87769 58.79785 49.16146
#
# Poissons Ratio (x) = 0.27572 0.17954
# Poissons Ratio (y) = 0.37457 0.41950
# Poissons Ratio (z) = 0.29171 0.50172
#
# Static dielectric constant tensor:
#      x y z
#    x 3.351360 0.000000 0.000000 
#    y 0.000000 3.378280 0.000000 
#    z 0.000000 0.000000 3.277900 
# 
# 
# High freq. dielectric constant tensor:
#      x y z
#    x 1.703650 0.000000 0.000000 
#    y 0.000000 1.702450 0.000000 
#    z 0.000000 0.000000 1.698420 
# 
# From -- ./inp_files/14375.got.cif
#   From: 2010.03.12/outbox.cif.g09.slc.cpg/sg40_8_cif.got.tgz:14375.got - 2010.04.14 01:38:03.
