data_PCOD8184858
_publ_section_title
;
Structure prediction by ZEFSAII (Michael W. Deem and Ramdas Pophale) SiO2 
 PCOD8184858
Probable space group: A B A 2
;
_chemical_formula_sum "Si O2"
_cell_formula_units_Z 56
_cell_length_a 8.890381
_cell_length_b 18.893852
_cell_length_c 16.943349
_cell_angle_alpha 90.000000
_cell_angle_beta 90.000000
_cell_angle_gamma 90.000000
_cell_volume 2846.034359
_symmetry_space_group_name_H-M "A B A 2"
_symmetry_group_IT_number 41
_symmetry_cell_setting 'orthorhombic'
loop_
_space_group_symop_operation_xyz
x,y,z
-x,-y,z
1/2-x,y,1/2+z
1/2+x,-y,1/2+z
x,1/2+y,1/2+z
-x,1/2-y,1/2+z
1/2-x,1/2+y,z
1/2+x,1/2-y,z
loop_
_atom_site_type_symbol
_atom_site_label
_atom_site_fract_x
_atom_site_fract_y
_atom_site_fract_z
Si Si1 0.070626 0.275902 0.739070
Si Si2 0.758898 0.607991 0.306218
Si Si3 0.157584 0.031491 0.240013
Si Si4 0.722767 0.330782 0.159321
Si Si5 0.021074 0.297796 0.390114
Si Si6 0.284742 0.191341 0.978401
Si Si7 0.977164 0.922117 0.399495
O O1 0.202234 0.334682 0.741839
O O2 0.143319 0.202814 0.710219
O O3 0.940590 0.301094 0.681016
O O4 0.004691 0.264764 0.826812
O O5 0.773082 0.532202 0.261682
O O6 0.915351 0.632783 0.345090
O O7 0.642003 0.605961 0.378426
O O8 0.228331 0.084409 0.175201
O O9 0.121074 0.076084 0.319000
O O10 0.000000 0.000000 0.207227
O O11 0.749106 0.309069 0.069948
O O12 0.139295 0.265861 0.453473
O O13 0.868101 0.321664 0.430859
O O14 0.399216 0.127176 0.963500
O O15 0.000000 0.000000 0.436531
#
# Coordination Sequence:
#
# PCOD8184858 Si02
#       7
#     8   8   8   8   8   8   8
#     4  12  20  38  65  90 115 162 223 257 302 373
#     4  10  19  36  69  87 111 157 225 260 299 364
#     4   9  18  38  63  84 114 166 214 245 308 380
#     4  12  24  38  61  97 129 166 201 269 328 384
#     4  12  21  38  65  93 121 163 218 269 304 378
#     4  12  23  38  59  96 136 162 203 266 339 381
#     4   9  18  39  64  82 114 167 207 250 307 385
#
# _framework density 19.676503
#
# number of rings (size 3 to 8) (size 9 to 14) (size 15 to 20)
#    0.000    1.429    7.143    1.714    0.000    0.000 
#    0.000   10.714    0.000    0.000    0.000    0.000 
#    0.000    0.000    0.000    0.000    0.000    0.000 
#
# Total GULP energy -347194.251924 kJ/mol
# GULP energy per Si atom -12399.794712 kJ/mol
# Density = 1.963172 g / cm^3
# Si number density = 19.676503 Si / 1000 Ang^3
#
#
#
# Elastic Constant Matrix: (Units=GPa)
#
#
# Indices 1 2 3 4 5 6 
#
# 1 80.8982 38.5835 26.2438 0.0000 0.0000 0.0000
# 2 38.5835 107.4524 25.7621 0.0000 0.0000 0.0000
# 3 26.2438 25.7621 79.9506 0.0000 0.0000 0.0000
# 4 0.0000 0.0000 0.0000 26.6949 0.0000 0.0000
# 5 0.0000 0.0000 0.0000 0.0000 27.2826 0.0000
# 6 0.0000 0.0000 0.0000 0.0000 0.0000 39.7258
#
#
#
# Elastic Compliance Matrix: (Units=1/GPa)
#
#
# Indices 1 2 3 4 5 6 
#
# 1 0.015840 -0.004813 -0.003649 0.000000 0.000000 0.000000
# 2 -0.004813 0.011548 -0.002141 0.000000 0.000000 0.000000
# 3 -0.003649 -0.002141 0.014395 0.000000 0.000000 0.000000
# 4 0.000000 0.000000 0.000000 0.037460 0.000000 0.000000
# 5 0.000000 0.000000 0.000000 0.000000 0.036653 0.000000
# 6 0.000000 0.000000 0.000000 0.000000 0.000000 0.025173
#
#
# Mechanical properties :
#
#
# Convention : Reuss Voigt Hill
#
# Bulk Modulus (GPa) = 48.59597 49.94225 49.26911
# Shear Modulus (GPa) = 29.56211 30.58811 30.07511
#
# Velocity S-wave (km/s) = 3.88029 3.94706 3.91382
# Velocity P-wave (km/s) = 6.69527 6.79773 6.74669
#
# Compressibility (1/GPa) = 0.02057784
#
# Stress axis : x y z
#
# Youngs Moduli (GPa) = 63.12952 86.59456 69.46685
#
# Poissons Ratio (x) = 0.41679 0.25347
# Poissons Ratio (y) = 0.30385 0.14874
# Poissons Ratio (z) = 0.23034 0.18541
#
# Static dielectric constant tensor:
#      x y z
#    x 3.541930 0.000000 0.000000 
#    y 0.000000 3.703050 0.000000 
#    z 0.000000 0.000000 3.282000 
# 
# 
# High freq. dielectric constant tensor:
#      x y z
#    x 1.763490 0.000000 0.000000 
#    y 0.000000 1.775600 0.000000 
#    z 0.000000 0.000000 1.734210 
# 
# From -- ./inp_files/7486.got.cif
#   From: 2010.03.12/outbox.cif.g09.slc.cpg/sg41_4_cif.got.tgz:7486.got - 2010.04.14 01:55:53.
