data_PCOD8184162
_publ_section_title
;
Structure prediction by ZEFSAII (Michael W. Deem and Ramdas Pophale) SiO2 
 PCOD8184162
Probable space group: A M A 2
;
_chemical_formula_sum "Si O2"
_cell_formula_units_Z 64
_cell_length_a 9.304243
_cell_length_b 14.296698
_cell_length_c 24.046327
_cell_angle_alpha 90.000000
_cell_angle_beta 90.000000
_cell_angle_gamma 90.000000
_cell_volume 3198.641270
_symmetry_space_group_name_H-M "A M A 2"
_symmetry_group_IT_number 40
_symmetry_cell_setting 'orthorhombic'
loop_
_space_group_symop_operation_xyz
x,y,z
-x,-y,z
1/2-x,y,z
1/2+x,-y,z
x,1/2+y,1/2+z
-x,1/2-y,1/2+z
1/2-x,1/2+y,1/2+z
1/2+x,1/2-y,1/2+z
loop_
_atom_site_type_symbol
_atom_site_label
_atom_site_fract_x
_atom_site_fract_y
_atom_site_fract_z
Si Si1 0.595263 0.409564 0.438470
Si Si2 0.578769 0.598909 0.718902
Si Si3 0.904737 0.909563 0.698210
Si Si4 0.082658 0.258196 0.625431
Si Si5 0.084690 0.698917 0.818341
Si Si6 0.917342 0.241805 0.511250
Si Si7 0.037031 0.108938 0.818340
Si Si8 0.078769 0.901091 0.417779
O O1 0.500000 0.500000 0.443118
O O2 0.750000 0.435102 0.463883
O O3 0.523878 0.325965 0.472907
O O4 0.622850 0.374638 0.375252
O O5 0.500000 0.500000 0.718249
O O6 0.750000 0.589417 0.731741
O O7 0.554248 0.645190 0.658227
O O8 0.501865 0.662165 0.765024
O O9 0.750000 0.935102 0.672797
O O10 0.976122 0.825965 0.663773
O O11 0.877151 0.874637 0.761428
O O12 0.000000 0.000000 0.693563
O O13 0.250000 0.246501 0.612849
O O14 0.000000 0.250001 0.568340
O O15 0.250000 0.663078 0.818341
O O16 0.090050 0.813001 0.818340
O O17 0.998135 0.662165 0.871658
O O18 0.750000 0.253500 0.523831
O O19 0.945752 0.145190 0.478454
O O20 0.000000 0.000000 0.818340
O O21 0.250000 0.910583 0.404940
O O22 0.000000 0.000000 0.418432
#
# Coordination Sequence:
#
# PCOD8184162 Si02
#       8
#     8   8   8   8   8   8   8   8
#     4  10  21  38  61  90 123 160 198 244 305 368
#     4  11  24  44  66  92 127 167 211 261 316 374
#     4  10  21  38  61  90 123 160 198 244 305 368
#     4  10  23  42  63  88 121 163 208 258 311 362
#     4  12  24  40  66  99 129 165 209 255 314 379
#     4  10  23  42  63  88 121 163 208 258 311 362
#     4  10  21  38  60  93 132 159 198 243 303 369
#     4  11  24  44  66  92 127 167 211 261 316 374
#
# _framework density 20.008495
#
# number of rings (size 3 to 8) (size 9 to 14) (size 15 to 20)
#    0.000    1.500    2.500    1.875    0.000    9.000 
#    0.000    5.000    0.000    0.000    0.000    0.000 
#    0.000    0.000    0.000    0.000    0.000    0.000 
#
# Total GULP energy -396448.272788 kJ/mol
# GULP energy per Si atom -12389.008525 kJ/mol
# Density = 1.996296 g / cm^3
# Si number density = 20.008495 Si / 1000 Ang^3
#
#
#
# Elastic Constant Matrix: (Units=GPa)
#
#
# Indices 1 2 3 4 5 6 
#
# 1 116.8891 61.1780 51.8966 0.0000 0.0000 0.0000
# 2 61.1780 152.4579 66.5258 0.0000 0.0000 0.0000
# 3 51.8966 66.5258 145.1173 0.0000 0.0000 0.0000
# 4 0.0000 0.0000 0.0000 27.5484 0.0000 0.0000
# 5 0.0000 0.0000 0.0000 0.0000 21.1312 0.0000
# 6 0.0000 0.0000 0.0000 0.0000 0.0000 31.1881
#
#
#
# Elastic Compliance Matrix: (Units=1/GPa)
#
#
# Indices 1 2 3 4 5 6 
#
# 1 0.011512 -0.003529 -0.002499 0.000000 0.000000 0.000000
# 2 -0.003529 0.009281 -0.002993 0.000000 0.000000 0.000000
# 3 -0.002499 -0.002993 0.009157 0.000000 0.000000 0.000000
# 4 0.000000 0.000000 0.000000 0.036300 0.000000 0.000000
# 5 0.000000 0.000000 0.000000 0.000000 0.047323 0.000000
# 6 0.000000 0.000000 0.000000 0.000000 0.000000 0.032064
#
#
# Mechanical properties :
#
#
# Convention : Reuss Voigt Hill
#
# Bulk Modulus (GPa) = 83.97661 85.96280 84.96970
# Shear Modulus (GPa) = 29.82464 31.63114 30.72789
#
# Velocity S-wave (km/s) = 3.86502 3.98035 3.92311
# Velocity P-wave (km/s) = 7.87270 8.01128 7.94229
#
# Compressibility (1/GPa) = 0.01190808
#
# Stress axis : x y z
#
# Youngs Moduli (GPa) = 86.86890 107.74526 109.21052
#
# Poissons Ratio (x) = 0.38022 0.27292
# Poissons Ratio (y) = 0.30655 0.32684
# Poissons Ratio (z) = 0.21709 0.32245
#
# Static dielectric constant tensor:
#      x y z
#    x 3.582430 0.000000 0.000000 
#    y 0.000000 3.841340 0.000000 
#    z 0.000000 0.000000 3.862130 
# 
# 
# High freq. dielectric constant tensor:
#      x y z
#    x 1.776570 0.000000 0.000000 
#    y 0.000000 1.793860 0.000000 
#    z 0.000000 0.000000 1.781810 
# 
# From -- ./inp_files/24291.got.cif
#   From: 2010.03.12/outbox.cif.g09.slc.cpg/sg40_13_cif.got.tgz:24291.got - 2010.04.14 01:38:03.
