data_PCOD8184242
_publ_section_title
;
Structure prediction by ZEFSAII (Michael W. Deem and Ramdas Pophale) SiO2 
 PCOD8184242
Probable space group: A M A 2
;
_chemical_formula_sum "Si O2"
_cell_formula_units_Z 48
_cell_length_a 9.634816
_cell_length_b 7.674670
_cell_length_c 30.149406
_cell_angle_alpha 90.000000
_cell_angle_beta 90.000000
_cell_angle_gamma 90.000000
_cell_volume 2229.368682
_symmetry_space_group_name_H-M "A M A 2"
_symmetry_group_IT_number 40
_symmetry_cell_setting 'orthorhombic'
loop_
_space_group_symop_operation_xyz
x,y,z
-x,-y,z
1/2-x,y,z
1/2+x,-y,z
x,1/2+y,1/2+z
-x,1/2-y,1/2+z
1/2-x,1/2+y,1/2+z
1/2+x,1/2-y,1/2+z
loop_
_atom_site_type_symbol
_atom_site_label
_atom_site_fract_x
_atom_site_fract_y
_atom_site_fract_z
Si Si1 0.404023 0.348257 0.383100
Si Si2 0.500000 0.000000 0.600366
Si Si3 0.750000 0.012563 0.662086
Si Si4 0.080844 0.163997 0.043420
Si Si5 0.750000 0.838068 0.220937
Si Si6 0.586744 0.331346 0.971129
Si Si7 0.515950 0.804040 0.290413
Si Si8 0.250000 0.761652 0.238440
O O1 0.500000 0.500000 0.400712
O O2 0.250000 0.423175 0.385128
O O3 0.420915 0.190743 0.417954
O O4 0.436076 0.300715 0.332869
O O5 0.377559 0.049477 0.633026
O O6 0.451746 0.836379 0.571394
O O7 0.750000 0.220821 0.675709
O O8 0.750000 0.898001 0.705686
O O9 0.250000 0.138169 0.038676
O O10 0.000000 0.000000 0.066476
O O11 0.997837 0.179113 0.996491
O O12 0.617607 0.785779 0.249135
O O13 0.750000 0.049149 0.213086
O O14 0.500000 0.500000 0.984653
O O15 0.750000 0.343264 0.986421
O O16 0.374041 0.730746 0.272217
O O17 0.500000 0.000000 0.307034
#
# Coordination Sequence:
#
# PCOD8184242 Si02
#       8
#     8   4   4   8   4   8   8   4
#     4  11  25  40  60  97 138 180 234 291 339 415
#     4  12  28  48  72 108 146 182 240 306 364 440
#     4  12  26  44  72 102 138 182 238 298 362 432
#     4  12  27  48  78 109 146 193 237 296 366 439
#     4  10  22  42  66  93 139 179 232 290 347 422
#     4  11  24  44  72 103 144 187 236 292 355 425
#     4  10  21  40  62  93 133 181 229 286 346 412
#     4  10  24  40  68  99 131 185 236 288 359 424
#
# _framework density 21.530760000000001
#
# number of rings (size 3 to 8) (size 9 to 14) (size 15 to 20)
#    0.000    1.000    2.500    3.000    5.833    4.000 
#    0.000    0.000    0.000    0.000    0.000    0.000 
#    0.000    0.000    0.000    0.000    0.000    0.000 
#
# Total GULP energy -297417.342128 kJ/mol
# GULP energy per Si atom -12392.389255 kJ/mol
# Density = 2.148175 g / cm^3
# Si number density = 21.530760 Si / 1000 Ang^3
#
#
#
# Elastic Constant Matrix: (Units=GPa)
#
#
# Indices 1 2 3 4 5 6 
#
# 1 184.9779 41.2275 31.3099 0.0000 0.0000 0.0000
# 2 41.2275 90.3599 17.8949 0.0000 0.0000 0.0000
# 3 31.3099 17.8949 66.8915 0.0000 0.0000 0.0000
# 4 0.0000 0.0000 0.0000 90.7550 0.0000 0.0000
# 5 0.0000 0.0000 0.0000 0.0000 47.7698 0.0000
# 6 0.0000 0.0000 0.0000 0.0000 0.0000 36.8393
#
#
#
# Elastic Compliance Matrix: (Units=1/GPa)
#
#
# Indices 1 2 3 4 5 6 
#
# 1 0.006341 -0.002434 -0.002317 0.000000 0.000000 0.000000
# 2 -0.002434 0.012620 -0.002237 0.000000 0.000000 0.000000
# 3 -0.002317 -0.002237 0.016632 0.000000 0.000000 0.000000
# 4 0.000000 0.000000 0.000000 0.011019 0.000000 0.000000
# 5 0.000000 0.000000 0.000000 0.000000 0.020934 0.000000
# 6 0.000000 0.000000 0.000000 0.000000 0.000000 0.027145
#
#
# Mechanical properties :
#
#
# Convention : Reuss Voigt Hill
#
# Bulk Modulus (GPa) = 46.25770 58.12155 52.18963
# Shear Modulus (GPa) = 43.15090 51.85929 47.50510
#
# Velocity S-wave (km/s) = 4.48163 4.91309 4.70231
# Velocity P-wave (km/s) = 6.95062 7.69661 7.33311
#
# Compressibility (1/GPa) = 0.02161802
#
# Stress axis : x y z
#
# Youngs Moduli (GPa) = 157.71100 79.23631 60.12370
#
# Poissons Ratio (x) = 0.19288 0.13929
# Poissons Ratio (y) = 0.38390 0.13449
# Poissons Ratio (z) = 0.36537 0.17724
#
# Static dielectric constant tensor:
#      x y z
#    x 4.284700 0.000000 0.000000 
#    y 0.000000 4.389540 0.000000 
#    z 0.000000 0.000000 3.842040 
# 
# 
# High freq. dielectric constant tensor:
#      x y z
#    x 1.868380 0.000000 0.000000 
#    y 0.000000 1.845840 0.000000 
#    z 0.000000 0.000000 1.844930 
# 
# From -- ./inp_files/26233.got.cif
#   From: 2010.03.12/outbox.cif.g09.slc.cpg/sg40_14_cif.got.tgz:26233.got - 2010.04.14 01:38:03.
