data_PCOD8184516
_publ_section_title
;
Structure prediction by ZEFSAII (Michael W. Deem and Ramdas Pophale) SiO2 
 PCOD8184516
Probable space group: A M A 2
;
_chemical_formula_sum "Si O2"
_cell_formula_units_Z 64
_cell_length_a 18.243812
_cell_length_b 15.233083
_cell_length_c 11.649827
_cell_angle_alpha 90.000000
_cell_angle_beta 90.000000
_cell_angle_gamma 90.000000
_cell_volume 3237.597625
_symmetry_space_group_name_H-M "A M A 2"
_symmetry_group_IT_number 40
_symmetry_cell_setting 'orthorhombic'
loop_
_space_group_symop_operation_xyz
x,y,z
-x,-y,z
1/2-x,y,z
1/2+x,-y,z
x,1/2+y,1/2+z
-x,1/2-y,1/2+z
1/2-x,1/2+y,1/2+z
1/2+x,1/2-y,1/2+z
loop_
_atom_site_type_symbol
_atom_site_label
_atom_site_fract_x
_atom_site_fract_y
_atom_site_fract_z
Si Si1 0.941392 0.882119 0.065960
Si Si2 0.663823 0.876582 0.626225
Si Si3 0.931797 0.810330 0.817824
Si Si4 0.896540 0.071883 0.104171
Si Si5 0.836358 0.223032 0.954805
Si Si6 0.086996 0.780184 0.714378
Si Si7 0.332482 0.854153 0.328999
Si Si8 0.667175 0.071032 0.575253
O O1 0.900592 0.803322 0.131554
O O2 0.019650 0.899541 0.124380
O O3 0.891210 0.969163 0.071906
O O4 0.955345 0.859177 0.933344
O O5 0.750000 0.868245 0.643456
O O6 0.625954 0.868743 0.749204
O O7 0.635866 0.799794 0.540670
O O8 0.639738 0.971334 0.581586
O O9 0.892272 0.720135 0.847740
O O10 0.001697 0.794117 0.738157
O O11 0.851376 0.086025 0.220200
O O12 0.860846 0.128613 0.002259
O O13 0.750000 0.226098 0.940845
O O14 0.870920 0.239920 0.831304
O O15 0.116286 0.866582 0.651027
O O16 0.250000 0.815592 0.311856
O O17 0.336625 0.912884 0.440751
O O18 0.750000 0.082387 0.621898
#
# Coordination Sequence:
#
# PCOD8184516 Si02
#       8
#     8   8   8   8   8   8   8   8
#     4  11  25  42  63  97 133 164 214 268 323 377
#     4  10  23  43  67  94 123 163 216 263 313 382
#     4  12  23  42  67  92 126 172 216 262 313 380
#     4  11  23  43  64  94 129 170 212 263 317 388
#     4  11  23  42  65  92 129 171 213 263 322 382
#     4  12  24  42  64  94 132 168 208 266 325 379
#     4  11  22  42  67  91 126 171 214 262 316 377
#     4  10  24  43  64  94 129 163 208 266 321 378
#
# _framework density 19.767742999999999
#
# number of rings (size 3 to 8) (size 9 to 14) (size 15 to 20)
#    0.000    1.000    5.000    1.125    3.500    0.500 
#    0.000    3.750    0.000    0.000    0.000    0.000 
#    0.000    0.000    0.000    0.000    0.000    0.000 
#
# Total GULP energy -396922.331668 kJ/mol
# GULP energy per Si atom -12403.822865 kJ/mol
# Density = 1.972275 g / cm^3
# Si number density = 19.767743 Si / 1000 Ang^3
#
#
#
# Elastic Constant Matrix: (Units=GPa)
#
#
# Indices 1 2 3 4 5 6 
#
# 1 46.7068 35.9086 28.4264 0.0000 0.0000 0.0000
# 2 35.9086 139.9377 46.6116 0.0000 0.0000 0.0000
# 3 28.4264 46.6116 112.3599 0.0000 0.0000 0.0000
# 4 0.0000 0.0000 0.0000 27.7016 0.0000 0.0000
# 5 0.0000 0.0000 0.0000 0.0000 6.7327 0.0000
# 6 0.0000 0.0000 0.0000 0.0000 0.0000 31.2736
#
#
#
# Elastic Compliance Matrix: (Units=1/GPa)
#
#
# Indices 1 2 3 4 5 6 
#
# 1 0.028825 -0.005764 -0.004901 0.000000 0.000000 0.000000
# 2 -0.005764 0.009444 -0.002460 0.000000 0.000000 0.000000
# 3 -0.004901 -0.002460 0.011160 0.000000 0.000000 0.000000
# 4 0.000000 0.000000 0.000000 0.036099 0.000000 0.000000
# 5 0.000000 0.000000 0.000000 0.000000 0.148528 0.000000
# 6 0.000000 0.000000 0.000000 0.000000 0.000000 0.031976
#
#
# Mechanical properties :
#
#
# Convention : Reuss Voigt Hill
#
# Bulk Modulus (GPa) = 43.14176 57.87751 50.50963
# Shear Modulus (GPa) = 16.66618 25.67879 21.17248
#
# Velocity S-wave (km/s) = 2.90677 3.60811 3.27626
# Velocity P-wave (km/s) = 5.75651 6.83376 6.31814
#
# Compressibility (1/GPa) = 0.02317940
#
# Stress axis : x y z
#
# Youngs Moduli (GPa) = 34.69268 105.88318 89.60289
#
# Poissons Ratio (x) = 0.61030 0.43917
# Poissons Ratio (y) = 0.19997 0.22039
# Poissons Ratio (z) = 0.17004 0.26044
#
# Static dielectric constant tensor:
#      x y z
#    x 3.725750 0.000000 0.000000 
#    y 0.000000 3.743950 0.000000 
#    z 0.000000 0.000000 3.632120 
# 
# 
# High freq. dielectric constant tensor:
#      x y z
#    x 1.773900 0.000000 0.000000 
#    y 0.000000 1.776330 0.000000 
#    z 0.000000 0.000000 1.780800 
# 
# From -- ./inp_files/13150.got.cif
#   From: 2010.03.12/outbox.cif.g09.slc.cpg/sg40_7_cif.got.tgz:13150.got - 2010.04.14 01:38:03.
