data_PCOD8184511
_publ_section_title
;
Structure prediction by ZEFSAII (Michael W. Deem and Ramdas Pophale) SiO2 
 PCOD8184511
Probable space group: A M A 2
;
_chemical_formula_sum "Si O2"
_cell_formula_units_Z 64
_cell_length_a 17.183416
_cell_length_b 12.088736
_cell_length_c 15.193123
_cell_angle_alpha 90.000000
_cell_angle_beta 90.000000
_cell_angle_gamma 90.000000
_cell_volume 3156.003320
_symmetry_space_group_name_H-M "A M A 2"
_symmetry_group_IT_number 40
_symmetry_cell_setting 'orthorhombic'
loop_
_space_group_symop_operation_xyz
x,y,z
-x,-y,z
1/2-x,y,z
1/2+x,-y,z
x,1/2+y,1/2+z
-x,1/2-y,1/2+z
1/2-x,1/2+y,1/2+z
1/2+x,1/2-y,1/2+z
loop_
_atom_site_type_symbol
_atom_site_label
_atom_site_fract_x
_atom_site_fract_y
_atom_site_fract_z
Si Si1 0.341482 0.236346 0.769400
Si Si2 0.908010 0.625921 0.926068
Si Si3 0.091069 0.281676 0.582513
Si Si4 0.842485 0.719358 0.280282
Si Si5 0.407843 0.126069 0.424711
Si Si6 0.337635 0.512761 0.340012
Si Si7 0.838519 0.489580 0.541030
Si Si8 0.092158 0.733674 0.594861
O O1 0.250000 0.234133 0.786283
O O2 0.376436 0.326782 0.834834
O O3 0.359540 0.265945 0.669962
O O4 0.378139 0.114328 0.788151
O O5 0.878060 0.499756 0.935510
O O6 0.000070 0.630257 0.920745
O O7 0.878658 0.696798 0.010045
O O8 0.121982 0.196183 0.508697
O O9 0.106591 0.404927 0.549812
O O10 0.000525 0.266058 0.601436
O O11 0.750000 0.728000 0.283044
O O12 0.875476 0.823620 0.333946
O O13 0.876717 0.606711 0.324383
O O14 0.873000 0.711123 0.181345
O O15 0.250000 0.500150 0.305182
O O16 0.340255 0.548355 0.440783
O O17 0.750000 0.514422 0.572376
O O18 0.874959 0.390317 0.596329
#
# Coordination Sequence:
#
# PCOD8184511 Si02
#       8
#     8   8   8   8   8   8   8   8
#     4  11  23  41  64  92 123 161 206 255 310 368
#     4  10  23  43  63  87 124 164 205 253 306 367
#     4  11  24  41  63  93 125 162 205 254 310 369
#     4  11  23  41  64  92 123 161 206 255 310 368
#     4  10  23  43  63  87 124 164 205 253 306 367
#     4   9  20  39  63  90 121 154 201 259 308 358
#     4  11  21  41  67  90 121 160 205 257 306 364
#     4  11  24  41  63  93 125 162 205 254 310 369
#
# _framework density 20.278811000000001
#
# number of rings (size 3 to 8) (size 9 to 14) (size 15 to 20)
#    0.000    1.500    2.500    1.875    3.500    1.500 
#    0.000    1.875    0.000    0.000    0.000    0.000 
#    0.000    0.000    0.000    0.000    0.000    0.000 
#
# Total GULP energy -396844.989702 kJ/mol
# GULP energy per Si atom -12401.405928 kJ/mol
# Density = 2.023266 g / cm^3
# Si number density = 20.278811 Si / 1000 Ang^3
#
#
#
# Elastic Constant Matrix: (Units=GPa)
#
#
# Indices 1 2 3 4 5 6 
#
# 1 24.7195 25.4442 13.5617 0.0000 0.0000 0.0000
# 2 25.4442 139.2067 42.4599 0.0000 0.0000 0.0000
# 3 13.5617 42.4599 107.4142 0.0000 0.0000 0.0000
# 4 0.0000 0.0000 0.0000 24.2714 0.0000 0.0000
# 5 0.0000 0.0000 0.0000 0.0000 25.5466 0.0000
# 6 0.0000 0.0000 0.0000 0.0000 0.0000 28.1018
#
#
#
# Elastic Compliance Matrix: (Units=1/GPa)
#
#
# Indices 1 2 3 4 5 6 
#
# 1 0.050729 -0.008322 -0.003115 0.000000 0.000000 0.000000
# 2 -0.008322 0.009534 -0.002718 0.000000 0.000000 0.000000
# 3 -0.003115 -0.002718 0.010777 0.000000 0.000000 0.000000
# 4 0.000000 0.000000 0.000000 0.041201 0.000000 0.000000
# 5 0.000000 0.000000 0.000000 0.000000 0.039144 0.000000
# 6 0.000000 0.000000 0.000000 0.000000 0.000000 0.035585
#
#
# Mechanical properties :
#
#
# Convention : Reuss Voigt Hill
#
# Bulk Modulus (GPa) = 23.40282 48.25242 35.82762
# Shear Modulus (GPa) = 21.78425 28.24226 25.01325
#
# Velocity S-wave (km/s) = 3.28111 3.73594 3.51589
# Velocity P-wave (km/s) = 5.09115 6.51581 5.84703
#
# Compressibility (1/GPa) = 0.04272989
#
# Stress axis : x y z
#
# Youngs Moduli (GPa) = 19.71254 104.89153 92.78658
#
# Poissons Ratio (x) = 0.87292 0.28905
# Poissons Ratio (y) = 0.16405 0.25218
# Poissons Ratio (z) = 0.06141 0.28508
#
# Static dielectric constant tensor:
#      x y z
#    x 3.515920 0.000000 0.000000 
#    y 0.000000 3.974510 0.000000 
#    z 0.000000 0.000000 3.664030 
# 
# 
# High freq. dielectric constant tensor:
#      x y z
#    x 1.779790 0.000000 0.000000 
#    y 0.000000 1.808730 0.000000 
#    z 0.000000 0.000000 1.798240 
# 
# From -- ./inp_files/17821.got.cif
#   From: 2010.03.12/outbox.cif.g09.slc.cpg/sg40_9_cif.got.tgz:17821.got - 2010.04.14 01:38:03.
