data_PCOD8184753
_publ_section_title
;
Structure prediction by ZEFSAII (Michael W. Deem and Ramdas Pophale) SiO2 
 PCOD8184753
Probable space group: A B A 2
;
_chemical_formula_sum "Si O2"
_cell_formula_units_Z 64
_cell_length_a 8.840005
_cell_length_b 22.176962
_cell_length_c 15.343989
_cell_angle_alpha 90.000000
_cell_angle_beta 90.000000
_cell_angle_gamma 90.000000
_cell_volume 3008.103960
_symmetry_space_group_name_H-M "A B A 2"
_symmetry_group_IT_number 41
_symmetry_cell_setting 'orthorhombic'
loop_
_space_group_symop_operation_xyz
x,y,z
-x,-y,z
1/2-x,y,1/2+z
1/2+x,-y,1/2+z
x,1/2+y,1/2+z
-x,1/2-y,1/2+z
1/2-x,1/2+y,z
1/2+x,1/2-y,z
loop_
_atom_site_type_symbol
_atom_site_label
_atom_site_fract_x
_atom_site_fract_y
_atom_site_fract_z
Si Si1 0.088143 0.641413 0.494260
Si Si2 0.744255 0.287201 0.145333
Si Si3 0.503243 0.563197 0.382227
Si Si4 0.934893 0.936173 0.714156
Si Si5 0.746729 0.856649 0.823306
Si Si6 0.244899 0.400816 0.490342
Si Si7 0.926194 0.669957 0.123937
Si Si8 0.279979 0.033342 0.036872
O O1 0.125761 0.680276 0.580360
O O2 0.173882 0.671052 0.410195
O O3 0.138998 0.572459 0.504850
O O4 0.908271 0.637308 0.479085
O O5 0.740020 0.310141 0.244489
O O6 0.700281 0.217392 0.155173
O O7 0.913032 0.296713 0.107979
O O8 0.500000 0.500000 0.326490
O O9 0.423512 0.620064 0.337950
O O10 0.678426 0.582201 0.397668
O O11 0.421130 0.545283 0.473501
O O12 0.841691 0.916015 0.798209
O O13 0.826448 0.942024 0.631112
O O14 0.059833 0.884257 0.694387
O O15 0.000000 0.000000 0.740681
O O16 0.369262 0.357594 0.533881
O O17 0.227081 0.463631 0.543725
#
# Coordination Sequence:
#
# PCOD8184753 Si02
#       8
#     8   8   8   8   8   8   8   8
#     4  11  22  41  65  97 132 172 219 270 326 391
#     4  11  24  45  66  93 124 173 222 273 320 390
#     4   9  18  36  61  89 130 168 213 263 327 385
#     4  11  19  38  68  96 126 169 217 267 341 395
#     4  10  23  41  63  90 134 176 214 270 324 387
#     4  11  20  35  68 101 127 170 218 269 333 401
#     4  11  21  41  67  93 125 170 219 271 326 393
#     4  10  17  37  65  97 126 171 212 269 328 393
#
# _framework density 21.275860000000002
#
# number of rings (size 3 to 8) (size 9 to 14) (size 15 to 20)
#    0.000    1.500    5.000    2.250    0.000    3.000 
#    2.250   12.500    0.000    0.000    0.000    0.000 
#    0.000    0.000    0.000    0.000    0.000    0.000 
#
# Total GULP energy -396603.309262 kJ/mol
# GULP energy per Si atom -12393.853414 kJ/mol
# Density = 2.122744 g / cm^3
# Si number density = 21.275860 Si / 1000 Ang^3
#
#
#
# Elastic Constant Matrix: (Units=GPa)
#
#
# Indices 1 2 3 4 5 6 
#
# 1 88.0759 36.0353 10.9355 0.0000 0.0000 0.0000
# 2 36.0353 115.0225 24.9272 0.0000 0.0000 0.0000
# 3 10.9355 24.9272 75.2876 0.0000 0.0000 0.0000
# 4 0.0000 0.0000 0.0000 19.3715 0.0000 0.0000
# 5 0.0000 0.0000 0.0000 0.0000 18.5156 0.0000
# 6 0.0000 0.0000 0.0000 0.0000 0.0000 40.7242
#
#
#
# Elastic Compliance Matrix: (Units=1/GPa)
#
#
# Indices 1 2 3 4 5 6 
#
# 1 0.013047 -0.003961 -0.000584 0.000000 0.000000 0.000000
# 2 -0.003961 0.010569 -0.002924 0.000000 0.000000 0.000000
# 3 -0.000584 -0.002924 0.014335 0.000000 0.000000 0.000000
# 4 0.000000 0.000000 0.000000 0.051622 0.000000 0.000000
# 5 0.000000 0.000000 0.000000 0.000000 0.054009 0.000000
# 6 0.000000 0.000000 0.000000 0.000000 0.000000 0.024555
#
#
# Mechanical properties :
#
#
# Convention : Reuss Voigt Hill
#
# Bulk Modulus (GPa) = 43.45216 46.90911 45.18064
# Shear Modulus (GPa) = 26.21301 29.48812 27.85056
#
# Velocity S-wave (km/s) = 3.51387 3.72693 3.62197
# Velocity P-wave (km/s) = 6.07706 6.37306 6.22682
#
# Compressibility (1/GPa) = 0.02301381
#
# Stress axis : x y z
#
# Youngs Moduli (GPa) = 76.64663 94.62067 69.75825
#
# Poissons Ratio (x) = 0.37479 0.04071
# Poissons Ratio (y) = 0.30359 0.20396
# Poissons Ratio (z) = 0.04473 0.27665
#
# Static dielectric constant tensor:
#      x y z
#    x 3.873130 0.000000 0.000000 
#    y 0.000000 4.047340 0.000000 
#    z 0.000000 0.000000 3.600480 
# 
# 
# High freq. dielectric constant tensor:
#      x y z
#    x 1.831290 0.000000 0.000000 
#    y 0.000000 1.835180 0.000000 
#    z 0.000000 0.000000 1.809860 
# 
# From -- ./inp_files/7570.got.cif
#   From: 2010.03.12/outbox.cif.g09.slc.cpg/sg41_4_cif.got.tgz:7570.got - 2010.04.14 01:55:53.
