data_PCOD8184408
_publ_section_title
;
Structure prediction by ZEFSAII (Michael W. Deem and Ramdas Pophale) SiO2 
 PCOD8184408
Probable space group: A M A 2
;
_chemical_formula_sum "Si O2"
_cell_formula_units_Z 64
_cell_length_a 17.328169
_cell_length_b 11.961592
_cell_length_c 15.542931
_cell_angle_alpha 90.000000
_cell_angle_beta 90.000000
_cell_angle_gamma 90.000000
_cell_volume 3221.621974
_symmetry_space_group_name_H-M "A M A 2"
_symmetry_group_IT_number 40
_symmetry_cell_setting 'orthorhombic'
loop_
_space_group_symop_operation_xyz
x,y,z
-x,-y,z
1/2-x,y,z
1/2+x,-y,z
x,1/2+y,1/2+z
-x,1/2-y,1/2+z
1/2-x,1/2+y,1/2+z
1/2+x,1/2-y,1/2+z
loop_
_atom_site_type_symbol
_atom_site_label
_atom_site_fract_x
_atom_site_fract_y
_atom_site_fract_z
Si Si1 0.922899 0.138838 0.940320
Si Si2 0.593131 0.179257 0.233545
Si Si3 0.659773 0.288871 0.071763
Si Si4 0.837633 0.199595 0.410323
Si Si5 0.091579 0.600637 0.494897
Si Si6 0.339806 0.052632 0.175774
Si Si7 0.928408 0.321808 0.806627
Si Si8 0.416849 0.522226 0.971617
O O1 0.922625 0.196453 0.845834
O O2 0.006349 0.154034 0.985791
O O3 0.902103 0.007861 0.932503
O O4 0.858605 0.196889 0.999444
O O5 0.610505 0.264660 0.156875
O O6 0.623978 0.234261 0.320800
O O7 0.501966 0.161998 0.244756
O O8 0.637347 0.063214 0.220053
O O9 0.750000 0.284533 0.093316
O O10 0.636980 0.411139 0.037800
O O11 0.750000 0.166525 0.396212
O O12 0.844791 0.307950 0.470653
O O13 0.878394 0.095462 0.453987
O O14 0.106581 0.564336 0.592371
O O15 0.250000 0.053183 0.150548
O O16 0.355636 0.151677 0.244819
O O17 0.931355 0.409583 0.884223
O O18 0.500000 0.500000 0.014927
#
# Coordination Sequence:
#
# PCOD8184408 Si02
#       8
#     8   8   8   8   8   8   8   8
#     4  10  22  41  64  90 125 169 217 256 315 376
#     4  12  22  40  62  94 127 162 212 256 316 379
#     4  11  23  38  62  95 128 161 205 264 319 370
#     4  12  23  39  64  91 128 168 207 256 317 381
#     4  11  23  42  64  92 129 169 214 261 316 384
#     4  12  24  38  63  99 130 163 210 270 324 372
#     4  11  22  40  65  95 124 165 213 266 315 373
#     4  11  21  41  63  91 126 163 213 259 311 376
#
# _framework density 19.865770000000001
#
# number of rings (size 3 to 8) (size 9 to 14) (size 15 to 20)
#    0.000    0.750    5.000    3.750    1.750    2.500 
#    0.000    2.500    0.000    0.000    0.000    0.000 
#    0.000    0.000    0.000    0.000    0.000    0.000 
#
# Total GULP energy -396919.020230 kJ/mol
# GULP energy per Si atom -12403.719382 kJ/mol
# Density = 1.982055 g / cm^3
# Si number density = 19.865770 Si / 1000 Ang^3
#
#
#
# Elastic Constant Matrix: (Units=GPa)
#
#
# Indices 1 2 3 4 5 6 
#
# 1 70.0814 28.1805 22.2605 0.0000 0.0000 0.0000
# 2 28.1805 114.0930 43.6017 0.0000 0.0000 0.0000
# 3 22.2605 43.6017 81.3803 0.0000 0.0000 0.0000
# 4 0.0000 0.0000 0.0000 57.1648 0.0000 0.0000
# 5 0.0000 0.0000 0.0000 0.0000 17.3384 0.0000
# 6 0.0000 0.0000 0.0000 0.0000 0.0000 17.1108
#
#
#
# Elastic Compliance Matrix: (Units=1/GPa)
#
#
# Indices 1 2 3 4 5 6 
#
# 1 0.016372 -0.002933 -0.002907 0.000000 0.000000 0.000000
# 2 -0.002933 0.011547 -0.005384 0.000000 0.000000 0.000000
# 3 -0.002907 -0.005384 0.015968 0.000000 0.000000 0.000000
# 4 0.000000 0.000000 0.000000 0.017493 0.000000 0.000000
# 5 0.000000 0.000000 0.000000 0.000000 0.057675 0.000000
# 6 0.000000 0.000000 0.000000 0.000000 0.000000 0.058443
#
#
# Mechanical properties :
#
#
# Convention : Reuss Voigt Hill
#
# Bulk Modulus (GPa) = 46.64526 50.40446 48.52486
# Shear Modulus (GPa) = 24.14382 29.75692 26.95037
#
# Velocity S-wave (km/s) = 3.48997 3.87447 3.68723
# Velocity P-wave (km/s) = 6.30643 6.74114 6.52740
#
# Compressibility (1/GPa) = 0.02143841
#
# Stress axis : x y z
#
# Youngs Moduli (GPa) = 61.08064 86.60377 62.62556
#
# Poissons Ratio (x) = 0.25400 0.18205
# Poissons Ratio (y) = 0.17914 0.33719
# Poissons Ratio (z) = 0.17756 0.46630
#
# Static dielectric constant tensor:
#      x y z
#    x 3.650780 0.000000 0.000000 
#    y 0.000000 3.694370 0.000000 
#    z 0.000000 0.000000 3.601610 
# 
# 
# High freq. dielectric constant tensor:
#      x y z
#    x 1.781610 0.000000 0.000000 
#    y 0.000000 1.772230 0.000000 
#    z 0.000000 0.000000 1.765610 
# 
# From -- ./inp_files/17834.got.cif
#   From: 2010.03.12/outbox.cif.g09.slc.cpg/sg40_9_cif.got.tgz:17834.got - 2010.04.14 01:38:03.
