data_PCOD8184047
_publ_section_title
;
Structure prediction by ZEFSAII (Michael W. Deem and Ramdas Pophale) SiO2 
 PCOD8184047
Probable space group: A M A 2
;
_chemical_formula_sum "Si O2"
_cell_formula_units_Z 48
_cell_length_a 9.694159
_cell_length_b 29.313011
_cell_length_c 8.540028
_cell_angle_alpha 90.000000
_cell_angle_beta 90.000000
_cell_angle_gamma 90.000000
_cell_volume 2426.776966
_symmetry_space_group_name_H-M "A M A 2"
_symmetry_group_IT_number 40
_symmetry_cell_setting 'orthorhombic'
loop_
_space_group_symop_operation_xyz
x,y,z
-x,-y,z
1/2-x,y,z
1/2+x,-y,z
x,1/2+y,1/2+z
-x,1/2-y,1/2+z
1/2-x,1/2+y,1/2+z
1/2+x,1/2-y,1/2+z
loop_
_atom_site_type_symbol
_atom_site_label
_atom_site_fract_x
_atom_site_fract_y
_atom_site_fract_z
Si Si1 0.096339 0.774526 0.033930
Si Si2 0.399180 0.373292 0.100338
Si Si3 0.408703 0.153237 0.873907
Si Si4 0.401186 0.104166 0.183953
Si Si5 0.909518 0.044045 0.382278
Si Si6 0.996306 0.309231 0.854248
O O1 0.250000 0.793427 0.002854
O O2 0.066401 0.778168 0.219553
O O3 0.987035 0.802164 0.932435
O O4 0.089216 0.722409 0.974466
O O5 0.250000 0.369827 0.185688
O O6 0.525712 0.364403 0.214123
O O7 0.418876 0.424051 0.033867
O O8 0.393231 0.336785 0.958342
O O9 0.250000 0.166444 0.843366
O O10 0.423056 0.112798 0.999917
O O11 0.250000 0.082173 0.214073
O O12 0.521897 0.070044 0.235025
O O13 0.400105 0.152923 0.272529
O O14 0.750000 0.032110 0.341787
O O15 0.000000 0.000000 0.421256
#
# Coordination Sequence:
#
# PCOD8184047 Si02
#       6
#     8   8   8   8   8   8
#     4  11  22  36  55  78 109 148 190 233 276 324
#     4  10  21  37  57  81 112 148 185 225 272 325
#     4  10  22  37  56  82 111 146 186 229 276 324
#     4   9  19  37  57  79 109 143 182 228 277 328
#     4  10  21  37  60  88 113 142 179 220 269 328
#     4  10  21  34  54  82 110 145 190 233 277 323
#
# _framework density 19.779319999999998
#
# number of rings (size 3 to 8) (size 9 to 14) (size 15 to 20)
#    0.000    2.000    0.000    3.000    0.000   12.000 
#    0.000    0.833    0.000    2.000    0.000    0.000 
#    0.000    0.000    0.000    0.000    0.000    0.000 
#
# Total GULP energy -297517.991673 kJ/mol
# GULP energy per Si atom -12396.582986 kJ/mol
# Density = 1.973430 g / cm^3
# Si number density = 19.779320 Si / 1000 Ang^3
#
#
#
# Elastic Constant Matrix: (Units=GPa)
#
#
# Indices 1 2 3 4 5 6 
#
# 1 169.2084 53.5897 57.9370 0.0000 0.0000 0.0000
# 2 53.5897 90.1845 46.3906 0.0000 0.0000 0.0000
# 3 57.9370 46.3906 99.6864 0.0000 0.0000 0.0000
# 4 0.0000 0.0000 0.0000 20.1781 0.0000 0.0000
# 5 0.0000 0.0000 0.0000 0.0000 25.3368 0.0000
# 6 0.0000 0.0000 0.0000 0.0000 0.0000 19.9765
#
#
#
# Elastic Compliance Matrix: (Units=1/GPa)
#
#
# Indices 1 2 3 4 5 6 
#
# 1 0.007987 -0.003101 -0.003199 0.000000 0.000000 0.000000
# 2 -0.003101 0.015782 -0.005542 0.000000 0.000000 0.000000
# 3 -0.003199 -0.005542 0.014470 0.000000 0.000000 0.000000
# 4 0.000000 0.000000 0.000000 0.049559 0.000000 0.000000
# 5 0.000000 0.000000 0.000000 0.000000 0.039468 0.000000
# 6 0.000000 0.000000 0.000000 0.000000 0.000000 0.050059
#
#
# Mechanical properties :
#
#
# Convention : Reuss Voigt Hill
#
# Bulk Modulus (GPa) = 68.70538 74.99042 71.84790
# Shear Modulus (GPa) = 24.28830 26.50908 25.39869
#
# Velocity S-wave (km/s) = 3.50803 3.66490 3.58733
# Velocity P-wave (km/s) = 7.15680 7.47693 7.31862
#
# Compressibility (1/GPa) = 0.01455490
#
# Stress axis : x y z
#
# Youngs Moduli (GPa) = 125.19932 63.36457 69.10843
#
# Poissons Ratio (x) = 0.19646 0.22110
# Poissons Ratio (y) = 0.38818 0.38302
# Poissons Ratio (z) = 0.40054 0.35118
#
# Static dielectric constant tensor:
#      x y z
#    x 3.641100 0.000000 0.000000 
#    y 0.000000 3.433900 0.000000 
#    z 0.000000 0.000000 3.578510 
# 
# 
# High freq. dielectric constant tensor:
#      x y z
#    x 1.781380 0.000000 0.000000 
#    y 0.000000 1.755120 0.000000 
#    z 0.000000 0.000000 1.767000 
# 
# From -- ./inp_files/4608.got.cif
#   From: 2010.03.12/outbox.cif.g09.slc.cpg/sg40_3_cif.got.tgz:4608.got - 2010.04.14 01:38:03.
