data_PCOD8184705
_publ_section_title
;
Structure prediction by ZEFSAII (Michael W. Deem and Ramdas Pophale) SiO2 
 PCOD8184705
Probable space group: A M A 2
;
_chemical_formula_sum "Si O2"
_cell_formula_units_Z 40
_cell_length_a 27.757711
_cell_length_b 13.055193
_cell_length_c 4.873639
_cell_angle_alpha 90.000000
_cell_angle_beta 90.000000
_cell_angle_gamma 90.000000
_cell_volume 1766.120385
_symmetry_space_group_name_H-M "A M A 2"
_symmetry_group_IT_number 40
_symmetry_cell_setting 'orthorhombic'
loop_
_space_group_symop_operation_xyz
x,y,z
-x,-y,z
1/2-x,y,z
1/2+x,-y,z
x,1/2+y,1/2+z
-x,1/2-y,1/2+z
1/2-x,1/2+y,1/2+z
1/2+x,1/2-y,1/2+z
loop_
_atom_site_type_symbol
_atom_site_label
_atom_site_fract_x
_atom_site_fract_y
_atom_site_fract_z
Si Si1 0.967111 0.241194 0.302590
Si Si2 0.403236 0.575658 0.132542
Si Si3 0.945227 0.024407 0.114768
Si Si4 0.750000 0.082759 0.171203
Si Si5 0.250000 0.272068 0.171447
Si Si6 0.800565 0.405295 0.907393
O O1 0.927070 0.327732 0.279522
O O2 0.939772 0.136858 0.235011
O O3 0.986648 0.237296 0.611770
O O4 0.412475 0.481823 0.341753
O O5 0.427684 0.557281 0.839503
O O6 0.346570 0.594537 0.101279
O O7 0.000000 0.000000 0.029968
O O8 0.750000 0.183134 0.366132
O O9 0.797599 0.009958 0.221395
O O10 0.750000 0.127479 0.865917
O O11 0.202428 0.199244 0.221761
O O12 0.750000 0.405395 0.087346
#
# Coordination Sequence:
#
# PCOD8184705 Si02
#       6
#     8   8   8   4   4   8
#     4  12  23  40  64  91 127 166 208 261 311 371
#     4  12  24  43  64  95 125 170 208 253 326 367
#     4  12  24  41  67  90 130 166 210 262 313 371
#     4   9  20  39  64  86 126 159 202 257 312 354
#     4   9  20  41  66  86 130 161 202 259 314 352
#     4   8  24  42  64  95 127 163 210 263 302 381
#
# _framework density 22.648512
#
# number of rings (size 3 to 8) (size 9 to 14) (size 15 to 20)
#    1.200    0.000    4.000    1.800    0.000    9.600 
#    0.000    0.000    0.000    0.000    0.000    0.000 
#    0.000    0.000    0.000    0.000    0.000    0.000 
#
# Total GULP energy -247881.166674 kJ/mol
# GULP energy per Si atom -12394.058334 kJ/mol
# Density = 2.259696 g / cm^3
# Si number density = 22.648512 Si / 1000 Ang^3
#
#
#
# Elastic Constant Matrix: (Units=GPa)
#
#
# Indices 1 2 3 4 5 6 
#
# 1 98.2021 10.5993 6.2982 0.0000 0.0000 0.0000
# 2 10.5993 98.1764 -7.8372 0.0000 0.0000 0.0000
# 3 6.2982 -7.8372 59.1892 0.0000 0.0000 0.0000
# 4 0.0000 0.0000 0.0000 22.9243 0.0000 0.0000
# 5 0.0000 0.0000 0.0000 0.0000 15.3168 0.0000
# 6 0.0000 0.0000 0.0000 0.0000 0.0000 27.5693
#
#
#
# Elastic Compliance Matrix: (Units=1/GPa)
#
#
# Indices 1 2 3 4 5 6 
#
# 1 0.010396 -0.001224 -0.001268 0.000000 0.000000 0.000000
# 2 -0.001224 0.010439 0.001512 0.000000 0.000000 0.000000
# 3 -0.001268 0.001512 0.017230 0.000000 0.000000 0.000000
# 4 0.000000 0.000000 0.000000 0.043622 0.000000 0.000000
# 5 0.000000 0.000000 0.000000 0.000000 0.065288 0.000000
# 6 0.000000 0.000000 0.000000 0.000000 0.000000 0.036272
#
#
# Mechanical properties :
#
#
# Convention : Reuss Voigt Hill
#
# Bulk Modulus (GPa) = 27.69619 30.40984 29.05301
# Shear Modulus (GPa) = 25.34960 29.59589 27.47274
#
# Velocity S-wave (km/s) = 3.34917 3.61882 3.48660
# Velocity P-wave (km/s) = 5.21643 5.56032 5.39112
#
# Compressibility (1/GPa) = 0.03610605
#
# Stress axis : x y z
#
# Youngs Moduli (GPa) = 96.18623 95.79839 58.03769
#
# Poissons Ratio (x) = 0.11723 0.07361
# Poissons Ratio (y) = 0.11770 -0.08777
# Poissons Ratio (z) = 0.12199 -0.14488
#
# Static dielectric constant tensor:
#      x y z
#    x 3.812080 0.000000 0.000000 
#    y 0.000000 4.365920 0.000000 
#    z 0.000000 0.000000 3.806090 
# 
# 
# High freq. dielectric constant tensor:
#      x y z
#    x 1.862680 0.000000 0.000000 
#    y 0.000000 1.909050 0.000000 
#    z 0.000000 0.000000 1.886490 
# 
# From -- ./inp_files/2984.got.cif
#   From: 2010.03.12/outbox.cif.g09.slc.cpg/sg40_2_cif.got.tgz:2984.got - 2010.04.14 01:38:03.
