data_PCOD8184608
_publ_section_title
;
Structure prediction by ZEFSAII (Michael W. Deem and Ramdas Pophale) SiO2 
 PCOD8184608
Probable space group: A M A 2
;
_chemical_formula_sum "Si O2"
_cell_formula_units_Z 48
_cell_length_a 14.557128
_cell_length_b 8.438655
_cell_length_c 18.789013
_cell_angle_alpha 90.000000
_cell_angle_beta 90.000000
_cell_angle_gamma 90.000000
_cell_volume 2308.090851
_symmetry_space_group_name_H-M "A M A 2"
_symmetry_group_IT_number 40
_symmetry_cell_setting 'orthorhombic'
loop_
_space_group_symop_operation_xyz
x,y,z
-x,-y,z
1/2-x,y,z
1/2+x,-y,z
x,1/2+y,1/2+z
-x,1/2-y,1/2+z
1/2-x,1/2+y,1/2+z
1/2+x,1/2-y,1/2+z
loop_
_atom_site_type_symbol
_atom_site_label
_atom_site_fract_x
_atom_site_fract_y
_atom_site_fract_z
Si Si1 0.077112 0.378549 0.200440
Si Si2 0.919635 0.877374 0.088147
Si Si3 0.250000 0.588164 0.192818
Si Si4 0.565725 0.852862 0.930194
Si Si5 0.250000 0.660185 0.356629
Si Si6 0.941975 0.352162 0.829933
Si Si7 0.250000 0.451474 0.662423
Si Si8 0.750000 0.485928 0.831234
O O1 0.047416 0.269590 0.135122
O O2 0.164190 0.478358 0.173927
O O3 0.087834 0.272540 0.270284
O O4 0.000000 0.500000 0.222120
O O5 0.835726 0.969840 0.123675
O O6 0.900367 0.806263 0.009506
O O7 0.000000 0.000000 0.081965
O O8 0.250000 0.619649 0.275229
O O9 0.250000 0.759286 0.152705
O O10 0.656696 0.910083 0.888822
O O11 0.509214 0.712630 0.891612
O O12 0.500000 0.000000 0.933138
O O13 0.250000 0.846532 0.369798
O O14 0.842490 0.402862 0.860464
O O15 0.000000 0.500000 0.796142
O O16 0.250000 0.500055 0.745294
#
# Coordination Sequence:
#
# PCOD8184608 Si02
#       8
#     8   8   4   8   4   8   4   4
#     4  12  24  39  64  99 132 169 220 291 337 392
#     4  11  24  44  68  93 135 189 228 273 346 414
#     4  11  24  38  67 100 130 164 224 297 343 390
#     4  11  25  43  68  95 137 185 229 289 340 414
#     4  11  21  42  63  98 132 173 221 281 351 397
#     4  12  23  41  68 100 136 182 233 283 348 418
#     4  11  22  44  69  97 133 174 235 278 341 419
#     4  11  23  38  71  99 127 175 222 286 337 404
#
# _framework density 20.796409000000001
#
# number of rings (size 3 to 8) (size 9 to 14) (size 15 to 20)
#    0.000    0.667    3.333    5.500    2.333    1.333 
#    0.000    0.833    7.333    0.000    0.000    0.000 
#    0.000    0.000    0.000    0.000    0.000    0.000 
#
# Total GULP energy -297521.394212 kJ/mol
# GULP energy per Si atom -12396.724759 kJ/mol
# Density = 2.074907 g / cm^3
# Si number density = 20.796409 Si / 1000 Ang^3
#
#
#
# Elastic Constant Matrix: (Units=GPa)
#
#
# Indices 1 2 3 4 5 6 
#
# 1 119.4709 14.2913 7.4170 0.0000 0.0000 0.0000
# 2 14.2913 88.7264 20.2697 0.0000 0.0000 0.0000
# 3 7.4170 20.2697 81.5681 0.0000 0.0000 0.0000
# 4 0.0000 0.0000 0.0000 26.9159 0.0000 0.0000
# 5 0.0000 0.0000 0.0000 0.0000 57.5264 0.0000
# 6 0.0000 0.0000 0.0000 0.0000 0.0000 25.7523
#
#
#
# Elastic Compliance Matrix: (Units=1/GPa)
#
#
# Indices 1 2 3 4 5 6 
#
# 1 0.008551 -0.001272 -0.000461 0.000000 0.000000 0.000000
# 2 -0.001272 0.012138 -0.002901 0.000000 0.000000 0.000000
# 3 -0.000461 -0.002901 0.013022 0.000000 0.000000 0.000000
# 4 0.000000 0.000000 0.000000 0.037153 0.000000 0.000000
# 5 0.000000 0.000000 0.000000 0.000000 0.017383 0.000000
# 6 0.000000 0.000000 0.000000 0.000000 0.000000 0.038831
#
#
# Mechanical properties :
#
#
# Convention : Reuss Voigt Hill
#
# Bulk Modulus (GPa) = 40.91063 41.52461 41.21762
# Shear Modulus (GPa) = 34.60324 38.55808 36.58066
#
# Velocity S-wave (km/s) = 4.08352 4.31057 4.19858
# Velocity P-wave (km/s) = 6.47675 6.69217 6.58534
#
# Compressibility (1/GPa) = 0.02444353
#
# Stress axis : x y z
#
# Youngs Moduli (GPa) = 116.94486 82.38496 76.79027
#
# Poissons Ratio (x) = 0.10479 0.03544
# Poissons Ratio (y) = 0.14874 0.22274
# Poissons Ratio (z) = 0.05397 0.23897
#
# Static dielectric constant tensor:
#      x y z
#    x 3.080220 0.000000 0.000000 
#    y 0.000000 4.167230 0.000000 
#    z 0.000000 0.000000 3.959810 
# 
# 
# High freq. dielectric constant tensor:
#      x y z
#    x 1.833500 0.000000 0.000000 
#    y 0.000000 1.825960 0.000000 
#    z 0.000000 0.000000 1.799610 
# 
# From -- ./inp_files/20632.got.cif
#   From: 2010.03.12/outbox.cif.g09.slc.cpg/sg40_11_cif.got.tgz:20632.got - 2010.04.14 01:38:03.
