data_PCOD8184111
_publ_section_title
;
Structure prediction by ZEFSAII (Michael W. Deem and Ramdas Pophale) SiO2 
 PCOD8184111
Probable space group: A M A 2
;
_chemical_formula_sum "Si O2"
_cell_formula_units_Z 48
_cell_length_a 8.601147
_cell_length_b 20.491631
_cell_length_c 14.402731
_cell_angle_alpha 90.000000
_cell_angle_beta 90.000000
_cell_angle_gamma 90.000000
_cell_volume 2538.503382
_symmetry_space_group_name_H-M "A M A 2"
_symmetry_group_IT_number 40
_symmetry_cell_setting 'orthorhombic'
loop_
_space_group_symop_operation_xyz
x,y,z
-x,-y,z
1/2-x,y,z
1/2+x,-y,z
x,1/2+y,1/2+z
-x,1/2-y,1/2+z
1/2-x,1/2+y,1/2+z
1/2+x,1/2-y,1/2+z
loop_
_atom_site_type_symbol
_atom_site_label
_atom_site_fract_x
_atom_site_fract_y
_atom_site_fract_z
Si Si1 0.566967 0.068422 0.322770
Si Si2 0.067718 0.306130 0.936455
Si Si3 0.566689 0.568495 0.436155
Si Si4 0.067596 0.308627 0.316371
Si Si5 0.432680 0.729594 0.125431
Si Si6 0.065032 0.378168 0.629469
O O1 0.750000 0.062503 0.317350
O O2 0.516717 0.124343 0.394647
O O3 0.498921 0.085786 0.220708
O O4 0.500000 0.000000 0.358186
O O5 0.250000 0.293489 0.920546
O O6 0.971437 0.249911 0.885788
O O7 0.025189 0.307687 0.044674
O O8 0.500000 0.500000 0.401051
O O9 0.750000 0.563995 0.442141
O O10 0.515703 0.623968 0.364146
O O11 0.499007 0.585678 0.538317
O O12 0.250000 0.307212 0.294367
O O13 0.970303 0.304936 0.222222
O O14 0.250000 0.725841 0.105025
O O15 0.493750 0.803759 0.129717
O O16 0.250000 0.377700 0.630508
#
# Coordination Sequence:
#
# PCOD8184111 Si02
#       6
#     8   8   8   8   8   8
#     4  10  21  37  57  83 119 154 190 237 288 345
#     4  11  22  38  60  87 118 154 196 242 289 345
#     4  10  21  37  57  83 119 154 190 237 288 345
#     4  11  22  38  60  87 118 154 196 242 289 345
#     4  11  21  38  61  87 119 151 193 246 294 341
#     4   9  17  34  56  83 118 150 179 231 293 339
#
# _framework density 18.90878
#
# number of rings (size 3 to 8) (size 9 to 14) (size 15 to 20)
#    0.000    1.667    3.333    2.000    0.000    2.667 
#    0.000    0.833    0.000    0.000    0.000    0.000 
#    0.000    0.000    0.000    0.000    0.000    0.000 
#
# Total GULP energy -297688.324448 kJ/mol
# GULP energy per Si atom -12403.680185 kJ/mol
# Density = 1.886574 g / cm^3
# Si number density = 18.908780 Si / 1000 Ang^3
#
#
#
# Elastic Constant Matrix: (Units=GPa)
#
#
# Indices 1 2 3 4 5 6 
#
# 1 27.0416 27.4102 9.6080 0.0000 0.0000 0.0000
# 2 27.4102 162.1373 60.1721 0.0000 0.0000 0.0000
# 3 9.6080 60.1721 108.8616 0.0000 0.0000 0.0000
# 4 0.0000 0.0000 0.0000 30.6427 0.0000 0.0000
# 5 0.0000 0.0000 0.0000 0.0000 28.2685 0.0000
# 6 0.0000 0.0000 0.0000 0.0000 0.0000 29.4220
#
#
#
# Elastic Compliance Matrix: (Units=1/GPa)
#
#
# Indices 1 2 3 4 5 6 
#
# 1 0.044635 -0.007654 0.000291 0.000000 0.000000 0.000000
# 2 -0.007654 0.009072 -0.004339 0.000000 0.000000 0.000000
# 3 0.000291 -0.004339 0.011558 0.000000 0.000000 0.000000
# 4 0.000000 0.000000 0.000000 0.032634 0.000000 0.000000
# 5 0.000000 0.000000 0.000000 0.000000 0.035375 0.000000
# 6 0.000000 0.000000 0.000000 0.000000 0.000000 0.033988
#
#
# Mechanical properties :
#
#
# Convention : Reuss Voigt Hill
#
# Bulk Modulus (GPa) = 23.88792 54.71345 39.30069
# Shear Modulus (GPa) = 24.43560 31.05664 27.74612
#
# Velocity S-wave (km/s) = 3.59874 4.05711 3.83478
# Velocity P-wave (km/s) = 5.47070 7.13758 6.35900
#
# Compressibility (1/GPa) = 0.04186217
#
# Stress axis : x y z
#
# Youngs Moduli (GPa) = 22.40404 110.23249 86.51642
#
# Poissons Ratio (x) = 0.84370 -0.02519
# Poissons Ratio (y) = 0.17148 0.37538
# Poissons Ratio (z) = -0.00652 0.47828
#
# Static dielectric constant tensor:
#      x y z
#    x 3.237450 0.000000 0.000000 
#    y 0.000000 3.668780 0.000000 
#    z 0.000000 0.000000 3.606430 
# 
# 
# High freq. dielectric constant tensor:
#      x y z
#    x 1.720560 0.000000 0.000000 
#    y 0.000000 1.734590 0.000000 
#    z 0.000000 0.000000 1.738710 
# 
# From -- ./inp_files/15036.got.cif
#   From: 2010.03.12/outbox.cif.g09.slc.cpg/sg40_8_cif.got.tgz:15036.got - 2010.04.14 01:38:03.
