data_PCOD8184682
_publ_section_title
;
Structure prediction by ZEFSAII (Michael W. Deem and Ramdas Pophale) SiO2 
 PCOD8184682
Probable space group: A M A 2
;
_chemical_formula_sum "Si O2"
_cell_formula_units_Z 48
_cell_length_a 22.574295
_cell_length_b 8.983466
_cell_length_c 10.871257
_cell_angle_alpha 90.000000
_cell_angle_beta 90.000000
_cell_angle_gamma 90.000000
_cell_volume 2204.641038
_symmetry_space_group_name_H-M "A M A 2"
_symmetry_group_IT_number 40
_symmetry_cell_setting 'orthorhombic'
loop_
_space_group_symop_operation_xyz
x,y,z
-x,-y,z
1/2-x,y,z
1/2+x,-y,z
x,1/2+y,1/2+z
-x,1/2-y,1/2+z
1/2-x,1/2+y,1/2+z
1/2+x,1/2-y,1/2+z
loop_
_atom_site_type_symbol
_atom_site_label
_atom_site_fract_x
_atom_site_fract_y
_atom_site_fract_z
Si Si1 0.750000 0.405686 0.580471
Si Si2 0.346069 0.951896 0.402250
Si Si3 0.473138 0.342924 0.916145
Si Si4 0.480959 0.830684 0.684811
Si Si5 0.250000 0.881742 0.874201
Si Si6 0.348251 0.236457 0.230079
Si Si7 0.750000 0.401531 0.049642
Si Si8 0.750000 0.690090 0.753780
O O1 0.750000 0.455169 0.437703
O O2 0.689935 0.313857 0.610377
O O3 0.750000 0.554928 0.658857
O O4 0.404438 0.868633 0.445486
O O5 0.308675 0.825130 0.334072
O O6 0.359789 0.093709 0.316456
O O7 0.309183 0.004135 0.522049
O O8 0.500000 0.500000 0.881533
O O9 0.482908 0.244372 0.795394
O O10 0.499217 0.274509 0.045448
O O11 0.411012 0.807915 0.698844
O O12 0.500000 0.000000 0.691753
O O13 0.309728 0.864767 0.795386
O O14 0.250000 0.745564 0.968497
O O15 0.750000 0.353526 0.192031
#
# Coordination Sequence:
#
# PCOD8184682 Si02
#       8
#     4   8   8   8   4   8   4   4
#     4   8  15  29  54  91 120 162 205 251 317 394
#     4   9  17  34  61  88 122 164 213 256 319 392
#     4  11  24  45  66  89 125 174 221 271 324 379
#     4  11  26  44  63  94 129 170 226 275 323 380
#     4   8  15  29  56  94 130 157 197 256 332 376
#     4   9  17  35  59  88 126 162 208 264 316 386
#     4   8  15  29  56  95 126 160 197 261 321 384
#     4   8  15  27  52  96 126 151 203 258 322 388
#
# _framework density 21.772252000000002
#
# number of rings (size 3 to 8) (size 9 to 14) (size 15 to 20)
#    0.000    2.667    1.667    2.000    0.000    4.667 
#    6.000    3.333    0.000    6.000    0.000    0.000 
#    0.000    0.000    0.000    0.000    0.000    0.000 
#
# Total GULP energy -297413.871536 kJ/mol
# GULP energy per Si atom -12392.244647 kJ/mol
# Density = 2.172270 g / cm^3
# Si number density = 21.772252 Si / 1000 Ang^3
#
#
#
# Elastic Constant Matrix: (Units=GPa)
#
#
# Indices 1 2 3 4 5 6 
#
# 1 126.1144 49.0418 35.3408 0.0000 0.0000 0.0000
# 2 49.0418 74.6856 64.3027 0.0000 0.0000 0.0000
# 3 35.3408 64.3027 149.5664 0.0000 0.0000 0.0000
# 4 0.0000 0.0000 0.0000 109.4688 0.0000 0.0000
# 5 0.0000 0.0000 0.0000 0.0000 24.3111 0.0000
# 6 0.0000 0.0000 0.0000 0.0000 0.0000 38.3648
#
#
#
# Elastic Compliance Matrix: (Units=1/GPa)
#
#
# Indices 1 2 3 4 5 6 
#
# 1 0.010706 -0.007703 0.000782 0.000000 0.000000 0.000000
# 2 -0.007703 0.026801 -0.009702 0.000000 0.000000 0.000000
# 3 0.000782 -0.009702 0.010673 0.000000 0.000000 0.000000
# 4 0.000000 0.000000 0.000000 0.009135 0.000000 0.000000
# 5 0.000000 0.000000 0.000000 0.000000 0.041133 0.000000
# 6 0.000000 0.000000 0.000000 0.000000 0.000000 0.026066
#
#
# Mechanical properties :
#
#
# Convention : Reuss Voigt Hill
#
# Bulk Modulus (GPa) = 66.96787 71.97080 69.46934
# Shear Modulus (GPa) = 30.72420 47.87433 39.29926
#
# Velocity S-wave (km/s) = 3.76062 4.69430 4.25316
# Velocity P-wave (km/s) = 7.04851 7.90632 7.48970
#
# Compressibility (1/GPa) = 0.01493253
#
# Stress axis : x y z
#
# Youngs Moduli (GPa) = 93.40847 37.31149 93.69866
#
# Poissons Ratio (x) = 0.28742 -0.07329
# Poissons Ratio (y) = 0.71955 0.90911
# Poissons Ratio (z) = -0.07307 0.36201
#
# Static dielectric constant tensor:
#      x y z
#    x 3.469410 0.000000 0.000000 
#    y 0.000000 3.978910 0.000000 
#    z 0.000000 0.000000 4.525840 
# 
# 
# High freq. dielectric constant tensor:
#      x y z
#    x 1.849980 0.000000 0.000000 
#    y 0.000000 1.848140 0.000000 
#    z 0.000000 0.000000 1.869670 
# 
# From -- ./inp_files/13974.got.cif
#   From: 2010.03.12/outbox.cif.g09.slc.cpg/sg40_7_cif.got.tgz:13974.got - 2010.04.14 01:38:03.
