data_PCOD8184545
_publ_section_title
;
Structure prediction by ZEFSAII (Michael W. Deem and Ramdas Pophale) SiO2 
 PCOD8184545
Probable space group: A M A 2
;
_chemical_formula_sum "Si O2"
_cell_formula_units_Z 24
_cell_length_a 20.513107
_cell_length_b 7.785493
_cell_length_c 7.035907
_cell_angle_alpha 90.000000
_cell_angle_beta 90.000000
_cell_angle_gamma 90.000000
_cell_volume 1123.667072
_symmetry_space_group_name_H-M "A M A 2"
_symmetry_group_IT_number 40
_symmetry_cell_setting 'orthorhombic'
loop_
_space_group_symop_operation_xyz
x,y,z
-x,-y,z
1/2-x,y,z
1/2+x,-y,z
x,1/2+y,1/2+z
-x,1/2-y,1/2+z
1/2-x,1/2+y,1/2+z
1/2+x,1/2-y,1/2+z
loop_
_atom_site_type_symbol
_atom_site_label
_atom_site_fract_x
_atom_site_fract_y
_atom_site_fract_z
Si Si1 0.068865 0.927235 0.831900
Si Si2 0.823528 0.579775 0.051722
Si Si3 0.880094 0.906253 0.193924
O O1 0.126422 0.009574 0.700832
O O2 0.069519 0.719682 0.806599
O O3 0.079997 0.972662 0.051766
O O4 0.000000 0.000000 0.760907
O O5 0.750000 0.521053 0.098567
O O6 0.829809 0.786634 0.074305
O O7 0.840788 0.526481 0.837670
#
# Coordination Sequence:
#
# PCOD8184545 Si02
#       3
#     8   8   8
#     4  10  26  42  69  94 131 166 216 262 320 376
#     4  10  24  44  67  96 129 168 214 264 318 378
#     4  10  25  40  64  96 127 170 208 262 317 380
#
# _framework density 21.358640999999999
#
# number of rings (size 3 to 8) (size 9 to 14) (size 15 to 20)
#    2.000    0.000    0.000    1.000    9.333    4.000 
#    0.000    0.000    0.000    0.000    0.000    0.000 
#    0.000    0.000    0.000    0.000    0.000    0.000 
#
# Total GULP energy -148684.114540 kJ/mol
# GULP energy per Si atom -12390.342878 kJ/mol
# Density = 2.131003 g / cm^3
# Si number density = 21.358641 Si / 1000 Ang^3
#
#
#
# Elastic Constant Matrix: (Units=GPa)
#
#
# Indices 1 2 3 4 5 6 
#
# 1 146.2425 10.5387 61.9027 0.0000 0.0000 0.0000
# 2 10.5387 68.7555 68.3635 0.0000 0.0000 0.0000
# 3 61.9027 68.3635 136.3939 0.0000 0.0000 0.0000
# 4 0.0000 0.0000 0.0000 55.9160 0.0000 0.0000
# 5 0.0000 0.0000 0.0000 0.0000 34.4962 0.0000
# 6 0.0000 0.0000 0.0000 0.0000 0.0000 12.3880
#
#
#
# Elastic Compliance Matrix: (Units=1/GPa)
#
#
# Indices 1 2 3 4 5 6 
#
# 1 0.009436 0.005605 -0.007092 0.000000 0.000000 0.000000
# 2 0.005605 0.032323 -0.018745 0.000000 0.000000 0.000000
# 3 -0.007092 -0.018745 0.019946 0.000000 0.000000 0.000000
# 4 0.000000 0.000000 0.000000 0.017884 0.000000 0.000000
# 5 0.000000 0.000000 0.000000 0.000000 0.028989 0.000000
# 6 0.000000 0.000000 0.000000 0.000000 0.000000 0.080723
#
#
# Mechanical properties :
#
#
# Convention : Reuss Voigt Hill
#
# Bulk Modulus (GPa) = 47.07768 70.33351 58.70560
# Shear Modulus (GPa) = 21.11084 34.59919 27.85502
#
# Velocity S-wave (km/s) = 3.14729 4.02918 3.61523
# Velocity P-wave (km/s) = 5.94110 7.39236 6.70610
#
# Compressibility (1/GPa) = 0.02124149
#
# Stress axis : x y z
#
# Youngs Moduli (GPa) = 105.97722 30.93739 50.13570
#
# Poissons Ratio (x) = -0.17341 0.35556
# Poissons Ratio (y) = -0.59403 0.93980
# Poissons Ratio (z) = 0.75159 0.57992
#
# Static dielectric constant tensor:
#      x y z
#    x 3.720040 0.000000 0.000000 
#    y 0.000000 3.558270 0.000000 
#    z 0.000000 0.000000 3.619980 
# 
# 
# High freq. dielectric constant tensor:
#      x y z
#    x 1.826890 0.000000 0.000000 
#    y 0.000000 1.819470 0.000000 
#    z 0.000000 0.000000 1.837130 
# 
# From -- ./inp_files/2046.got.cif
#   From: 2010.03.12/outbox.cif.g09.slc.cpg/sg40_2_cif.got.tgz:2046.got - 2010.04.14 01:38:03.
