data_PCOD8184776
_publ_section_title
;
Structure prediction by ZEFSAII (Michael W. Deem and Ramdas Pophale) SiO2 
 PCOD8184776
Probable space group: A B A 2
;
_chemical_formula_sum "Si O2"
_cell_formula_units_Z 48
_cell_length_a 10.080593
_cell_length_b 26.879548
_cell_length_c 8.843346
_cell_angle_alpha 90.000000
_cell_angle_beta 90.000000
_cell_angle_gamma 90.000000
_cell_volume 2396.208803
_symmetry_space_group_name_H-M "A B A 2"
_symmetry_group_IT_number 41
_symmetry_cell_setting 'orthorhombic'
loop_
_space_group_symop_operation_xyz
x,y,z
-x,-y,z
1/2-x,y,1/2+z
1/2+x,-y,1/2+z
x,1/2+y,1/2+z
-x,1/2-y,1/2+z
1/2-x,1/2+y,z
1/2+x,1/2-y,z
loop_
_atom_site_type_symbol
_atom_site_label
_atom_site_fract_x
_atom_site_fract_y
_atom_site_fract_z
Si Si1 0.895684 0.765926 0.251870
Si Si2 0.140922 0.499444 0.094315
Si Si3 0.110358 0.461904 0.767503
Si Si4 0.211570 0.608787 0.990266
Si Si5 0.122257 0.212885 0.591792
Si Si6 0.065673 0.625468 0.692031
O O1 0.882807 0.758824 0.431405
O O2 0.748912 0.765850 0.181371
O O3 0.972932 0.817232 0.213335
O O4 0.987069 0.722296 0.184688
O O5 0.247815 0.474413 0.200388
O O6 0.173411 0.555348 0.051338
O O7 0.000000 0.500000 0.182481
O O8 0.122079 0.464635 0.947523
O O9 0.000000 0.500000 0.704535
O O10 0.066684 0.406677 0.717174
O O11 0.130115 0.653345 0.070642
O O12 0.368441 0.616920 0.026306
O O13 0.182497 0.610014 0.811414
#
# Coordination Sequence:
#
# PCOD8184776 Si02
#       6
#     8   8   8   8   8   8
#     4  10  21  39  62  87 118 154 198 246 298 350
#     4  11  21  37  58  84 119 151 192 235 286 337
#     4  11  21  38  59  82 119 149 194 237 280 339
#     4  10  18  36  61  84 112 153 189 235 287 347
#     4  10  21  37  62  86 117 151 198 243 298 350
#     4  10  20  38  60  86 115 154 195 239 287 346
#
# _framework density 20.031644
#
# number of rings (size 3 to 8) (size 9 to 14) (size 15 to 20)
#    0.000    1.667    5.000    1.000    0.000    2.000 
#    6.000    1.667    0.000    0.000    0.000    0.000 
#    0.000    0.000    0.000    0.000    0.000    0.000 
#
# Total GULP energy -297552.782054 kJ/mol
# GULP energy per Si atom -12398.032586 kJ/mol
# Density = 1.998605 g / cm^3
# Si number density = 20.031644 Si / 1000 Ang^3
#
#
#
# Elastic Constant Matrix: (Units=GPa)
#
#
# Indices 1 2 3 4 5 6 
#
# 1 104.0794 11.7557 32.2080 0.0000 0.0000 0.0000
# 2 11.7557 50.5813 4.5870 0.0000 0.0000 0.0000
# 3 32.2080 4.5870 72.8994 0.0000 0.0000 0.0000
# 4 0.0000 0.0000 0.0000 17.4225 0.0000 0.0000
# 5 0.0000 0.0000 0.0000 0.0000 34.8578 0.0000
# 6 0.0000 0.0000 0.0000 0.0000 0.0000 37.1106
#
#
#
# Elastic Compliance Matrix: (Units=1/GPa)
#
#
# Indices 1 2 3 4 5 6 
#
# 1 0.011368 -0.002199 -0.004884 0.000000 0.000000 0.000000
# 2 -0.002199 0.020309 -0.000306 0.000000 0.000000 0.000000
# 3 -0.004884 -0.000306 0.015895 0.000000 0.000000 0.000000
# 4 0.000000 0.000000 0.000000 0.057397 0.000000 0.000000
# 5 0.000000 0.000000 0.000000 0.000000 0.028688 0.000000
# 6 0.000000 0.000000 0.000000 0.000000 0.000000 0.026946
#
#
# Mechanical properties :
#
#
# Convention : Reuss Voigt Hill
#
# Bulk Modulus (GPa) = 30.49474 36.07351 33.28413
# Shear Modulus (GPa) = 26.83656 29.81215 28.32436
#
# Velocity S-wave (km/s) = 3.66417 3.86197 3.76437
# Velocity P-wave (km/s) = 5.75829 6.15904 5.96203
#
# Compressibility (1/GPa) = 0.03279254
#
# Stress axis : x y z
#
# Youngs Moduli (GPa) = 87.96736 49.23914 62.91416
#
# Poissons Ratio (x) = 0.10828 0.30728
# Poissons Ratio (y) = 0.19345 0.01927
# Poissons Ratio (z) = 0.42964 0.01508
#
# Static dielectric constant tensor:
#      x y z
#    x 3.675010 0.000000 0.000000 
#    y 0.000000 3.670530 0.000000 
#    z 0.000000 0.000000 3.828830 
# 
# 
# High freq. dielectric constant tensor:
#      x y z
#    x 1.770400 0.000000 0.000000 
#    y 0.000000 1.779190 0.000000 
#    z 0.000000 0.000000 1.778590 
# 
# From -- ./inp_files/1782.got.cif
#   From: 2010.03.12/outbox.cif.g09.slc.cpg/sg41_1_cif.got.tgz:1782.got - 2010.04.14 01:55:53.
