data_PCOD8184811
_publ_section_title
;
Structure prediction by ZEFSAII (Michael W. Deem and Ramdas Pophale) SiO2 
 PCOD8184811
Probable space group: A B A 2
;
_chemical_formula_sum "Si O2"
_cell_formula_units_Z 48
_cell_length_a 17.629034
_cell_length_b 7.613804
_cell_length_c 13.861373
_cell_angle_alpha 90.000000
_cell_angle_beta 90.000000
_cell_angle_gamma 90.000000
_cell_volume 1860.529062
_symmetry_space_group_name_H-M "A B A 2"
_symmetry_group_IT_number 41
_symmetry_cell_setting 'orthorhombic'
loop_
_space_group_symop_operation_xyz
x,y,z
-x,-y,z
1/2-x,y,1/2+z
1/2+x,-y,1/2+z
x,1/2+y,1/2+z
-x,1/2-y,1/2+z
1/2-x,1/2+y,z
1/2+x,1/2-y,z
loop_
_atom_site_type_symbol
_atom_site_label
_atom_site_fract_x
_atom_site_fract_y
_atom_site_fract_z
Si Si1 0.334754 0.416863 0.341340
Si Si2 0.834754 0.416862 0.195917
Si Si3 0.664262 0.918516 0.655580
Si Si4 0.412440 0.237940 0.496440
Si Si5 0.412440 0.262060 0.040816
Si Si6 0.835737 0.081483 0.881677
O O1 0.330337 0.250000 0.268629
O O2 0.354008 0.582396 0.271079
O O3 0.397726 0.404743 0.426418
O O4 0.254230 0.440989 0.394372
O O5 0.754230 0.440986 0.142885
O O6 0.897726 0.404742 0.110838
O O7 0.854007 0.582395 0.266178
O O8 0.634200 0.745046 0.598503
O O9 0.619145 0.074717 0.602370
O O10 0.500000 0.216429 0.518628
O O11 0.380856 0.074717 0.434887
O O12 0.365800 0.245047 0.938754
#
# Coordination Sequence:
#
# PCOD8184811 Si02
#       6
#     8   8   8   8   8   8
#     4   9  18  32  53  81 108 142 194 240 282 344
#     4   9  18  32  53  81 108 142 194 240 282 344
#     4   9  17  32  53  77 107 144 190 238 281 341
#     4  10  19  33  54  80 112 149 185 234 298 349
#     4  10  19  33  54  80 112 149 185 234 298 349
#     4   9  17  32  53  77 107 144 190 238 281 341
#
# _framework density 25.799112000000001
#
# number of rings (size 3 to 8) (size 9 to 14) (size 15 to 20)
#    0.000    2.667    0.000    3.000    0.000    0.000 
#    0.000    8.333    0.000    8.000    0.000   42.000 
#    0.000    0.000    0.000    0.000    0.000    0.000 
#
# Total GULP energy -297325.314733 kJ/mol
# GULP energy per Si atom -12388.554781 kJ/mol
# Density = 2.574039 g / cm^3
# Si number density = 25.799112 Si / 1000 Ang^3
#
#
#
# Elastic Constant Matrix: (Units=GPa)
#
#
# Indices 1 2 3 4 5 6 
#
# 1 193.2526 18.0928 120.0161 0.0000 0.0000 0.0000
# 2 18.0928 49.8492 27.6067 0.0000 0.0000 0.0000
# 3 120.0161 27.6067 219.8260 0.0000 0.0000 0.0000
# 4 0.0000 0.0000 0.0000 42.3343 0.0000 0.0000
# 5 0.0000 0.0000 0.0000 0.0000 35.4030 0.0000
# 6 0.0000 0.0000 0.0000 0.0000 0.0000 25.2383
#
#
#
# Elastic Compliance Matrix: (Units=1/GPa)
#
#
# Indices 1 2 3 4 5 6 
#
# 1 0.007841 -0.000511 -0.004217 0.000000 0.000000 0.000000
# 2 -0.000511 0.021593 -0.002433 0.000000 0.000000 0.000000
# 3 -0.004217 -0.002433 0.007157 0.000000 0.000000 0.000000
# 4 0.000000 0.000000 0.000000 0.023622 0.000000 0.000000
# 5 0.000000 0.000000 0.000000 0.000000 0.028246 0.000000
# 6 0.000000 0.000000 0.000000 0.000000 0.000000 0.039622
#
#
# Mechanical properties :
#
#
# Convention : Reuss Voigt Hill
#
# Bulk Modulus (GPa) = 44.90284 88.26211 66.58248
# Shear Modulus (GPa) = 33.37215 40.40928 36.89071
#
# Velocity S-wave (km/s) = 3.60048 3.96195 3.78553
# Velocity P-wave (km/s) = 5.89298 7.43068 6.70605
#
# Compressibility (1/GPa) = 0.02227030
#
# Stress axis : x y z
#
# Youngs Moduli (GPa) = 127.53197 46.31076 139.72692
#
# Poissons Ratio (x) = 0.02365 0.58920
# Poissons Ratio (y) = 0.06512 0.33995
# Poissons Ratio (z) = 0.53778 0.11267
#
# Static dielectric constant tensor:
#      x y z
#    x 4.201690 0.000000 0.000000 
#    y 0.000000 5.811410 0.000000 
#    z 0.000000 0.000000 7.327660 
# 
# 
# High freq. dielectric constant tensor:
#      x y z
#    x 1.994260 0.000000 0.000000 
#    y 0.000000 2.040010 0.000000 
#    z 0.000000 0.000000 2.072430 
# 
# From -- ./inp_files/5909.got.cif
#   From: 2010.03.12/outbox.cif.g09.slc.cpg/sg41_3_cif.got.tgz:5909.got - 2010.04.14 01:55:53.
