data_PCOD8184190
_publ_section_title
;
Structure prediction by ZEFSAII (Michael W. Deem and Ramdas Pophale) SiO2 
 PCOD8184190
Probable space group: A M A 2
;
_chemical_formula_sum "Si O2"
_cell_formula_units_Z 56
_cell_length_a 29.053345
_cell_length_b 17.570264
_cell_length_c 5.200782
_cell_angle_alpha 90.000000
_cell_angle_beta 90.000000
_cell_angle_gamma 90.000000
_cell_volume 2654.868888
_symmetry_space_group_name_H-M "A M A 2"
_symmetry_group_IT_number 40
_symmetry_cell_setting 'orthorhombic'
loop_
_space_group_symop_operation_xyz
x,y,z
-x,-y,z
1/2-x,y,z
1/2+x,-y,z
x,1/2+y,1/2+z
-x,1/2-y,1/2+z
1/2-x,1/2+y,1/2+z
1/2+x,1/2-y,1/2+z
loop_
_atom_site_type_symbol
_atom_site_label
_atom_site_fract_x
_atom_site_fract_y
_atom_site_fract_z
Si Si1 0.302280 0.215161 0.393600
Si Si2 0.884722 0.686482 0.271898
Si Si3 0.197822 0.615396 0.389569
Si Si4 0.390270 0.535545 0.447906
Si Si5 0.041163 0.333301 0.664895
Si Si6 0.559017 0.308379 0.483808
Si Si7 0.909388 0.556163 0.963446
O O1 0.250000 0.245764 0.399189
O O2 0.336003 0.287750 0.387459
O O3 0.313815 0.168081 0.647582
O O4 0.311041 0.163297 0.146343
O O5 0.916881 0.641630 0.476913
O O6 0.915793 0.759080 0.200136
O O7 0.874184 0.626007 0.040565
O O8 0.250000 0.584780 0.375916
O O9 0.164385 0.541951 0.387281
O O10 0.408470 0.621132 0.430681
O O11 0.394347 0.497254 0.727708
O O12 0.417101 0.493026 0.219548
O O13 0.044014 0.396274 0.894137
O O14 0.990186 0.341843 0.561201
O O15 0.050640 0.245524 0.738757
#
# Coordination Sequence:
#
# PCOD8184190 Si02
#       7
#     8   8   8   8   8   8   8
#     4  10  21  38  68 102 124 160 214 274 325 373
#     4  11  22  45  66  94 135 169 209 278 319 386
#     4  10  21  39  66 100 129 157 215 276 318 376
#     4  12  24  45  65  97 126 181 212 263 323 395
#     4  11  23  45  62 100 126 178 211 284 315 390
#     4  11  24  38  73  93 125 167 237 259 326 378
#     4  11  27  44  62  90 143 169 212 259 334 378
#
# _framework density 21.093319999999999
#
# number of rings (size 3 to 8) (size 9 to 14) (size 15 to 20)
#    0.000    1.143    4.286    1.714    4.000    0.571 
#    2.571    1.429    0.000    0.857    0.000    0.000 
#    0.000    0.000    0.000    0.000    0.000    0.000 
#
# Total GULP energy -346992.390812 kJ/mol
# GULP energy per Si atom -12392.585386 kJ/mol
# Density = 2.104531 g / cm^3
# Si number density = 21.093320 Si / 1000 Ang^3
#
#
#
# Elastic Constant Matrix: (Units=GPa)
#
#
# Indices 1 2 3 4 5 6 
#
# 1 85.9766 18.7828 16.3001 0.0000 0.0000 0.0000
# 2 18.7828 78.5439 25.9166 0.0000 0.0000 0.0000
# 3 16.3001 25.9166 129.6424 0.0000 0.0000 0.0000
# 4 0.0000 0.0000 0.0000 36.9784 0.0000 0.0000
# 5 0.0000 0.0000 0.0000 0.0000 29.1119 0.0000
# 6 0.0000 0.0000 0.0000 0.0000 0.0000 17.9037
#
#
#
# Elastic Compliance Matrix: (Units=1/GPa)
#
#
# Indices 1 2 3 4 5 6 
#
# 1 0.012400 -0.002624 -0.001035 0.000000 0.000000 0.000000
# 2 -0.002624 0.014186 -0.002506 0.000000 0.000000 0.000000
# 3 -0.001035 -0.002506 0.008345 0.000000 0.000000 0.000000
# 4 0.000000 0.000000 0.000000 0.027043 0.000000 0.000000
# 5 0.000000 0.000000 0.000000 0.000000 0.034350 0.000000
# 6 0.000000 0.000000 0.000000 0.000000 0.000000 0.055854
#
#
# Mechanical properties :
#
#
# Convention : Reuss Voigt Hill
#
# Bulk Modulus (GPa) = 44.24397 46.24022 45.24209
# Shear Modulus (GPa) = 29.06273 32.34304 30.70288
#
# Velocity S-wave (km/s) = 3.71592 3.92003 3.81934
# Velocity P-wave (km/s) = 6.27946 6.51599 6.39882
#
# Compressibility (1/GPa) = 0.02260195
#
# Stress axis : x y z
#
# Youngs Moduli (GPa) = 80.64204 70.49142 119.83844
#
# Poissons Ratio (x) = 0.18497 0.12398
# Poissons Ratio (y) = 0.21161 0.30031
# Poissons Ratio (z) = 0.08343 0.17665
#
# Static dielectric constant tensor:
#      x y z
#    x 3.833740 0.000000 0.000000 
#    y 0.000000 3.867190 0.000000 
#    z 0.000000 0.000000 3.985930 
# 
# 
# High freq. dielectric constant tensor:
#      x y z
#    x 1.816190 0.000000 0.000000 
#    y 0.000000 1.821590 0.000000 
#    z 0.000000 0.000000 1.842750 
# 
# From -- ./inp_files/3381.got.cif
#   From: 2010.03.12/outbox.cif.g09.slc.cpg/sg40_2_cif.got.tgz:3381.got - 2010.04.14 01:38:03.
