data_PCOD8184380
_publ_section_title
;
Structure prediction by ZEFSAII (Michael W. Deem and Ramdas Pophale) SiO2 
 PCOD8184380
Probable space group: A M A 2
;
_chemical_formula_sum "Si O2"
_cell_formula_units_Z 48
_cell_length_a 20.669612
_cell_length_b 9.498493
_cell_length_c 11.793378
_cell_angle_alpha 90.000000
_cell_angle_beta 90.000000
_cell_angle_gamma 90.000000
_cell_volume 2315.395847
_symmetry_space_group_name_H-M "A M A 2"
_symmetry_group_IT_number 40
_symmetry_cell_setting 'orthorhombic'
loop_
_space_group_symop_operation_xyz
x,y,z
-x,-y,z
1/2-x,y,z
1/2+x,-y,z
x,1/2+y,1/2+z
-x,1/2-y,1/2+z
1/2-x,1/2+y,1/2+z
1/2+x,1/2-y,1/2+z
loop_
_atom_site_type_symbol
_atom_site_label
_atom_site_fract_x
_atom_site_fract_y
_atom_site_fract_z
Si Si1 0.612604 0.943896 0.061230
Si Si2 0.324226 0.321828 0.961918
Si Si3 0.513589 0.345933 0.738983
Si Si4 0.870741 0.189502 0.213814
Si Si5 0.324254 0.011021 0.671550
Si Si6 0.436310 0.420140 0.338100
O O1 0.557699 0.858448 0.127723
O O2 0.650691 0.050676 0.144421
O O3 0.663265 0.833362 0.011636
O O4 0.577241 0.036251 0.966055
O O5 0.250000 0.332282 0.928430
O O6 0.363805 0.342275 0.847139
O O7 0.343668 0.443568 0.050799
O O8 0.500000 0.500000 0.793600
O O9 0.446574 0.277660 0.696110
O O10 0.548836 0.246817 0.831137
O O11 0.829197 0.319948 0.167433
O O12 0.250000 0.969547 0.701917
O O13 0.372344 0.953079 0.766281
O O14 0.500000 0.500000 0.290818
#
# Coordination Sequence:
#
# PCOD8184380 Si02
#       6
#     8   8   8   8   8   8
#     4  11  24  41  69  99 130 171 223 275 331 399
#     4  11  24  44  65  91 133 179 219 270 330 394
#     4  10  22  40  64 100 131 168 220 270 333 395
#     4  11  23  41  66  95 131 172 217 272 332 395
#     4  11  24  42  66  97 132 174 224 270 328 396
#     4  12  21  41  70  98 134 174 215 271 338 395
#
# _framework density 20.730796999999999
#
# number of rings (size 3 to 8) (size 9 to 14) (size 15 to 20)
#    0.000    1.000    5.000    2.000    0.000    4.000 
#    0.000    4.167    0.000    0.000    0.000    0.000 
#    0.000    0.000    0.000    0.000    0.000    0.000 
#
# Total GULP energy -297604.426662 kJ/mol
# GULP energy per Si atom -12400.184444 kJ/mol
# Density = 2.068361 g / cm^3
# Si number density = 20.730797 Si / 1000 Ang^3
#
#
#
# Elastic Constant Matrix: (Units=GPa)
#
#
# Indices 1 2 3 4 5 6 
#
# 1 61.8765 40.2467 20.8095 0.0000 0.0000 0.0000
# 2 40.2467 109.6320 68.4607 0.0000 0.0000 0.0000
# 3 20.8095 68.4607 110.4074 0.0000 0.0000 0.0000
# 4 0.0000 0.0000 0.0000 47.4443 0.0000 0.0000
# 5 0.0000 0.0000 0.0000 0.0000 10.7803 0.0000
# 6 0.0000 0.0000 0.0000 0.0000 0.0000 35.5165
#
#
#
# Elastic Compliance Matrix: (Units=1/GPa)
#
#
# Indices 1 2 3 4 5 6 
#
# 1 0.021356 -0.008692 0.001365 0.000000 0.000000 0.000000
# 2 -0.008692 0.018423 -0.009785 0.000000 0.000000 0.000000
# 3 0.001365 -0.009785 0.014868 0.000000 0.000000 0.000000
# 4 0.000000 0.000000 0.000000 0.021077 0.000000 0.000000
# 5 0.000000 0.000000 0.000000 0.000000 0.092762 0.000000
# 6 0.000000 0.000000 0.000000 0.000000 0.000000 0.028156
#
#
# Mechanical properties :
#
#
# Convention : Reuss Voigt Hill
#
# Bulk Modulus (GPa) = 48.96909 60.10552 54.53731
# Shear Modulus (GPa) = 21.03721 28.90816 24.97268
#
# Velocity S-wave (km/s) = 3.18902 3.73829 3.47453
# Velocity P-wave (km/s) = 6.10184 6.90575 6.51621
#
# Compressibility (1/GPa) = 0.02042105
#
# Stress axis : x y z
#
# Youngs Moduli (GPa) = 46.82548 54.28058 67.25975
#
# Poissons Ratio (x) = 0.47181 -0.09178
# Poissons Ratio (y) = 0.40701 0.65815
# Poissons Ratio (z) = -0.06389 0.53115
#
# Static dielectric constant tensor:
#      x y z
#    x 3.768980 0.000000 0.000000 
#    y 0.000000 4.005230 0.000000 
#    z 0.000000 0.000000 3.689630 
# 
# 
# High freq. dielectric constant tensor:
#      x y z
#    x 1.815800 0.000000 0.000000 
#    y 0.000000 1.818050 0.000000 
#    z 0.000000 0.000000 1.803820 
# 
# From -- ./inp_files/13935.got.cif
#   From: 2010.03.12/outbox.cif.g09.slc.cpg/sg40_7_cif.got.tgz:13935.got - 2010.04.14 01:38:03.
