data_PCOD8184208
_publ_section_title
;
Structure prediction by ZEFSAII (Michael W. Deem and Ramdas Pophale) SiO2 
 PCOD8184208
Probable space group: A M A 2
;
_chemical_formula_sum "Si O2"
_cell_formula_units_Z 64
_cell_length_a 17.690215
_cell_length_b 11.615779
_cell_length_c 16.007242
_cell_angle_alpha 90.000000
_cell_angle_beta 90.000000
_cell_angle_gamma 90.000000
_cell_volume 3289.258173
_symmetry_space_group_name_H-M "A M A 2"
_symmetry_group_IT_number 40
_symmetry_cell_setting 'orthorhombic'
loop_
_space_group_symop_operation_xyz
x,y,z
-x,-y,z
1/2-x,y,z
1/2+x,-y,z
x,1/2+y,1/2+z
-x,1/2-y,1/2+z
1/2-x,1/2+y,1/2+z
1/2+x,1/2-y,1/2+z
loop_
_atom_site_type_symbol
_atom_site_label
_atom_site_fract_x
_atom_site_fract_y
_atom_site_fract_z
Si Si1 0.335924 0.458501 0.840930
Si Si2 0.661697 0.800512 0.891361
Si Si3 0.914375 0.962221 0.496608
Si Si4 0.931702 0.259302 0.111161
Si Si5 0.838184 0.042715 0.151114
Si Si6 0.595126 0.825367 0.071964
Si Si7 0.837696 0.604634 0.134176
Si Si8 0.424181 0.558065 0.255280
O O1 0.250000 0.489856 0.864122
O O2 0.349881 0.322875 0.849333
O O3 0.355025 0.492611 0.746416
O O4 0.391208 0.533285 0.899566
O O5 0.750000 0.828075 0.907140
O O6 0.626654 0.895502 0.830284
O O7 0.615291 0.800824 0.976500
O O8 0.903857 0.833640 0.531639
O O9 0.861021 0.051506 0.545087
O O10 0.000000 0.000000 0.510772
O O11 0.865138 0.171862 0.133113
O O12 0.946968 0.343045 0.189398
O O13 0.006413 0.189941 0.086793
O O14 0.750000 0.037684 0.130479
O O15 0.882940 0.955619 0.092278
O O16 0.641309 0.739356 0.132505
O O17 0.750000 0.588417 0.147838
O O18 0.878117 0.542122 0.210092
O O19 0.500000 0.500000 0.292056
#
# Coordination Sequence:
#
# PCOD8184208 Si02
#       8
#     8   8   8   8   8   8   8   8
#     4  10  21  39  61  92 123 160 210 258 315 375
#     4  11  22  40  66  93 127 170 215 260 313 383
#     4  11  20  37  62  93 127 154 210 267 314 375
#     4  11  22  41  64  92 127 169 211 267 330 380
#     4  11  25  42  63  91 128 169 216 264 320 390
#     4  12  23  43  62  92 130 171 213 258 322 393
#     4  11  20  35  63  92 122 164 209 257 316 375
#     4  11  22  40  63  94 130 160 213 274 318 378
#
# _framework density 19.457276
#
# number of rings (size 3 to 8) (size 9 to 14) (size 15 to 20)
#    0.000    1.000    5.000    3.000    0.000    4.500 
#    2.250    1.250    0.000    1.500    0.000    0.000 
#    0.000    0.000    0.000    0.000    0.000    0.000 
#
# Total GULP energy -396968.984488 kJ/mol
# GULP energy per Si atom -12405.280765 kJ/mol
# Density = 1.941299 g / cm^3
# Si number density = 19.457276 Si / 1000 Ang^3
#
#
#
# Elastic Constant Matrix: (Units=GPa)
#
#
# Indices 1 2 3 4 5 6 
#
# 1 68.1296 27.1072 25.2908 0.0000 0.0000 0.0000
# 2 27.1072 85.1081 22.6363 0.0000 0.0000 0.0000
# 3 25.2908 22.6363 65.7927 0.0000 0.0000 0.0000
# 4 0.0000 0.0000 0.0000 35.6338 0.0000 0.0000
# 5 0.0000 0.0000 0.0000 0.0000 28.2265 0.0000
# 6 0.0000 0.0000 0.0000 0.0000 0.0000 30.4871
#
#
#
# Elastic Compliance Matrix: (Units=1/GPa)
#
#
# Indices 1 2 3 4 5 6 
#
# 1 0.018509 -0.004406 -0.005599 0.000000 0.000000 0.000000
# 2 -0.004406 0.013982 -0.003117 0.000000 0.000000 0.000000
# 3 -0.005599 -0.003117 0.018424 0.000000 0.000000 0.000000
# 4 0.000000 0.000000 0.000000 0.028063 0.000000 0.000000
# 5 0.000000 0.000000 0.000000 0.000000 0.035428 0.000000
# 6 0.000000 0.000000 0.000000 0.000000 0.000000 0.032801
#
#
# Mechanical properties :
#
#
# Convention : Reuss Voigt Hill
#
# Bulk Modulus (GPa) = 40.53297 41.01100 40.77198
# Shear Modulus (GPa) = 27.52163 28.46923 27.99543
#
# Velocity S-wave (km/s) = 3.76502 3.82929 3.79729
# Velocity P-wave (km/s) = 6.30694 6.37765 6.34239
#
# Compressibility (1/GPa) = 0.02467127
#
# Stress axis : x y z
#
# Youngs Moduli (GPa) = 54.02635 71.51979 54.27725
#
# Poissons Ratio (x) = 0.31513 0.30390
# Poissons Ratio (y) = 0.23805 0.16918
# Poissons Ratio (z) = 0.30250 0.22292
#
# Static dielectric constant tensor:
#      x y z
#    x 3.590630 0.000000 0.000000 
#    y 0.000000 3.454130 0.000000 
#    z 0.000000 0.000000 3.480880 
# 
# 
# High freq. dielectric constant tensor:
#      x y z
#    x 1.767440 0.000000 0.000000 
#    y 0.000000 1.756300 0.000000 
#    z 0.000000 0.000000 1.751830 
# 
# From -- ./inp_files/17816.got.cif
#   From: 2010.03.12/outbox.cif.g09.slc.cpg/sg40_9_cif.got.tgz:17816.got - 2010.04.14 01:38:03.
