data_PCOD8184091
_publ_section_title
;
Structure prediction by ZEFSAII (Michael W. Deem and Ramdas Pophale) SiO2 
 PCOD8184091
Probable space group: A M A 2
;
_chemical_formula_sum "Si O2"
_cell_formula_units_Z 44
_cell_length_a 20.517545
_cell_length_b 9.334562
_cell_length_c 12.007912
_cell_angle_alpha 90.000000
_cell_angle_beta 90.000000
_cell_angle_gamma 90.000000
_cell_volume 2299.782875
_symmetry_space_group_name_H-M "A M A 2"
_symmetry_group_IT_number 40
_symmetry_cell_setting 'orthorhombic'
loop_
_space_group_symop_operation_xyz
x,y,z
-x,-y,z
1/2-x,y,z
1/2+x,-y,z
x,1/2+y,1/2+z
-x,1/2-y,1/2+z
1/2-x,1/2+y,1/2+z
1/2+x,1/2-y,1/2+z
loop_
_atom_site_type_symbol
_atom_site_label
_atom_site_fract_x
_atom_site_fract_y
_atom_site_fract_z
Si Si1 0.000000 0.500000 0.028031
Si Si2 0.934042 0.565545 0.241046
Si Si3 0.405652 0.182112 0.396458
Si Si4 0.825404 0.571179 0.793403
Si Si5 0.325048 0.898018 0.041959
Si Si6 0.175931 0.610207 0.350753
O O1 0.943854 0.570250 0.107099
O O2 0.972115 0.373361 0.951689
O O3 0.922830 0.724106 0.288342
O O4 0.871734 0.466125 0.263722
O O5 0.000000 0.500000 0.297374
O O6 0.366447 0.272612 0.486871
O O7 0.363690 0.047288 0.360464
O O8 0.750000 0.528117 0.794537
O O9 0.851032 0.578290 0.666571
O O10 0.838657 0.721369 0.854977
O O11 0.250000 0.848368 0.043188
O O12 0.334364 0.045813 0.974076
O O13 0.250000 0.582414 0.309133
#
# Coordination Sequence:
#
# PCOD8184091 Si02
#       6
#     4   8   8   8   8   8
#     4  10  24  38  56  82 118 148 200 240 284 340
#     4   9  22  42  57  83 118 153 194 238 281 345
#     4  11  22  37  59  83 111 156 191 240 287 342
#     4  10  21  36  60  91 118 145 190 241 290 347
#     4   9  19  37  58  84 116 149 188 235 293 348
#     4   9  18  36  63  87 116 154 188 236 294 346
#
# _framework density 19.132239999999999
#
# number of rings (size 3 to 8) (size 9 to 14) (size 15 to 20)
#    0.545    1.818    0.000    1.636    2.545    2.182 
#    3.273    0.909    0.000    8.727    0.000    0.000 
#    0.000    0.000    0.000    0.000    0.000    0.000 
#
# Total GULP energy -272789.952915 kJ/mol
# GULP energy per Si atom -12399.543314 kJ/mol
# Density = 1.908869 g / cm^3
# Si number density = 19.132240 Si / 1000 Ang^3
#
#
#
# Elastic Constant Matrix: (Units=GPa)
#
#
# Indices 1 2 3 4 5 6 
#
# 1 75.7308 56.6459 26.9937 0.0000 0.0000 0.0000
# 2 56.6459 138.6356 52.7718 0.0000 0.0000 0.0000
# 3 26.9937 52.7718 79.1724 0.0000 0.0000 0.0000
# 4 0.0000 0.0000 0.0000 21.7063 0.0000 0.0000
# 5 0.0000 0.0000 0.0000 0.0000 36.7525 0.0000
# 6 0.0000 0.0000 0.0000 0.0000 0.0000 9.0615
#
#
#
# Elastic Compliance Matrix: (Units=1/GPa)
#
#
# Indices 1 2 3 4 5 6 
#
# 1 0.019199 -0.007173 -0.001765 0.000000 0.000000 0.000000
# 2 -0.007173 0.012345 -0.005783 0.000000 0.000000 0.000000
# 3 -0.001765 -0.005783 0.017087 0.000000 0.000000 0.000000
# 4 0.000000 0.000000 0.000000 0.046069 0.000000 0.000000
# 5 0.000000 0.000000 0.000000 0.000000 0.027209 0.000000
# 6 0.000000 0.000000 0.000000 0.000000 0.000000 0.110357
#
#
# Mechanical properties :
#
#
# Convention : Reuss Voigt Hill
#
# Bulk Modulus (GPa) = 52.11119 62.92907 57.52013
# Shear Modulus (GPa) = 18.64943 23.97922 21.31433
#
# Velocity S-wave (km/s) = 3.12551 3.54410 3.34136
# Velocity P-wave (km/s) = 6.34993 7.05057 6.70940
#
# Compressibility (1/GPa) = 0.01918974
#
# Stress axis : x y z
#
# Youngs Moduli (GPa) = 52.08622 81.00272 58.52381
#
# Poissons Ratio (x) = 0.58102 0.10329
# Poissons Ratio (y) = 0.37360 0.33845
# Poissons Ratio (z) = 0.09193 0.46845
#
# Static dielectric constant tensor:
#      x y z
#    x 3.485360 0.000000 0.000000 
#    y 0.000000 3.452410 0.000000 
#    z 0.000000 0.000000 3.448440 
# 
# 
# High freq. dielectric constant tensor:
#      x y z
#    x 1.744840 0.000000 0.000000 
#    y 0.000000 1.744700 0.000000 
#    z 0.000000 0.000000 1.739130 
# 
# From -- ./inp_files/13856.got.cif
#   From: 2010.03.12/outbox.cif.g09.slc.cpg/sg40_7_cif.got.tgz:13856.got - 2010.04.14 01:38:03.
