data_PCOD8184300
_publ_section_title
;
Structure prediction by ZEFSAII (Michael W. Deem and Ramdas Pophale) SiO2 
 PCOD8184300
Probable space group: A M A 2
;
_chemical_formula_sum "Si O2"
_cell_formula_units_Z 64
_cell_length_a 8.610643
_cell_length_b 30.904731
_cell_length_c 11.960577
_cell_angle_alpha 90.000000
_cell_angle_beta 90.000000
_cell_angle_gamma 90.000000
_cell_volume 3182.824429
_symmetry_space_group_name_H-M "A M A 2"
_symmetry_group_IT_number 40
_symmetry_cell_setting 'orthorhombic'
loop_
_space_group_symop_operation_xyz
x,y,z
-x,-y,z
1/2-x,y,z
1/2+x,-y,z
x,1/2+y,1/2+z
-x,1/2-y,1/2+z
1/2-x,1/2+y,1/2+z
1/2+x,1/2-y,1/2+z
loop_
_atom_site_type_symbol
_atom_site_label
_atom_site_fract_x
_atom_site_fract_y
_atom_site_fract_z
Si Si1 0.432054 0.570926 0.117530
Si Si2 0.066549 0.871227 0.264491
Si Si3 0.433306 0.545768 0.363401
Si Si4 0.933893 0.295594 0.907453
Si Si5 0.567954 0.543677 0.893213
Si Si6 0.433516 0.299912 0.353166
Si Si7 0.432730 0.336616 0.119074
Si Si8 0.432733 0.377267 0.505890
O O1 0.250000 0.562786 0.105853
O O2 0.496007 0.556618 0.238900
O O3 0.469827 0.620662 0.096175
O O4 0.518898 0.543644 0.022879
O O5 0.250000 0.864717 0.282343
O O6 0.005242 0.914052 0.328240
O O7 0.977318 0.829754 0.311782
O O8 0.021630 0.875671 0.135269
O O9 0.500000 0.500000 0.403649
O O10 0.250000 0.543622 0.362708
O O11 0.485787 0.581870 0.450310
O O12 0.750000 0.296545 0.929128
O O13 0.995558 0.248385 0.871599
O O14 0.028157 0.303942 0.020312
O O15 0.500000 0.500000 0.837165
O O16 0.750000 0.541931 0.881963
O O17 0.250000 0.299078 0.353595
O O18 0.494075 0.316054 0.233665
O O19 0.493690 0.333012 0.448306
O O20 0.250000 0.347443 0.121438
O O21 0.250000 0.382747 0.488319
#
# Coordination Sequence:
#
# PCOD8184300 Si02
#       8
#     8   8   8   8   8   8   8   8
#     4  11  22  38  61  92 124 156 198 248 304 359
#     4  10  23  41  62  88 119 161 205 248 301 358
#     4  11  24  40  61  91 123 156 200 247 300 360
#     4  11  23  39  61  91 125 161 203 249 299 357
#     4  11  23  39  60  88 121 157 202 249 302 361
#     4   9  21  39  61  89 121 160 201 246 301 355
#     4  11  21  38  63  90 122 160 201 248 305 358
#     4  10  21  42  65  85 118 161 204 251 301 355
#
# _framework density 20.107925000000002
#
# number of rings (size 3 to 8) (size 9 to 14) (size 15 to 20)
#    0.000    1.500    2.500    2.250    1.750    4.000 
#    0.000    4.375    0.000    0.000    0.000    0.000 
#    0.000    0.000    0.000    0.000    0.000    0.000 
#
# Total GULP energy -396920.484896 kJ/mol
# GULP energy per Si atom -12403.765153 kJ/mol
# Density = 2.006216 g / cm^3
# Si number density = 20.107925 Si / 1000 Ang^3
#
#
#
# Elastic Constant Matrix: (Units=GPa)
#
#
# Indices 1 2 3 4 5 6 
#
# 1 39.8229 28.0013 24.7042 0.0000 0.0000 0.0000
# 2 28.0013 163.8442 55.7285 0.0000 0.0000 0.0000
# 3 24.7042 55.7285 132.0508 0.0000 0.0000 0.0000
# 4 0.0000 0.0000 0.0000 -50.7451 0.0000 0.0000
# 5 0.0000 0.0000 0.0000 0.0000 24.1289 0.0000
# 6 0.0000 0.0000 0.0000 0.0000 0.0000 26.7555
#
#
#
# Elastic Compliance Matrix: (Units=1/GPa)
#
#
# Indices 1 2 3 4 5 6 
#
# 1 0.030303 -0.003795 -0.004067 0.000000 0.000000 0.000000
# 2 -0.003795 0.007602 -0.002498 0.000000 0.000000 0.000000
# 3 -0.004067 -0.002498 0.009388 0.000000 0.000000 0.000000
# 4 0.000000 0.000000 0.000000 -0.019706 0.000000 0.000000
# 5 0.000000 0.000000 0.000000 0.000000 0.041444 0.000000
# 6 0.000000 0.000000 0.000000 0.000000 0.000000 0.037375
#
#
# Mechanical properties :
#
#
# Convention : Reuss Voigt Hill
#
# Bulk Modulus (GPa) = 37.63487 61.39843 49.51665
# Shear Modulus (GPa) = 36.76889 15.18014 25.97452
#
# Velocity S-wave (km/s) = 4.28083 2.75059 3.59800
# Velocity P-wave (km/s) = 6.57199 6.37874 6.47609
#
# Compressibility (1/GPa) = 0.02657110
#
# Stress axis : x y z
#
# Youngs Moduli (GPa) = 32.99995 131.55019 106.51907
#
# Poissons Ratio (x) = 0.49929 0.43325
# Poissons Ratio (y) = 0.12525 0.26609
# Poissons Ratio (z) = 0.13422 0.32862
#
# Static dielectric constant tensor:
#      x y z
#    x 3.453790 0.000000 0.000000 
#    y 0.000000 3.998110 0.000000 
#    z 0.000000 0.000000 3.799020 
# 
# 
# High freq. dielectric constant tensor:
#      x y z
#    x 1.772310 0.000000 0.000000 
#    y 0.000000 1.800810 0.000000 
#    z 0.000000 0.000000 1.789940 
# 
# From -- ./inp_files/10565.got.cif
#   From: 2010.03.12/outbox.cif.g09.slc.cpg/sg40_6_cif.got.tgz:10565.got - 2010.04.14 01:38:03.
