data_PCOD8184812
_publ_section_title
;
Structure prediction by ZEFSAII (Michael W. Deem and Ramdas Pophale) SiO2 
 PCOD8184812
Probable space group: A B A 2
;
_chemical_formula_sum "Si O2"
_cell_formula_units_Z 64
_cell_length_a 19.094504
_cell_length_b 8.725727
_cell_length_c 21.280383
_cell_angle_alpha 90.000000
_cell_angle_beta 90.000000
_cell_angle_gamma 90.000000
_cell_volume 3545.597584
_symmetry_space_group_name_H-M "A B A 2"
_symmetry_group_IT_number 41
_symmetry_cell_setting 'orthorhombic'
loop_
_space_group_symop_operation_xyz
x,y,z
-x,-y,z
1/2-x,y,1/2+z
1/2+x,-y,1/2+z
x,1/2+y,1/2+z
-x,1/2-y,1/2+z
1/2-x,1/2+y,z
1/2+x,1/2-y,z
loop_
_atom_site_type_symbol
_atom_site_label
_atom_site_fract_x
_atom_site_fract_y
_atom_site_fract_z
Si Si1 0.080343 0.986924 0.954270
Si Si2 0.662576 0.370794 0.843448
Si Si3 0.327773 0.712199 0.604279
Si Si4 0.680871 0.986676 0.215251
Si Si5 0.280324 0.921979 0.892501
Si Si6 0.672814 0.291429 0.460911
Si Si7 0.193582 0.691311 0.674153
Si Si8 0.583265 0.492005 0.097584
O O1 0.104137 0.809966 0.946145
O O2 0.112142 0.095251 0.901343
O O3 0.000000 0.000000 0.941403
O O4 0.099068 0.047196 0.024295
O O5 0.636916 0.410678 0.773011
O O6 0.677066 0.189232 0.846262
O O7 0.729691 0.479734 0.849119
O O8 0.353121 0.573843 0.649771
O O9 0.324344 0.658373 0.532927
O O10 0.248340 0.762529 0.622959
O O11 0.383406 0.845868 0.614258
O O12 0.763987 0.936247 0.215065
O O13 0.671998 0.169500 0.220018
O O14 0.239955 0.813869 0.943016
O O15 0.330966 0.045856 0.925582
O O16 0.122696 0.631297 0.641151
O O17 0.500000 0.500000 0.111258
#
# Coordination Sequence:
#
# PCOD8184812 Si02
#       8
#     8   8   8   8   8   8   8   8
#     4   9  20  37  54  73 106 148 182 217 283 346
#     4  10  19  34  51  75 107 141 178 232 268 326
#     4   9  19  32  52  79 110 140 184 231 277 335
#     4  10  20  31  54  78 108 142 188 230 278 322
#     4   9  19  29  49  79 102 130 175 232 281 310
#     4   9  18  29  51  78 104 130 175 227 280 329
#     4  10  19  33  54  83 111 144 184 235 284 331
#     4  10  20  37  57  82 115 149 181 230 295 350
#
# _framework density 18.050554000000002
#
# number of rings (size 3 to 8) (size 9 to 14) (size 15 to 20)
#    0.750    1.750    1.250    0.750    8.750    0.000 
#    0.000    2.500    0.000    4.500    0.000    0.000 
#    0.000    0.000    0.000    0.000    0.000    0.000 
#
# Total GULP energy -396452.820051 kJ/mol
# GULP energy per Si atom -12389.150627 kJ/mol
# Density = 1.800947 g / cm^3
# Si number density = 18.050554 Si / 1000 Ang^3
#
#
#
# Elastic Constant Matrix: (Units=GPa)
#
#
# Indices 1 2 3 4 5 6 
#
# 1 77.1699 27.7799 19.4669 0.0000 0.0000 0.0000
# 2 27.7799 108.0955 28.2274 0.0000 0.0000 0.0000
# 3 19.4669 28.2274 62.6168 0.0000 0.0000 0.0000
# 4 0.0000 0.0000 0.0000 28.5395 0.0000 0.0000
# 5 0.0000 0.0000 0.0000 0.0000 9.6290 0.0000
# 6 0.0000 0.0000 0.0000 0.0000 0.0000 17.8010
#
#
#
# Elastic Compliance Matrix: (Units=1/GPa)
#
#
# Indices 1 2 3 4 5 6 
#
# 1 0.014852 -0.002960 -0.003283 0.000000 0.000000 0.000000
# 2 -0.002960 0.011075 -0.004073 0.000000 0.000000 0.000000
# 3 -0.003283 -0.004073 0.018827 0.000000 0.000000 0.000000
# 4 0.000000 0.000000 0.000000 0.035039 0.000000 0.000000
# 5 0.000000 0.000000 0.000000 0.000000 0.103853 0.000000
# 6 0.000000 0.000000 0.000000 0.000000 0.000000 0.056176
#
#
# Mechanical properties :
#
#
# Convention : Reuss Voigt Hill
#
# Bulk Modulus (GPa) = 41.45358 44.31453 42.88406
# Shear Modulus (GPa) = 18.62237 22.68778 20.65507
#
# Velocity S-wave (km/s) = 3.21546 3.54913 3.38641
# Velocity P-wave (km/s) = 6.06636 6.43417 6.25297
#
# Compressibility (1/GPa) = 0.02412337
#
# Stress axis : x y z
#
# Youngs Moduli (GPa) = 67.33086 90.29235 53.11593
#
# Poissons Ratio (x) = 0.26722 0.17439
# Poissons Ratio (y) = 0.19927 0.21632
# Poissons Ratio (z) = 0.22106 0.36772
#
# Static dielectric constant tensor:
#      x y z
#    x 3.131240 0.000000 0.000000 
#    y 0.000000 3.337750 0.000000 
#    z 0.000000 0.000000 3.378740 
# 
# 
# High freq. dielectric constant tensor:
#      x y z
#    x 1.654900 0.000000 0.000000 
#    y 0.000000 1.699920 0.000000 
#    z 0.000000 0.000000 1.703650 
# 
# From -- ./inp_files/11727.got.cif
#   From: 2010.03.12/outbox.cif.g09.slc.cpg/sg41_6_cif.got.tgz:11727.got - 2010.04.14 01:55:53.
