data_PCOD8184473
_publ_section_title
;
Structure prediction by ZEFSAII (Michael W. Deem and Ramdas Pophale) SiO2 
 PCOD8184473
Probable space group: A M A 2
;
_chemical_formula_sum "Si O2"
_cell_formula_units_Z 40
_cell_length_a 12.506466
_cell_length_b 24.271205
_cell_length_c 5.275033
_cell_angle_alpha 90.000000
_cell_angle_beta 90.000000
_cell_angle_gamma 90.000000
_cell_volume 1601.220443
_symmetry_space_group_name_H-M "A M A 2"
_symmetry_group_IT_number 40
_symmetry_cell_setting 'orthorhombic'
loop_
_space_group_symop_operation_xyz
x,y,z
-x,-y,z
1/2-x,y,z
1/2+x,-y,z
x,1/2+y,1/2+z
-x,1/2-y,1/2+z
1/2-x,1/2+y,1/2+z
1/2+x,1/2-y,1/2+z
loop_
_atom_site_type_symbol
_atom_site_label
_atom_site_fract_x
_atom_site_fract_y
_atom_site_fract_z
Si Si1 0.433889 0.244487 0.277510
Si Si2 0.250000 0.569133 0.134121
Si Si3 0.367323 0.354672 0.103961
Si Si4 0.458026 0.943691 0.976563
Si Si5 0.750000 0.003066 0.143763
Si Si6 0.925302 0.372365 0.842883
O O1 0.474098 0.248459 0.566851
O O2 0.353152 0.295751 0.241890
O O3 0.373000 0.185021 0.240189
O O4 0.250000 0.524087 0.916469
O O5 0.142637 0.606242 0.086136
O O6 0.250000 0.541681 0.410724
O O7 0.250000 0.374337 0.014206
O O8 0.423907 0.400296 0.272209
O O9 0.451643 0.351146 0.876699
O O10 0.500000 0.000000 0.843138
O O11 0.354048 0.957866 0.143657
O O12 0.560639 0.921492 0.139311
#
# Coordination Sequence:
#
# PCOD8184473 Si02
#       6
#     8   4   8   8   4   8
#     4  10  22  45  71 103 144 186 242 298 360 432
#     4  12  28  50  73 105 152 194 254 296 373 425
#     4  11  25  44  72 108 150 191 247 302 372 436
#     4  12  24  43  71 103 150 191 244 299 369 430
#     4  12  28  46  69 107 146 200 242 304 357 449
#     4  11  26  45  74 106 149 196 246 305 364 442
#
# _framework density 24.980945999999999
#
# number of rings (size 3 to 8) (size 9 to 14) (size 15 to 20)
#    0.000    0.800    5.000    1.200    5.600    0.800 
#    0.000    0.000    8.800    0.000    0.000    0.000 
#    0.000    0.000    0.000    0.000    0.000    0.000 
#
# Total GULP energy -247772.651424 kJ/mol
# GULP energy per Si atom -12388.632571 kJ/mol
# Density = 2.492409 g / cm^3
# Si number density = 24.980946 Si / 1000 Ang^3
#
#
#
# Elastic Constant Matrix: (Units=GPa)
#
#
# Indices 1 2 3 4 5 6 
#
# 1 116.6493 14.2597 5.0215 0.0000 0.0000 0.0000
# 2 14.2597 159.8713 17.9354 0.0000 0.0000 0.0000
# 3 5.0215 17.9354 51.1571 0.0000 0.0000 0.0000
# 4 0.0000 0.0000 0.0000 27.2749 0.0000 0.0000
# 5 0.0000 0.0000 0.0000 0.0000 26.8284 0.0000
# 6 0.0000 0.0000 0.0000 0.0000 0.0000 6.5228
#
#
#
# Elastic Compliance Matrix: (Units=1/GPa)
#
#
# Indices 1 2 3 4 5 6 
#
# 1 0.008685 -0.000707 -0.000605 0.000000 0.000000 0.000000
# 2 -0.000707 0.006569 -0.002234 0.000000 0.000000 0.000000
# 3 -0.000605 -0.002234 0.020390 0.000000 0.000000 0.000000
# 4 0.000000 0.000000 0.000000 0.036664 0.000000 0.000000
# 5 0.000000 0.000000 0.000000 0.000000 0.037274 0.000000
# 6 0.000000 0.000000 0.000000 0.000000 0.000000 0.153309
#
#
# Mechanical properties :
#
#
# Convention : Reuss Voigt Hill
#
# Bulk Modulus (GPa) = 35.02180 44.67900 39.85040
# Shear Modulus (GPa) = 17.88919 31.48928 24.68924
#
# Velocity S-wave (km/s) = 2.67893 3.55425 3.14717
# Velocity P-wave (km/s) = 4.85991 5.89641 5.40307
#
# Compressibility (1/GPa) = 0.02855365
#
# Stress axis : x y z
#
# Youngs Moduli (GPa) = 115.13920 152.23821 49.04354
#
# Poissons Ratio (x) = 0.10761 0.02966
# Poissons Ratio (y) = 0.08138 0.10954
# Poissons Ratio (z) = 0.06963 0.34003
#
# Static dielectric constant tensor:
#      x y z
#    x 5.759070 0.000000 0.000000 
#    y 0.000000 5.284550 0.000000 
#    z 0.000000 0.000000 4.050800 
# 
# 
# High freq. dielectric constant tensor:
#      x y z
#    x 1.992220 0.000000 0.000000 
#    y 0.000000 2.029890 0.000000 
#    z 0.000000 0.000000 1.964650 
# 
# From -- ./inp_files/813.got.cif
#   From: 2010.03.12/outbox.cif.g09.slc.cpg/sg40_1_cif.got.tgz:813.got - 2010.04.14 01:38:03.
