data_PCOD8184499
_publ_section_title
;
Structure prediction by ZEFSAII (Michael W. Deem and Ramdas Pophale) SiO2 
 PCOD8184499
Probable space group: A M A 2
;
_chemical_formula_sum "Si O2"
_cell_formula_units_Z 64
_cell_length_a 18.425239
_cell_length_b 11.655218
_cell_length_c 14.412672
_cell_angle_alpha 90.000000
_cell_angle_beta 90.000000
_cell_angle_gamma 90.000000
_cell_volume 3095.123867
_symmetry_space_group_name_H-M "A M A 2"
_symmetry_group_IT_number 40
_symmetry_cell_setting 'orthorhombic'
loop_
_space_group_symop_operation_xyz
x,y,z
-x,-y,z
1/2-x,y,z
1/2+x,-y,z
x,1/2+y,1/2+z
-x,1/2-y,1/2+z
1/2-x,1/2+y,1/2+z
1/2+x,1/2-y,1/2+z
loop_
_atom_site_type_symbol
_atom_site_label
_atom_site_fract_x
_atom_site_fract_y
_atom_site_fract_z
Si Si1 0.059626 0.798720 0.197730
Si Si2 0.949749 0.670836 0.485890
Si Si3 0.086476 0.187001 0.309368
Si Si4 0.403794 0.055365 0.927690
Si Si5 0.078123 0.039735 0.723301
Si Si6 0.332386 0.276895 0.963567
Si Si7 0.162919 0.444909 0.803245
Si Si8 0.664483 0.656097 0.161906
O O1 0.088981 0.675167 0.227964
O O2 0.124283 0.890652 0.212456
O O3 0.990475 0.837374 0.259323
O O4 0.041566 0.782748 0.089549
O O5 0.920443 0.767229 0.415042
O O6 0.898465 0.556652 0.493436
O O7 0.028165 0.635742 0.449471
O O8 0.128135 0.279139 0.247362
O O9 0.134467 0.072968 0.317654
O O10 0.412563 0.996057 0.828120
O O11 0.336256 0.142288 0.935300
O O12 0.140720 0.977692 0.663596
O O13 0.000000 0.000000 0.684284
O O14 0.250000 0.314323 0.971538
O O15 0.365745 0.364214 0.887917
O O16 0.366871 0.292873 0.065594
O O17 0.250000 0.444530 0.790377
O O18 0.750000 0.667931 0.171374
#
# Coordination Sequence:
#
# PCOD8184499 Si02
#       8
#     8   8   8   8   8   8   8   8
#     4  12  25  42  69  96 127 172 218 266 323 386
#     4  11  24  39  65  97 128 161 211 272 323 375
#     4  12  23  45  65  97 133 171 215 268 328 386
#     4  11  19  41  63  89 126 160 206 271 317 368
#     4  12  21  43  65  93 127 163 215 272 316 373
#     4  10  23  42  63  90 124 168 215 259 314 385
#     4  11  26  45  63  92 136 175 215 265 319 391
#     4  11  24  41  66  95 127 170 213 262 328 385
#
# _framework density 20.677685
#
# number of rings (size 3 to 8) (size 9 to 14) (size 15 to 20)
#    0.000    0.750    6.250    1.500    7.000    1.000 
#    0.000    1.250    0.000    0.000    0.000    0.000 
#    0.000    0.000    0.000    0.000    0.000    0.000 
#
# Total GULP energy -396697.478161 kJ/mol
# GULP energy per Si atom -12396.796193 kJ/mol
# Density = 2.063062 g / cm^3
# Si number density = 20.677685 Si / 1000 Ang^3
#
#
#
# Elastic Constant Matrix: (Units=GPa)
#
#
# Indices 1 2 3 4 5 6 
#
# 1 84.5126 38.1808 34.5928 0.0000 0.0000 0.0000
# 2 38.1808 102.0880 17.0731 0.0000 0.0000 0.0000
# 3 34.5928 17.0731 110.3320 0.0000 0.0000 0.0000
# 4 0.0000 0.0000 0.0000 24.2503 0.0000 0.0000
# 5 0.0000 0.0000 0.0000 0.0000 20.7690 0.0000
# 6 0.0000 0.0000 0.0000 0.0000 0.0000 38.3929
#
#
#
# Elastic Compliance Matrix: (Units=1/GPa)
#
#
# Indices 1 2 3 4 5 6 
#
# 1 0.015916 -0.005254 -0.004177 0.000000 0.000000 0.000000
# 2 -0.005254 0.011790 -0.000177 0.000000 0.000000 0.000000
# 3 -0.004177 -0.000177 0.010401 0.000000 0.000000 0.000000
# 4 0.000000 0.000000 0.000000 0.041237 0.000000 0.000000
# 5 0.000000 0.000000 0.000000 0.000000 0.048149 0.000000
# 6 0.000000 0.000000 0.000000 0.000000 0.000000 0.026046
#
#
# Mechanical properties :
#
#
# Convention : Reuss Voigt Hill
#
# Bulk Modulus (GPa) = 52.93769 52.95845 52.94807
# Shear Modulus (GPa) = 27.92487 30.48815 29.20651
#
# Velocity S-wave (km/s) = 3.67888 3.84402 3.76235
# Velocity P-wave (km/s) = 6.61078 6.73565 6.67351
#
# Compressibility (1/GPa) = 0.01889013
#
# Stress axis : x y z
#
# Youngs Moduli (GPa) = 62.82990 84.81716 96.14777
#
# Poissons Ratio (x) = 0.44563 0.40163
# Poissons Ratio (y) = 0.33011 0.01703
# Poissons Ratio (z) = 0.26245 0.01502
#
# Static dielectric constant tensor:
#      x y z
#    x 3.634290 0.000000 0.000000 
#    y 0.000000 3.855030 0.000000 
#    z 0.000000 0.000000 3.985920 
# 
# 
# High freq. dielectric constant tensor:
#      x y z
#    x 1.793940 0.000000 0.000000 
#    y 0.000000 1.820020 0.000000 
#    z 0.000000 0.000000 1.813380 
# 
# From -- ./inp_files/17874.got.cif
#   From: 2010.03.12/outbox.cif.g09.slc.cpg/sg40_9_cif.got.tgz:17874.got - 2010.04.14 01:38:03.
