data_PCOD8184656
_publ_section_title
;
Structure prediction by ZEFSAII (Michael W. Deem and Ramdas Pophale) SiO2 
 PCOD8184656
Probable space group: A M A 2
;
_chemical_formula_sum "Si O2"
_cell_formula_units_Z 36
_cell_length_a 17.758936
_cell_length_b 9.291761
_cell_length_c 9.382550
_cell_angle_alpha 90.000000
_cell_angle_beta 90.000000
_cell_angle_gamma 90.000000
_cell_volume 1548.231360
_symmetry_space_group_name_H-M "A M A 2"
_symmetry_group_IT_number 40
_symmetry_cell_setting 'orthorhombic'
loop_
_space_group_symop_operation_xyz
x,y,z
-x,-y,z
1/2-x,y,z
1/2+x,-y,z
x,1/2+y,1/2+z
-x,1/2-y,1/2+z
1/2-x,1/2+y,1/2+z
1/2+x,1/2-y,1/2+z
loop_
_atom_site_type_symbol
_atom_site_label
_atom_site_fract_x
_atom_site_fract_y
_atom_site_fract_z
Si Si1 0.750000 0.214956 0.800071
Si Si2 0.750000 0.715998 0.999444
Si Si3 0.414036 0.659832 0.478579
Si Si4 0.750000 0.040556 0.235379
Si Si5 0.128559 0.352603 0.527610
Si Si6 0.515343 0.832286 0.676562
O O1 0.750000 0.129033 0.650983
O O2 0.750000 0.370530 0.724363
O O3 0.824507 0.185286 0.887778
O O4 0.675939 0.813163 0.966072
O O5 0.750000 0.577866 0.899864
O O6 0.425779 0.486989 0.490798
O O7 0.442812 0.741496 0.621577
O O8 0.461194 0.710500 0.338424
O O9 0.822868 0.106346 0.163173
O O10 0.082020 0.211266 0.568571
O O11 0.500000 0.000000 0.658317
#
# Coordination Sequence:
#
# PCOD8184656 Si02
#       6
#     4   4   8   4   8   8
#     4  11  26  43  79 114 148 190 252 308 375 441
#     4  12  25  48  79 105 143 195 250 301 370 438
#     4  12  28  51  75 108 151 195 248 310 372 444
#     4  11  23  45  74 113 143 199 242 313 363 447
#     4  11  25  49  75 107 154 195 247 308 376 439
#     4  12  29  47  73 109 150 198 249 303 375 442
#
# _framework density 23.252338999999999
#
# number of rings (size 3 to 8) (size 9 to 14) (size 15 to 20)
#    0.000    0.444    4.444    2.667    9.333    1.778 
#    0.000    0.000    0.000    0.000    0.000    0.000 
#    0.000    0.000    0.000    0.000    0.000    0.000 
#
# Total GULP energy -223194.198537 kJ/mol
# GULP energy per Si atom -12399.677697 kJ/mol
# Density = 2.319942 g / cm^3
# Si number density = 23.252339 Si / 1000 Ang^3
#
#
#
# Elastic Constant Matrix: (Units=GPa)
#
#
# Indices 1 2 3 4 5 6 
#
# 1 130.3036 52.9699 64.7311 0.0000 0.0000 0.0000
# 2 52.9699 99.4507 45.4842 0.0000 0.0000 0.0000
# 3 64.7311 45.4842 180.5549 0.0000 0.0000 0.0000
# 4 0.0000 0.0000 0.0000 38.7970 0.0000 0.0000
# 5 0.0000 0.0000 0.0000 0.0000 142.1789 0.0000
# 6 0.0000 0.0000 0.0000 0.0000 0.0000 41.7555
#
#
#
# Elastic Compliance Matrix: (Units=1/GPa)
#
#
# Indices 1 2 3 4 5 6 
#
# 1 0.010891 -0.004538 -0.002761 0.000000 0.000000 0.000000
# 2 -0.004538 0.013255 -0.001712 0.000000 0.000000 0.000000
# 3 -0.002761 -0.001712 0.006960 0.000000 0.000000 0.000000
# 4 0.000000 0.000000 0.000000 0.025775 0.000000 0.000000
# 5 0.000000 0.000000 0.000000 0.000000 0.007033 0.000000
# 6 0.000000 0.000000 0.000000 0.000000 0.000000 0.023949
#
#
# Mechanical properties :
#
#
# Convention : Reuss Voigt Hill
#
# Bulk Modulus (GPa) = 76.43520 81.85326 79.14423
# Shear Modulus (GPa) = 45.35252 61.02122 53.18687
#
# Velocity S-wave (km/s) = 4.42118 5.12835 4.78784
# Velocity P-wave (km/s) = 7.68153 8.38721 8.04211
#
# Compressibility (1/GPa) = 0.01308298
#
# Stress axis : x y z
#
# Youngs Moduli (GPa) = 91.82050 75.44140 143.68187
#
# Poissons Ratio (x) = 0.34234 0.39676
# Poissons Ratio (y) = 0.41666 0.24603
# Poissons Ratio (z) = 0.25355 0.12918
#
# Static dielectric constant tensor:
#      x y z
#    x 4.346560 0.000000 0.000000 
#    y 0.000000 4.020240 0.000000 
#    z 0.000000 0.000000 4.432170 
# 
# 
# High freq. dielectric constant tensor:
#      x y z
#    x 1.937960 0.000000 0.000000 
#    y 0.000000 1.906940 0.000000 
#    z 0.000000 0.000000 1.938910 
# 
# From -- ./inp_files/7990.got.cif
#   From: 2010.03.12/outbox.cif.g09.slc.cpg/sg40_4_cif.got.tgz:7990.got - 2010.04.14 01:38:03.
