data_PCOD8184940
_publ_section_title
;
Structure prediction by ZEFSAII (Michael W. Deem and Ramdas Pophale) SiO2 
 PCOD8184940
Probable space group: A B A 2
;
_chemical_formula_sum "Si O2"
_cell_formula_units_Z 64
_cell_length_a 9.564510
_cell_length_b 31.198547
_cell_length_c 10.691265
_cell_angle_alpha 90.000000
_cell_angle_beta 90.000000
_cell_angle_gamma 90.000000
_cell_volume 3190.260804
_symmetry_space_group_name_H-M "A B A 2"
_symmetry_group_IT_number 41
_symmetry_cell_setting 'orthorhombic'
loop_
_space_group_symop_operation_xyz
x,y,z
-x,-y,z
1/2-x,y,1/2+z
1/2+x,-y,1/2+z
x,1/2+y,1/2+z
-x,1/2-y,1/2+z
1/2-x,1/2+y,z
1/2+x,1/2-y,z
loop_
_atom_site_type_symbol
_atom_site_label
_atom_site_fract_x
_atom_site_fract_y
_atom_site_fract_z
Si Si1 0.688142 0.691759 0.598560
Si Si2 0.840054 0.265607 0.412757
Si Si3 0.120607 0.902707 0.594056
Si Si4 0.414446 0.458708 0.356810
Si Si5 0.446031 0.419632 0.095083
Si Si6 0.513297 0.826245 0.577271
Si Si7 0.414653 0.741487 0.270075
Si Si8 0.414732 0.958456 0.330928
O O1 0.623991 0.726723 0.505233
O O2 0.594881 0.648420 0.591283
O O3 0.849099 0.682911 0.570184
O O4 0.666238 0.714748 0.731198
O O5 0.674394 0.271931 0.393167
O O6 0.911969 0.310488 0.451116
O O7 0.922473 0.251888 0.287447
O O8 0.060644 0.923225 0.465637
O O9 0.284855 0.908678 0.598766
O O10 0.057711 0.923134 0.721865
O O11 0.500000 0.500000 0.402245
O O12 0.481222 0.445146 0.222773
O O13 0.249897 0.469000 0.343039
O O14 0.539219 0.376611 0.096618
O O15 0.478242 0.444498 0.965730
O O16 0.595476 0.799726 0.682301
O O17 0.500000 0.000000 0.287405
#
# Coordination Sequence:
#
# PCOD8184940 Si02
#       8
#     8   8   8   8   8   8   8   8
#     4  10  21  35  57  86 111 154 201 242 289 344
#     4  11  22  36  59  82 116 156 194 241 292 345
#     4   9  20  34  60  89 112 145 201 244 277 340
#     4  10  20  37  61  86 114 149 191 238 294 355
#     4   9  20  36  60  85 114 155 193 235 288 354
#     4  10  21  37  57  86 113 150 203 241 288 342
#     4  11  22  36  59  82 116 156 194 241 292 345
#     4  10  20  37  61  86 114 149 191 238 294 355
#
# _framework density 20.061056000000001
#
# number of rings (size 3 to 8) (size 9 to 14) (size 15 to 20)
#    0.000    2.000    2.500    0.750    3.500    1.000 
#    0.000    1.250    5.500    0.000    0.000    0.000 
#    0.000    0.000    0.000    0.000    0.000    0.000 
#
# Total GULP energy -396514.787342 kJ/mol
# GULP energy per Si atom -12391.087104 kJ/mol
# Density = 2.001540 g / cm^3
# Si number density = 20.061056 Si / 1000 Ang^3
#
#
#
# Elastic Constant Matrix: (Units=GPa)
#
#
# Indices 1 2 3 4 5 6 
#
# 1 51.4813 35.4009 17.2710 0.0000 0.0000 0.0000
# 2 35.4009 143.4826 44.4513 0.0000 0.0000 0.0000
# 3 17.2710 44.4513 109.1035 0.0000 0.0000 0.0000
# 4 0.0000 0.0000 0.0000 17.5705 0.0000 0.0000
# 5 0.0000 0.0000 0.0000 0.0000 21.2307 0.0000
# 6 0.0000 0.0000 0.0000 0.0000 0.0000 29.8811
#
#
#
# Elastic Compliance Matrix: (Units=1/GPa)
#
#
# Indices 1 2 3 4 5 6 
#
# 1 0.023624 -0.005345 -0.001562 0.000000 0.000000 0.000000
# 2 -0.005345 0.009185 -0.002896 0.000000 0.000000 0.000000
# 3 -0.001562 -0.002896 0.010593 0.000000 0.000000 0.000000
# 4 0.000000 0.000000 0.000000 0.056914 0.000000 0.000000
# 5 0.000000 0.000000 0.000000 0.000000 0.047102 0.000000
# 6 0.000000 0.000000 0.000000 0.000000 0.000000 0.033466
#
#
# Mechanical properties :
#
#
# Convention : Reuss Voigt Hill
#
# Bulk Modulus (GPa) = 42.02380 55.36822 48.69601
# Shear Modulus (GPa) = 23.98986 27.53274 25.76130
#
# Velocity S-wave (km/s) = 3.46185 3.70867 3.58738
# Velocity P-wave (km/s) = 6.08051 6.78224 6.44094
#
# Compressibility (1/GPa) = 0.02379604
#
# Stress axis : x y z
#
# Youngs Moduli (GPa) = 42.33014 108.86791 94.40276
#
# Poissons Ratio (x) = 0.58186 0.14746
# Poissons Ratio (y) = 0.22624 0.27342
# Poissons Ratio (z) = 0.06612 0.31532
#
# Static dielectric constant tensor:
#      x y z
#    x 3.275630 0.000000 0.000000 
#    y 0.000000 3.778200 0.000000 
#    z 0.000000 0.000000 3.832440 
# 
# 
# High freq. dielectric constant tensor:
#      x y z
#    x 1.754740 0.000000 0.000000 
#    y 0.000000 1.780890 0.000000 
#    z 0.000000 0.000000 1.790810 
# 
# From -- ./inp_files/4650.got.cif
#   From: 2010.03.12/outbox.cif.g09.slc.cpg/sg41_3_cif.got.tgz:4650.got - 2010.04.14 01:55:53.
