data_PCOD8184448
_publ_section_title
;
Structure prediction by ZEFSAII (Michael W. Deem and Ramdas Pophale) SiO2 
 PCOD8184448
Probable space group: A M A 2
;
_chemical_formula_sum "Si O2"
_cell_formula_units_Z 48
_cell_length_a 21.304286
_cell_length_b 8.390823
_cell_length_c 11.682085
_cell_angle_alpha 90.000000
_cell_angle_beta 90.000000
_cell_angle_gamma 90.000000
_cell_volume 2088.295273
_symmetry_space_group_name_H-M "A M A 2"
_symmetry_group_IT_number 40
_symmetry_cell_setting 'orthorhombic'
loop_
_space_group_symop_operation_xyz
x,y,z
-x,-y,z
1/2-x,y,z
1/2+x,-y,z
x,1/2+y,1/2+z
-x,1/2-y,1/2+z
1/2-x,1/2+y,1/2+z
1/2+x,1/2-y,1/2+z
loop_
_atom_site_type_symbol
_atom_site_label
_atom_site_fract_x
_atom_site_fract_y
_atom_site_fract_z
Si Si1 0.065516 0.909616 0.479880
Si Si2 0.507650 0.676175 0.599977
Si Si3 0.902875 0.795434 0.774929
Si Si4 0.821592 0.892411 0.419251
Si Si5 0.321047 0.953437 0.178696
Si Si6 0.885140 0.571906 0.453621
O O1 0.071915 0.846061 0.352958
O O2 0.059197 0.756067 0.565430
O O3 0.128610 0.014434 0.502808
O O4 0.000000 0.000000 0.491809
O O5 0.500000 0.500000 0.657620
O O6 0.542920 0.807333 0.678824
O O7 0.546676 0.648385 0.480623
O O8 0.840012 0.728900 0.713127
O O9 0.889694 0.957074 0.843616
O O10 0.750000 0.933959 0.457009
O O11 0.833448 0.704925 0.426562
O O12 0.832061 0.932018 0.286228
O O13 0.250000 0.950715 0.137868
O O14 0.362424 0.015465 0.070930
#
# Coordination Sequence:
#
# PCOD8184448 Si02
#       6
#     8   8   8   8   8   8
#     4  11  21  42  66 100 137 181 227 283 354 414
#     4  11  22  43  65  99 142 176 237 293 346 420
#     4  10  23  40  66  99 134 179 224 287 349 416
#     4  10  22  42  69 102 141 182 235 292 346 419
#     4   9  21  41  64  93 132 179 230 284 345 415
#     4  11  21  42  66  95 132 183 227 280 350 415
#
# _framework density 22.985254999999999
#
# number of rings (size 3 to 8) (size 9 to 14) (size 15 to 20)
#    0.000    1.667    3.333    1.000    0.000    1.333 
#    6.000    0.000    0.000    8.000    0.000    0.000 
#    0.000    0.000    0.000    0.000    0.000    0.000 
#
# Total GULP energy -297320.122238 kJ/mol
# GULP energy per Si atom -12388.338427 kJ/mol
# Density = 2.293294 g / cm^3
# Si number density = 22.985255 Si / 1000 Ang^3
#
#
#
# Elastic Constant Matrix: (Units=GPa)
#
#
# Indices 1 2 3 4 5 6 
#
# 1 129.9895 56.5240 35.6441 0.0000 0.0000 0.0000
# 2 56.5240 102.3566 39.6851 0.0000 0.0000 0.0000
# 3 35.6441 39.6851 62.4358 0.0000 0.0000 0.0000
# 4 0.0000 0.0000 0.0000 42.9522 0.0000 0.0000
# 5 0.0000 0.0000 0.0000 0.0000 26.2034 0.0000
# 6 0.0000 0.0000 0.0000 0.0000 0.0000 33.2967
#
#
#
# Elastic Compliance Matrix: (Units=1/GPa)
#
#
# Indices 1 2 3 4 5 6 
#
# 1 0.010552 -0.004633 -0.003079 0.000000 0.000000 0.000000
# 2 -0.004633 0.014999 -0.006889 0.000000 0.000000 0.000000
# 3 -0.003079 -0.006889 0.022153 0.000000 0.000000 0.000000
# 4 0.000000 0.000000 0.000000 0.023282 0.000000 0.000000
# 5 0.000000 0.000000 0.000000 0.000000 0.038163 0.000000
# 6 0.000000 0.000000 0.000000 0.000000 0.000000 0.030033
#
#
# Mechanical properties :
#
#
# Convention : Reuss Voigt Hill
#
# Bulk Modulus (GPa) = 54.04810 62.05426 58.05118
# Shear Modulus (GPa) = 28.64497 31.35236 29.99866
#
# Velocity S-wave (km/s) = 3.53403 3.69727 3.61657
# Velocity P-wave (km/s) = 6.34175 6.72922 6.53836
#
# Compressibility (1/GPa) = 0.01850204
#
# Stress axis : x y z
#
# Youngs Moduli (GPa) = 94.76939 66.67037 45.14113
#
# Poissons Ratio (x) = 0.30890 0.13899
# Poissons Ratio (y) = 0.43909 0.31096
# Poissons Ratio (z) = 0.29180 0.45926
#
# Static dielectric constant tensor:
#      x y z
#    x 4.256860 0.000000 0.000000 
#    y 0.000000 4.089280 0.000000 
#    z 0.000000 0.000000 4.103000 
# 
# 
# High freq. dielectric constant tensor:
#      x y z
#    x 1.906540 0.000000 0.000000 
#    y 0.000000 1.900430 0.000000 
#    z 0.000000 0.000000 1.899700 
# 
# From -- ./inp_files/13925.got.cif
#   From: 2010.03.12/outbox.cif.g09.slc.cpg/sg40_7_cif.got.tgz:13925.got - 2010.04.14 01:38:03.
