data_PCOD8184096
_publ_section_title
;
Structure prediction by ZEFSAII (Michael W. Deem and Ramdas Pophale) SiO2 
 PCOD8184096
Probable space group: A M A 2
;
_chemical_formula_sum "Si O2"
_cell_formula_units_Z 48
_cell_length_a 14.305256
_cell_length_b 8.861564
_cell_length_c 18.374226
_cell_angle_alpha 90.000000
_cell_angle_beta 90.000000
_cell_angle_gamma 90.000000
_cell_volume 2329.244434
_symmetry_space_group_name_H-M "A M A 2"
_symmetry_group_IT_number 40
_symmetry_cell_setting 'orthorhombic'
loop_
_space_group_symop_operation_xyz
x,y,z
-x,-y,z
1/2-x,y,z
1/2+x,-y,z
x,1/2+y,1/2+z
-x,1/2-y,1/2+z
1/2-x,1/2+y,1/2+z
1/2+x,1/2-y,1/2+z
loop_
_atom_site_type_symbol
_atom_site_label
_atom_site_fract_x
_atom_site_fract_y
_atom_site_fract_z
Si Si1 0.250000 0.217442 0.594211
Si Si2 0.570424 0.128585 0.737640
Si Si3 0.250000 0.519862 0.399077
Si Si4 0.250000 0.063447 0.737566
Si Si5 0.048645 0.653339 0.609708
Si Si6 0.750000 0.431668 0.559112
Si Si7 0.354284 0.237262 0.373130
Si Si8 0.063612 0.642278 0.017347
O O1 0.250000 0.206919 0.682717
O O2 0.250000 0.388105 0.566257
O O3 0.159136 0.132897 0.563261
O O4 0.529271 0.216818 0.668712
O O5 0.586734 0.257441 0.798880
O O6 0.500000 0.000000 0.764987
O O7 0.665156 0.044877 0.717993
O O8 0.250000 0.616772 0.323092
O O9 0.250000 0.617119 0.473265
O O10 0.341673 0.411725 0.399619
O O11 0.159113 0.635554 0.597663
O O12 0.000000 0.500000 0.636724
O O13 0.995290 0.707266 0.536773
O O14 0.250000 0.166048 0.360822
O O15 0.412009 0.142723 0.431960
O O16 0.000000 0.500000 0.036425
#
# Coordination Sequence:
#
# PCOD8184096 Si02
#       8
#     4   8   4   4   8   4   8   8
#     4  12  20  42  63  97 136 182 218 287 352 389
#     4  11  23  41  67  99 129 171 228 282 330 411
#     4   8  16  38  61  89 117 170 218 262 331 401
#     4  10  21  36  66  90 130 169 220 280 337 401
#     4  12  25  40  63  99 133 177 228 276 336 410
#     4  12  23  40  68  90 143 183 216 287 338 403
#     4   9  19  42  65  89 127 175 211 270 349 396
#     4  12  24  41  69  98 135 175 231 282 340 409
#
# _framework density 20.607543
#
# number of rings (size 3 to 8) (size 9 to 14) (size 15 to 20)
#    0.500    0.667    5.000    3.000    0.000    4.667 
#    0.000    0.000    3.667    1.000    0.000    0.000 
#    0.000    0.000    0.000    0.000    0.000    0.000 
#
# Total GULP energy -297514.329232 kJ/mol
# GULP energy per Si atom -12396.430385 kJ/mol
# Density = 2.056064 g / cm^3
# Si number density = 20.607543 Si / 1000 Ang^3
#
#
#
# Elastic Constant Matrix: (Units=GPa)
#
#
# Indices 1 2 3 4 5 6 
#
# 1 142.1401 42.3899 28.9261 0.0000 0.0000 0.0000
# 2 42.3899 63.1213 37.3338 0.0000 0.0000 0.0000
# 3 28.9261 37.3338 117.6007 0.0000 0.0000 0.0000
# 4 0.0000 0.0000 0.0000 30.6086 0.0000 0.0000
# 5 0.0000 0.0000 0.0000 0.0000 35.9378 0.0000
# 6 0.0000 0.0000 0.0000 0.0000 0.0000 28.0703
#
#
#
# Elastic Compliance Matrix: (Units=1/GPa)
#
#
# Indices 1 2 3 4 5 6 
#
# 1 0.008809 -0.005706 -0.000355 0.000000 0.000000 0.000000
# 2 -0.005706 0.023200 -0.005962 0.000000 0.000000 0.000000
# 3 -0.000355 -0.005962 0.010483 0.000000 0.000000 0.000000
# 4 0.000000 0.000000 0.000000 0.032671 0.000000 0.000000
# 5 0.000000 0.000000 0.000000 0.000000 0.027826 0.000000
# 6 0.000000 0.000000 0.000000 0.000000 0.000000 0.035625
#
#
# Mechanical properties :
#
#
# Convention : Reuss Voigt Hill
#
# Bulk Modulus (GPa) = 54.20901 60.01797 57.11349
# Shear Modulus (GPa) = 29.61918 33.20415 31.41166
#
# Velocity S-wave (km/s) = 3.79528 4.01841 3.90844
# Velocity P-wave (km/s) = 6.75042 7.12163 6.93851
#
# Compressibility (1/GPa) = 0.01844712
#
# Stress axis : x y z
#
# Youngs Moduli (GPa) = 113.51717 43.10260 95.38851
#
# Poissons Ratio (x) = 0.24593 0.03391
# Poissons Ratio (y) = 0.64770 0.56869
# Poissons Ratio (z) = 0.04035 0.25697
#
# Static dielectric constant tensor:
#      x y z
#    x 3.706760 0.000000 0.000000 
#    y 0.000000 3.353260 0.000000 
#    z 0.000000 0.000000 3.865990 
# 
# 
# High freq. dielectric constant tensor:
#      x y z
#    x 1.818680 0.000000 0.000000 
#    y 0.000000 1.766210 0.000000 
#    z 0.000000 0.000000 1.810080 
# 
# From -- ./inp_files/20619.got.cif
#   From: 2010.03.12/outbox.cif.g09.slc.cpg/sg40_11_cif.got.tgz:20619.got - 2010.04.14 01:38:03.
