data_PCOD8184829
_publ_section_title
;
Structure prediction by ZEFSAII (Michael W. Deem and Ramdas Pophale) SiO2 
 PCOD8184829
Probable space group: A B A 2
;
_chemical_formula_sum "Si O2"
_cell_formula_units_Z 60
_cell_length_a 8.475066
_cell_length_b 14.951936
_cell_length_c 21.323439
_cell_angle_alpha 90.000000
_cell_angle_beta 90.000000
_cell_angle_gamma 90.000000
_cell_volume 2702.077285
_symmetry_space_group_name_H-M "A B A 2"
_symmetry_group_IT_number 41
_symmetry_cell_setting 'orthorhombic'
loop_
_space_group_symop_operation_xyz
x,y,z
-x,-y,z
1/2-x,y,1/2+z
1/2+x,-y,1/2+z
x,1/2+y,1/2+z
-x,1/2-y,1/2+z
1/2-x,1/2+y,z
1/2+x,1/2-y,z
loop_
_atom_site_type_symbol
_atom_site_label
_atom_site_fract_x
_atom_site_fract_y
_atom_site_fract_z
Si Si1 0.013804 0.779232 0.012220
Si Si2 0.000000 0.500000 0.100706
Si Si3 0.804893 0.568002 0.332538
Si Si4 0.284573 0.297739 0.424825
Si Si5 0.333438 0.202379 0.210036
Si Si6 0.275122 0.145164 0.079206
Si Si7 0.839123 0.369935 0.343511
Si Si8 0.164024 0.375433 0.199558
O O1 0.894299 0.851139 0.044328
O O2 0.125537 0.734837 0.064230
O O3 0.918612 0.698951 0.977986
O O4 0.120604 0.825805 0.958745
O O5 0.879543 0.441208 0.058483
O O6 0.882563 0.562782 0.141284
O O7 0.680647 0.632861 0.368298
O O8 0.770385 0.468601 0.357370
O O9 0.786718 0.561528 0.257552
O O10 0.973618 0.614409 0.344292
O O11 0.282320 0.195667 0.398876
O O12 0.256855 0.140923 0.154863
O O13 0.270210 0.171392 0.278338
O O14 0.307094 0.306044 0.190835
O O15 0.520277 0.190838 0.214259
#
# Coordination Sequence:
#
# PCOD8184829 Si02
#       8
#     8   4   8   8   8   8   8   8
#     4  10  23  39  61  83 120 169 221 247 306 374
#     4  10  20  36  62  90 122 156 210 264 318 376
#     4  10  19  35  61  90 126 157 201 251 319 376
#     4  11  20  40  61  87 123 167 208 261 310 373
#     4  10  19  34  65  89 119 160 203 250 323 380
#     4  10  20  40  61  87 121 162 214 263 308 371
#     4  10  20  36  62  97 120 162 205 256 319 388
#     4  10  19  34  61  94 121 155 201 254 322 387
#
# _framework density 22.205138000000002
#
# number of rings (size 3 to 8) (size 9 to 14) (size 15 to 20)
#    0.000    1.867    2.667    4.000    0.000    0.000 
#    4.800    0.000    2.933   17.600    0.000    0.000 
#    0.000    0.000    0.000    0.000    0.000    0.000 
#
# Total GULP energy -371666.357025 kJ/mol
# GULP energy per Si atom -12388.878568 kJ/mol
# Density = 2.215460 g / cm^3
# Si number density = 22.205138 Si / 1000 Ang^3
#
#
#
# Elastic Constant Matrix: (Units=GPa)
#
#
# Indices 1 2 3 4 5 6 
#
# 1 41.7394 6.5247 20.4824 0.0000 0.0000 0.0000
# 2 6.5247 99.1135 12.5160 0.0000 0.0000 0.0000
# 3 20.4824 12.5160 79.9240 0.0000 0.0000 0.0000
# 4 0.0000 0.0000 0.0000 25.0444 0.0000 0.0000
# 5 0.0000 0.0000 0.0000 0.0000 24.9860 0.0000
# 6 0.0000 0.0000 0.0000 0.0000 0.0000 36.5067
#
#
#
# Elastic Compliance Matrix: (Units=1/GPa)
#
#
# Indices 1 2 3 4 5 6 
#
# 1 0.027490 -0.000939 -0.006898 0.000000 0.000000 0.000000
# 2 -0.000939 0.010325 -0.001376 0.000000 0.000000 0.000000
# 3 -0.006898 -0.001376 0.014495 0.000000 0.000000 0.000000
# 4 0.000000 0.000000 0.000000 0.039929 0.000000 0.000000
# 5 0.000000 0.000000 0.000000 0.000000 0.040022 0.000000
# 6 0.000000 0.000000 0.000000 0.000000 0.000000 0.027392
#
#
# Mechanical properties :
#
#
# Convention : Reuss Voigt Hill
#
# Bulk Modulus (GPa) = 29.51220 33.31369 31.41294
# Shear Modulus (GPa) = 26.40272 29.39100 27.89686
#
# Velocity S-wave (km/s) = 3.45198 3.64210 3.54831
# Velocity P-wave (km/s) = 5.40442 5.72029 5.56460
#
# Compressibility (1/GPa) = 0.03388429
#
# Stress axis : x y z
#
# Youngs Moduli (GPa) = 36.37700 96.85197 68.98842
#
# Poissons Ratio (x) = 0.09091 0.47588
# Poissons Ratio (y) = 0.03414 0.09495
# Poissons Ratio (z) = 0.25093 0.13330
#
# Static dielectric constant tensor:
#      x y z
#    x 3.808500 0.000000 0.000000 
#    y 0.000000 3.823430 0.000000 
#    z 0.000000 0.000000 4.098100 
# 
# 
# High freq. dielectric constant tensor:
#      x y z
#    x 1.846490 0.000000 0.000000 
#    y 0.000000 1.855170 0.000000 
#    z 0.000000 0.000000 1.880760 
# 
# From -- ./inp_files/12000.got.cif
#   From: 2010.03.12/outbox.cif.g09.slc.cpg/sg41_6_cif.got.tgz:12000.got - 2010.04.14 01:55:53.
