data_PCOD8184487
_publ_section_title
;
Structure prediction by ZEFSAII (Michael W. Deem and Ramdas Pophale) SiO2 
 PCOD8184487
Probable space group: A M A 2
;
_chemical_formula_sum "Si O2"
_cell_formula_units_Z 48
_cell_length_a 16.558216
_cell_length_b 8.659048
_cell_length_c 15.461783
_cell_angle_alpha 90.000000
_cell_angle_beta 90.000000
_cell_angle_gamma 90.000000
_cell_volume 2216.885509
_symmetry_space_group_name_H-M "A M A 2"
_symmetry_group_IT_number 40
_symmetry_cell_setting 'orthorhombic'
loop_
_space_group_symop_operation_xyz
x,y,z
-x,-y,z
1/2-x,y,z
1/2+x,-y,z
x,1/2+y,1/2+z
-x,1/2-y,1/2+z
1/2-x,1/2+y,1/2+z
1/2+x,1/2-y,1/2+z
loop_
_atom_site_type_symbol
_atom_site_label
_atom_site_fract_x
_atom_site_fract_y
_atom_site_fract_z
Si Si1 0.843987 0.108645 0.115220
Si Si2 0.591841 0.942837 0.622085
Si Si3 0.913605 0.438446 0.458710
Si Si4 0.087075 0.425173 0.945323
Si Si5 0.156351 0.915019 0.792148
Si Si6 0.343732 0.572051 0.780697
O O1 0.750000 0.155496 0.127695
O O2 0.901076 0.258483 0.115975
O O3 0.878422 0.006956 0.194553
O O4 0.850614 0.010198 0.027044
O O5 0.500000 0.000000 0.634603
O O6 0.627216 0.004960 0.531510
O O7 0.646305 0.007196 0.699061
O O8 0.916182 0.255561 0.460743
O O9 0.892564 0.487838 0.361876
O O10 0.000000 0.500000 0.487073
O O11 0.141956 0.463992 0.863238
O O12 0.000000 0.500000 0.928627
O O13 0.250000 0.915227 0.817881
O O14 0.118254 0.742454 0.792551
O O15 0.250000 0.596664 0.766068
#
# Coordination Sequence:
#
# PCOD8184487 Si02
#       6
#     8   8   8   8   8   8
#     4  11  24  43  66  96 131 171 218 273 332 393
#     4  11  23  41  63  93 129 168 215 266 323 385
#     4  12  24  41  65  93 126 165 213 268 323 387
#     4  11  24  41  62  90 124 163 209 259 319 382
#     4  11  23  41  64  93 127 166 211 263 322 388
#     4  10  23  41  62  89 124 163 207 257 316 383
#
# _framework density 21.651997000000001
#
# number of rings (size 3 to 8) (size 9 to 14) (size 15 to 20)
#    0.000    1.000    0.000    7.500    0.000    7.333 
#    0.000    0.000    0.000    0.000    0.000    0.000 
#    0.000    0.000    0.000    0.000    0.000    0.000 
#
# Total GULP energy -297710.313873 kJ/mol
# GULP energy per Si atom -12404.596411 kJ/mol
# Density = 2.160272 g / cm^3
# Si number density = 21.651997 Si / 1000 Ang^3
#
#
#
# Elastic Constant Matrix: (Units=GPa)
#
#
# Indices 1 2 3 4 5 6 
#
# 1 52.1634 30.4408 13.5416 0.0000 0.0000 0.0000
# 2 30.4408 166.0544 37.6089 0.0000 0.0000 0.0000
# 3 13.5416 37.6089 140.9457 0.0000 0.0000 0.0000
# 4 0.0000 0.0000 0.0000 38.0024 0.0000 0.0000
# 5 0.0000 0.0000 0.0000 0.0000 23.4443 0.0000
# 6 0.0000 0.0000 0.0000 0.0000 0.0000 29.8842
#
#
#
# Elastic Compliance Matrix: (Units=1/GPa)
#
#
# Indices 1 2 3 4 5 6 
#
# 1 0.021622 -0.003718 -0.001085 0.000000 0.000000 0.000000
# 2 -0.003718 0.007049 -0.001524 0.000000 0.000000 0.000000
# 3 -0.001085 -0.001524 0.007606 0.000000 0.000000 0.000000
# 4 0.000000 0.000000 0.000000 0.026314 0.000000 0.000000
# 5 0.000000 0.000000 0.000000 0.000000 0.042654 0.000000
# 6 0.000000 0.000000 0.000000 0.000000 0.000000 0.033463
#
#
# Mechanical properties :
#
#
# Convention : Reuss Voigt Hill
#
# Bulk Modulus (GPa) = 42.33204 58.03843 50.18523
# Shear Modulus (GPa) = 31.40009 36.77100 34.08555
#
# Velocity S-wave (km/s) = 3.81230 4.12548 3.97198
# Velocity P-wave (km/s) = 6.24274 7.03961 6.65311
#
# Compressibility (1/GPa) = 0.02362277
#
# Stress axis : x y z
#
# Youngs Moduli (GPa) = 46.24943 141.86896 131.47930
#
# Poissons Ratio (x) = 0.52745 0.14270
# Poissons Ratio (y) = 0.17195 0.20033
# Poissons Ratio (z) = 0.05019 0.21616
#
# Static dielectric constant tensor:
#      x y z
#    x 3.692270 0.000000 0.000000 
#    y 0.000000 4.195190 0.000000 
#    z 0.000000 0.000000 4.088110 
# 
# 
# High freq. dielectric constant tensor:
#      x y z
#    x 1.837040 0.000000 0.000000 
#    y 0.000000 1.868740 0.000000 
#    z 0.000000 0.000000 1.869390 
# 
# From -- ./inp_files/17653.got.cif
#   From: 2010.03.12/outbox.cif.g09.slc.cpg/sg40_9_cif.got.tgz:17653.got - 2010.04.14 01:38:03.
