data_PCOD8184653
_publ_section_title
;
Structure prediction by ZEFSAII (Michael W. Deem and Ramdas Pophale) SiO2 
 PCOD8184653
Probable space group: A M A 2
;
_chemical_formula_sum "Si O2"
_cell_formula_units_Z 40
_cell_length_a 10.010474
_cell_length_b 8.716307
_cell_length_c 22.359759
_cell_angle_alpha 90.000000
_cell_angle_beta 90.000000
_cell_angle_gamma 90.000000
_cell_volume 1950.986564
_symmetry_space_group_name_H-M "A M A 2"
_symmetry_group_IT_number 40
_symmetry_cell_setting 'orthorhombic'
loop_
_space_group_symop_operation_xyz
x,y,z
-x,-y,z
1/2-x,y,z
1/2+x,-y,z
x,1/2+y,1/2+z
-x,1/2-y,1/2+z
1/2-x,1/2+y,1/2+z
1/2+x,1/2-y,1/2+z
loop_
_atom_site_type_symbol
_atom_site_label
_atom_site_fract_x
_atom_site_fract_y
_atom_site_fract_z
Si Si1 0.903916 0.143427 0.053520
Si Si2 0.250000 0.685227 0.854683
Si Si3 0.986483 0.180592 0.924134
Si Si4 0.750000 0.840621 0.213643
Si Si5 0.750000 0.190384 0.238076
Si Si6 0.486084 0.180882 0.667623
Si Si7 0.250000 0.337851 0.878935
O O1 0.750000 0.087281 0.054641
O O2 0.928404 0.270142 0.103736
O O3 0.935671 0.224130 0.990270
O O4 0.000000 0.000000 0.065372
O O5 0.117911 0.772247 0.874040
O O6 0.250000 0.689810 0.783710
O O7 0.250000 0.520086 0.886212
O O8 0.123755 0.266877 0.912069
O O9 0.000000 0.000000 0.919215
O O10 0.623098 0.767863 0.181316
O O11 0.750000 0.024248 0.205846
O O12 0.617456 0.278851 0.219500
O O13 0.750000 0.194211 0.308984
O O14 0.500000 0.000000 0.666902
#
# Coordination Sequence:
#
# PCOD8184653 Si02
#       7
#     8   4   8   4   4   8   4
#     4  11  25  46  71  96 131 175 221 265 327 404
#     4  11  23  44  65  98 137 170 222 265 326 389
#     4  11  24  42  68  97 130 173 218 270 324 388
#     4  11  25  42  69  96 129 184 216 261 326 401
#     4  11  23  46  65  94 135 176 222 259 322 405
#     4  12  26  42  67 100 133 166 219 280 331 377
#     4  11  25  40  69  98 131 176 216 269 326 389
#
# _framework density 20.502448000000001
#
# number of rings (size 3 to 8) (size 9 to 14) (size 15 to 20)
#    0.000    0.800    2.000    4.800    5.600    9.600 
#    0.000    0.000    0.000    0.000    0.000    0.000 
#    0.000    0.000    0.000    0.000    0.000    0.000 
#
# Total GULP energy -248108.320217 kJ/mol
# GULP energy per Si atom -12405.416011 kJ/mol
# Density = 2.045578 g / cm^3
# Si number density = 20.502448 Si / 1000 Ang^3
#
#
#
# Elastic Constant Matrix: (Units=GPa)
#
#
# Indices 1 2 3 4 5 6 
#
# 1 179.2133 46.3268 45.9818 0.0000 0.0000 0.0000
# 2 46.3268 109.6025 52.5625 0.0000 0.0000 0.0000
# 3 45.9818 52.5625 86.2021 0.0000 0.0000 0.0000
# 4 0.0000 0.0000 0.0000 30.2880 0.0000 0.0000
# 5 0.0000 0.0000 0.0000 0.0000 52.8308 0.0000
# 6 0.0000 0.0000 0.0000 0.0000 0.0000 39.9695
#
#
#
# Elastic Compliance Matrix: (Units=1/GPa)
#
#
# Indices 1 2 3 4 5 6 
#
# 1 0.006650 -0.001568 -0.002591 0.000000 0.000000 0.000000
# 2 -0.001568 0.013264 -0.007252 0.000000 0.000000 0.000000
# 3 -0.002591 -0.007252 0.017404 0.000000 0.000000 0.000000
# 4 0.000000 0.000000 0.000000 0.033016 0.000000 0.000000
# 5 0.000000 0.000000 0.000000 0.000000 0.018928 0.000000
# 6 0.000000 0.000000 0.000000 0.000000 0.000000 0.025019
#
#
# Mechanical properties :
#
#
# Convention : Reuss Voigt Hill
#
# Bulk Modulus (GPa) = 68.97847 73.86222 71.42034
# Shear Modulus (GPa) = 35.22692 39.96078 37.59385
#
# Velocity S-wave (km/s) = 4.14959 4.41962 4.28673
# Velocity P-wave (km/s) = 7.52834 7.88342 7.70792
#
# Compressibility (1/GPa) = 0.01449728
#
# Stress axis : x y z
#
# Youngs Moduli (GPa) = 150.37265 75.38973 57.45661
#
# Poissons Ratio (x) = 0.11823 0.14887
# Poissons Ratio (y) = 0.23583 0.41665
# Poissons Ratio (z) = 0.38962 0.54669
#
# Static dielectric constant tensor:
#      x y z
#    x 3.899050 0.000000 0.000000 
#    y 0.000000 3.781540 0.000000 
#    z 0.000000 0.000000 3.923800 
# 
# 
# High freq. dielectric constant tensor:
#      x y z
#    x 1.823970 0.000000 0.000000 
#    y 0.000000 1.804060 0.000000 
#    z 0.000000 0.000000 1.819480 
# 
# From -- ./inp_files/23860.got.cif
#   From: 2010.03.12/outbox.cif.g09.slc.cpg/sg40_12_cif.got.tgz:23860.got - 2010.04.14 01:38:03.
