data_PCOD8184830
_publ_section_title
;
Structure prediction by ZEFSAII (Michael W. Deem and Ramdas Pophale) SiO2 
 PCOD8184830
Probable space group: A B A 2
;
_chemical_formula_sum "Si O2"
_cell_formula_units_Z 48
_cell_length_a 7.920281
_cell_length_b 16.554289
_cell_length_c 15.826405
_cell_angle_alpha 90.000000
_cell_angle_beta 90.000000
_cell_angle_gamma 90.000000
_cell_volume 2075.073088
_symmetry_space_group_name_H-M "A B A 2"
_symmetry_group_IT_number 41
_symmetry_cell_setting 'orthorhombic'
loop_
_space_group_symop_operation_xyz
x,y,z
-x,-y,z
1/2-x,y,1/2+z
1/2+x,-y,1/2+z
x,1/2+y,1/2+z
-x,1/2-y,1/2+z
1/2-x,1/2+y,z
1/2+x,1/2-y,z
loop_
_atom_site_type_symbol
_atom_site_label
_atom_site_fract_x
_atom_site_fract_y
_atom_site_fract_z
Si Si1 0.233173 0.941897 0.008430
Si Si2 0.500000 0.500000 0.382192
Si Si3 0.067690 0.700695 0.688403
Si Si4 0.249482 0.122788 0.336045
Si Si5 0.373557 0.619141 0.012862
Si Si6 0.302889 0.368447 0.677933
Si Si7 0.000000 0.000000 0.771230
O O1 0.313552 0.886178 0.079411
O O2 0.063156 0.896397 0.979755
O O3 0.365628 0.946445 0.933416
O O4 0.202528 0.033115 0.041539
O O5 0.409130 0.564183 0.323950
O O6 0.210790 0.685161 0.761115
O O7 0.138215 0.675701 0.595688
O O8 0.058076 0.798212 0.693016
O O9 0.886153 0.659813 0.705661
O O10 0.267835 0.157686 0.432755
O O11 0.417467 0.069518 0.327398
O O12 0.353869 0.453414 0.719954
#
# Coordination Sequence:
#
# PCOD8184830 Si02
#       7
#     8   4   8   8   8   8   4
#     4   9  18  36  63  92 124 164 213 262 309 374
#     4  10  19  34  61  96 124 162 214 262 312 374
#     4  11  24  43  64  94 133 168 208 264 323 374
#     4  11  22  39  64  94 130 168 213 264 314 374
#     4   9  20  40  63  91 126 167 212 260 316 372
#     4  11  24  42  66  94 128 169 213 261 317 380
#     4  12  23  40  65  92 126 172 216 260 310 376
#
# _framework density 23.131715
#
# number of rings (size 3 to 8) (size 9 to 14) (size 15 to 20)
#    0.000    1.667    0.000    5.500    0.000    6.667 
#    0.000   13.333    0.000    0.000    0.000    0.000 
#    0.000    0.000    0.000    0.000    0.000    0.000 
#
# Total GULP energy -297333.752795 kJ/mol
# GULP energy per Si atom -12388.906366 kJ/mol
# Density = 2.307907 g / cm^3
# Si number density = 23.131715 Si / 1000 Ang^3
#
#
#
# Elastic Constant Matrix: (Units=GPa)
#
#
# Indices 1 2 3 4 5 6 
#
# 1 71.4872 21.9508 28.7344 0.0000 0.0000 0.0000
# 2 21.9508 79.7796 40.3285 0.0000 0.0000 0.0000
# 3 28.7344 40.3285 106.9542 0.0000 0.0000 0.0000
# 4 0.0000 0.0000 0.0000 3.7024 0.0000 0.0000
# 5 0.0000 0.0000 0.0000 0.0000 28.7633 0.0000
# 6 0.0000 0.0000 0.0000 0.0000 0.0000 36.4107
#
#
#
# Elastic Compliance Matrix: (Units=1/GPa)
#
#
# Indices 1 2 3 4 5 6 
#
# 1 0.016167 -0.002783 -0.003294 0.000000 0.000000 0.000000
# 2 -0.002783 0.015965 -0.005272 0.000000 0.000000 0.000000
# 3 -0.003294 -0.005272 0.012223 0.000000 0.000000 0.000000
# 4 0.000000 0.000000 0.000000 0.270099 0.000000 0.000000
# 5 0.000000 0.000000 0.000000 0.000000 0.034767 0.000000
# 6 0.000000 0.000000 0.000000 0.000000 0.000000 0.027464
#
#
# Mechanical properties :
#
#
# Convention : Reuss Voigt Hill
#
# Bulk Modulus (GPa) = 46.17566 48.91647 47.54606
# Shear Modulus (GPa) = 12.29702 24.92243 18.60972
#
# Velocity S-wave (km/s) = 2.30817 3.28596 2.83947
# Velocity P-wave (km/s) = 5.20662 5.96570 5.59904
#
# Compressibility (1/GPa) = 0.02165643
#
# Stress axis : x y z
#
# Youngs Moduli (GPa) = 61.85383 62.63547 81.81463
#
# Poissons Ratio (x) = 0.17432 0.26950
# Poissons Ratio (y) = 0.17215 0.43135
# Poissons Ratio (z) = 0.20375 0.33023
#
# Static dielectric constant tensor:
#      x y z
#    x 4.404910 0.000000 0.000000 
#    y 0.000000 4.042780 0.000000 
#    z 0.000000 0.000000 4.186700 
# 
# 
# High freq. dielectric constant tensor:
#      x y z
#    x 1.923740 0.000000 0.000000 
#    y 0.000000 1.893580 0.000000 
#    z 0.000000 0.000000 1.912280 
# 
# From -- ./inp_files/7362.got.cif
#   From: 2010.03.12/outbox.cif.g09.slc.cpg/sg41_4_cif.got.tgz:7362.got - 2010.04.14 01:55:53.
