data_PCOD8184923
_publ_section_title
;
Structure prediction by ZEFSAII (Michael W. Deem and Ramdas Pophale) SiO2 
 PCOD8184923
Probable space group: A B A 2
;
_chemical_formula_sum "Si O2"
_cell_formula_units_Z 44
_cell_length_a 14.584891
_cell_length_b 27.345615
_cell_length_c 5.116816
_cell_angle_alpha 90.000000
_cell_angle_beta 90.000000
_cell_angle_gamma 90.000000
_cell_volume 2040.754125
_symmetry_space_group_name_H-M "A B A 2"
_symmetry_group_IT_number 41
_symmetry_cell_setting 'orthorhombic'
loop_
_space_group_symop_operation_xyz
x,y,z
-x,-y,z
1/2-x,y,1/2+z
1/2+x,-y,1/2+z
x,1/2+y,1/2+z
-x,1/2-y,1/2+z
1/2-x,1/2+y,z
1/2+x,1/2-y,z
loop_
_atom_site_type_symbol
_atom_site_label
_atom_site_fract_x
_atom_site_fract_y
_atom_site_fract_z
Si Si1 0.692639 0.336319 0.502670
Si Si2 0.810873 0.226886 0.992472
Si Si3 0.809772 0.538562 0.398559
Si Si4 0.000000 0.000000 0.709869
Si Si5 0.978656 0.398072 0.960902
Si Si6 0.084899 0.868381 0.949991
O O1 0.777103 0.342647 0.302760
O O2 0.649006 0.281919 0.474935
O O3 0.622715 0.377948 0.416286
O O4 0.745844 0.216834 0.750734
O O5 0.892769 0.188169 0.995685
O O6 0.756198 0.523155 0.659859
O O7 0.826794 0.597261 0.390810
O O8 0.909520 0.511790 0.384856
O O9 0.976103 0.955280 0.521295
O O10 0.036935 0.391099 0.701820
O O11 0.018638 0.367934 0.202636
#
# Coordination Sequence:
#
# PCOD8184923 Si02
#       6
#     8   8   8   4   8   8
#     4  10  22  40  61  88 120 160 205 245 305 381
#     4  10  20  36  60  88 122 158 196 248 303 371
#     4  11  23  40  64  90 121 163 206 255 317 374
#     4  10  26  44  62  94 128 162 218 270 314 374
#     4  11  24  40  61  86 123 162 202 264 313 363
#     4  11  22  38  61  91 122 156 202 255 313 376
#
# _framework density 21.560656999999999
#
# number of rings (size 3 to 8) (size 9 to 14) (size 15 to 20)
#    0.000    1.455    0.000    5.455    0.000    9.455 
#    0.000    0.000    0.000    0.000    0.000    0.000 
#    0.000    0.000    0.000    0.000    0.000    0.000 
#
# Total GULP energy -272829.934158 kJ/mol
# GULP energy per Si atom -12401.360644 kJ/mol
# Density = 2.151158 g / cm^3
# Si number density = 21.560657 Si / 1000 Ang^3
#
#
#
# Elastic Constant Matrix: (Units=GPa)
#
#
# Indices 1 2 3 4 5 6 
#
# 1 106.4431 63.3732 38.9151 0.0000 0.0000 0.0000
# 2 63.3732 154.4785 37.0152 0.0000 0.0000 0.0000
# 3 38.9151 37.0152 146.2738 0.0000 0.0000 0.0000
# 4 0.0000 0.0000 0.0000 31.9671 0.0000 0.0000
# 5 0.0000 0.0000 0.0000 0.0000 32.4202 0.0000
# 6 0.0000 0.0000 0.0000 0.0000 0.0000 45.6689
#
#
#
# Elastic Compliance Matrix: (Units=1/GPa)
#
#
# Indices 1 2 3 4 5 6 
#
# 1 0.013098 -0.004831 -0.002262 0.000000 0.000000 0.000000
# 2 -0.004831 0.008673 -0.000909 0.000000 0.000000 0.000000
# 3 -0.002262 -0.000909 0.007668 0.000000 0.000000 0.000000
# 4 0.000000 0.000000 0.000000 0.031282 0.000000 0.000000
# 5 0.000000 0.000000 0.000000 0.000000 0.030845 0.000000
# 6 0.000000 0.000000 0.000000 0.000000 0.000000 0.021897
#
#
# Mechanical properties :
#
#
# Convention : Reuss Voigt Hill
#
# Bulk Modulus (GPa) = 74.43732 76.20026 75.31879
# Shear Modulus (GPa) = 37.32803 39.87071 38.59937
#
# Velocity S-wave (km/s) = 4.16541 4.30494 4.23575
# Velocity P-wave (km/s) = 7.59827 7.75429 7.67668
#
# Compressibility (1/GPa) = 0.01343412
#
# Stress axis : x y z
#
# Youngs Moduli (GPa) = 76.34673 115.29602 130.40446
#
# Poissons Ratio (x) = 0.55704 0.29498
# Poissons Ratio (y) = 0.36886 0.11860
# Poissons Ratio (z) = 0.17270 0.10486
#
# Static dielectric constant tensor:
#      x y z
#    x 3.713410 0.000000 0.000000 
#    y 0.000000 4.032430 0.000000 
#    z 0.000000 0.000000 3.977840 
# 
# 
# High freq. dielectric constant tensor:
#      x y z
#    x 1.832390 0.000000 0.000000 
#    y 0.000000 1.851020 0.000000 
#    z 0.000000 0.000000 1.866050 
# 
# From -- ./inp_files/273.got.cif
#   From: 2010.03.12/outbox.cif.g09.slc.cpg/sg41_1_cif.got.tgz:273.got - 2010.04.14 01:55:53.
