data_PCOD8184114
_publ_section_title
;
Structure prediction by ZEFSAII (Michael W. Deem and Ramdas Pophale) SiO2 
 PCOD8184114
Probable space group: A M A 2
;
_chemical_formula_sum "Si O2"
_cell_formula_units_Z 56
_cell_length_a 8.575685
_cell_length_b 20.039340
_cell_length_c 15.466017
_cell_angle_alpha 90.000000
_cell_angle_beta 90.000000
_cell_angle_gamma 90.000000
_cell_volume 2657.851531
_symmetry_space_group_name_H-M "A M A 2"
_symmetry_group_IT_number 40
_symmetry_cell_setting 'orthorhombic'
loop_
_space_group_symop_operation_xyz
x,y,z
-x,-y,z
1/2-x,y,z
1/2+x,-y,z
x,1/2+y,1/2+z
-x,1/2-y,1/2+z
1/2-x,1/2+y,1/2+z
1/2+x,1/2-y,1/2+z
loop_
_atom_site_type_symbol
_atom_site_label
_atom_site_fract_x
_atom_site_fract_y
_atom_site_fract_z
Si Si1 0.933789 0.790297 0.332600
Si Si2 0.926545 0.431290 0.389743
Si Si3 0.567316 0.072728 0.386630
Si Si4 0.067793 0.750566 0.150572
Si Si5 0.569649 0.066470 0.729044
Si Si6 0.429671 0.111841 0.565075
Si Si7 0.073500 0.700663 0.486488
O O1 0.750000 0.790444 0.342973
O O2 0.992525 0.867233 0.331217
O O3 0.978901 0.757565 0.241084
O O4 0.000294 0.750589 0.415134
O O5 0.750000 0.445568 0.358688
O O6 0.930520 0.376900 0.464476
O O7 0.000000 0.500000 0.427629
O O8 0.020873 0.389022 0.311573
O O9 0.750000 0.071128 0.369082
O O10 0.536270 0.088120 0.487102
O O11 0.500000 0.000000 0.360684
O O12 0.250000 0.753311 0.171003
O O13 0.015539 0.681811 0.104930
O O14 0.018423 0.802899 0.077674
O O15 0.750000 0.070927 0.704273
O O16 0.460566 0.063575 0.645163
O O17 0.500000 0.000000 0.776670
O O18 0.250000 0.110898 0.535376
O O19 0.250000 0.725931 0.500151
#
# Coordination Sequence:
#
# PCOD8184114 Si02
#       7
#     8   8   8   8   8   8   8
#     4  12  25  43  67  97 133 174 222 273 333 399
#     4  10  21  37  58  86 121 162 206 257 316 381
#     4  12  25  43  67  94 131 174 223 276 338 402
#     4  11  24  41  65  94 126 166 216 270 327 391
#     4  11  21  33  52  80 116 158 200 246 304 371
#     4  11  22  38  59  89 125 161 209 263 323 387
#     4  11  23  41  65  94 128 165 212 268 327 390
#
# _framework density 21.069649999999999
#
# number of rings (size 3 to 8) (size 9 to 14) (size 15 to 20)
#    0.000    0.857    1.429    7.714    0.000    7.429 
#    0.000    0.714    0.000    1.714    0.000    0.000 
#    0.000    0.000    0.000    0.000    0.000    0.000 
#
# Total GULP energy -346937.207980 kJ/mol
# GULP energy per Si atom -12390.614571 kJ/mol
# Density = 2.102169 g / cm^3
# Si number density = 21.069650 Si / 1000 Ang^3
#
#
#
# Elastic Constant Matrix: (Units=GPa)
#
#
# Indices 1 2 3 4 5 6 
#
# 1 112.6818 40.9708 21.2424 0.0000 0.0000 0.0000
# 2 40.9708 85.9970 11.3610 0.0000 0.0000 0.0000
# 3 21.2424 11.3610 85.7790 0.0000 0.0000 0.0000
# 4 0.0000 0.0000 0.0000 5.2394 0.0000 0.0000
# 5 0.0000 0.0000 0.0000 0.0000 37.1687 0.0000
# 6 0.0000 0.0000 0.0000 0.0000 0.0000 29.1123
#
#
#
# Elastic Compliance Matrix: (Units=1/GPa)
#
#
# Indices 1 2 3 4 5 6 
#
# 1 0.011088 -0.005007 -0.002083 0.000000 0.000000 0.000000
# 2 -0.005007 0.014097 -0.000627 0.000000 0.000000 0.000000
# 3 -0.002083 -0.000627 0.012257 0.000000 0.000000 0.000000
# 4 0.000000 0.000000 0.000000 0.190862 0.000000 0.000000
# 5 0.000000 0.000000 0.000000 0.000000 0.026904 0.000000
# 6 0.000000 0.000000 0.000000 0.000000 0.000000 0.034350
#
#
# Mechanical properties :
#
#
# Convention : Reuss Voigt Hill
#
# Bulk Modulus (GPa) = 45.43948 47.95623 46.69785
# Shear Modulus (GPa) = 16.00889 28.36299 22.18594
#
# Velocity S-wave (km/s) = 2.75945 3.67298 3.24849
# Velocity P-wave (km/s) = 5.63612 6.38732 6.02345
#
# Compressibility (1/GPa) = 0.02200729
#
# Stress axis : x y z
#
# Youngs Moduli (GPa) = 90.18915 70.93829 81.58837
#
# Poissons Ratio (x) = 0.35521 0.16992
# Poissons Ratio (y) = 0.45161 0.05116
# Poissons Ratio (z) = 0.18783 0.04448
#
# Static dielectric constant tensor:
#      x y z
#    x 3.913290 0.000000 0.000000 
#    y 0.000000 4.154710 0.000000 
#    z 0.000000 0.000000 3.834790 
# 
# 
# High freq. dielectric constant tensor:
#      x y z
#    x 1.838270 0.000000 0.000000 
#    y 0.000000 1.831470 0.000000 
#    z 0.000000 0.000000 1.820980 
# 
# From -- ./inp_files/15343.got.cif
#   From: 2010.03.12/outbox.cif.g09.slc.cpg/sg40_8_cif.got.tgz:15343.got - 2010.04.14 01:38:03.
