data_PCOD8184527
_publ_section_title
;
Structure prediction by ZEFSAII (Michael W. Deem and Ramdas Pophale) SiO2 
 PCOD8184527
Probable space group: A M A 2
;
_chemical_formula_sum "Si O2"
_cell_formula_units_Z 64
_cell_length_a 27.778176
_cell_length_b 11.929616
_cell_length_c 9.104751
_cell_angle_alpha 90.000000
_cell_angle_beta 90.000000
_cell_angle_gamma 90.000000
_cell_volume 3017.159454
_symmetry_space_group_name_H-M "A M A 2"
_symmetry_group_IT_number 40
_symmetry_cell_setting 'orthorhombic'
loop_
_space_group_symop_operation_xyz
x,y,z
-x,-y,z
1/2-x,y,z
1/2+x,-y,z
x,1/2+y,1/2+z
-x,1/2-y,1/2+z
1/2-x,1/2+y,1/2+z
1/2+x,1/2-y,1/2+z
loop_
_atom_site_type_symbol
_atom_site_label
_atom_site_fract_x
_atom_site_fract_y
_atom_site_fract_z
Si Si1 0.360411 0.212262 0.390190
Si Si2 0.631873 0.128918 0.154888
Si Si3 0.459000 0.426472 0.261005
Si Si4 0.062229 0.040150 0.034396
Si Si5 0.693310 0.517583 0.899052
Si Si6 0.432849 0.772906 0.388015
Si Si7 0.034429 0.176785 0.302674
Si Si8 0.132856 0.877822 0.633153
O O1 0.347102 0.291855 0.527044
O O2 0.416194 0.169749 0.396921
O O3 0.349699 0.280197 0.240946
O O4 0.325050 0.108264 0.383419
O O5 0.673367 0.099143 0.271616
O O6 0.587787 0.197913 0.227272
O O7 0.613065 0.010371 0.089151
O O8 0.500000 0.500000 0.179752
O O9 0.463837 0.441044 0.439950
O O10 0.466393 0.296773 0.218769
O O11 0.404359 0.462374 0.216675
O O12 0.032858 0.081116 0.177401
O O13 0.067665 0.139651 0.914589
O O14 0.750000 0.519595 0.887360
O O15 0.678169 0.559081 0.062452
O O16 0.486279 0.829054 0.400998
O O17 0.398287 0.829527 0.502161
#
# Coordination Sequence:
#
# PCOD8184527 Si02
#       8
#     8   8   8   8   8   8   8   8
#     4  11  23  42  70  96 129 168 215 263 330 393
#     4  11  25  42  68  97 129 176 212 271 325 391
#     4  11  22  36  63  91 135 180 213 252 307 376
#     4  12  22  42  60  91 139 179 213 261 311 367
#     4  11  26  48  69  94 126 161 214 285 344 392
#     4  11  24  36  62  96 137 178 222 255 306 379
#     4  11  23  35  60  96 132 178 223 247 308 382
#     4  10  23  45  62  98 130 171 217 268 325 386
#
# _framework density 21.212004
#
# number of rings (size 3 to 8) (size 9 to 14) (size 15 to 20)
#    0.000    1.000    7.500    0.000    5.250    2.000 
#    0.000    0.000    0.000    0.000    0.000    0.000 
#    0.000    0.000    0.000    0.000    0.000    0.000 
#
# Total GULP energy -396624.531310 kJ/mol
# GULP energy per Si atom -12394.516603 kJ/mol
# Density = 2.116372 g / cm^3
# Si number density = 21.212004 Si / 1000 Ang^3
#
#
#
# Elastic Constant Matrix: (Units=GPa)
#
#
# Indices 1 2 3 4 5 6 
#
# 1 135.0234 48.8642 41.9559 0.0000 0.0000 0.0000
# 2 48.8642 84.5757 41.2245 0.0000 0.0000 0.0000
# 3 41.9559 41.2245 101.7705 0.0000 0.0000 0.0000
# 4 0.0000 0.0000 0.0000 48.5552 0.0000 0.0000
# 5 0.0000 0.0000 0.0000 0.0000 23.1978 0.0000
# 6 0.0000 0.0000 0.0000 0.0000 0.0000 24.9525
#
#
#
# Elastic Compliance Matrix: (Units=1/GPa)
#
#
# Indices 1 2 3 4 5 6 
#
# 1 0.009731 -0.004569 -0.002161 0.000000 0.000000 0.000000
# 2 -0.004569 0.016878 -0.004953 0.000000 0.000000 0.000000
# 3 -0.002161 -0.004953 0.012723 0.000000 0.000000 0.000000
# 4 0.000000 0.000000 0.000000 0.020595 0.000000 0.000000
# 5 0.000000 0.000000 0.000000 0.000000 0.043108 0.000000
# 6 0.000000 0.000000 0.000000 0.000000 0.000000 0.040076
#
#
# Mechanical properties :
#
#
# Convention : Reuss Voigt Hill
#
# Bulk Modulus (GPa) = 62.63284 65.05097 63.84190
# Shear Modulus (GPa) = 29.10379 31.96277 30.53328
#
# Velocity S-wave (km/s) = 3.70813 3.88600 3.79810
# Velocity P-wave (km/s) = 6.92277 7.13220 7.02827
#
# Compressibility (1/GPa) = 0.01596607
#
# Stress axis : x y z
#
# Youngs Moduli (GPa) = 102.76373 59.24974 78.59591
#
# Poissons Ratio (x) = 0.27070 0.16985
# Poissons Ratio (y) = 0.46951 0.38930
# Poissons Ratio (z) = 0.22207 0.29347
#
# Static dielectric constant tensor:
#      x y z
#    x 3.630630 0.000000 0.000000 
#    y 0.000000 3.897770 0.000000 
#    z 0.000000 0.000000 4.202700 
# 
# 
# High freq. dielectric constant tensor:
#      x y z
#    x 1.795450 0.000000 0.000000 
#    y 0.000000 1.835750 0.000000 
#    z 0.000000 0.000000 1.842190 
# 
# From -- ./inp_files/9417.got.cif
#   From: 2010.03.12/outbox.cif.g09.slc.cpg/sg40_5_cif.got.tgz:9417.got - 2010.04.14 01:38:03.
