data_PCOD8184337
_publ_section_title
;
Structure prediction by ZEFSAII (Michael W. Deem and Ramdas Pophale) SiO2 
 PCOD8184337
Probable space group: A M A 2
;
_chemical_formula_sum "Si O2"
_cell_formula_units_Z 64
_cell_length_a 8.746607
_cell_length_b 24.738748
_cell_length_c 15.069920
_cell_angle_alpha 90.000000
_cell_angle_beta 90.000000
_cell_angle_gamma 90.000000
_cell_volume 3260.830893
_symmetry_space_group_name_H-M "A M A 2"
_symmetry_group_IT_number 40
_symmetry_cell_setting 'orthorhombic'
loop_
_space_group_symop_operation_xyz
x,y,z
-x,-y,z
1/2-x,y,z
1/2+x,-y,z
x,1/2+y,1/2+z
-x,1/2-y,1/2+z
1/2-x,1/2+y,1/2+z
1/2+x,1/2-y,1/2+z
loop_
_atom_site_type_symbol
_atom_site_label
_atom_site_fract_x
_atom_site_fract_y
_atom_site_fract_z
Si Si1 0.929833 0.352206 0.778640
Si Si2 0.931257 0.557055 0.657803
Si Si3 0.424913 0.214860 0.943393
Si Si4 0.071753 0.136398 0.646492
Si Si5 0.571093 0.663700 0.969116
Si Si6 0.431714 0.941390 0.791446
Si Si7 0.073916 0.743298 0.247432
Si Si8 0.929776 0.606516 0.476141
O O1 0.750000 0.360978 0.775718
O O2 0.012811 0.400354 0.729240
O O3 0.987248 0.352830 0.879347
O O4 0.971368 0.295986 0.729232
O O5 0.750000 0.554450 0.659817
O O6 0.992803 0.572812 0.559754
O O7 0.000000 0.500000 0.685412
O O8 0.250000 0.197233 0.952802
O O9 0.455790 0.272718 0.988540
O O10 0.473960 0.216941 0.840685
O O11 0.524782 0.168974 0.990331
O O12 0.250000 0.121305 0.647303
O O13 0.044796 0.198837 0.672573
O O14 0.002293 0.129005 0.548515
O O15 0.983398 0.097312 0.712495
O O16 0.750000 0.650548 0.960278
O O17 0.250000 0.944787 0.792402
O O18 0.497147 0.918352 0.884915
O O19 0.500000 0.000000 0.773950
O O20 0.250000 0.762375 0.251948
O O21 0.750000 0.603257 0.473135
#
# Coordination Sequence:
#
# PCOD8184337 Si02
#       8
#     8   8   8   8   8   8   8   8
#     4  11  23  40  63  90 119 159 205 251 305 364
#     4  11  24  43  63  88 120 158 204 257 307 361
#     4   9  18  34  56  84 120 159 197 238 293 353
#     4  11  22  38  61  90 123 162 205 251 303 360
#     4  10  22  40  60  88 125 162 200 251 306 360
#     4  11  23  40  61  88 122 163 206 252 302 360
#     4   9  19  36  57  86 122 160 197 244 299 354
#     4  10  22  37  58  88 122 159 200 246 299 357
#
# _framework density 19.626899000000002
#
# number of rings (size 3 to 8) (size 9 to 14) (size 15 to 20)
#    0.000    1.750    1.250    3.750    1.750    5.000 
#    0.000    0.625    0.000    0.000    0.000    0.000 
#    0.000    0.000    0.000    0.000    0.000    0.000 
#
# Total GULP energy -396901.868132 kJ/mol
# GULP energy per Si atom -12403.183379 kJ/mol
# Density = 1.958223 g / cm^3
# Si number density = 19.626899 Si / 1000 Ang^3
#
#
#
# Elastic Constant Matrix: (Units=GPa)
#
#
# Indices 1 2 3 4 5 6 
#
# 1 65.6081 31.2302 26.0004 0.0000 0.0000 0.0000
# 2 31.2302 104.9809 44.8090 0.0000 0.0000 0.0000
# 3 26.0004 44.8090 76.7019 0.0000 0.0000 0.0000
# 4 0.0000 0.0000 0.0000 50.2037 0.0000 0.0000
# 5 0.0000 0.0000 0.0000 0.0000 -130.5057 0.0000
# 6 0.0000 0.0000 0.0000 0.0000 0.0000 36.7298
#
#
#
# Elastic Compliance Matrix: (Units=1/GPa)
#
#
# Indices 1 2 3 4 5 6 
#
# 1 0.018681 -0.003803 -0.004111 0.000000 0.000000 0.000000
# 2 -0.003803 0.013464 -0.006576 0.000000 0.000000 0.000000
# 3 -0.004111 -0.006576 0.018273 0.000000 0.000000 0.000000
# 4 0.000000 0.000000 0.000000 0.019919 0.000000 0.000000
# 5 0.000000 0.000000 0.000000 0.000000 -0.007662 0.000000
# 6 0.000000 0.000000 0.000000 0.000000 0.000000 0.027226
#
#
# Mechanical properties :
#
#
# Convention : Reuss Voigt Hill
#
# Bulk Modulus (GPa) = 46.64682 50.15225 48.39953
# Shear Modulus (GPa) = 39.67407 0.96897 20.32152
#
# Velocity S-wave (km/s) = 4.50089 0.70340 3.22124
# Velocity P-wave (km/s) = 7.12945 5.12523 6.20875
#
# Compressibility (1/GPa) = 0.02143769
#
# Stress axis : x y z
#
# Youngs Moduli (GPa) = 53.52924 74.27302 54.72545
#
# Poissons Ratio (x) = 0.28244 0.22498
# Poissons Ratio (y) = 0.20356 0.35990
# Poissons Ratio (z) = 0.22006 0.48846
#
# Static dielectric constant tensor:
#      x y z
#    x 3.637570 0.000000 0.000000 
#    y 0.000000 3.493450 0.000000 
#    z 0.000000 0.000000 3.652710 
# 
# 
# High freq. dielectric constant tensor:
#      x y z
#    x 1.767310 0.000000 0.000000 
#    y 0.000000 1.757840 0.000000 
#    z 0.000000 0.000000 1.768000 
# 
# From -- ./inp_files/15619.got.cif
#   From: 2010.03.12/outbox.cif.g09.slc.cpg/sg40_8_cif.got.tgz:15619.got - 2010.04.14 01:38:03.
