data_PCOD8184374
_publ_section_title
;
Structure prediction by ZEFSAII (Michael W. Deem and Ramdas Pophale) SiO2 
 PCOD8184374
Probable space group: A M A 2
;
_chemical_formula_sum "Si O2"
_cell_formula_units_Z 64
_cell_length_a 8.321275
_cell_length_b 30.980767
_cell_length_c 11.954227
_cell_angle_alpha 90.000000
_cell_angle_beta 90.000000
_cell_angle_gamma 90.000000
_cell_volume 3081.793527
_symmetry_space_group_name_H-M "A M A 2"
_symmetry_group_IT_number 40
_symmetry_cell_setting 'orthorhombic'
loop_
_space_group_symop_operation_xyz
x,y,z
-x,-y,z
1/2-x,y,z
1/2+x,-y,z
x,1/2+y,1/2+z
-x,1/2-y,1/2+z
1/2-x,1/2+y,1/2+z
1/2+x,1/2-y,1/2+z
loop_
_atom_site_type_symbol
_atom_site_label
_atom_site_fract_x
_atom_site_fract_y
_atom_site_fract_z
Si Si1 0.058683 0.202755 0.642260
Si Si2 0.437326 0.044641 0.098435
Si Si3 0.934485 0.577075 0.371635
Si Si4 0.562046 0.122303 0.241218
Si Si5 0.435554 0.797274 0.102890
Si Si6 0.565358 0.330735 0.378563
Si Si7 0.939181 0.955013 0.644091
Si Si8 0.560169 0.374910 0.988432
O O1 0.250000 0.202229 0.639287
O O2 0.984021 0.250110 0.618612
O O3 0.997603 0.189007 0.764123
O O4 0.997797 0.168236 0.550811
O O5 0.250000 0.042511 0.072319
O O6 0.469332 0.082697 0.185846
O O7 0.500000 0.000000 0.153190
O O8 0.533653 0.049836 0.982921
O O9 0.750000 0.592237 0.370290
O O10 0.051803 0.617961 0.372781
O O11 0.971814 0.548949 0.262694
O O12 0.750000 0.117568 0.214026
O O13 0.492239 0.166737 0.187118
O O14 0.533492 0.122473 0.372700
O O15 0.250000 0.792068 0.131249
O O16 0.456859 0.811809 0.976164
O O17 0.750000 0.318187 0.400173
O O18 0.750000 0.955214 0.663979
O O19 0.989000 0.916202 0.562223
O O20 0.000000 0.000000 0.589814
O O21 0.750000 0.373864 0.966026
#
# Coordination Sequence:
#
# PCOD8184374 Si02
#       8
#     8   8   8   8   8   8   8   8
#     4   9  20  40  63  89 124 165 207 256 311 362
#     4  12  25  43  67  93 124 162 206 253 307 369
#     4  12  23  39  63  94 130 163 202 254 311 368
#     4  11  24  41  62  91 128 164 206 256 310 367
#     4  10  22  40  62  90 127 165 204 257 310 366
#     4  11  21  38  65  93 124 165 208 255 308 366
#     4  11  23  41  64  92 124 162 207 256 310 370
#     4  10  22  42  64  86 121 167 213 258 309 366
#
# _framework density 20.767128
#
# number of rings (size 3 to 8) (size 9 to 14) (size 15 to 20)
#    0.000    1.250    2.500    3.750    1.750    2.000 
#    0.000    2.500    0.000    0.000    0.000    0.000 
#    0.000    0.000    0.000    0.000    0.000    0.000 
#
# Total GULP energy -396937.297156 kJ/mol
# GULP energy per Si atom -12404.290536 kJ/mol
# Density = 2.071986 g / cm^3
# Si number density = 20.767128 Si / 1000 Ang^3
#
#
#
# Elastic Constant Matrix: (Units=GPa)
#
#
# Indices 1 2 3 4 5 6 
#
# 1 52.5691 20.2649 20.2550 0.0000 0.0000 0.0000
# 2 20.2649 178.6726 62.6391 0.0000 0.0000 0.0000
# 3 20.2550 62.6391 137.0350 0.0000 0.0000 0.0000
# 4 0.0000 0.0000 0.0000 102.3943 0.0000 0.0000
# 5 0.0000 0.0000 0.0000 0.0000 22.6576 0.0000
# 6 0.0000 0.0000 0.0000 0.0000 0.0000 14.6439
#
#
#
# Elastic Compliance Matrix: (Units=1/GPa)
#
#
# Indices 1 2 3 4 5 6 
#
# 1 0.020505 -0.001504 -0.002343 0.000000 0.000000 0.000000
# 2 -0.001504 0.006775 -0.002875 0.000000 0.000000 0.000000
# 3 -0.002343 -0.002875 0.008958 0.000000 0.000000 0.000000
# 4 0.000000 0.000000 0.000000 0.009766 0.000000 0.000000
# 5 0.000000 0.000000 0.000000 0.000000 0.044135 0.000000
# 6 0.000000 0.000000 0.000000 0.000000 0.000000 0.068288
#
#
# Mechanical properties :
#
#
# Convention : Reuss Voigt Hill
#
# Bulk Modulus (GPa) = 43.87106 63.84383 53.85745
# Shear Modulus (GPa) = 27.85986 45.61369 36.73677
#
# Velocity S-wave (km/s) = 3.66667 4.69170 4.21050
# Velocity P-wave (km/s) = 6.25277 7.75622 7.04471
#
# Compressibility (1/GPa) = 0.02279407
#
# Stress axis : x y z
#
# Youngs Moduli (GPa) = 48.76786 147.59664 111.63489
#
# Poissons Ratio (x) = 0.22201 0.26159
# Poissons Ratio (y) = 0.07336 0.32091
# Poissons Ratio (z) = 0.11428 0.42429
#
# Static dielectric constant tensor:
#      x y z
#    x 3.510550 0.000000 0.000000 
#    y 0.000000 3.993380 0.000000 
#    z 0.000000 0.000000 3.693240 
# 
# 
# High freq. dielectric constant tensor:
#      x y z
#    x 1.799010 0.000000 0.000000 
#    y 0.000000 1.829590 0.000000 
#    z 0.000000 0.000000 1.812630 
# 
# From -- ./inp_files/10675.got.cif
#   From: 2010.03.12/outbox.cif.g09.slc.cpg/sg40_6_cif.got.tgz:10675.got - 2010.04.14 01:38:03.
