data_PCOD8184107
_publ_section_title
;
Structure prediction by ZEFSAII (Michael W. Deem and Ramdas Pophale) SiO2 
 PCOD8184107
Probable space group: A M A 2
;
_chemical_formula_sum "Si O2"
_cell_formula_units_Z 64
_cell_length_a 8.540278
_cell_length_b 19.887108
_cell_length_c 19.867908
_cell_angle_alpha 90.000000
_cell_angle_beta 90.000000
_cell_angle_gamma 90.000000
_cell_volume 3374.393924
_symmetry_space_group_name_H-M "A M A 2"
_symmetry_group_IT_number 40
_symmetry_cell_setting 'orthorhombic'
loop_
_space_group_symop_operation_xyz
x,y,z
-x,-y,z
1/2-x,y,z
1/2+x,-y,z
x,1/2+y,1/2+z
-x,1/2-y,1/2+z
1/2-x,1/2+y,1/2+z
1/2+x,1/2-y,1/2+z
loop_
_atom_site_type_symbol
_atom_site_label
_atom_site_fract_x
_atom_site_fract_y
_atom_site_fract_z
Si Si1 0.568552 0.570964 0.304560
Si Si2 0.566784 0.323278 0.049899
Si Si3 0.433235 0.571223 0.802442
Si Si4 0.934396 0.427810 0.161585
Si Si5 0.564954 0.573403 0.658844
Si Si6 0.929149 0.327149 0.404947
Si Si7 0.069431 0.327855 0.905687
Si Si8 0.932262 0.818126 0.058453
O O1 0.500000 0.500000 0.329603
O O2 0.750000 0.560748 0.291628
O O3 0.492290 0.594955 0.234879
O O4 0.541903 0.627095 0.360736
O O5 0.750000 0.330996 0.034966
O O6 0.507603 0.373703 0.107453
O O7 0.530876 0.248298 0.075531
O O8 0.471107 0.341523 0.983117
O O9 0.500000 0.500000 0.828184
O O10 0.250000 0.563730 0.786949
O O11 0.521643 0.594079 0.734781
O O12 0.460199 0.626732 0.859156
O O13 0.750000 0.431887 0.163433
O O14 0.000000 0.500000 0.140413
O O15 0.500000 0.500000 0.641993
O O16 0.750000 0.575728 0.648638
O O17 0.481957 0.623878 0.608495
O O18 0.750000 0.345304 0.388299
O O19 0.963868 0.249591 0.387676
O O20 0.967889 0.342096 0.482650
O O21 0.250000 0.346631 0.893518
O O22 0.750000 0.800622 0.066533
#
# Coordination Sequence:
#
# PCOD8184107 Si02
#       8
#     8   8   8   8   8   8   8   8
#     4  11  22  36  57  81 109 143 181 225 272 324
#     4  10  21  37  57  83 113 147 185 229 278 329
#     4  11  22  38  59  83 113 147 186 231 276 330
#     4  10  21  37  57  80 110 144 181 225 272 323
#     4  11  22  38  59  83 113 147 184 229 278 332
#     4   9  20  38  58  80 110 144 181 225 272 322
#     4  10  21  38  59  83 113 148 184 228 277 328
#     4  10  21  38  59  83 111 146 186 230 277 328
#
# _framework density 18.966369
#
# number of rings (size 3 to 8) (size 9 to 14) (size 15 to 20)
#    0.000    1.750    0.000    7.125    0.000    7.000 
#    0.000    2.500    0.000    0.000    0.000    0.000 
#    0.000    0.000    0.000    0.000    0.000    0.000 
#
# Total GULP energy -396957.142273 kJ/mol
# GULP energy per Si atom -12404.910696 kJ/mol
# Density = 1.892320 g / cm^3
# Si number density = 18.966369 Si / 1000 Ang^3
#
#
#
# Elastic Constant Matrix: (Units=GPa)
#
#
# Indices 1 2 3 4 5 6 
#
# 1 62.3096 19.1987 19.8173 0.0000 0.0000 0.0000
# 2 19.1987 98.5333 75.1033 0.0000 0.0000 0.0000
# 3 19.8173 75.1033 98.4058 0.0000 0.0000 0.0000
# 4 0.0000 0.0000 0.0000 74.5300 0.0000 0.0000
# 5 0.0000 0.0000 0.0000 0.0000 32.6656 0.0000
# 6 0.0000 0.0000 0.0000 0.0000 0.0000 33.3176
#
#
#
# Elastic Compliance Matrix: (Units=1/GPa)
#
#
# Indices 1 2 3 4 5 6 
#
# 1 0.017266 -0.001707 -0.002175 0.000000 0.000000 0.000000
# 2 -0.001707 0.024432 -0.018303 0.000000 0.000000 0.000000
# 3 -0.002175 -0.018303 0.024569 0.000000 0.000000 0.000000
# 4 0.000000 0.000000 0.000000 0.013417 0.000000 0.000000
# 5 0.000000 0.000000 0.000000 0.000000 0.030613 0.000000
# 6 0.000000 0.000000 0.000000 0.000000 0.000000 0.030014
#
#
# Mechanical properties :
#
#
# Convention : Reuss Voigt Hill
#
# Bulk Modulus (GPa) = 45.66472 54.16527 49.91500
# Shear Modulus (GPa) = 26.04441 37.77793 31.91117
#
# Velocity S-wave (km/s) = 3.70968 4.46784 4.10630
# Velocity P-wave (km/s) = 6.51751 7.43210 6.98978
#
# Compressibility (1/GPa) = 0.02189874
#
# Stress axis : x y z
#
# Youngs Moduli (GPa) = 57.91601 40.92986 40.70231
#
# Poissons Ratio (x) = 0.06986 0.08851
# Poissons Ratio (y) = 0.09885 0.74497
# Poissons Ratio (z) = 0.12594 0.74913
#
# Static dielectric constant tensor:
#      x y z
#    x 3.557410 0.000000 0.000000 
#    y 0.000000 3.445030 0.000000 
#    z 0.000000 0.000000 3.471830 
# 
# 
# High freq. dielectric constant tensor:
#      x y z
#    x 1.752600 0.000000 0.000000 
#    y 0.000000 1.739020 0.000000 
#    z 0.000000 0.000000 1.738790 
# 
# From -- ./inp_files/19642.got.cif
#   From: 2010.03.12/outbox.cif.g09.slc.cpg/sg40_10_cif.got.tgz:19642.got - 2010.04.14 01:38:03.
