data_PCOD8184011
_publ_section_title
;
Structure prediction by ZEFSAII (Michael W. Deem and Ramdas Pophale) SiO2 
 PCOD8184011
Probable space group: A M A 2
;
_chemical_formula_sum "Si O2"
_cell_formula_units_Z 64
_cell_length_a 17.713043
_cell_length_b 13.639475
_cell_length_c 12.447041
_cell_angle_alpha 90.000000
_cell_angle_beta 90.000000
_cell_angle_gamma 90.000000
_cell_volume 3007.162875
_symmetry_space_group_name_H-M "A M A 2"
_symmetry_group_IT_number 40
_symmetry_cell_setting 'orthorhombic'
loop_
_space_group_symop_operation_xyz
x,y,z
-x,-y,z
1/2-x,y,z
1/2+x,-y,z
x,1/2+y,1/2+z
-x,1/2-y,1/2+z
1/2-x,1/2+y,1/2+z
1/2+x,1/2-y,1/2+z
loop_
_atom_site_type_symbol
_atom_site_label
_atom_site_fract_x
_atom_site_fract_y
_atom_site_fract_z
Si Si1 0.662853 0.610733 0.308540
Si Si2 0.163081 0.097756 0.724088
Si Si3 0.662995 0.388128 0.620051
Si Si4 0.413674 0.804359 0.604331
Si Si5 0.951725 0.411963 0.800754
Si Si6 0.418185 0.009624 0.534048
Si Si7 0.941633 0.732859 0.698710
Si Si8 0.662935 0.603049 0.550256
O O1 0.750000 0.629276 0.280134
O O2 0.644903 0.494827 0.298733
O O3 0.613773 0.673770 0.226413
O O4 0.644104 0.641980 0.430583
O O5 0.250000 0.129635 0.730129
O O6 0.111600 0.189251 0.759740
O O7 0.142659 0.070726 0.600868
O O8 0.750000 0.366782 0.640172
O O9 0.626443 0.294167 0.559604
O O10 0.625253 0.398335 0.736591
O O11 0.649486 0.485774 0.550796
O O12 0.391950 0.894892 0.525379
O O13 0.504024 0.786371 0.611403
O O14 0.000000 0.500000 0.749432
O O15 0.006354 0.317521 0.790060
O O16 0.928454 0.436348 0.921635
O O17 0.500000 0.000000 0.593324
O O18 0.890144 0.654902 0.636153
O O19 0.750000 0.625874 0.579848
#
# Coordination Sequence:
#
# PCOD8184011 Si02
#       8
#     8   8   8   8   8   8   8   8
#     4   9  20  40  63  89 121 160 201 254 312 369
#     4  10  21  39  65  93 124 159 208 261 313 371
#     4  10  21  39  61  88 122 161 205 258 306 368
#     4  10  21  38  64  87 121 156 205 259 308 369
#     4  10  21  39  60  84 126 166 206 250 305 374
#     4  10  20  40  63  88 126 165 203 261 313 366
#     4  11  21  37  57  88 122 161 205 252 309 364
#     4  10  21  40  61  85 125 163 201 251 310 371
#
# _framework density 21.282518
#
# number of rings (size 3 to 8) (size 9 to 14) (size 15 to 20)
#    0.000    2.000    2.500    0.750    0.000    3.000 
#    4.500    3.750    0.000    0.000    0.000    0.000 
#    0.000    0.000    0.000    0.000    0.000    0.000 
#
# Total GULP energy -396676.213599 kJ/mol
# GULP energy per Si atom -12396.131675 kJ/mol
# Density = 2.123408 g / cm^3
# Si number density = 21.282518 Si / 1000 Ang^3
#
#
#
# Elastic Constant Matrix: (Units=GPa)
#
#
# Indices 1 2 3 4 5 6 
#
# 1 89.9358 20.2446 11.5248 0.0000 0.0000 0.0000
# 2 20.2446 83.7423 11.4236 0.0000 0.0000 0.0000
# 3 11.5248 11.4236 67.2906 0.0000 0.0000 0.0000
# 4 0.0000 0.0000 0.0000 20.8870 0.0000 0.0000
# 5 0.0000 0.0000 0.0000 0.0000 25.1063 0.0000
# 6 0.0000 0.0000 0.0000 0.0000 0.0000 41.5674
#
#
#
# Elastic Compliance Matrix: (Units=1/GPa)
#
#
# Indices 1 2 3 4 5 6 
#
# 1 0.011923 -0.002665 -0.001589 0.000000 0.000000 0.000000
# 2 -0.002665 0.012820 -0.001720 0.000000 0.000000 0.000000
# 3 -0.001589 -0.001720 0.015425 0.000000 0.000000 0.000000
# 4 0.000000 0.000000 0.000000 0.047877 0.000000 0.000000
# 5 0.000000 0.000000 0.000000 0.000000 0.039831 0.000000
# 6 0.000000 0.000000 0.000000 0.000000 0.000000 0.024057
#
#
# Mechanical properties :
#
#
# Convention : Reuss Voigt Hill
#
# Bulk Modulus (GPa) = 35.43784 36.37277 35.90531
# Shear Modulus (GPa) = 28.85354 30.69717 29.77536
#
# Velocity S-wave (km/s) = 3.68603 3.80197 3.74445
# Velocity P-wave (km/s) = 5.89941 6.03331 5.96674
#
# Compressibility (1/GPa) = 0.02821842
#
# Stress axis : x y z
#
# Youngs Moduli (GPa) = 83.87337 78.00071 64.82923
#
# Poissons Ratio (x) = 0.20791 0.10305
# Poissons Ratio (y) = 0.22356 0.11150
# Poissons Ratio (z) = 0.13332 0.13416
#
# Static dielectric constant tensor:
#      x y z
#    x 3.968450 0.000000 0.000000 
#    y 0.000000 4.155820 0.000000 
#    z 0.000000 0.000000 3.368800 
# 
# 
# High freq. dielectric constant tensor:
#      x y z
#    x 1.839770 0.000000 0.000000 
#    y 0.000000 1.854430 0.000000 
#    z 0.000000 0.000000 1.797340 
# 
# From -- ./inp_files/13138.got.cif
#   From: 2010.03.12/outbox.cif.g09.slc.cpg/sg40_7_cif.got.tgz:13138.got - 2010.04.14 01:38:03.
