data_PCOD8184730
_publ_section_title
;
Structure prediction by ZEFSAII (Michael W. Deem and Ramdas Pophale) SiO2 
 PCOD8184730
Probable space group: A B A 2
;
_chemical_formula_sum "Si O2"
_cell_formula_units_Z 64
_cell_length_a 5.233295
_cell_length_b 25.055552
_cell_length_c 28.973488
_cell_angle_alpha 90.000000
_cell_angle_beta 90.000000
_cell_angle_gamma 90.000000
_cell_volume 3799.093420
_symmetry_space_group_name_H-M "A B A 2"
_symmetry_group_IT_number 41
_symmetry_cell_setting 'orthorhombic'
loop_
_space_group_symop_operation_xyz
x,y,z
-x,-y,z
1/2-x,y,1/2+z
1/2+x,-y,1/2+z
x,1/2+y,1/2+z
-x,1/2-y,1/2+z
1/2-x,1/2+y,z
1/2+x,1/2-y,z
loop_
_atom_site_type_symbol
_atom_site_label
_atom_site_fract_x
_atom_site_fract_y
_atom_site_fract_z
Si Si1 0.547133 0.282497 0.404040
Si Si2 0.467278 0.811230 0.004448
Si Si3 0.962842 0.716095 0.804468
Si Si4 0.018794 0.875769 0.127668
Si Si5 0.510325 0.940542 0.126988
Si Si6 0.032691 0.690358 0.543979
Si Si7 0.514633 0.441131 0.735261
Si Si8 0.522718 0.122190 0.735750
O O1 0.844737 0.266311 0.406211
O O2 0.489326 0.316816 0.449342
O O3 0.496175 0.312106 0.355080
O O4 0.450115 0.751544 0.027098
O O5 0.711360 0.839943 0.026918
O O6 0.204624 0.839373 0.019069
O O7 0.673726 0.737286 0.800054
O O8 0.020239 0.675957 0.763547
O O9 0.780025 0.913527 0.115510
O O10 0.991827 0.819768 0.099249
O O11 0.030934 0.862076 0.181772
O O12 0.273719 0.905017 0.109231
O O13 0.471117 0.946246 0.181246
O O14 0.500000 0.000000 0.104889
O O15 0.500000 0.500000 0.757897
O O16 0.788525 0.416680 0.747248
O O17 0.283030 0.404818 0.754096
#
# Coordination Sequence:
#
# PCOD8184730 Si02
#       8
#     8   8   8   8   8   8   8   8
#     4  10  16  30  49  65  84 117 151 197 242 254
#     4  10  17  30  45  63  88 120 145 198 229 258
#     4  10  21  33  48  68  95 135 163 192 225 284
#     4  10  19  30  44  67  95 124 152 191 219 273
#     4   9  17  30  47  65  88 120 154 190 236 269
#     4  10  18  28  43  65  90 118 152 181 231 261
#     4   9  17  30  52  71  90 123 160 202 250 274
#     4  10  19  33  46  68 104 127 160 199 224 281
#
# _framework density 16.846122000000001
#
# number of rings (size 3 to 8) (size 9 to 14) (size 15 to 20)
#    0.000    2.250    2.500    2.250    0.000    3.000 
#    4.500    0.000    0.000    0.000    0.000    0.000 
#    0.000   20.000    0.000    0.000    0.000    0.000 
#
# Total GULP energy -396421.975917 kJ/mol
# GULP energy per Si atom -12388.186747 kJ/mol
# Density = 1.680778 g / cm^3
# Si number density = 16.846122 Si / 1000 Ang^3
#
#
#
# Elastic Constant Matrix: (Units=GPa)
#
#
# Indices 1 2 3 4 5 6 
#
# 1 104.7561 -4.3982 13.6828 0.0000 0.0000 0.0000
# 2 -4.3982 33.1008 27.4484 0.0000 0.0000 0.0000
# 3 13.6828 27.4484 77.9153 0.0000 0.0000 0.0000
# 4 0.0000 0.0000 0.0000 2.9198 0.0000 0.0000
# 5 0.0000 0.0000 0.0000 0.0000 17.7890 0.0000
# 6 0.0000 0.0000 0.0000 0.0000 0.0000 12.9379
#
#
#
# Elastic Compliance Matrix: (Units=1/GPa)
#
#
# Indices 1 2 3 4 5 6 
#
# 1 0.010129 0.003985 -0.003183 0.000000 0.000000 0.000000
# 2 0.003985 0.044246 -0.016287 0.000000 0.000000 0.000000
# 3 -0.003183 -0.016287 0.019131 0.000000 0.000000 0.000000
# 4 0.000000 0.000000 0.000000 0.342484 0.000000 0.000000
# 5 0.000000 0.000000 0.000000 0.000000 0.056215 0.000000
# 6 0.000000 0.000000 0.000000 0.000000 0.000000 0.077292
#
#
# Mechanical properties :
#
#
# Convention : Reuss Voigt Hill
#
# Bulk Modulus (GPa) = 23.50906 32.13758 27.82332
# Shear Modulus (GPa) = 8.40838 18.66529 13.53684
#
# Velocity S-wave (km/s) = 2.23654 3.33226 2.83779
# Velocity P-wave (km/s) = 4.54477 5.82441 5.22392
#
# Compressibility (1/GPa) = 0.04253679
#
# Stress axis : x y z
#
# Youngs Moduli (GPa) = 98.72639 22.60092 52.27115
#
# Poissons Ratio (x) = -0.09007 0.16636
# Poissons Ratio (y) = -0.39343 0.85134
# Poissons Ratio (z) = 0.31421 0.36810
#
# Static dielectric constant tensor:
#      x y z
#    x 4.164430 0.000000 0.000000 
#    y 0.000000 2.807080 0.000000 
#    z 0.000000 0.000000 3.143840 
# 
# 
# High freq. dielectric constant tensor:
#      x y z
#    x 1.688200 0.000000 0.000000 
#    y 0.000000 1.592300 0.000000 
#    z 0.000000 0.000000 1.629090 
# 
# From -- ./inp_files/11897.got.cif
#   From: 2010.03.12/outbox.cif.g09.slc.cpg/sg41_6_cif.got.tgz:11897.got - 2010.04.14 01:55:53.
