data_PCOD8184080
_publ_section_title
;
Structure prediction by ZEFSAII (Michael W. Deem and Ramdas Pophale) SiO2 
 PCOD8184080
Probable space group: A M A 2
;
_chemical_formula_sum "Si O2"
_cell_formula_units_Z 36
_cell_length_a 10.046606
_cell_length_b 19.664906
_cell_length_c 8.994188
_cell_angle_alpha 90.000000
_cell_angle_beta 90.000000
_cell_angle_gamma 90.000000
_cell_volume 1776.941812
_symmetry_space_group_name_H-M "A M A 2"
_symmetry_group_IT_number 40
_symmetry_cell_setting 'orthorhombic'
loop_
_space_group_symop_operation_xyz
x,y,z
-x,-y,z
1/2-x,y,z
1/2+x,-y,z
x,1/2+y,1/2+z
-x,1/2-y,1/2+z
1/2-x,1/2+y,1/2+z
1/2+x,1/2-y,1/2+z
loop_
_atom_site_type_symbol
_atom_site_label
_atom_site_fract_x
_atom_site_fract_y
_atom_site_fract_z
Si Si1 0.403087 0.291012 0.753920
Si Si2 0.000000 0.000000 0.283135
Si Si3 0.899637 0.883470 0.084113
Si Si4 0.401856 0.133215 0.751840
Si Si5 0.897974 0.606458 0.002914
O O1 0.250000 0.303059 0.705904
O O2 0.497041 0.325790 0.632519
O O3 0.439422 0.212301 0.764261
O O4 0.429594 0.323443 0.916218
O O5 0.910760 0.952009 0.179309
O O6 0.096249 0.955232 0.385964
O O7 0.750000 0.854133 0.102687
O O8 0.925737 0.901335 0.911612
O O9 0.250000 0.123606 0.698005
O O10 0.495993 0.095842 0.633734
O O11 0.750000 0.608111 0.071984
#
# Coordination Sequence:
#
# PCOD8184080 Si02
#       5
#     8   4   8   8   8
#     4   9  19  36  57  84 117 147 178 220 272 329
#     4  10  22  40  58  78 106 146 192 232 274 324
#     4  10  21  38  60  82 109 147 187 227 271 325
#     4  10  21  36  56  86 117 143 178 226 277 327
#     4  10  21  37  58  82 111 147 185 227 272 324
#
# _framework density 20.259526999999999
#
# number of rings (size 3 to 8) (size 9 to 14) (size 15 to 20)
#    0.000    2.222    0.000    2.000    0.000    9.778 
#    0.000    2.222    0.000    0.000    0.000    0.000 
#    0.000    0.000    0.000    0.000    0.000    0.000 
#
# Total GULP energy -223240.055726 kJ/mol
# GULP energy per Si atom -12402.225318 kJ/mol
# Density = 2.021342 g / cm^3
# Si number density = 20.259527 Si / 1000 Ang^3
#
#
#
# Elastic Constant Matrix: (Units=GPa)
#
#
# Indices 1 2 3 4 5 6 
#
# 1 117.6956 25.9275 77.8673 0.0000 0.0000 0.0000
# 2 25.9275 77.8829 44.4514 0.0000 0.0000 0.0000
# 3 77.8673 44.4514 133.0028 0.0000 0.0000 0.0000
# 4 0.0000 0.0000 0.0000 17.7779 0.0000 0.0000
# 5 0.0000 0.0000 0.0000 0.0000 37.5294 0.0000
# 6 0.0000 0.0000 0.0000 0.0000 0.0000 10.9138
#
#
#
# Elastic Compliance Matrix: (Units=1/GPa)
#
#
# Indices 1 2 3 4 5 6 
#
# 1 0.013868 0.000021 -0.008126 0.000000 0.000000 0.000000
# 2 0.000021 0.015866 -0.005315 0.000000 0.000000 0.000000
# 3 -0.008126 -0.005315 0.014053 0.000000 0.000000 0.000000
# 4 0.000000 0.000000 0.000000 0.056250 0.000000 0.000000
# 5 0.000000 0.000000 0.000000 0.000000 0.026646 0.000000
# 6 0.000000 0.000000 0.000000 0.000000 0.000000 0.091627
#
#
# Mechanical properties :
#
#
# Convention : Reuss Voigt Hill
#
# Bulk Modulus (GPa) = 59.00861 69.45264 64.23062
# Shear Modulus (GPa) = 19.93626 25.26656 22.60141
#
# Velocity S-wave (km/s) = 3.14035 3.53532 3.34367
# Velocity P-wave (km/s) = 6.50682 7.14287 6.83225
#
# Compressibility (1/GPa) = 0.01694668
#
# Stress axis : x y z
#
# Youngs Moduli (GPa) = 72.10753 63.02657 71.16092
#
# Poissons Ratio (x) = -0.00134 0.57828
# Poissons Ratio (y) = -0.00154 0.37824
# Poissons Ratio (z) = 0.58597 0.33500
#
# Static dielectric constant tensor:
#      x y z
#    x 3.602760 0.000000 0.000000 
#    y 0.000000 3.628670 0.000000 
#    z 0.000000 0.000000 3.630740 
# 
# 
# High freq. dielectric constant tensor:
#      x y z
#    x 1.793350 0.000000 0.000000 
#    y 0.000000 1.786140 0.000000 
#    z 0.000000 0.000000 1.788320 
# 
# From -- ./inp_files/4118.got.cif
#   From: 2010.03.12/outbox.cif.g09.slc.cpg/sg40_3_cif.got.tgz:4118.got - 2010.04.14 01:38:03.
