data_PCOD8184773
_publ_section_title
;
Structure prediction by ZEFSAII (Michael W. Deem and Ramdas Pophale) SiO2 
 PCOD8184773
Probable space group: A B A 2
;
_chemical_formula_sum "Si O2"
_cell_formula_units_Z 60
_cell_length_a 20.252738
_cell_length_b 13.783909
_cell_length_c 10.431875
_cell_angle_alpha 90.000000
_cell_angle_beta 90.000000
_cell_angle_gamma 90.000000
_cell_volume 2912.182020
_symmetry_space_group_name_H-M "A B A 2"
_symmetry_group_IT_number 41
_symmetry_cell_setting 'orthorhombic'
loop_
_space_group_symop_operation_xyz
x,y,z
-x,-y,z
1/2-x,y,1/2+z
1/2+x,-y,1/2+z
x,1/2+y,1/2+z
-x,1/2-y,1/2+z
1/2-x,1/2+y,z
1/2+x,1/2-y,z
loop_
_atom_site_type_symbol
_atom_site_label
_atom_site_fract_x
_atom_site_fract_y
_atom_site_fract_z
Si Si1 0.091432 0.066017 0.397660
Si Si2 0.184328 0.219682 0.485294
Si Si3 0.162652 0.052944 0.150178
Si Si4 0.051368 0.353902 0.879802
Si Si5 0.500000 0.500000 0.942025
Si Si6 0.605494 0.849544 0.405672
Si Si7 0.403395 0.869910 0.598247
Si Si8 0.730665 0.321781 0.749011
O O1 0.151647 0.112069 0.479114
O O2 0.103610 0.081081 0.246409
O O3 0.023631 0.123869 0.419685
O O4 0.090523 0.950296 0.427197
O O5 0.121778 0.291362 0.495329
O O6 0.229413 0.238309 0.358699
O O7 0.228029 0.235547 0.613667
O O8 0.232570 0.077257 0.216761
O O9 0.160458 0.938046 0.125286
O O10 0.150905 0.113912 0.021739
O O11 0.074105 0.254168 0.948489
O O12 0.065322 0.330013 0.730002
O O13 0.460294 0.430477 0.033779
O O14 0.549707 0.429345 0.862857
O O15 0.654943 0.839481 0.286499
#
# Coordination Sequence:
#
# PCOD8184773 Si02
#       8
#     8   8   8   8   4   8   8   8
#     4   9  20  36  62  89 124 159 205 247 318 376
#     4  11  22  41  62  91 127 166 212 260 311 378
#     4   9  20  39  60  87 116 167 203 249 307 380
#     4  10  18  35  63  93 118 162 201 260 309 376
#     4  10  22  38  62  92 124 170 206 250 322 382
#     4  11  20  37  63  86 126 155 211 255 311 367
#     4  10  19  38  64  90 123 165 214 250 312 387
#     4  11  22  41  61  86 129 163 207 265 315 367
#
# _framework density 20.603107000000001
#
# number of rings (size 3 to 8) (size 9 to 14) (size 15 to 20)
#    0.000    1.867    2.667    3.200    0.000    0.000 
#    7.200    1.333    5.867    0.000    0.000    0.000 
#    0.000    0.000    0.000    0.000    0.000    0.000 
#
# Total GULP energy -371660.870648 kJ/mol
# GULP energy per Si atom -12388.695688 kJ/mol
# Density = 2.055621 g / cm^3
# Si number density = 20.603107 Si / 1000 Ang^3
#
#
#
# Elastic Constant Matrix: (Units=GPa)
#
#
# Indices 1 2 3 4 5 6 
#
# 1 89.8044 39.7725 19.5337 0.0000 0.0000 0.0000
# 2 39.7725 91.2494 19.7283 0.0000 0.0000 0.0000
# 3 19.5337 19.7283 81.7894 0.0000 0.0000 0.0000
# 4 0.0000 0.0000 0.0000 16.6789 0.0000 0.0000
# 5 0.0000 0.0000 0.0000 0.0000 25.4936 0.0000
# 6 0.0000 0.0000 0.0000 0.0000 0.0000 34.7704
#
#
#
# Elastic Compliance Matrix: (Units=1/GPa)
#
#
# Indices 1 2 3 4 5 6 
#
# 1 0.014099 -0.005715 -0.001989 0.000000 0.000000 0.000000
# 2 -0.005715 0.013879 -0.001983 0.000000 0.000000 0.000000
# 3 -0.001989 -0.001983 0.013180 0.000000 0.000000 0.000000
# 4 0.000000 0.000000 0.000000 0.059956 0.000000 0.000000
# 5 0.000000 0.000000 0.000000 0.000000 0.039225 0.000000
# 6 0.000000 0.000000 0.000000 0.000000 0.000000 0.028760
#
#
# Mechanical properties :
#
#
# Convention : Reuss Voigt Hill
#
# Bulk Modulus (GPa) = 45.90496 46.76801 46.33648
# Shear Modulus (GPa) = 25.54489 27.64251 26.59370
#
# Velocity S-wave (km/s) = 3.52498 3.66685 3.59661
# Velocity P-wave (km/s) = 6.23669 6.37781 6.30764
#
# Compressibility (1/GPa) = 0.02178414
#
# Stress axis : x y z
#
# Youngs Moduli (GPa) = 70.92653 72.05245 75.87411
#
# Poissons Ratio (x) = 0.41181 0.15089
# Poissons Ratio (y) = 0.40537 0.15043
# Poissons Ratio (z) = 0.14105 0.14286
#
# Static dielectric constant tensor:
#      x y z
#    x 3.877360 0.000000 0.000000 
#    y 0.000000 3.936410 0.000000 
#    z 0.000000 0.000000 3.595110 
# 
# 
# High freq. dielectric constant tensor:
#      x y z
#    x 1.811870 0.000000 0.000000 
#    y 0.000000 1.796790 0.000000 
#    z 0.000000 0.000000 1.787490 
# 
# From -- ./inp_files/6270.got.cif
#   From: 2010.03.12/outbox.cif.g09.slc.cpg/sg41_4_cif.got.tgz:6270.got - 2010.04.14 01:55:53.
