data_PCOD8184909
_publ_section_title
;
Structure prediction by ZEFSAII (Michael W. Deem and Ramdas Pophale) SiO2 
 PCOD8184909
Probable space group: A B A 2
;
_chemical_formula_sum "Si O2"
_cell_formula_units_Z 64
_cell_length_a 15.959869
_cell_length_b 12.626888
_cell_length_c 15.584091
_cell_angle_alpha 90.000000
_cell_angle_beta 90.000000
_cell_angle_gamma 90.000000
_cell_volume 3140.560225
_symmetry_space_group_name_H-M "A B A 2"
_symmetry_group_IT_number 41
_symmetry_cell_setting 'orthorhombic'
loop_
_space_group_symop_operation_xyz
x,y,z
-x,-y,z
1/2-x,y,1/2+z
1/2+x,-y,1/2+z
x,1/2+y,1/2+z
-x,1/2-y,1/2+z
1/2-x,1/2+y,z
1/2+x,1/2-y,z
loop_
_atom_site_type_symbol
_atom_site_label
_atom_site_fract_x
_atom_site_fract_y
_atom_site_fract_z
Si Si1 0.132720 0.171370 0.380270
Si Si2 0.181864 0.391813 0.313138
Si Si3 0.367280 0.828630 0.829409
Si Si4 0.550501 0.102768 0.175948
Si Si5 0.476873 0.665151 0.221172
Si Si6 0.050501 0.602768 0.533731
Si Si7 0.318136 0.108187 0.396541
Si Si8 0.976874 0.165151 0.488507
O O1 0.147404 0.298016 0.374286
O O2 0.096456 0.137066 0.288022
O O3 0.218119 0.112242 0.403222
O O4 0.067750 0.131731 0.452764
O O5 0.281881 0.387758 0.306458
O O6 0.143888 0.392339 0.216555
O O7 0.151464 0.500000 0.354840
O O8 0.432249 0.868269 0.756915
O O9 0.352596 0.701983 0.835393
O O10 0.403544 0.862934 0.921658
O O11 0.506919 0.210147 0.207087
O O12 0.551710 0.101984 0.072756
O O13 0.500000 0.000000 0.209323
O O14 0.448290 0.601984 0.136923
O O15 0.143888 0.607661 0.493125
O O16 0.006918 0.710147 0.502592
O O17 0.000000 0.500000 0.500356
#
# Coordination Sequence:
#
# PCOD8184909 Si02
#       8
#     8   8   8   8   8   8   8   8
#     4   9  19  37  58  79 108 144 180 221 272 328
#     4  10  20  35  57  83 108 140 183 228 272 320
#     4   9  19  37  58  79 108 144 180 221 272 328
#     4  10  20  35  56  82 109 140 181 226 270 319
#     4   9  19  37  57  79 109 144 180 220 272 328
#     4  10  20  35  56  82 109 140 181 226 270 319
#     4  10  20  35  57  83 108 140 183 228 272 320
#     4   9  19  37  57  79 109 144 180 220 272 328
#
# _framework density 20.378529
#
# number of rings (size 3 to 8) (size 9 to 14) (size 15 to 20)
#    0.000    2.500    0.000    1.500    0.000    4.500 
#    0.000   22.500    0.000    0.000    0.000    0.000 
#    0.000    0.000    0.000    0.000    0.000    0.000 
#
# Total GULP energy -396564.416306 kJ/mol
# GULP energy per Si atom -12392.638010 kJ/mol
# Density = 2.033215 g / cm^3
# Si number density = 20.378529 Si / 1000 Ang^3
#
#
#
# Elastic Constant Matrix: (Units=GPa)
#
#
# Indices 1 2 3 4 5 6 
#
# 1 137.2700 17.6190 70.4626 0.0000 0.0000 0.0000
# 2 17.6190 66.6763 18.1602 0.0000 0.0000 0.0000
# 3 70.4626 18.1602 131.1902 0.0000 0.0000 0.0000
# 4 0.0000 0.0000 0.0000 17.6708 0.0000 0.0000
# 5 0.0000 0.0000 0.0000 0.0000 21.1800 0.0000
# 6 0.0000 0.0000 0.0000 0.0000 0.0000 22.8088
#
#
#
# Elastic Compliance Matrix: (Units=1/GPa)
#
#
# Indices 1 2 3 4 5 6 
#
# 1 0.010156 -0.001245 -0.005283 0.000000 0.000000 0.000000
# 2 -0.001245 0.015738 -0.001510 0.000000 0.000000 0.000000
# 3 -0.005283 -0.001510 0.010669 0.000000 0.000000 0.000000
# 4 0.000000 0.000000 0.000000 0.056590 0.000000 0.000000
# 5 0.000000 0.000000 0.000000 0.000000 0.047214 0.000000
# 6 0.000000 0.000000 0.000000 0.000000 0.000000 0.043843
#
#
# Mechanical properties :
#
#
# Convention : Reuss Voigt Hill
#
# Bulk Modulus (GPa) = 48.80855 60.84669 54.82762
# Shear Modulus (GPa) = 24.14113 27.59156 25.86635
#
# Velocity S-wave (km/s) = 3.44559 3.68360 3.56658
# Velocity P-wave (km/s) = 6.31129 6.92928 6.62749
#
# Compressibility (1/GPa) = 0.02048822
#
# Stress axis : x y z
#
# Youngs Moduli (GPa) = 98.46023 63.54026 93.73057
#
# Poissons Ratio (x) = 0.07911 0.49515
# Poissons Ratio (y) = 0.12258 0.14152
# Poissons Ratio (z) = 0.52013 0.09594
#
# Static dielectric constant tensor:
#      x y z
#    x 3.582140 0.000000 0.000000 
#    y 0.000000 3.722530 0.000000 
#    z 0.000000 0.000000 3.657880 
# 
# 
# High freq. dielectric constant tensor:
#      x y z
#    x 1.788410 0.000000 0.000000 
#    y 0.000000 1.806060 0.000000 
#    z 0.000000 0.000000 1.784900 
# 
# From -- ./inp_files/8847.got.cif
#   From: 2010.03.12/outbox.cif.g09.slc.cpg/sg41_5_cif.got.tgz:8847.got - 2010.04.14 01:55:53.
