data_PCOD8184136
_publ_section_title
;
Structure prediction by ZEFSAII (Michael W. Deem and Ramdas Pophale) SiO2 
 PCOD8184136
Probable space group: A M A 2
;
_chemical_formula_sum "Si O2"
_cell_formula_units_Z 64
_cell_length_a 26.495125
_cell_length_b 6.493455
_cell_length_c 17.743026
_cell_angle_alpha 90.000000
_cell_angle_beta 90.000000
_cell_angle_gamma 90.000000
_cell_volume 3052.597168
_symmetry_space_group_name_H-M "A M A 2"
_symmetry_group_IT_number 40
_symmetry_cell_setting 'orthorhombic'
loop_
_space_group_symop_operation_xyz
x,y,z
-x,-y,z
1/2-x,y,z
1/2+x,-y,z
x,1/2+y,1/2+z
-x,1/2-y,1/2+z
1/2-x,1/2+y,1/2+z
1/2+x,1/2-y,1/2+z
loop_
_atom_site_type_symbol
_atom_site_label
_atom_site_fract_x
_atom_site_fract_y
_atom_site_fract_z
Si Si1 0.605247 0.526333 0.571680
Si Si2 0.129616 0.638768 0.807072
Si Si3 0.129615 0.361235 0.159587
Si Si4 0.692578 0.721675 0.822604
Si Si5 0.040520 0.343294 0.809574
Si Si6 0.692578 0.278328 0.144045
Si Si7 0.105246 0.526338 0.394972
Si Si8 0.540519 0.343291 0.157075
O O1 0.601976 0.295136 0.603485
O O2 0.658845 0.617822 0.597572
O O3 0.602292 0.499970 0.483327
O O4 0.557687 0.665429 0.598634
O O5 0.151117 0.750014 0.733332
O O6 0.175987 0.512519 0.844579
O O7 0.089342 0.467567 0.781531
O O8 0.101977 0.795125 0.863181
O O9 0.175987 0.487475 0.122076
O O10 0.089341 0.532441 0.185123
O O11 0.750000 0.757442 0.847639
O O12 0.685243 0.749990 0.733324
O O13 0.658845 0.882187 0.869073
O O14 0.057686 0.165421 0.868011
O O15 0.015831 0.250008 0.733324
O O16 0.000000 0.500000 0.847435
O O17 0.750000 0.242570 0.119009
O O18 0.500000 0.500000 0.119215
#
# Coordination Sequence:
#
# PCOD8184136 Si02
#       8
#     8   8   8   8   8   8   8   8
#     4  11  24  42  62  91 131 168 202 258 325 373
#     4  11  19  39  64  89 119 164 209 251 308 370
#     4  11  19  39  64  89 119 164 209 251 308 370
#     4  10  21  37  62  97 127 164 222 265 303 372
#     4  11  23  39  67  93 115 155 212 258 305 379
#     4  10  21  37  62  97 127 164 222 265 303 372
#     4  11  24  42  62  91 131 168 202 258 325 373
#     4  11  23  39  67  93 115 155 212 258 305 379
#
# _framework density 20.965751999999998
#
# number of rings (size 3 to 8) (size 9 to 14) (size 15 to 20)
#    0.000    1.250    5.000    2.250    0.000    6.000 
#    0.000    5.000    0.000    0.000    0.000    0.000 
#    0.000    0.000    0.000    0.000    0.000    0.000 
#
# Total GULP energy -396770.065778 kJ/mol
# GULP energy per Si atom -12399.064556 kJ/mol
# Density = 2.091803 g / cm^3
# Si number density = 20.965752 Si / 1000 Ang^3
#
#
#
# Elastic Constant Matrix: (Units=GPa)
#
#
# Indices 1 2 3 4 5 6 
#
# 1 92.0287 31.9106 23.1204 0.0000 0.0000 0.0000
# 2 31.9106 119.0640 38.9607 0.0000 0.0000 0.0000
# 3 23.1204 38.9607 118.7351 0.0000 0.0000 0.0000
# 4 0.0000 0.0000 0.0000 25.8643 0.0000 0.0000
# 5 0.0000 0.0000 0.0000 0.0000 14.4189 0.0000
# 6 0.0000 0.0000 0.0000 0.0000 0.0000 27.9347
#
#
#
# Elastic Compliance Matrix: (Units=1/GPa)
#
#
# Indices 1 2 3 4 5 6 
#
# 1 0.012201 -0.002792 -0.001460 0.000000 0.000000 0.000000
# 2 -0.002792 0.010048 -0.002753 0.000000 0.000000 0.000000
# 3 -0.001460 -0.002753 0.009610 0.000000 0.000000 0.000000
# 4 0.000000 0.000000 0.000000 0.038663 0.000000 0.000000
# 5 0.000000 0.000000 0.000000 0.000000 0.069353 0.000000
# 6 0.000000 0.000000 0.000000 0.000000 0.000000 0.035798
#
#
# Mechanical properties :
#
#
# Convention : Reuss Voigt Hill
#
# Bulk Modulus (GPa) = 56.02749 57.53459 56.78104
# Shear Modulus (GPa) = 25.55795 29.36599 27.46197
#
# Velocity S-wave (km/s) = 3.49525 3.74661 3.62311
# Velocity P-wave (km/s) = 6.56281 6.79837 6.68163
#
# Compressibility (1/GPa) = 0.01784838
#
# Stress axis : x y z
#
# Youngs Moduli (GPa) = 81.95968 99.52003 104.06058
#
# Poissons Ratio (x) = 0.27790 0.15188
# Poissons Ratio (y) = 0.22887 0.28652
# Poissons Ratio (z) = 0.11962 0.27402
#
# Static dielectric constant tensor:
#      x y z
#    x 3.783860 0.000000 0.000000 
#    y 0.000000 4.588480 0.000000 
#    z 0.000000 0.000000 3.394910 
# 
# 
# High freq. dielectric constant tensor:
#      x y z
#    x 1.815470 0.000000 0.000000 
#    y 0.000000 1.846060 0.000000 
#    z 0.000000 0.000000 1.782850 
# 
# From -- ./inp_files/21685.got.cif
#   From: 2010.03.12/outbox.cif.g09.slc.cpg/sg40_11_cif.got.tgz:21685.got - 2010.04.14 01:38:03.
