data_PCOD8184995
_publ_section_title
;
Structure prediction by ZEFSAII (Michael W. Deem and Ramdas Pophale) SiO2 
 PCOD8184995
Probable space group: A B A 2
;
_chemical_formula_sum "Si O2"
_cell_formula_units_Z 64
_cell_length_a 14.572402
_cell_length_b 22.790647
_cell_length_c 8.584108
_cell_angle_alpha 90.000000
_cell_angle_beta 90.000000
_cell_angle_gamma 90.000000
_cell_volume 2850.906478
_symmetry_space_group_name_H-M "A B A 2"
_symmetry_group_IT_number 41
_symmetry_cell_setting 'orthorhombic'
loop_
_space_group_symop_operation_xyz
x,y,z
-x,-y,z
1/2-x,y,1/2+z
1/2+x,-y,1/2+z
x,1/2+y,1/2+z
-x,1/2-y,1/2+z
1/2-x,1/2+y,z
1/2+x,1/2-y,z
loop_
_atom_site_type_symbol
_atom_site_label
_atom_site_fract_x
_atom_site_fract_y
_atom_site_fract_z
Si Si1 0.479224 0.120092 0.828180
Si Si2 0.657997 0.808489 0.998962
Si Si3 0.661122 0.646563 0.464644
Si Si4 0.540836 0.873197 0.463092
Si Si5 0.673166 0.937722 0.993691
Si Si6 0.167609 0.228144 0.839705
Si Si7 0.352788 0.020116 0.329015
Si Si8 0.354863 0.385530 0.822980
O O1 0.468904 0.127329 0.646358
O O2 0.440649 0.178995 0.917252
O O3 0.584705 0.107581 0.875099
O O4 0.416948 0.065022 0.883047
O O5 0.701924 0.871772 0.048417
O O6 0.649996 0.768455 0.153578
O O7 0.723492 0.777591 0.872423
O O8 0.633388 0.713114 0.423275
O O9 0.655253 0.632835 0.645437
O O10 0.762916 0.632479 0.410356
O O11 0.616631 0.827033 0.412078
O O12 0.570721 0.937513 0.402592
O O13 0.443824 0.852311 0.390638
O O14 0.649529 0.975437 0.143462
O O15 0.752998 0.967880 0.897555
O O16 0.377488 0.953021 0.360027
#
# Coordination Sequence:
#
# PCOD8184995 Si02
#       8
#     8   8   8   8   8   8   8   8
#     4  10  24  41  67  94 142 169 233 283 336 417
#     4  10  20  40  65 106 130 170 223 295 331 403
#     4  12  27  48  63  99 137 194 223 283 351 418
#     4  12  23  44  69 104 131 182 234 291 345 405
#     4  10  20  39  71 100 134 169 229 286 347 408
#     4  12  23  40  74  98 143 174 233 284 341 415
#     4  12  22  43  71 103 135 181 222 295 354 414
#     4  12  28  47  68  96 146 179 235 278 356 428
#
# _framework density 22.449000000000002
#
# number of rings (size 3 to 8) (size 9 to 14) (size 15 to 20)
#    0.750    0.000    2.500    5.625    0.000    3.000 
#    0.000    5.625    0.000    0.000    0.000    0.000 
#    0.000    0.000    0.000    0.000    0.000    0.000 
#
# Total GULP energy -396784.051638 kJ/mol
# GULP energy per Si atom -12399.501614 kJ/mol
# Density = 2.239791 g / cm^3
# Si number density = 22.449000 Si / 1000 Ang^3
#
#
#
# Elastic Constant Matrix: (Units=GPa)
#
#
# Indices 1 2 3 4 5 6 
#
# 1 129.5934 15.6059 53.9173 0.0000 0.0000 0.0000
# 2 15.6059 76.3871 31.6684 0.0000 0.0000 0.0000
# 3 53.9173 31.6684 162.9049 0.0000 0.0000 0.0000
# 4 0.0000 0.0000 0.0000 32.6755 0.0000 0.0000
# 5 0.0000 0.0000 0.0000 0.0000 46.8819 0.0000
# 6 0.0000 0.0000 0.0000 0.0000 0.0000 5.1232
#
#
#
# Elastic Compliance Matrix: (Units=1/GPa)
#
#
# Indices 1 2 3 4 5 6 
#
# 1 0.008979 -0.000655 -0.002844 0.000000 0.000000 0.000000
# 2 -0.000655 0.014287 -0.002560 0.000000 0.000000 0.000000
# 3 -0.002844 -0.002560 0.007578 0.000000 0.000000 0.000000
# 4 0.000000 0.000000 0.000000 0.030604 0.000000 0.000000
# 5 0.000000 0.000000 0.000000 0.000000 0.021330 0.000000
# 6 0.000000 0.000000 0.000000 0.000000 0.000000 0.195191
#
#
# Mechanical properties :
#
#
# Convention : Reuss Voigt Hill
#
# Bulk Modulus (GPa) = 53.40997 63.47428 58.44212
# Shear Modulus (GPa) = 16.87310 34.78236 25.82773
#
# Velocity S-wave (km/s) = 2.74454 3.94051 3.39559
# Velocity P-wave (km/s) = 5.82123 7.00284 6.43919
#
# Compressibility (1/GPa) = 0.01872310
#
# Stress axis : x y z
#
# Youngs Moduli (GPa) = 111.37426 69.99581 131.96601
#
# Poissons Ratio (x) = 0.04586 0.37536
# Poissons Ratio (y) = 0.07297 0.33789
# Poissons Ratio (z) = 0.31679 0.17922
#
# Static dielectric constant tensor:
#      x y z
#    x 4.608340 0.000000 0.000000 
#    y 0.000000 3.964580 0.000000 
#    z 0.000000 0.000000 4.036570 
# 
# 
# High freq. dielectric constant tensor:
#      x y z
#    x 1.897310 0.000000 0.000000 
#    y 0.000000 1.870230 0.000000 
#    z 0.000000 0.000000 1.892820 
# 
# From -- ./inp_files/2800.got.cif
#   From: 2010.03.12/outbox.cif.g09.slc.cpg/sg41_2_cif.got.tgz:2800.got - 2010.04.14 01:55:53.
