data_PCOD8184602
_publ_section_title
;
Structure prediction by ZEFSAII (Michael W. Deem and Ramdas Pophale) SiO2 
 PCOD8184602
Probable space group: A M A 2
;
_chemical_formula_sum "Si O2"
_cell_formula_units_Z 64
_cell_length_a 8.494553
_cell_length_b 30.929121
_cell_length_c 11.963787
_cell_angle_alpha 90.000000
_cell_angle_beta 90.000000
_cell_angle_gamma 90.000000
_cell_volume 3143.234484
_symmetry_space_group_name_H-M "A M A 2"
_symmetry_group_IT_number 40
_symmetry_cell_setting 'orthorhombic'
loop_
_space_group_symop_operation_xyz
x,y,z
-x,-y,z
1/2-x,y,z
1/2+x,-y,z
x,1/2+y,1/2+z
-x,1/2-y,1/2+z
1/2-x,1/2+y,1/2+z
1/2+x,1/2-y,1/2+z
loop_
_atom_site_type_symbol
_atom_site_label
_atom_site_fract_x
_atom_site_fract_y
_atom_site_fract_z
Si Si1 0.936949 0.544126 0.398100
Si Si2 0.065511 0.545833 0.860854
Si Si3 0.935482 0.423166 0.619557
Si Si4 0.937228 0.126933 0.759287
Si Si5 0.067696 0.831293 0.133062
Si Si6 0.066568 0.697571 0.860353
Si Si7 0.435563 0.793221 0.900419
Si Si8 0.434586 0.377043 0.006354
O O1 0.750000 0.543930 0.410804
O O2 0.996237 0.584107 0.323018
O O3 0.000000 0.500000 0.340622
O O4 0.019971 0.545069 0.519231
O O5 0.250000 0.542688 0.861179
O O6 0.004824 0.556339 0.736034
O O7 0.000000 0.500000 0.902263
O O8 0.015692 0.583148 0.945227
O O9 0.750000 0.413284 0.622911
O O10 0.034948 0.380094 0.596689
O O11 0.750000 0.128749 0.761494
O O12 0.008584 0.169454 0.820799
O O13 0.999875 0.125644 0.632588
O O14 0.250000 0.825812 0.166609
O O15 0.956318 0.819161 0.235318
O O16 0.020769 0.801108 0.029320
O O17 0.250000 0.695521 0.891373
O O18 0.997935 0.746201 0.867628
O O19 0.972272 0.667994 0.946495
O O20 0.250000 0.794222 0.883655
O O21 0.250000 0.385355 0.004310
#
# Coordination Sequence:
#
# PCOD8184602 Si02
#       8
#     8   8   8   8   8   8   8   8
#     4  11  22  39  63  89 123 158 201 250 303 362
#     4  11  24  41  62  88 123 157 199 249 304 358
#     4  11  22  38  61  92 126 157 197 248 305 358
#     4   9  20  40  62  86 116 159 204 252 302 354
#     4  11  21  38  65  91 121 161 204 248 302 360
#     4  11  23  39  61  90 127 161 199 252 305 356
#     4   9  20  39  62  88 121 160 199 247 305 355
#     4  11  23  40  64  88 119 160 208 250 299 362
#
# _framework density 20.361191000000002
#
# number of rings (size 3 to 8) (size 9 to 14) (size 15 to 20)
#    0.000    1.500    2.500    2.625    1.750    3.000 
#    0.000    5.625    0.000    0.000    0.000    0.000 
#    0.000    0.000    0.000    0.000    0.000    0.000 
#
# Total GULP energy -396916.567018 kJ/mol
# GULP energy per Si atom -12403.642719 kJ/mol
# Density = 2.031485 g / cm^3
# Si number density = 20.361191 Si / 1000 Ang^3
#
#
#
# Elastic Constant Matrix: (Units=GPa)
#
#
# Indices 1 2 3 4 5 6 
#
# 1 32.2859 5.9004 12.0936 0.0000 0.0000 0.0000
# 2 5.9004 151.2603 52.4664 0.0000 0.0000 0.0000
# 3 12.0936 52.4664 121.1267 0.0000 0.0000 0.0000
# 4 0.0000 0.0000 0.0000 21.6660 0.0000 0.0000
# 5 0.0000 0.0000 0.0000 0.0000 8.4085 0.0000
# 6 0.0000 0.0000 0.0000 0.0000 0.0000 30.7058
#
#
#
# Elastic Compliance Matrix: (Units=1/GPa)
#
#
# Indices 1 2 3 4 5 6 
#
# 1 0.032180 -0.000166 -0.003141 0.000000 0.000000 0.000000
# 2 -0.000166 0.007781 -0.003354 0.000000 0.000000 0.000000
# 3 -0.003141 -0.003354 0.010022 0.000000 0.000000 0.000000
# 4 0.000000 0.000000 0.000000 0.046155 0.000000 0.000000
# 5 0.000000 0.000000 0.000000 0.000000 0.118928 0.000000
# 6 0.000000 0.000000 0.000000 0.000000 0.000000 0.032567
#
#
# Mechanical properties :
#
#
# Convention : Reuss Voigt Hill
#
# Bulk Modulus (GPa) = 27.27631 49.51041 38.39336
# Shear Modulus (GPa) = 18.30327 27.77023 23.03675
#
# Velocity S-wave (km/s) = 3.00147 3.69708 3.36729
# Velocity P-wave (km/s) = 5.04352 6.52636 5.83226
#
# Compressibility (1/GPa) = 0.03666186
#
# Stress axis : x y z
#
# Youngs Moduli (GPa) = 31.07503 128.52023 99.77922
#
# Poissons Ratio (x) = 0.02130 0.31342
# Poissons Ratio (y) = 0.00515 0.33464
# Poissons Ratio (z) = 0.09761 0.43103
#
# Static dielectric constant tensor:
#      x y z
#    x 3.412490 0.000000 0.000000 
#    y 0.000000 3.963930 0.000000 
#    z 0.000000 0.000000 3.841160 
# 
# 
# High freq. dielectric constant tensor:
#      x y z
#    x 1.777530 0.000000 0.000000 
#    y 0.000000 1.811150 0.000000 
#    z 0.000000 0.000000 1.798810 
# 
# From -- ./inp_files/10643.got.cif
#   From: 2010.03.12/outbox.cif.g09.slc.cpg/sg40_6_cif.got.tgz:10643.got - 2010.04.14 01:38:03.
