data_PCOD8184922
_publ_section_title
;
Structure prediction by ZEFSAII (Michael W. Deem and Ramdas Pophale) SiO2 
 PCOD8184922
Probable space group: A B A 2
;
_chemical_formula_sum "Si O2"
_cell_formula_units_Z 60
_cell_length_a 25.954939
_cell_length_b 18.363274
_cell_length_c 5.357645
_cell_angle_alpha 90.000000
_cell_angle_beta 90.000000
_cell_angle_gamma 90.000000
_cell_volume 2553.548204
_symmetry_space_group_name_H-M "A B A 2"
_symmetry_group_IT_number 41
_symmetry_cell_setting 'orthorhombic'
loop_
_space_group_symop_operation_xyz
x,y,z
-x,-y,z
1/2-x,y,1/2+z
1/2+x,-y,1/2+z
x,1/2+y,1/2+z
-x,1/2-y,1/2+z
1/2-x,1/2+y,z
1/2+x,1/2-y,z
loop_
_atom_site_type_symbol
_atom_site_label
_atom_site_fract_x
_atom_site_fract_y
_atom_site_fract_z
Si Si1 0.731342 0.754770 0.723470
Si Si2 0.876529 0.434323 0.356004
Si Si3 0.273025 0.584466 0.646991
Si Si4 0.925267 0.163355 0.500546
Si Si5 0.458261 0.613632 0.497895
Si Si6 0.408413 0.415637 0.991623
Si Si7 0.000000 0.000000 0.133507
Si Si8 0.619116 0.301164 0.190265
O O1 0.740932 0.713016 0.456947
O O2 0.759963 0.830134 0.649817
O O3 0.670830 0.762133 0.787691
O O4 0.834704 0.427542 0.133993
O O5 0.934721 0.420337 0.252909
O O6 0.871772 0.513756 0.482334
O O7 0.861412 0.374106 0.557392
O O8 0.249113 0.547265 0.399808
O O9 0.901417 0.127461 0.251655
O O10 0.912438 0.249230 0.497560
O O11 0.986065 0.149994 0.528418
O O12 0.897096 0.133533 0.750118
O O13 0.460040 0.546346 0.303691
O O14 0.419613 0.677840 0.412915
O O15 0.467511 0.443721 0.968039
#
# Coordination Sequence:
#
# PCOD8184922 Si02
#       8
#     8   8   8   8   8   8   4   8
#     4  10  20  39  62  96 126 159 208 285 332 383
#     4  12  23  39  74  96 126 170 236 271 327 399
#     4  10  20  36  60 100 125 152 204 295 334 372
#     4  11  29  44  63  92 150 181 215 268 339 393
#     4  11  24  39  65 100 134 177 224 279 322 395
#     4  11  24  46  63  93 131 184 214 267 326 400
#     4  10  20  42  64  92 128 174 226 258 318 378
#     4  12  26  40  69 102 129 174 229 276 330 399
#
# _framework density 23.496718999999999
#
# number of rings (size 3 to 8) (size 9 to 14) (size 15 to 20)
#    0.000    1.067    4.000    4.000    5.600    0.533 
#    0.000    0.000    0.000    4.800    0.000    0.000 
#    0.000    0.000    0.000    0.000    0.000    0.000 
#
# Total GULP energy -371909.561966 kJ/mol
# GULP energy per Si atom -12396.985399 kJ/mol
# Density = 2.344324 g / cm^3
# Si number density = 23.496719 Si / 1000 Ang^3
#
#
#
# Elastic Constant Matrix: (Units=GPa)
#
#
# Indices 1 2 3 4 5 6 
#
# 1 86.8011 18.9709 9.5623 0.0000 0.0000 0.0000
# 2 18.9709 66.9760 26.0036 0.0000 0.0000 0.0000
# 3 9.5623 26.0036 143.2229 0.0000 0.0000 0.0000
# 4 0.0000 0.0000 0.0000 28.7838 0.0000 0.0000
# 5 0.0000 0.0000 0.0000 0.0000 31.3499 0.0000
# 6 0.0000 0.0000 0.0000 0.0000 0.0000 13.6419
#
#
#
# Elastic Compliance Matrix: (Units=1/GPa)
#
#
# Indices 1 2 3 4 5 6 
#
# 1 0.012286 -0.003401 -0.000203 0.000000 0.000000 0.000000
# 2 -0.003401 0.017005 -0.002860 0.000000 0.000000 0.000000
# 3 -0.000203 -0.002860 0.007515 0.000000 0.000000 0.000000
# 4 0.000000 0.000000 0.000000 0.034742 0.000000 0.000000
# 5 0.000000 0.000000 0.000000 0.000000 0.031898 0.000000
# 6 0.000000 0.000000 0.000000 0.000000 0.000000 0.073304
#
#
# Mechanical properties :
#
#
# Convention : Reuss Voigt Hill
#
# Bulk Modulus (GPa) = 41.88101 45.11929 43.50015
# Shear Modulus (GPa) = 25.29887 30.91933 28.10910
#
# Velocity S-wave (km/s) = 3.28487 3.63147 3.46251
# Velocity P-wave (km/s) = 5.67891 6.06857 5.87697
#
# Compressibility (1/GPa) = 0.02387717
#
# Stress axis : x y z
#
# Youngs Moduli (GPa) = 81.39138 58.80737 133.06770
#
# Poissons Ratio (x) = 0.20003 0.02698
# Poissons Ratio (y) = 0.27684 0.38061
# Poissons Ratio (z) = 0.01650 0.16821
#
# Static dielectric constant tensor:
#      x y z
#    x 4.129880 0.000000 0.000000 
#    y 0.000000 3.917310 0.000000 
#    z 0.000000 0.000000 4.706580 
# 
# 
# High freq. dielectric constant tensor:
#      x y z
#    x 1.926860 0.000000 0.000000 
#    y 0.000000 1.888320 0.000000 
#    z 0.000000 0.000000 1.942390 
# 
# From -- ./inp_files/1171.got.cif
#   From: 2010.03.12/outbox.cif.g09.slc.cpg/sg41_1_cif.got.tgz:1171.got - 2010.04.14 01:55:53.
