data_PCOD8184633
_publ_section_title
;
Structure prediction by ZEFSAII (Michael W. Deem and Ramdas Pophale) SiO2 
 PCOD8184633
Probable space group: A M A 2
;
_chemical_formula_sum "Si O2"
_cell_formula_units_Z 64
_cell_length_a 27.197627
_cell_length_b 11.412470
_cell_length_c 9.820042
_cell_angle_alpha 90.000000
_cell_angle_beta 90.000000
_cell_angle_gamma 90.000000
_cell_volume 3048.063480
_symmetry_space_group_name_H-M "A M A 2"
_symmetry_group_IT_number 40
_symmetry_cell_setting 'orthorhombic'
loop_
_space_group_symop_operation_xyz
x,y,z
-x,-y,z
1/2-x,y,z
1/2+x,-y,z
x,1/2+y,1/2+z
-x,1/2-y,1/2+z
1/2-x,1/2+y,1/2+z
1/2+x,1/2-y,1/2+z
loop_
_atom_site_type_symbol
_atom_site_label
_atom_site_fract_x
_atom_site_fract_y
_atom_site_fract_z
Si Si1 0.853345 0.904059 0.640750
Si Si2 0.655750 0.988072 0.346819
Si Si3 0.477079 0.370333 0.051556
Si Si4 0.107907 0.361376 0.256443
Si Si5 0.305873 0.256396 0.852907
Si Si6 0.054547 0.450998 0.782771
Si Si7 0.429315 0.782414 0.044219
Si Si8 0.194096 0.699104 0.656073
O O1 0.828721 0.950932 0.500392
O O2 0.813530 0.835134 0.730377
O O3 0.897446 0.820467 0.603987
O O4 0.877297 0.004932 0.732145
O O5 0.688855 0.925827 0.232126
O O6 0.660824 0.128345 0.333762
O O7 0.597972 0.954332 0.317114
O O8 0.500000 0.500000 0.078396
O O9 0.445316 0.366559 0.913621
O O10 0.516550 0.269154 0.028137
O O11 0.440417 0.329496 0.169767
O O12 0.093608 0.338033 0.410409
O O13 0.156184 0.287245 0.224115
O O14 0.250000 0.299841 0.849395
O O15 0.317546 0.189989 0.995131
O O16 0.070200 0.389825 0.646051
O O17 0.000000 0.500000 0.765872
O O18 0.250000 0.744302 0.678035
#
# Coordination Sequence:
#
# PCOD8184633 Si02
#       8
#     8   8   8   8   8   8   8   8
#     4  12  24  45  70 103 137 182 228 287 348 419
#     4  12  23  48  73  98 143 183 228 289 353 414
#     4  11  22  43  68 100 139 187 230 281 343 417
#     4  12  25  45  73 104 142 189 233 293 350 417
#     4  11  26  46  72 104 134 180 237 292 355 416
#     4  11  24  43  67 100 139 185 228 282 344 419
#     4  12  25  43  65 106 145 179 236 282 347 423
#     4  11  26  46  72 102 135 184 238 292 352 413
#
# _framework density 20.996936999999999
#
# number of rings (size 3 to 8) (size 9 to 14) (size 15 to 20)
#    0.000    0.500    6.250    1.875    3.500    2.000 
#    2.250    0.000    0.000    0.000    0.000    0.000 
#    0.000    0.000    0.000    0.000    0.000    0.000 
#
# Total GULP energy -396767.927169 kJ/mol
# GULP energy per Si atom -12398.997724 kJ/mol
# Density = 2.094915 g / cm^3
# Si number density = 20.996937 Si / 1000 Ang^3
#
#
#
# Elastic Constant Matrix: (Units=GPa)
#
#
# Indices 1 2 3 4 5 6 
#
# 1 98.5754 31.2440 62.6012 0.0000 0.0000 0.0000
# 2 31.2440 87.9645 69.6374 0.0000 0.0000 0.0000
# 3 62.6012 69.6374 123.8594 0.0000 0.0000 0.0000
# 4 0.0000 0.0000 0.0000 36.9220 0.0000 0.0000
# 5 0.0000 0.0000 0.0000 0.0000 37.3942 0.0000
# 6 0.0000 0.0000 0.0000 0.0000 0.0000 35.1390
#
#
#
# Elastic Compliance Matrix: (Units=1/GPa)
#
#
# Indices 1 2 3 4 5 6 
#
# 1 0.015012 0.001215 -0.008270 0.000000 0.000000 0.000000
# 2 0.001215 0.020585 -0.012188 0.000000 0.000000 0.000000
# 3 -0.008270 -0.012188 0.019106 0.000000 0.000000 0.000000
# 4 0.000000 0.000000 0.000000 0.027084 0.000000 0.000000
# 5 0.000000 0.000000 0.000000 0.000000 0.026742 0.000000
# 6 0.000000 0.000000 0.000000 0.000000 0.000000 0.028458
#
#
# Mechanical properties :
#
#
# Convention : Reuss Voigt Hill
#
# Bulk Modulus (GPa) = 61.66403 70.81827 66.24115
# Shear Modulus (GPa) = 27.64286 31.68551 29.66419
#
# Velocity S-wave (km/s) = 3.63232 3.88887 3.76278
# Velocity P-wave (km/s) = 6.85737 7.34612 7.10595
#
# Compressibility (1/GPa) = 0.01621691
#
# Stress axis : x y z
#
# Youngs Moduli (GPa) = 66.61550 48.57905 52.33937
#
# Poissons Ratio (x) = -0.05904 0.43287
# Poissons Ratio (y) = -0.08097 0.63790
# Poissons Ratio (z) = 0.55094 0.59207
#
# Static dielectric constant tensor:
#      x y z
#    x 3.936000 0.000000 0.000000 
#    y 0.000000 3.251910 0.000000 
#    z 0.000000 0.000000 4.183480 
# 
# 
# High freq. dielectric constant tensor:
#      x y z
#    x 1.835310 0.000000 0.000000 
#    y 0.000000 1.812630 0.000000 
#    z 0.000000 0.000000 1.835940 
# 
# From -- ./inp_files/9454.got.cif
#   From: 2010.03.12/outbox.cif.g09.slc.cpg/sg40_5_cif.got.tgz:9454.got - 2010.04.14 01:38:03.
