data_PCOD8184188
_publ_section_title
;
Structure prediction by ZEFSAII (Michael W. Deem and Ramdas Pophale) SiO2 
 PCOD8184188
Probable space group: A M A 2
;
_chemical_formula_sum "Si O2"
_cell_formula_units_Z 52
_cell_length_a 21.537157
_cell_length_b 8.703291
_cell_length_c 12.445979
_cell_angle_alpha 90.000000
_cell_angle_beta 90.000000
_cell_angle_gamma 90.000000
_cell_volume 2332.925888
_symmetry_space_group_name_H-M "A M A 2"
_symmetry_group_IT_number 40
_symmetry_cell_setting 'orthorhombic'
loop_
_space_group_symop_operation_xyz
x,y,z
-x,-y,z
1/2-x,y,z
1/2+x,-y,z
x,1/2+y,1/2+z
-x,1/2-y,1/2+z
1/2-x,1/2+y,1/2+z
1/2+x,1/2-y,1/2+z
loop_
_atom_site_type_symbol
_atom_site_label
_atom_site_fract_x
_atom_site_fract_y
_atom_site_fract_z
Si Si1 0.980881 0.749605 0.935680
Si Si2 0.401760 0.941566 0.932414
Si Si3 0.373306 0.056636 0.715325
Si Si4 0.680202 0.130854 0.530622
Si Si5 0.117719 0.372968 0.805343
Si Si6 0.500000 0.000000 0.608509
Si Si7 0.676867 0.966374 0.119214
O O1 0.956184 0.660914 0.827009
O O2 0.053256 0.793485 0.926773
O O3 0.939797 0.901555 0.952969
O O4 0.972452 0.638569 0.037691
O O5 0.364919 0.948490 0.819954
O O6 0.351856 0.920254 0.028231
O O7 0.330817 0.000354 0.618615
O O8 0.350449 0.226419 0.747934
O O9 0.445932 0.061295 0.685189
O O10 0.750000 0.123860 0.490761
O O11 0.640410 0.098394 0.425862
O O12 0.664671 0.293641 0.582921
O O13 0.136515 0.514446 0.729063
O O14 0.750000 0.001550 0.136726
#
# Coordination Sequence:
#
# PCOD8184188 Si02
#       7
#     8   8   8   8   8   4   8
#     4  10  21  38  65  95 133 169 210 279 328 390
#     4  10  21  42  64  94 131 176 222 262 339 405
#     4  11  22  40  68  92 133 171 216 271 329 391
#     4  11  24  44  66  95 132 173 222 271 331 395
#     4  11  22  45  65  97 130 173 221 271 338 385
#     4  12  20  36  62 100 130 162 218 272 326 394
#     4  11  23  42  69  96 132 179 226 280 334 402
#
# _framework density 22.289608000000001
#
# number of rings (size 3 to 8) (size 9 to 14) (size 15 to 20)
#    0.000    1.231    4.615    3.231    0.000    3.077 
#    2.769    4.615    0.000    0.000    0.000    0.000 
#    0.000    0.000    0.000    0.000    0.000    0.000 
#
# Total GULP energy -322331.360109 kJ/mol
# GULP energy per Si atom -12397.360004 kJ/mol
# Density = 2.223888 g / cm^3
# Si number density = 22.289608 Si / 1000 Ang^3
#
#
#
# Elastic Constant Matrix: (Units=GPa)
#
#
# Indices 1 2 3 4 5 6 
#
# 1 47.9006 2.9603 19.0487 0.0000 0.0000 0.0000
# 2 2.9603 25.0325 32.4919 0.0000 0.0000 0.0000
# 3 19.0487 32.4919 144.4878 0.0000 0.0000 0.0000
# 4 0.0000 0.0000 0.0000 37.7066 0.0000 0.0000
# 5 0.0000 0.0000 0.0000 0.0000 31.1435 0.0000
# 6 0.0000 0.0000 0.0000 0.0000 0.0000 25.9709
#
#
#
# Elastic Compliance Matrix: (Units=1/GPa)
#
#
# Indices 1 2 3 4 5 6 
#
# 1 0.022080 0.001648 -0.003282 0.000000 0.000000 0.000000
# 2 0.001648 0.056538 -0.012931 0.000000 0.000000 0.000000
# 3 -0.003282 -0.012931 0.010262 0.000000 0.000000 0.000000
# 4 0.000000 0.000000 0.000000 0.026521 0.000000 0.000000
# 5 0.000000 0.000000 0.000000 0.000000 0.032109 0.000000
# 6 0.000000 0.000000 0.000000 0.000000 0.000000 0.038505
#
#
# Mechanical properties :
#
#
# Convention : Reuss Voigt Hill
#
# Bulk Modulus (GPa) = 16.73636 36.26916 26.50276
# Shear Modulus (GPa) = 21.27120 29.82555 25.54837
#
# Velocity S-wave (km/s) = 3.09254 3.66196 3.38923
# Velocity P-wave (km/s) = 4.50296 5.84697 5.21842
#
# Compressibility (1/GPa) = 0.05975015
#
# Stress axis : x y z
#
# Youngs Moduli (GPa) = 45.29046 17.68723 97.45075
#
# Poissons Ratio (x) = -0.02916 0.31979
# Poissons Ratio (y) = -0.07466 1.26017
# Poissons Ratio (z) = 0.14862 0.22872
#
# Static dielectric constant tensor:
#      x y z
#    x 4.038410 0.000000 0.000000 
#    y 0.000000 3.898150 0.000000 
#    z 0.000000 0.000000 4.147570 
# 
# 
# High freq. dielectric constant tensor:
#      x y z
#    x 1.867840 0.000000 0.000000 
#    y 0.000000 1.863370 0.000000 
#    z 0.000000 0.000000 1.888210 
# 
# From -- ./inp_files/14185.got.cif
#   From: 2010.03.12/outbox.cif.g09.slc.cpg/sg40_8_cif.got.tgz:14185.got - 2010.04.14 01:38:03.
