data_PCOD8184306
_publ_section_title
;
Structure prediction by ZEFSAII (Michael W. Deem and Ramdas Pophale) SiO2 
 PCOD8184306
Probable space group: A M A 2
;
_chemical_formula_sum "Si O2"
_cell_formula_units_Z 64
_cell_length_a 16.951557
_cell_length_b 15.120848
_cell_length_c 11.900128
_cell_angle_alpha 90.000000
_cell_angle_beta 90.000000
_cell_angle_gamma 90.000000
_cell_volume 3050.263619
_symmetry_space_group_name_H-M "A M A 2"
_symmetry_group_IT_number 40
_symmetry_cell_setting 'orthorhombic'
loop_
_space_group_symop_operation_xyz
x,y,z
-x,-y,z
1/2-x,y,z
1/2+x,-y,z
x,1/2+y,1/2+z
-x,1/2-y,1/2+z
1/2-x,1/2+y,1/2+z
1/2+x,1/2-y,1/2+z
loop_
_atom_site_type_symbol
_atom_site_label
_atom_site_fract_x
_atom_site_fract_y
_atom_site_fract_z
Si Si1 0.661880 0.917405 0.528500
Si Si2 0.661642 0.117709 0.528580
Si Si3 0.841675 0.676568 0.266510
Si Si4 0.094310 0.634186 0.803298
Si Si5 0.658044 0.347677 0.266213
Si Si6 0.908218 0.013215 0.897509
Si Si7 0.913321 0.161536 0.301918
Si Si8 0.157714 0.982185 0.144797
O O1 0.750000 0.891263 0.486831
O O2 0.600091 0.905900 0.428056
O O3 0.636311 0.860492 0.635705
O O4 0.661712 0.017538 0.571211
O O5 0.750000 0.146238 0.489627
O O6 0.633013 0.174341 0.635450
O O7 0.600991 0.127495 0.427464
O O8 0.750000 0.654059 0.279194
O O9 0.859705 0.774024 0.309349
O O10 0.888204 0.606299 0.340750
O O11 0.133937 0.568471 0.714894
O O12 0.003880 0.646931 0.769443
O O13 0.750000 0.326757 0.281808
O O14 0.638339 0.432544 0.341210
O O15 0.606738 0.264669 0.304303
O O16 0.888843 0.018086 0.028749
O O17 0.000000 0.000000 0.880160
O O18 0.860883 0.107014 0.213701
O O19 0.250000 0.984863 0.119317
#
# Coordination Sequence:
#
# PCOD8184306 Si02
#       8
#     8   8   8   8   8   8   8   8
#     4  10  21  42  70  96 126 169 222 269 321 392
#     4  10  21  42  70  96 126 169 222 269 321 392
#     4  11  24  45  70  97 131 177 224 266 324 398
#     4  12  26  43  66 100 136 171 218 276 333 386
#     4  11  24  45  70  97 131 177 224 266 324 398
#     4  12  26  45  68  99 136 171 217 279 337 388
#     4  12  26  43  66 100 136 171 218 276 333 386
#     4  12  26  47  70  93 130 179 225 269 329 406
#
# _framework density 20.981793
#
# number of rings (size 3 to 8) (size 9 to 14) (size 15 to 20)
#    0.000    0.750    2.500    5.250    3.500    2.000 
#    0.000    0.000    0.000    0.000    0.000    0.000 
#    0.000    0.000    0.000    0.000    0.000    0.000 
#
# Total GULP energy -396980.496022 kJ/mol
# GULP energy per Si atom -12405.640501 kJ/mol
# Density = 2.093404 g / cm^3
# Si number density = 20.981793 Si / 1000 Ang^3
#
#
#
# Elastic Constant Matrix: (Units=GPa)
#
#
# Indices 1 2 3 4 5 6 
#
# 1 67.0945 3.2433 21.9495 0.0000 0.0000 0.0000
# 2 3.2433 100.5466 31.0214 0.0000 0.0000 0.0000
# 3 21.9495 31.0214 96.5163 0.0000 0.0000 0.0000
# 4 0.0000 0.0000 0.0000 6.6163 0.0000 0.0000
# 5 0.0000 0.0000 0.0000 0.0000 24.6996 0.0000
# 6 0.0000 0.0000 0.0000 0.0000 0.0000 31.4147
#
#
#
# Elastic Compliance Matrix: (Units=1/GPa)
#
#
# Indices 1 2 3 4 5 6 
#
# 1 0.016144 0.000679 -0.003890 0.000000 0.000000 0.000000
# 2 0.000679 0.011069 -0.003712 0.000000 0.000000 0.000000
# 3 -0.003890 -0.003712 0.012439 0.000000 0.000000 0.000000
# 4 0.000000 0.000000 0.000000 0.151141 0.000000 0.000000
# 5 0.000000 0.000000 0.000000 0.000000 0.040487 0.000000
# 6 0.000000 0.000000 0.000000 0.000000 0.000000 0.031832
#
#
# Mechanical properties :
#
#
# Convention : Reuss Voigt Hill
#
# Bulk Modulus (GPa) = 38.74998 41.84289 40.29643
# Shear Modulus (GPa) = 17.50953 26.40901 21.95927
#
# Velocity S-wave (km/s) = 2.89192 3.55161 3.23861
# Velocity P-wave (km/s) = 5.44605 6.06666 5.76471
#
# Compressibility (1/GPa) = 0.02580647
#
# Stress axis : x y z
#
# Youngs Moduli (GPa) = 61.94241 90.34211 80.39433
#
# Poissons Ratio (x) = -0.06137 0.31272
# Poissons Ratio (y) = -0.04208 0.29844
# Poissons Ratio (z) = 0.24094 0.33537
#
# Static dielectric constant tensor:
#      x y z
#    x 3.808300 0.000000 0.000000 
#    y 0.000000 3.921480 0.000000 
#    z 0.000000 0.000000 3.821370 
# 
# 
# High freq. dielectric constant tensor:
#      x y z
#    x 1.825250 0.000000 0.000000 
#    y 0.000000 1.831870 0.000000 
#    z 0.000000 0.000000 1.831870 
# 
# From -- ./inp_files/13104.got.cif
#   From: 2010.03.12/outbox.cif.g09.slc.cpg/sg40_7_cif.got.tgz:13104.got - 2010.04.14 01:38:03.
