data_PCOD8184741
_publ_section_title
;
Structure prediction by ZEFSAII (Michael W. Deem and Ramdas Pophale) SiO2 
 PCOD8184741
Probable space group: A B A 2
;
_chemical_formula_sum "Si O2"
_cell_formula_units_Z 52
_cell_length_a 16.591049
_cell_length_b 16.242837
_cell_length_c 9.829543
_cell_angle_alpha 90.000000
_cell_angle_beta 90.000000
_cell_angle_gamma 90.000000
_cell_volume 2648.921321
_symmetry_space_group_name_H-M "A B A 2"
_symmetry_group_IT_number 41
_symmetry_cell_setting 'orthorhombic'
loop_
_space_group_symop_operation_xyz
x,y,z
-x,-y,z
1/2-x,y,1/2+z
1/2+x,-y,1/2+z
x,1/2+y,1/2+z
-x,1/2-y,1/2+z
1/2-x,1/2+y,z
1/2+x,1/2-y,z
loop_
_atom_site_type_symbol
_atom_site_label
_atom_site_fract_x
_atom_site_fract_y
_atom_site_fract_z
Si Si1 0.334707 0.652716 0.334470
Si Si2 0.663886 0.575849 0.989402
Si Si3 0.660727 0.843903 0.307669
Si Si4 0.933197 0.336338 0.582710
Si Si5 0.905804 0.249535 0.063019
Si Si6 0.748171 0.998469 0.751955
Si Si7 0.000000 0.500000 0.548659
O O1 0.246488 0.693506 0.357261
O O2 0.369147 0.691917 0.194591
O O3 0.391727 0.675571 0.459331
O O4 0.325739 0.553065 0.321457
O O5 0.646897 0.671167 0.018540
O O6 0.715649 0.537092 0.112975
O O7 0.579255 0.528032 0.962626
O O8 0.718593 0.568512 0.853966
O O9 0.606569 0.859268 0.439390
O O10 0.617444 0.777739 0.213316
O O11 0.679989 0.930422 0.228352
O O12 0.998886 0.265676 0.562085
O O13 0.976187 0.420239 0.638488
#
# Coordination Sequence:
#
# PCOD8184741 Si02
#       7
#     8   8   8   8   8   8   4
#     4  10  20  38  60  82 110 157 187 229 274 350
#     4  11  22  36  59  87 109 149 184 243 272 339
#     4  10  20  38  60  82 110 157 187 229 274 350
#     4  11  20  36  61  85 113 146 197 223 289 332
#     4  11  24  34  58  86 121 140 185 243 287 318
#     4  10  20  38  62  78 112 150 200 218 280 348
#     4  10  16  38  56  86 108 148 182 232 282 328
#
# _framework density 19.630633
#
# number of rings (size 3 to 8) (size 9 to 14) (size 15 to 20)
#    0.923    0.615    3.077    2.769    2.154    0.000 
#    0.000    0.000    0.000    1.846    0.000    0.000 
#    0.000    0.000    0.000    0.000    0.000    0.000 
#
# Total GULP energy -322113.710519 kJ/mol
# GULP energy per Si atom -12388.988866 kJ/mol
# Density = 1.958595 g / cm^3
# Si number density = 19.630633 Si / 1000 Ang^3
#
#
#
# Elastic Constant Matrix: (Units=GPa)
#
#
# Indices 1 2 3 4 5 6 
#
# 1 88.5331 17.7081 41.3998 0.0000 0.0000 0.0000
# 2 17.7081 51.6037 20.8551 0.0000 0.0000 0.0000
# 3 41.3998 20.8551 80.5564 0.0000 0.0000 0.0000
# 4 0.0000 0.0000 0.0000 16.9006 0.0000 0.0000
# 5 0.0000 0.0000 0.0000 0.0000 28.1133 0.0000
# 6 0.0000 0.0000 0.0000 0.0000 0.0000 14.7979
#
#
#
# Elastic Compliance Matrix: (Units=1/GPa)
#
#
# Indices 1 2 3 4 5 6 
#
# 1 0.015106 -0.002285 -0.007172 0.000000 0.000000 0.000000
# 2 -0.002285 0.021989 -0.004518 0.000000 0.000000 0.000000
# 3 -0.007172 -0.004518 0.017269 0.000000 0.000000 0.000000
# 4 0.000000 0.000000 0.000000 0.059170 0.000000 0.000000
# 5 0.000000 0.000000 0.000000 0.000000 0.035570 0.000000
# 6 0.000000 0.000000 0.000000 0.000000 0.000000 0.067577
#
#
# Mechanical properties :
#
#
# Convention : Reuss Voigt Hill
#
# Bulk Modulus (GPa) = 37.85957 42.29103 40.07530
# Shear Modulus (GPa) = 19.72889 21.34436 20.53662
#
# Velocity S-wave (km/s) = 3.17362 3.30100 3.23794
# Velocity P-wave (km/s) = 5.72337 6.00990 5.86839
#
# Compressibility (1/GPa) = 0.02641340
#
# Stress axis : x y z
#
# Youngs Moduli (GPa) = 66.19927 45.47802 57.90719
#
# Poissons Ratio (x) = 0.10393 0.41529
# Poissons Ratio (y) = 0.15129 0.26163
# Poissons Ratio (z) = 0.47476 0.20547
#
# Static dielectric constant tensor:
#      x y z
#    x 3.733030 0.000000 0.000000 
#    y 0.000000 3.475100 0.000000 
#    z 0.000000 0.000000 3.271290 
# 
# 
# High freq. dielectric constant tensor:
#      x y z
#    x 1.769640 0.000000 0.000000 
#    y 0.000000 1.753310 0.000000 
#    z 0.000000 0.000000 1.744660 
# 
# From -- ./inp_files/3122.got.cif
#   From: 2010.03.12/outbox.cif.g09.slc.cpg/sg41_2_cif.got.tgz:3122.got - 2010.04.14 01:55:53.
