data_PCOD8184550
_publ_section_title
;
Structure prediction by ZEFSAII (Michael W. Deem and Ramdas Pophale) SiO2 
 PCOD8184550
Probable space group: A M A 2
;
_chemical_formula_sum "Si O2"
_cell_formula_units_Z 48
_cell_length_a 18.039888
_cell_length_b 14.859925
_cell_length_c 8.549724
_cell_angle_alpha 90.000000
_cell_angle_beta 90.000000
_cell_angle_gamma 90.000000
_cell_volume 2291.936334
_symmetry_space_group_name_H-M "A M A 2"
_symmetry_group_IT_number 40
_symmetry_cell_setting 'orthorhombic'
loop_
_space_group_symop_operation_xyz
x,y,z
-x,-y,z
1/2-x,y,z
1/2+x,-y,z
x,1/2+y,1/2+z
-x,1/2-y,1/2+z
1/2-x,1/2+y,1/2+z
1/2+x,1/2-y,1/2+z
loop_
_atom_site_type_symbol
_atom_site_label
_atom_site_fract_x
_atom_site_fract_y
_atom_site_fract_z
Si Si1 0.943112 0.731995 0.776910
Si Si2 0.663175 0.557305 0.265685
Si Si3 0.092446 0.277137 0.417816
Si Si4 0.924718 0.047538 0.452103
Si Si5 0.837055 0.895535 0.283664
Si Si6 0.337060 0.127385 0.926203
O O1 0.934578 0.717524 0.594172
O O2 0.946793 0.636670 0.860913
O O3 0.875090 0.789217 0.842067
O O4 0.020859 0.782257 0.805646
O O5 0.750000 0.556487 0.232531
O O6 0.644533 0.638114 0.382929
O O7 0.636937 0.464548 0.344346
O O8 0.622836 0.572612 0.102541
O O9 0.139696 0.186729 0.393941
O O10 0.877735 0.985647 0.336039
O O11 0.000000 0.000000 0.507610
O O12 0.750000 0.912554 0.298220
O O13 0.861106 0.874137 0.106771
O O14 0.250000 0.142187 0.908884
#
# Coordination Sequence:
#
# PCOD8184550 Si02
#       6
#     8   8   8   8   8   8
#     4  12  26  43  67  98 136 176 226 271 336 391
#     4  11  25  45  69 100 135 175 222 273 333 393
#     4  12  25  43  67  99 133 178 222 276 330 397
#     4  12  25  43  66 101 133 178 222 272 328 394
#     4  11  23  44  70  98 134 174 220 274 330 390
#     4  10  24  44  69 100 134 175 221 272 328 391
#
# _framework density 20.942990000000002
#
# number of rings (size 3 to 8) (size 9 to 14) (size 15 to 20)
#    0.000    0.667    1.667    6.000    2.333    5.333 
#    0.000    0.000    0.000    0.000    0.000    0.000 
#    0.000    0.000    0.000    0.000    0.000    0.000 
#
# Total GULP energy -297823.151131 kJ/mol
# GULP energy per Si atom -12409.297964 kJ/mol
# Density = 2.089532 g / cm^3
# Si number density = 20.942990 Si / 1000 Ang^3
#
#
#
# Elastic Constant Matrix: (Units=GPa)
#
#
# Indices 1 2 3 4 5 6 
#
# 1 78.0284 21.4089 37.2974 0.0000 0.0000 0.0000
# 2 21.4089 101.6052 22.8205 0.0000 0.0000 0.0000
# 3 37.2974 22.8205 111.4736 0.0000 0.0000 0.0000
# 4 0.0000 0.0000 0.0000 34.6363 0.0000 0.0000
# 5 0.0000 0.0000 0.0000 0.0000 27.5085 0.0000
# 6 0.0000 0.0000 0.0000 0.0000 0.0000 39.3527
#
#
#
# Elastic Compliance Matrix: (Units=1/GPa)
#
#
# Indices 1 2 3 4 5 6 
#
# 1 0.015725 -0.002234 -0.004804 0.000000 0.000000 0.000000
# 2 -0.002234 0.010634 -0.001429 0.000000 0.000000 0.000000
# 3 -0.004804 -0.001429 0.010871 0.000000 0.000000 0.000000
# 4 0.000000 0.000000 0.000000 0.028871 0.000000 0.000000
# 5 0.000000 0.000000 0.000000 0.000000 0.036352 0.000000
# 6 0.000000 0.000000 0.000000 0.000000 0.000000 0.025411
#
#
# Mechanical properties :
#
#
# Convention : Reuss Voigt Hill
#
# Bulk Modulus (GPa) = 49.27503 50.46231 49.86867
# Shear Modulus (GPa) = 32.98913 34.27152 33.63033
#
# Velocity S-wave (km/s) = 3.97317 4.04966 4.01160
# Velocity P-wave (km/s) = 6.68037 6.78334 6.73205
#
# Compressibility (1/GPa) = 0.02029426
#
# Stress axis : x y z
#
# Youngs Moduli (GPa) = 63.59214 94.03935 91.99052
#
# Poissons Ratio (x) = 0.21012 0.44192
# Poissons Ratio (y) = 0.14209 0.13148
# Poissons Ratio (z) = 0.30550 0.13441
#
# Static dielectric constant tensor:
#      x y z
#    x 3.883270 0.000000 0.000000 
#    y 0.000000 3.929290 0.000000 
#    z 0.000000 0.000000 3.904840 
# 
# 
# High freq. dielectric constant tensor:
#      x y z
#    x 1.835000 0.000000 0.000000 
#    y 0.000000 1.833470 0.000000 
#    z 0.000000 0.000000 1.832880 
# 
# From -- ./inp_files/7446.got.cif
#   From: 2010.03.12/outbox.cif.g09.slc.cpg/sg40_4_cif.got.tgz:7446.got - 2010.04.14 01:38:03.
