data_PCOD8184580
_publ_section_title
;
Structure prediction by ZEFSAII (Michael W. Deem and Ramdas Pophale) SiO2 
 PCOD8184580
Probable space group: A M A 2
;
_chemical_formula_sum "Si O2"
_cell_formula_units_Z 64
_cell_length_a 18.892636
_cell_length_b 16.637313
_cell_length_c 9.717492
_cell_angle_alpha 90.000000
_cell_angle_beta 90.000000
_cell_angle_gamma 90.000000
_cell_volume 3054.428308
_symmetry_space_group_name_H-M "A M A 2"
_symmetry_group_IT_number 40
_symmetry_cell_setting 'orthorhombic'
loop_
_space_group_symop_operation_xyz
x,y,z
-x,-y,z
1/2-x,y,z
1/2+x,-y,z
x,1/2+y,1/2+z
-x,1/2-y,1/2+z
1/2-x,1/2+y,1/2+z
1/2+x,1/2-y,1/2+z
loop_
_atom_site_type_symbol
_atom_site_label
_atom_site_fract_x
_atom_site_fract_y
_atom_site_fract_z
Si Si1 0.570035 0.107111 0.836740
Si Si2 0.453559 0.290722 0.083205
Si Si3 0.584353 0.377218 0.694611
Si Si4 0.086553 0.066884 0.903202
Si Si5 0.892298 0.221192 0.066297
Si Si6 0.328585 0.127094 0.663455
Si Si7 0.333215 0.030305 0.401337
Si Si8 0.428495 0.380939 0.811476
O O1 0.561497 0.132272 0.678784
O O2 0.494839 0.093486 0.908661
O O3 0.607604 0.020656 0.843777
O O4 0.612467 0.175998 0.919744
O O5 0.411711 0.214903 0.144832
O O6 0.535967 0.271872 0.080761
O O7 0.429309 0.313239 0.930173
O O8 0.607495 0.430730 0.563068
O O9 0.645222 0.393543 0.806523
O O10 0.508135 0.401621 0.760285
O O11 0.124224 0.129285 0.800981
O O12 0.831410 0.287351 0.083744
O O13 0.884850 0.154547 0.184378
O O14 0.250000 0.113260 0.716437
O O15 0.349096 0.055540 0.558353
O O16 0.250000 0.008927 0.380498
O O17 0.385978 0.958178 0.363517
#
# Coordination Sequence:
#
# PCOD8184580 Si02
#       8
#     8   8   8   8   8   8   8   8
#     4  11  21  34  59  88 123 147 193 265 305 356
#     4  11  20  35  59  92 121 152 196 262 310 361
#     4  11  23  38  65  91 121 160 205 262 314 367
#     4  11  22  38  59  90 118 158 200 250 315 362
#     4  11  20  38  59  91 119 155 200 252 309 359
#     4  11  24  43  63  86 128 171 206 244 302 384
#     4  11  25  43  61  88 127 170 211 253 307 381
#     4  11  22  38  64  91 124 158 206 259 316 366
#
# _framework density 20.953184
#
# number of rings (size 3 to 8) (size 9 to 14) (size 15 to 20)
#    0.000    1.000    3.750    5.625    1.750    1.000 
#    0.000    1.250    0.000    4.500    0.000    0.000 
#    0.000    0.000    0.000    0.000    0.000    0.000 
#
# Total GULP energy -396738.569639 kJ/mol
# GULP energy per Si atom -12398.080301 kJ/mol
# Density = 2.090549 g / cm^3
# Si number density = 20.953184 Si / 1000 Ang^3
#
#
#
# Elastic Constant Matrix: (Units=GPa)
#
#
# Indices 1 2 3 4 5 6 
#
# 1 51.3832 26.7334 32.1475 0.0000 0.0000 0.0000
# 2 26.7334 84.3092 18.2793 0.0000 0.0000 0.0000
# 3 32.1475 18.2793 97.8076 0.0000 0.0000 0.0000
# 4 0.0000 0.0000 0.0000 43.0067 0.0000 0.0000
# 5 0.0000 0.0000 0.0000 0.0000 16.2084 0.0000
# 6 0.0000 0.0000 0.0000 0.0000 0.0000 18.7170
#
#
#
# Elastic Compliance Matrix: (Units=1/GPa)
#
#
# Indices 1 2 3 4 5 6 
#
# 1 0.028163 -0.007216 -0.007908 0.000000 0.000000 0.000000
# 2 -0.007216 0.014211 -0.000284 0.000000 0.000000 0.000000
# 3 -0.007908 -0.000284 0.012877 0.000000 0.000000 0.000000
# 4 0.000000 0.000000 0.000000 0.023252 0.000000 0.000000
# 5 0.000000 0.000000 0.000000 0.000000 0.061696 0.000000
# 6 0.000000 0.000000 0.000000 0.000000 0.000000 0.053427
#
#
# Mechanical properties :
#
#
# Convention : Reuss Voigt Hill
#
# Bulk Modulus (GPa) = 40.92571 43.09115 42.00843
# Shear Modulus (GPa) = 21.49724 26.00906 23.75315
#
# Velocity S-wave (km/s) = 3.20654 3.52702 3.37059
# Velocity P-wave (km/s) = 5.76920 6.09890 5.93634
#
# Compressibility (1/GPa) = 0.02443452
#
# Stress axis : x y z
#
# Youngs Moduli (GPa) = 35.50696 70.36939 77.66049
#
# Poissons Ratio (x) = 0.50776 0.61416
# Poissons Ratio (y) = 0.25621 0.02207
# Poissons Ratio (z) = 0.28080 0.02000
#
# Static dielectric constant tensor:
#      x y z
#    x 3.396760 0.000000 0.000000 
#    y 0.000000 3.916490 0.000000 
#    z 0.000000 0.000000 3.933920 
# 
# 
# High freq. dielectric constant tensor:
#      x y z
#    x 1.772970 0.000000 0.000000 
#    y 0.000000 1.830660 0.000000 
#    z 0.000000 0.000000 1.839910 
# 
# From -- ./inp_files/8457.got.cif
#   From: 2010.03.12/outbox.cif.g09.slc.cpg/sg40_5_cif.got.tgz:8457.got - 2010.04.14 01:38:03.
