data_PCOD8184574
_publ_section_title
;
Structure prediction by ZEFSAII (Michael W. Deem and Ramdas Pophale) SiO2 
 PCOD8184574
Probable space group: A M A 2
;
_chemical_formula_sum "Si O2"
_cell_formula_units_Z 56
_cell_length_a 8.846908
_cell_length_b 18.320024
_cell_length_c 21.070503
_cell_angle_alpha 90.000000
_cell_angle_beta 90.000000
_cell_angle_gamma 90.000000
_cell_volume 3415.013718
_symmetry_space_group_name_H-M "A M A 2"
_symmetry_group_IT_number 40
_symmetry_cell_setting 'orthorhombic'
loop_
_space_group_symop_operation_xyz
x,y,z
-x,-y,z
1/2-x,y,z
1/2+x,-y,z
x,1/2+y,1/2+z
-x,1/2-y,1/2+z
1/2-x,1/2+y,1/2+z
1/2+x,1/2-y,1/2+z
loop_
_atom_site_type_symbol
_atom_site_label
_atom_site_fract_x
_atom_site_fract_y
_atom_site_fract_z
Si Si1 0.931187 0.142438 0.010720
Si Si2 0.415474 0.797714 0.826352
Si Si3 0.928181 0.578160 0.644476
Si Si4 0.085267 0.213604 0.457411
Si Si5 0.571962 0.845396 0.260634
Si Si6 0.072129 0.574926 0.387724
Si Si7 0.430541 0.077667 0.389223
O O1 0.750000 0.141667 0.002492
O O2 0.984711 0.110892 0.077727
O O3 0.993990 0.226814 0.004062
O O4 0.002537 0.092534 0.956377
O O5 0.250000 0.829824 0.808141
O O6 0.396738 0.753002 0.890448
O O7 0.470084 0.739513 0.773507
O O8 0.533871 0.863392 0.835190
O O9 0.750000 0.569377 0.645325
O O10 0.000000 0.500000 0.656669
O O11 0.978854 0.632989 0.698992
O O12 0.250000 0.196046 0.486162
O O13 0.004495 0.135790 0.442260
O O14 0.750000 0.854622 0.248579
O O15 0.519824 0.897102 0.318944
O O16 0.250000 0.567057 0.394466
O O17 0.000000 0.500000 0.362990
O O18 0.250000 0.075207 0.393457
O O19 0.500000 0.000000 0.405868
#
# Coordination Sequence:
#
# PCOD8184574 Si02
#       7
#     8   8   8   8   8   8   8
#     4   9  18  33  48  62  85 120 157 191 226 267
#     4   8  15  30  48  64  85 115 148 182 223 271
#     4  11  22  32  45  65  90 120 155 190 223 263
#     4   7  12  26  45  60  79 109 144 177 216 264
#     4   9  18  32  48  64  88 122 153 181 219 265
#     4  11  20  29  45  69  94 119 147 184 227 271
#     4   9  16  26  42  64  87 113 141 173 215 261
#
# _framework density 16.398177
#
# number of rings (size 3 to 8) (size 9 to 14) (size 15 to 20)
#    0.000    2.857    0.000    5.143    0.000    4.571 
#    0.000    5.714    0.000    0.000    0.000    1.000 
#    0.000    4.571    0.000    0.000    0.000    0.000 
#
# Total GULP energy -346911.273369 kJ/mol
# GULP energy per Si atom -12389.688335 kJ/mol
# Density = 1.636085 g / cm^3
# Si number density = 16.398177 Si / 1000 Ang^3
#
#
#
# Elastic Constant Matrix: (Units=GPa)
#
#
# Indices 1 2 3 4 5 6 
#
# 1 49.4561 34.6684 21.0214 0.0000 0.0000 0.0000
# 2 34.6684 121.1321 42.4915 0.0000 0.0000 0.0000
# 3 21.0214 42.4915 59.7533 0.0000 0.0000 0.0000
# 4 0.0000 0.0000 0.0000 26.4542 0.0000 0.0000
# 5 0.0000 0.0000 0.0000 0.0000 4.6331 0.0000
# 6 0.0000 0.0000 0.0000 0.0000 0.0000 25.0065
#
#
#
# Elastic Compliance Matrix: (Units=1/GPa)
#
#
# Indices 1 2 3 4 5 6 
#
# 1 0.026467 -0.005741 -0.005229 0.000000 0.000000 0.000000
# 2 -0.005741 0.012244 -0.006688 0.000000 0.000000 0.000000
# 3 -0.005229 -0.006688 0.023331 0.000000 0.000000 0.000000
# 4 0.000000 0.000000 0.000000 0.037801 0.000000 0.000000
# 5 0.000000 0.000000 0.000000 0.000000 0.215840 0.000000
# 6 0.000000 0.000000 0.000000 0.000000 0.000000 0.039990
#
#
# Mechanical properties :
#
#
# Convention : Reuss Voigt Hill
#
# Bulk Modulus (GPa) = 37.41452 47.41156 42.41304
# Shear Modulus (GPa) = 12.50328 20.02944 16.26636
#
# Velocity S-wave (km/s) = 2.76430 3.49871 3.15296
# Velocity P-wave (km/s) = 5.74928 6.73028 6.25903
#
# Compressibility (1/GPa) = 0.02672759
#
# Stress axis : x y z
#
# Youngs Moduli (GPa) = 37.78349 81.67044 42.86221
#
# Poissons Ratio (x) = 0.46884 0.22412
# Poissons Ratio (y) = 0.21690 0.28664
# Poissons Ratio (z) = 0.19756 0.54618
#
# Static dielectric constant tensor:
#      x y z
#    x 2.902130 0.000000 0.000000 
#    y 0.000000 3.474330 0.000000 
#    z 0.000000 0.000000 2.983750 
# 
# 
# High freq. dielectric constant tensor:
#      x y z
#    x 1.615090 0.000000 0.000000 
#    y 0.000000 1.640730 0.000000 
#    z 0.000000 0.000000 1.591620 
# 
# From -- ./inp_files/22310.got.cif
#   From: 2010.03.12/outbox.cif.g09.slc.cpg/sg40_12_cif.got.tgz:22310.got - 2010.04.14 01:38:03.
