data_PCOD8184931
_publ_section_title
;
Structure prediction by ZEFSAII (Michael W. Deem and Ramdas Pophale) SiO2 
 PCOD8184931
Probable space group: A B A 2
;
_chemical_formula_sum "Si O2"
_cell_formula_units_Z 60
_cell_length_a 22.750462
_cell_length_b 25.525860
_cell_length_c 5.118166
_cell_angle_alpha 90.000000
_cell_angle_beta 90.000000
_cell_angle_gamma 90.000000
_cell_volume 2972.247503
_symmetry_space_group_name_H-M "A B A 2"
_symmetry_group_IT_number 41
_symmetry_cell_setting 'orthorhombic'
loop_
_space_group_symop_operation_xyz
x,y,z
-x,-y,z
1/2-x,y,1/2+z
1/2+x,-y,1/2+z
x,1/2+y,1/2+z
-x,1/2-y,1/2+z
1/2-x,1/2+y,z
1/2+x,1/2-y,z
loop_
_atom_site_type_symbol
_atom_site_label
_atom_site_fract_x
_atom_site_fract_y
_atom_site_fract_z
Si Si1 0.039140 0.750385 0.500000
Si Si2 0.277229 0.450479 0.951470
Si Si3 0.273618 0.064612 0.065300
Si Si4 0.500000 0.000000 0.234434
Si Si5 0.094787 0.578503 0.116039
Si Si6 0.934120 0.359957 0.639018
Si Si7 0.406037 0.421091 0.853689
Si Si8 0.933992 0.140539 0.334920
O O1 0.080150 0.700740 0.573019
O O2 0.080062 0.799555 0.418631
O O3 0.001268 0.766906 0.754390
O O4 0.238542 0.421898 0.723887
O O5 0.256630 0.510328 0.971525
O O6 0.344969 0.451501 0.869334
O O7 0.263062 0.095653 0.791505
O O8 0.340639 0.054597 0.153309
O O9 0.453667 0.033122 0.055497
O O10 0.540328 0.038421 0.414268
O O11 0.072454 0.606802 0.377006
O O12 0.105537 0.617595 0.872124
O O13 0.997987 0.363652 0.767220
O O14 0.416063 0.398398 0.565600
O O15 0.400861 0.375241 0.069344
#
# Coordination Sequence:
#
# PCOD8184931 Si02
#       8
#     8   8   8   4   8   8   8   8
#     4  10  20  36  66  82 124 168 196 254 306 380
#     4  10  21  40  58  79 111 159 220 252 282 341
#     4  10  21  40  58  79 111 159 220 252 282 341
#     4  12  24  38  52  90 132 170 188 240 316 368
#     4  12  24  37  61  87 129 163 203 252 303 368
#     4  11  21  40  56  95 122 159 203 246 311 384
#     4  12  24  37  61  87 129 163 203 252 303 368
#     4  11  21  40  56  95 122 159 203 246 311 384
#
# _framework density 20.186744999999998
#
# number of rings (size 3 to 8) (size 9 to 14) (size 15 to 20)
#    0.000    1.067    2.667    6.400    0.000    4.267 
#    0.000    0.000    0.000    0.000    0.000   18.667 
#    0.000    0.000    0.000    0.000    0.000    0.000 
#
# Total GULP energy -371672.125052 kJ/mol
# GULP energy per Si atom -12389.070835 kJ/mol
# Density = 2.014080 g / cm^3
# Si number density = 20.186745 Si / 1000 Ang^3
#
#
#
# Elastic Constant Matrix: (Units=GPa)
#
#
# Indices 1 2 3 4 5 6 
#
# 1 100.4866 38.5246 13.6054 0.0000 0.0000 0.0000
# 2 38.5246 97.9098 31.6714 0.0000 0.0000 0.0000
# 3 13.6054 31.6714 136.2532 0.0000 0.0000 0.0000
# 4 0.0000 0.0000 0.0000 30.3794 0.0000 0.0000
# 5 0.0000 0.0000 0.0000 0.0000 25.2529 0.0000
# 6 0.0000 0.0000 0.0000 0.0000 0.0000 16.0982
#
#
#
# Elastic Compliance Matrix: (Units=1/GPa)
#
#
# Indices 1 2 3 4 5 6 
#
# 1 0.011721 -0.004577 -0.000106 0.000000 0.000000 0.000000
# 2 -0.004577 0.012832 -0.002526 0.000000 0.000000 0.000000
# 3 -0.000106 -0.002526 0.007937 0.000000 0.000000 0.000000
# 4 0.000000 0.000000 0.000000 0.032917 0.000000 0.000000
# 5 0.000000 0.000000 0.000000 0.000000 0.039599 0.000000
# 6 0.000000 0.000000 0.000000 0.000000 0.000000 0.062119
#
#
# Mechanical properties :
#
#
# Convention : Reuss Voigt Hill
#
# Bulk Modulus (GPa) = 55.33831 55.80581 55.57206
# Shear Modulus (GPa) = 26.65715 31.06931 28.86323
#
# Velocity S-wave (km/s) = 3.63785 3.92739 3.78539
# Velocity P-wave (km/s) = 6.71699 6.94771 6.83332
#
# Compressibility (1/GPa) = 0.01807067
#
# Stress axis : x y z
#
# Youngs Moduli (GPa) = 85.31794 77.93320 125.99300
#
# Poissons Ratio (x) = 0.35673 0.01340
# Poissons Ratio (y) = 0.39053 0.31820
# Poissons Ratio (z) = 0.00908 0.19682
#
# Static dielectric constant tensor:
#      x y z
#    x 3.522220 0.000000 0.000000 
#    y 0.000000 3.756000 0.000000 
#    z 0.000000 0.000000 5.407300 
# 
# 
# High freq. dielectric constant tensor:
#      x y z
#    x 1.761230 0.000000 0.000000 
#    y 0.000000 1.758440 0.000000 
#    z 0.000000 0.000000 1.820260 
# 
# From -- ./inp_files/784.got.cif
#   From: 2010.03.12/outbox.cif.g09.slc.cpg/sg41_1_cif.got.tgz:784.got - 2010.04.14 01:55:53.
