data_PCOD8184195
_publ_section_title
;
Structure prediction by ZEFSAII (Michael W. Deem and Ramdas Pophale) SiO2 
 PCOD8184195
Probable space group: A M A 2
;
_chemical_formula_sum "Si O2"
_cell_formula_units_Z 64
_cell_length_a 15.220352
_cell_length_b 23.767876
_cell_length_c 9.194820
_cell_angle_alpha 90.000000
_cell_angle_beta 90.000000
_cell_angle_gamma 90.000000
_cell_volume 3326.276146
_symmetry_space_group_name_H-M "A M A 2"
_symmetry_group_IT_number 40
_symmetry_cell_setting 'orthorhombic'
loop_
_space_group_symop_operation_xyz
x,y,z
-x,-y,z
1/2-x,y,z
1/2+x,-y,z
x,1/2+y,1/2+z
-x,1/2-y,1/2+z
1/2-x,1/2+y,1/2+z
1/2+x,1/2-y,1/2+z
loop_
_atom_site_type_symbol
_atom_site_label
_atom_site_fract_x
_atom_site_fract_y
_atom_site_fract_z
Si Si1 0.648482 0.496130 0.487110
Si Si2 0.349115 0.377670 0.179219
Si Si3 0.649697 0.390849 0.678361
Si Si4 0.901964 0.997625 0.672524
Si Si5 0.004709 0.310165 0.019898
Si Si6 0.496592 0.308461 0.674782
Si Si7 0.851961 0.622267 0.514406
Si Si8 0.846956 0.388970 0.014281
O O1 0.750000 0.493608 0.439773
O O2 0.623040 0.449130 0.603162
O O3 0.591754 0.484584 0.343895
O O4 0.628267 0.557335 0.554766
O O5 0.250000 0.356832 0.154281
O O6 0.353291 0.443756 0.142596
O O7 0.409377 0.343564 0.069032
O O8 0.377736 0.366596 0.346060
O O9 0.750000 0.373026 0.640678
O O10 0.584133 0.341970 0.625901
O O11 0.636121 0.402622 0.846945
O O12 0.849402 0.947758 0.597272
O O13 0.000000 0.000000 0.608096
O O14 0.001767 0.251424 0.100391
O O15 0.918810 0.344810 0.071066
O O16 0.007515 0.301025 0.847664
O O17 0.409409 0.339611 0.620344
O O18 0.750000 0.637208 0.540856
O O19 0.750000 0.362334 0.037516
#
# Coordination Sequence:
#
# PCOD8184195 Si02
#       8
#     8   8   8   8   8   8   8   8
#     4   9  19  35  56  88 120 152 192 228 281 346
#     4  10  21  39  60  84 120 156 190 234 289 345
#     4   9  21  39  59  84 115 154 191 232 289 344
#     4  11  20  33  58  91 121 149 188 231 283 345
#     4  11  24  41  57  87 110 152 201 243 296 342
#     4  11  24  39  61  82 117 148 199 250 288 346
#     4   9  20  38  59  85 117 155 190 232 290 345
#     4  10  21  40  60  82 117 153 189 235 287 345
#
# _framework density 19.240735000000001
#
# number of rings (size 3 to 8) (size 9 to 14) (size 15 to 20)
#    0.000    2.000    1.250    2.625    3.500    3.500 
#    0.000    3.750    0.000    0.000    0.000    0.000 
#    0.000    0.000    0.000    0.000    0.000    0.000 
#
# Total GULP energy -396867.407399 kJ/mol
# GULP energy per Si atom -12402.106481 kJ/mol
# Density = 1.919694 g / cm^3
# Si number density = 19.240735 Si / 1000 Ang^3
#
#
#
# Elastic Constant Matrix: (Units=GPa)
#
#
# Indices 1 2 3 4 5 6 
#
# 1 112.9846 61.6981 47.1659 0.0000 0.0000 0.0000
# 2 61.6981 143.9025 64.8454 0.0000 0.0000 0.0000
# 3 47.1659 64.8454 69.9175 0.0000 0.0000 0.0000
# 4 0.0000 0.0000 0.0000 36.3134 0.0000 0.0000
# 5 0.0000 0.0000 0.0000 0.0000 32.7104 0.0000
# 6 0.0000 0.0000 0.0000 0.0000 0.0000 -17.2586
#
#
#
# Elastic Compliance Matrix: (Units=1/GPa)
#
#
# Indices 1 2 3 4 5 6 
#
# 1 0.012934 -0.002772 -0.006154 0.000000 0.000000 0.000000
# 2 -0.002772 0.012533 -0.009754 0.000000 0.000000 0.000000
# 3 -0.006154 -0.009754 0.027500 0.000000 0.000000 0.000000
# 4 0.000000 0.000000 0.000000 0.027538 0.000000 0.000000
# 5 0.000000 0.000000 0.000000 0.000000 0.030571 0.000000
# 6 0.000000 0.000000 0.000000 0.000000 0.000000 -0.057942
#
#
# Mechanical properties :
#
#
# Convention : Reuss Voigt Hill
#
# Bulk Modulus (GPa) = 64.07312 74.91373 69.49342
# Shear Modulus (GPa) = 52.24923 20.55938 36.40431
#
# Velocity S-wave (km/s) = 5.21675 3.27239 4.35448
# Velocity P-wave (km/s) = 8.34620 7.30052 7.84081
#
# Compressibility (1/GPa) = 0.01560717
#
# Stress axis : x y z
#
# Youngs Moduli (GPa) = 77.31853 79.78989 36.36379
#
# Poissons Ratio (x) = 0.22120 0.22377
# Poissons Ratio (y) = 0.21435 0.35468
# Poissons Ratio (z) = 0.47580 0.77824
#
# Static dielectric constant tensor:
#      x y z
#    x 3.682680 0.000000 0.000000 
#    y 0.000000 3.494550 0.000000 
#    z 0.000000 0.000000 3.418870 
# 
# 
# High freq. dielectric constant tensor:
#      x y z
#    x 1.762190 0.000000 0.000000 
#    y 0.000000 1.745290 0.000000 
#    z 0.000000 0.000000 1.740590 
# 
# From -- ./inp_files/6872.got.cif
#   From: 2010.03.12/outbox.cif.g09.slc.cpg/sg40_4_cif.got.tgz:6872.got - 2010.04.14 01:38:03.
