data_PCOD8184462
_publ_section_title
;
Structure prediction by ZEFSAII (Michael W. Deem and Ramdas Pophale) SiO2 
 PCOD8184462
Probable space group: A M A 2
;
_chemical_formula_sum "Si O2"
_cell_formula_units_Z 52
_cell_length_a 15.054981
_cell_length_b 21.650184
_cell_length_c 7.708116
_cell_angle_alpha 90.000000
_cell_angle_beta 90.000000
_cell_angle_gamma 90.000000
_cell_volume 2512.407292
_symmetry_space_group_name_H-M "A M A 2"
_symmetry_group_IT_number 40
_symmetry_cell_setting 'orthorhombic'
loop_
_space_group_symop_operation_xyz
x,y,z
-x,-y,z
1/2-x,y,z
1/2+x,-y,z
x,1/2+y,1/2+z
-x,1/2-y,1/2+z
1/2-x,1/2+y,1/2+z
1/2+x,1/2-y,1/2+z
loop_
_atom_site_type_symbol
_atom_site_label
_atom_site_fract_x
_atom_site_fract_y
_atom_site_fract_z
Si Si1 0.750000 0.320665 0.750000
Si Si2 0.893522 0.735176 0.741156
Si Si3 0.591332 0.739561 0.142636
Si Si4 0.647936 0.607414 0.130903
Si Si5 0.901038 0.017705 0.933371
Si Si6 0.850544 0.596722 0.744599
Si Si7 0.750000 0.329327 0.128803
Si Si8 0.250000 0.080891 0.944771
O O1 0.662744 0.277992 0.750603
O O2 0.750000 0.368779 0.594996
O O3 0.750000 0.356692 0.933727
O O4 0.854030 0.668602 0.694293
O O5 0.838012 0.788050 0.647279
O O6 0.994508 0.734741 0.680062
O O7 0.883958 0.748269 0.943399
O O8 0.593880 0.667336 0.195268
O O9 0.750000 0.627591 0.107167
O O10 0.640235 0.554369 0.272191
O O11 0.613099 0.585402 0.940767
O O12 0.839596 0.958475 0.964817
O O13 0.908489 0.057899 0.108583
O O14 0.000000 0.000000 0.879260
O O15 0.750000 0.572836 0.725234
O O16 0.750000 0.386913 0.257751
#
# Coordination Sequence:
#
# PCOD8184462 Si02
#       8
#     4   8   8   8   8   8   4   4
#     4  12  26  43  67  99 139 186 216 279 352 402
#     4  11  23  41  67 104 142 173 222 284 342 409
#     4  11  23  41  67 104 142 173 222 284 342 409
#     4  10  22  43  70  98 128 175 230 280 329 391
#     4  12  28  46  72  96 134 186 227 281 327 404
#     4  10  22  43  70  98 128 175 230 280 329 391
#     4  12  26  43  67  99 139 186 216 279 352 402
#     4  12  28  50  62  98 146 176 232 276 340 414
#
# _framework density 20.697281
#
# number of rings (size 3 to 8) (size 9 to 14) (size 15 to 20)
#    0.000    0.923    4.615    0.923    8.615    1.846 
#    0.000    0.000    0.000    0.000    0.000    0.000 
#    0.000    0.000    0.000    0.000    0.000    0.000 
#
# Total GULP energy -322532.966454 kJ/mol
# GULP energy per Si atom -12405.114094 kJ/mol
# Density = 2.065017 g / cm^3
# Si number density = 20.697281 Si / 1000 Ang^3
#
#
#
# Elastic Constant Matrix: (Units=GPa)
#
#
# Indices 1 2 3 4 5 6 
#
# 1 108.1881 17.4188 12.1786 0.0000 0.0000 0.0000
# 2 17.4188 73.7661 44.9481 0.0000 0.0000 0.0000
# 3 12.1786 44.9481 113.3769 0.0000 0.0000 0.0000
# 4 0.0000 0.0000 0.0000 26.1361 0.0000 0.0000
# 5 0.0000 0.0000 0.0000 0.0000 24.4463 0.0000
# 6 0.0000 0.0000 0.0000 0.0000 0.0000 20.3346
#
#
#
# Elastic Compliance Matrix: (Units=1/GPa)
#
#
# Indices 1 2 3 4 5 6 
#
# 1 0.009611 -0.002163 -0.000175 0.000000 0.000000 0.000000
# 2 -0.002163 0.018361 -0.007047 0.000000 0.000000 0.000000
# 3 -0.000175 -0.007047 0.011633 0.000000 0.000000 0.000000
# 4 0.000000 0.000000 0.000000 0.038261 0.000000 0.000000
# 5 0.000000 0.000000 0.000000 0.000000 0.040906 0.000000
# 6 0.000000 0.000000 0.000000 0.000000 0.000000 0.049177
#
#
# Mechanical properties :
#
#
# Convention : Reuss Voigt Hill
#
# Bulk Modulus (GPa) = 47.99543 49.38026 48.68784
# Shear Modulus (GPa) = 25.81793 28.90243 27.36018
#
# Velocity S-wave (km/s) = 3.53570 3.74095 3.63977
# Velocity P-wave (km/s) = 6.31726 6.52455 6.42174
#
# Compressibility (1/GPa) = 0.02083532
#
# Stress axis : x y z
#
# Youngs Moduli (GPa) = 104.04644 54.46329 85.96497
#
# Poissons Ratio (x) = 0.11780 0.01504
# Poissons Ratio (y) = 0.22505 0.60578
# Poissons Ratio (z) = 0.01820 0.38379
#
# Static dielectric constant tensor:
#      x y z
#    x 3.644640 0.000000 0.000000 
#    y 0.000000 4.003210 0.000000 
#    z 0.000000 0.000000 3.873900 
# 
# 
# High freq. dielectric constant tensor:
#      x y z
#    x 1.810650 0.000000 0.000000 
#    y 0.000000 1.802240 0.000000 
#    z 0.000000 0.000000 1.825650 
# 
# From -- ./inp_files/6692.got.cif
#   From: 2010.03.12/outbox.cif.g09.slc.cpg/sg40_4_cif.got.tgz:6692.got - 2010.04.14 01:38:03.
