data_PCOD8184446
_publ_section_title
;
Structure prediction by ZEFSAII (Michael W. Deem and Ramdas Pophale) SiO2 
 PCOD8184446
Probable space group: A M A 2
;
_chemical_formula_sum "Si O2"
_cell_formula_units_Z 64
_cell_length_a 16.529933
_cell_length_b 15.045388
_cell_length_c 11.764321
_cell_angle_alpha 90.000000
_cell_angle_beta 90.000000
_cell_angle_gamma 90.000000
_cell_volume 2925.777875
_symmetry_space_group_name_H-M "A M A 2"
_symmetry_group_IT_number 40
_symmetry_cell_setting 'orthorhombic'
loop_
_space_group_symop_operation_xyz
x,y,z
-x,-y,z
1/2-x,y,z
1/2+x,-y,z
x,1/2+y,1/2+z
-x,1/2-y,1/2+z
1/2-x,1/2+y,1/2+z
1/2+x,1/2-y,1/2+z
loop_
_atom_site_type_symbol
_atom_site_label
_atom_site_fract_x
_atom_site_fract_y
_atom_site_fract_z
Si Si1 0.344644 0.027769 0.028290
Si Si2 0.156578 0.331266 0.566805
Si Si3 0.156805 0.505865 0.068398
Si Si4 0.842814 0.829446 0.427985
Si Si5 0.072860 0.255611 0.770974
Si Si6 0.403143 0.680810 0.683581
Si Si7 0.156552 0.309098 0.997096
Si Si8 0.078446 0.551883 0.295872
O O1 0.250000 0.037270 0.059813
O O2 0.397361 0.094539 0.104216
O O3 0.380845 0.929394 0.052197
O O4 0.355568 0.052482 0.896161
O O5 0.250000 0.342646 0.538937
O O6 0.116029 0.261417 0.476994
O O7 0.145641 0.291613 0.692731
O O8 0.250000 0.524452 0.095896
O O9 0.145928 0.414423 0.001398
O O10 0.111215 0.498784 0.187555
O O11 0.118982 0.583523 0.988615
O O12 0.750000 0.826788 0.464803
O O13 0.847825 0.834723 0.293184
O O14 0.058335 0.151310 0.756126
O O15 0.993813 0.307579 0.728862
O O16 0.096014 0.274692 0.900591
O O17 0.370851 0.766593 0.616316
O O18 0.250000 0.282573 0.972137
O O19 0.000000 0.500000 0.341063
#
# Coordination Sequence:
#
# PCOD8184446 Si02
#       8
#     8   8   8   8   8   8   8   8
#     4  11  26  46  72 101 138 187 237 286 349 425
#     4  10  24  44  71 101 136 183 237 285 344 421
#     4  10  23  44  71 100 133 179 233 285 343 415
#     4  10  22  42  68  98 134 176 225 284 341 406
#     4  12  27  44  70  99 141 186 231 291 353 421
#     4  12  27  43  69 100 141 180 228 292 350 415
#     4  11  25  46  72 103 139 184 235 284 348 425
#     4  12  26  44  69 101 141 182 231 291 353 422
#
# _framework density 21.874524000000001
#
# number of rings (size 3 to 8) (size 9 to 14) (size 15 to 20)
#    0.000    1.000    2.500    2.625    8.750    2.000 
#    0.000    0.000    0.000    0.000    0.000    0.000 
#    0.000    0.000    0.000    0.000    0.000    0.000 
#
# Total GULP energy -396908.548857 kJ/mol
# GULP energy per Si atom -12403.392152 kJ/mol
# Density = 2.182474 g / cm^3
# Si number density = 21.874524 Si / 1000 Ang^3
#
#
#
# Elastic Constant Matrix: (Units=GPa)
#
#
# Indices 1 2 3 4 5 6 
#
# 1 73.6789 32.7938 23.0229 0.0000 0.0000 0.0000
# 2 32.7938 149.8353 39.4057 0.0000 0.0000 0.0000
# 3 23.0229 39.4057 120.1895 0.0000 0.0000 0.0000
# 4 0.0000 0.0000 0.0000 33.6338 0.0000 0.0000
# 5 0.0000 0.0000 0.0000 0.0000 37.1728 0.0000
# 6 0.0000 0.0000 0.0000 0.0000 0.0000 22.0053
#
#
#
# Elastic Compliance Matrix: (Units=1/GPa)
#
#
# Indices 1 2 3 4 5 6 
#
# 1 0.015477 -0.002854 -0.002029 0.000000 0.000000 0.000000
# 2 -0.002854 0.007830 -0.002021 0.000000 0.000000 0.000000
# 3 -0.002029 -0.002021 0.009371 0.000000 0.000000 0.000000
# 4 0.000000 0.000000 0.000000 0.029732 0.000000 0.000000
# 5 0.000000 0.000000 0.000000 0.000000 0.026901 0.000000
# 6 0.000000 0.000000 0.000000 0.000000 0.000000 0.045444
#
#
# Mechanical properties :
#
#
# Convention : Reuss Voigt Hill
#
# Bulk Modulus (GPa) = 52.99011 59.34984 56.16997
# Shear Modulus (GPa) = 32.28896 35.12778 33.70837
#
# Velocity S-wave (km/s) = 3.84617 4.01169 3.92980
# Velocity P-wave (km/s) = 6.63334 6.97488 6.80626
#
# Compressibility (1/GPa) = 0.01887145
#
# Stress axis : x y z
#
# Youngs Moduli (GPa) = 64.61377 127.71475 106.70865
#
# Poissons Ratio (x) = 0.36446 0.21651
# Poissons Ratio (y) = 0.18439 0.21561
# Poissons Ratio (z) = 0.13110 0.25805
#
# Static dielectric constant tensor:
#      x y z
#    x 3.719070 0.000000 0.000000 
#    y 0.000000 4.248320 0.000000 
#    z 0.000000 0.000000 3.886080 
# 
# 
# High freq. dielectric constant tensor:
#      x y z
#    x 1.846850 0.000000 0.000000 
#    y 0.000000 1.878580 0.000000 
#    z 0.000000 0.000000 1.865090 
# 
# From -- ./inp_files/13117.got.cif
#   From: 2010.03.12/outbox.cif.g09.slc.cpg/sg40_7_cif.got.tgz:13117.got - 2010.04.14 01:38:03.
