data_PCOD8184617
_publ_section_title
;
Structure prediction by ZEFSAII (Michael W. Deem and Ramdas Pophale) SiO2 
 PCOD8184617
Probable space group: A M A 2
;
_chemical_formula_sum "Si O2"
_cell_formula_units_Z 64
_cell_length_a 19.282305
_cell_length_b 9.439185
_cell_length_c 19.130324
_cell_angle_alpha 90.000000
_cell_angle_beta 90.000000
_cell_angle_gamma 90.000000
_cell_volume 3481.895811
_symmetry_space_group_name_H-M "A M A 2"
_symmetry_group_IT_number 40
_symmetry_cell_setting 'orthorhombic'
loop_
_space_group_symop_operation_xyz
x,y,z
-x,-y,z
1/2-x,y,z
1/2+x,-y,z
x,1/2+y,1/2+z
-x,1/2-y,1/2+z
1/2-x,1/2+y,1/2+z
1/2+x,1/2-y,1/2+z
loop_
_atom_site_type_symbol
_atom_site_label
_atom_site_fract_x
_atom_site_fract_y
_atom_site_fract_z
Si Si1 0.826137 0.250853 0.108710
Si Si2 0.974503 0.659481 0.076827
Si Si3 0.523905 0.655037 0.445245
Si Si4 0.043283 0.862290 0.342887
Si Si5 0.674877 0.023820 0.412087
Si Si6 0.457800 0.858931 0.178188
Si Si7 0.172193 0.437471 0.075827
Si Si8 0.174691 0.787178 0.943795
O O1 0.750000 0.213355 0.138964
O O2 0.880006 0.144595 0.146367
O O3 0.841901 0.418565 0.120230
O O4 0.826234 0.233391 0.026268
O O5 0.891137 0.671367 0.088665
O O6 0.000000 0.500000 0.065103
O O7 0.003907 0.721758 0.148305
O O8 0.005954 0.746469 0.011579
O O9 0.500000 0.500000 0.463967
O O10 0.488189 0.721242 0.376966
O O11 0.605079 0.627889 0.426747
O O12 0.120871 0.882040 0.370112
O O13 0.044995 0.842225 0.260624
O O14 0.000000 0.000000 0.365998
O O15 0.750000 0.078458 0.387077
O O16 0.666855 0.036956 0.494176
O O17 0.667489 0.856478 0.398419
O O18 0.500000 0.000000 0.155840
O O19 0.250000 0.378051 0.094537
O O20 0.250000 0.858447 0.923860
#
# Coordination Sequence:
#
# PCOD8184617 Si02
#       8
#     8   8   8   8   8   8   8   8
#     4   9  17  33  56  84 113 149 188 230 288 346
#     4  12  20  36  63  84 109 156 191 234 290 342
#     4  12  23  36  59  89 117 147 190 243 287 342
#     4  11  22  38  57  81 115 155 197 235 283 339
#     4   9  16  31  58  88 112 142 193 239 282 342
#     4  11  24  37  54  86 120 150 194 243 278 338
#     4   9  17  31  57  90 111 139 193 242 282 342
#     4   9  17  32  58  86 113 146 186 234 292 347
#
# _framework density 18.380790999999999
#
# number of rings (size 3 to 8) (size 9 to 14) (size 15 to 20)
#    0.000    1.750    5.000    3.000    0.000    1.000 
#    0.000    1.875    0.000    1.500    0.000    0.000 
#    0.000    0.000    0.000    0.000    0.000    0.000 
#
# Total GULP energy -396417.974846 kJ/mol
# GULP energy per Si atom -12388.061714 kJ/mol
# Density = 1.833896 g / cm^3
# Si number density = 18.380791 Si / 1000 Ang^3
#
#
#
# Elastic Constant Matrix: (Units=GPa)
#
#
# Indices 1 2 3 4 5 6 
#
# 1 192.7404 54.3857 38.6031 0.0000 0.0000 0.0000
# 2 54.3857 86.9654 34.2854 0.0000 0.0000 0.0000
# 3 38.6031 34.2854 62.4659 0.0000 0.0000 0.0000
# 4 0.0000 0.0000 0.0000 22.0363 0.0000 0.0000
# 5 0.0000 0.0000 0.0000 0.0000 11.8719 0.0000
# 6 0.0000 0.0000 0.0000 0.0000 0.0000 22.9363
#
#
#
# Elastic Compliance Matrix: (Units=1/GPa)
#
#
# Indices 1 2 3 4 5 6 
#
# 1 0.006548 -0.003190 -0.002296 0.000000 0.000000 0.000000
# 2 -0.003190 0.016228 -0.006936 0.000000 0.000000 0.000000
# 3 -0.002296 -0.006936 0.021234 0.000000 0.000000 0.000000
# 4 0.000000 0.000000 0.000000 0.045380 0.000000 0.000000
# 5 0.000000 0.000000 0.000000 0.000000 0.084233 0.000000
# 6 0.000000 0.000000 0.000000 0.000000 0.000000 0.043599
#
#
# Mechanical properties :
#
#
# Convention : Reuss Voigt Hill
#
# Bulk Modulus (GPa) = 52.17137 66.30224 59.23681
# Shear Modulus (GPa) = 20.12441 25.69539 22.90990
#
# Velocity S-wave (km/s) = 3.31246 3.74297 3.53428
# Velocity P-wave (km/s) = 6.56316 7.40470 6.99659
#
# Compressibility (1/GPa) = 0.01916760
#
# Stress axis : x y z
#
# Youngs Moduli (GPa) = 152.71206 61.62157 47.09360
#
# Poissons Ratio (x) = 0.19657 0.10812
# Poissons Ratio (y) = 0.48715 0.32663
# Poissons Ratio (z) = 0.35061 0.42739
#
# Static dielectric constant tensor:
#      x y z
#    x 5.545890 0.000000 0.000000 
#    y 0.000000 3.383040 0.000000 
#    z 0.000000 0.000000 3.070050 
# 
# 
# High freq. dielectric constant tensor:
#      x y z
#    x 1.743270 0.000000 0.000000 
#    y 0.000000 1.680530 0.000000 
#    z 0.000000 0.000000 1.680230 
# 
# From -- ./inp_files/21362.got.cif
#   From: 2010.03.12/outbox.cif.g09.slc.cpg/sg40_11_cif.got.tgz:21362.got - 2010.04.14 01:38:03.
