data_PCOD8184216
_publ_section_title
;
Structure prediction by ZEFSAII (Michael W. Deem and Ramdas Pophale) SiO2 
 PCOD8184216
Probable space group: A M A 2
;
_chemical_formula_sum "Si O2"
_cell_formula_units_Z 48
_cell_length_a 14.284836
_cell_length_b 26.805873
_cell_length_c 5.130047
_cell_angle_alpha 90.000000
_cell_angle_beta 90.000000
_cell_angle_gamma 90.000000
_cell_volume 1964.384770
_symmetry_space_group_name_H-M "A M A 2"
_symmetry_group_IT_number 40
_symmetry_cell_setting 'orthorhombic'
loop_
_space_group_symop_operation_xyz
x,y,z
-x,-y,z
1/2-x,y,z
1/2+x,-y,z
x,1/2+y,1/2+z
-x,1/2-y,1/2+z
1/2-x,1/2+y,1/2+z
1/2+x,1/2-y,1/2+z
loop_
_atom_site_type_symbol
_atom_site_label
_atom_site_fract_x
_atom_site_fract_y
_atom_site_fract_z
Si Si1 0.955772 0.795768 0.055270
Si Si2 0.852057 0.113290 0.780685
Si Si3 0.648126 0.728009 0.398288
Si Si4 0.037067 0.636471 0.049984
Si Si5 0.640898 0.519104 0.586733
Si Si6 0.639122 0.464245 0.086971
O O1 0.873885 0.755413 0.120161
O O2 0.952707 0.837794 0.273913
O O3 0.942869 0.823319 0.779504
O O4 0.055173 0.764374 0.077915
O O5 0.750000 0.096225 0.662027
O O6 0.842777 0.169185 0.876875
O O7 0.878555 0.077615 0.025126
O O8 0.933958 0.111363 0.567285
O O9 0.750000 0.747836 0.503650
O O10 0.113522 0.593395 0.057387
O O11 0.750000 0.508269 0.599194
O O12 0.596574 0.499630 0.857145
O O13 0.596627 0.486009 0.354007
O O14 0.750000 0.467883 0.087468
#
# Coordination Sequence:
#
# PCOD8184216 Si02
#       6
#     8   8   8   8   8   8
#     4  11  24  43  64  96 133 165 221 275 314 393
#     4   9  20  39  62  90 123 162 210 261 319 381
#     4  10  22  43  70  96 131 176 215 269 339 391
#     4  11  24  41  64  93 130 171 211 268 324 378
#     4   9  19  37  61  88 121 161 208 261 311 374
#     4  10  21  39  62  90 126 166 208 257 316 377
#
# _framework density 24.435133
#
# number of rings (size 3 to 8) (size 9 to 14) (size 15 to 20)
#    0.000    2.000    0.000    3.000    0.000    5.333 
#    0.000   14.167    0.000    0.000    0.000    0.000 
#    0.000    0.000    0.000    0.000    0.000    0.000 
#
# Total GULP energy -297327.035489 kJ/mol
# GULP energy per Si atom -12388.626479 kJ/mol
# Density = 2.437952 g / cm^3
# Si number density = 24.435133 Si / 1000 Ang^3
#
#
#
# Elastic Constant Matrix: (Units=GPa)
#
#
# Indices 1 2 3 4 5 6 
#
# 1 82.6286 34.0104 9.4769 0.0000 0.0000 0.0000
# 2 34.0104 122.8768 23.8067 0.0000 0.0000 0.0000
# 3 9.4769 23.8067 75.6681 0.0000 0.0000 0.0000
# 4 0.0000 0.0000 0.0000 -20.5078 0.0000 0.0000
# 5 0.0000 0.0000 0.0000 0.0000 20.3002 0.0000
# 6 0.0000 0.0000 0.0000 0.0000 0.0000 34.5230
#
#
#
# Elastic Compliance Matrix: (Units=1/GPa)
#
#
# Indices 1 2 3 4 5 6 
#
# 1 0.013680 -0.003679 -0.000556 0.000000 0.000000 0.000000
# 2 -0.003679 0.009656 -0.002577 0.000000 0.000000 0.000000
# 3 -0.000556 -0.002577 0.014096 0.000000 0.000000 0.000000
# 4 0.000000 0.000000 0.000000 -0.048762 0.000000 0.000000
# 5 0.000000 0.000000 0.000000 0.000000 0.049261 0.000000
# 6 0.000000 0.000000 0.000000 0.000000 0.000000 0.028966
#
#
# Mechanical properties :
#
#
# Convention : Reuss Voigt Hill
#
# Bulk Modulus (GPa) = 42.00203 46.19573 44.09888
# Shear Modulus (GPa) = 56.52472 21.12172 38.82322
#
# Velocity S-wave (km/s) = 4.81485 2.94326 3.99033
# Velocity P-wave (km/s) = 6.93807 5.52239 6.27032
#
# Compressibility (1/GPa) = 0.02380837
#
# Stress axis : x y z
#
# Youngs Moduli (GPa) = 73.09767 103.56487 70.94180
#
# Poissons Ratio (x) = 0.38099 0.03944
# Poissons Ratio (y) = 0.26891 0.18283
# Poissons Ratio (z) = 0.04064 0.26690
#
# Static dielectric constant tensor:
#      x y z
#    x 5.096170 0.000000 0.000000 
#    y 0.000000 4.511720 0.000000 
#    z 0.000000 0.000000 4.478520 
# 
# 
# High freq. dielectric constant tensor:
#      x y z
#    x 1.968460 0.000000 0.000000 
#    y 0.000000 1.988780 0.000000 
#    z 0.000000 0.000000 1.954830 
# 
# From -- ./inp_files/1332.got.cif
#   From: 2010.03.12/outbox.cif.g09.slc.cpg/sg40_1_cif.got.tgz:1332.got - 2010.04.14 01:38:03.
