data_PCOD8184482
_publ_section_title
;
Structure prediction by ZEFSAII (Michael W. Deem and Ramdas Pophale) SiO2 
 PCOD8184482
Probable space group: A M A 2
;
_chemical_formula_sum "Si O2"
_cell_formula_units_Z 64
_cell_length_a 8.472937
_cell_length_b 15.400521
_cell_length_c 23.607150
_cell_angle_alpha 90.000000
_cell_angle_beta 90.000000
_cell_angle_gamma 90.000000
_cell_volume 3080.441390
_symmetry_space_group_name_H-M "A M A 2"
_symmetry_group_IT_number 40
_symmetry_cell_setting 'orthorhombic'
loop_
_space_group_symop_operation_xyz
x,y,z
-x,-y,z
1/2-x,y,z
1/2+x,-y,z
x,1/2+y,1/2+z
-x,1/2-y,1/2+z
1/2-x,1/2+y,1/2+z
1/2+x,1/2-y,1/2+z
loop_
_atom_site_type_symbol
_atom_site_label
_atom_site_fract_x
_atom_site_fract_y
_atom_site_fract_z
Si Si1 0.565570 0.091397 0.636190
Si Si2 0.064157 0.410716 0.652859
Si Si3 0.433993 0.751465 0.449301
Si Si4 0.433501 0.753753 0.071359
Si Si5 0.565458 0.406427 0.881185
Si Si6 0.436269 0.091800 0.875329
Si Si7 0.565588 0.854387 0.751399
Si Si8 0.935332 0.333343 0.761944
O O1 0.750000 0.099921 0.623019
O O2 0.470309 0.165321 0.603774
O O3 0.535338 0.097977 0.703331
O O4 0.500000 0.000000 0.613463
O O5 0.250000 0.413785 0.663682
O O6 0.016952 0.333447 0.610985
O O7 0.000000 0.500000 0.625490
O O8 0.972115 0.400486 0.712062
O O9 0.250000 0.761946 0.436979
O O10 0.463375 0.737442 0.515266
O O11 0.519187 0.838993 0.429825
O O12 0.503374 0.668951 0.414793
O O13 0.250000 0.756634 0.055353
O O14 0.500000 0.500000 0.897770
O O15 0.750000 0.415039 0.877891
O O16 0.500908 0.374276 0.820438
O O17 0.250000 0.090911 0.878841
O O18 0.493907 0.107662 0.811178
O O19 0.500000 0.000000 0.897888
O O20 0.750000 0.872030 0.740662
O O21 0.535958 0.752121 0.749409
O O22 0.750000 0.311116 0.764579
#
# Coordination Sequence:
#
# PCOD8184482 Si02
#       8
#     8   8   8   8   8   8   8   8
#     4  12  25  42  66  96 129 167 209 259 312 377
#     4  11  24  41  65  93 129 167 208 259 313 375
#     4  11  24  44  66  91 123 165 212 264 315 369
#     4  11  25  45  66  92 124 165 212 264 316 371
#     4  11  24  41  64  95 128 166 208 257 312 374
#     4  10  23  40  63  93 127 166 207 255 310 368
#     4  11  21  38  63  94 131 169 206 255 313 374
#     4  11  22  37  63  96 129 167 208 254 314 377
#
# _framework density 20.776243999999998
#
# number of rings (size 3 to 8) (size 9 to 14) (size 15 to 20)
#    0.000    1.000    2.500    4.125    0.000    8.000 
#    0.000    5.000    0.000    0.000    0.000    0.000 
#    0.000    0.000    0.000    0.000    0.000    0.000 
#
# Total GULP energy -397045.125750 kJ/mol
# GULP energy per Si atom -12407.660180 kJ/mol
# Density = 2.072896 g / cm^3
# Si number density = 20.776244 Si / 1000 Ang^3
#
#
#
# Elastic Constant Matrix: (Units=GPa)
#
#
# Indices 1 2 3 4 5 6 
#
# 1 44.9099 14.9558 11.0395 0.0000 0.0000 0.0000
# 2 14.9558 147.9458 34.0898 0.0000 0.0000 0.0000
# 3 11.0395 34.0898 98.7615 0.0000 0.0000 0.0000
# 4 0.0000 0.0000 0.0000 7.3847 0.0000 0.0000
# 5 0.0000 0.0000 0.0000 0.0000 29.2501 0.0000
# 6 0.0000 0.0000 0.0000 0.0000 0.0000 34.1778
#
#
#
# Elastic Compliance Matrix: (Units=1/GPa)
#
#
# Indices 1 2 3 4 5 6 
#
# 1 0.023384 -0.001914 -0.001953 0.000000 0.000000 0.000000
# 2 -0.001914 0.007500 -0.002375 0.000000 0.000000 0.000000
# 3 -0.001953 -0.002375 0.011163 0.000000 0.000000 0.000000
# 4 0.000000 0.000000 0.000000 0.135416 0.000000 0.000000
# 5 0.000000 0.000000 0.000000 0.000000 0.034188 0.000000
# 6 0.000000 0.000000 0.000000 0.000000 0.000000 0.029259
#
#
# Mechanical properties :
#
#
# Convention : Reuss Voigt Hill
#
# Bulk Modulus (GPa) = 33.82521 45.75418 39.78970
# Shear Modulus (GPa) = 18.99345 29.59799 24.29572
#
# Velocity S-wave (km/s) = 3.02684 3.77849 3.42336
# Velocity P-wave (km/s) = 5.34151 6.41141 5.90076
#
# Compressibility (1/GPa) = 0.02956374
#
# Stress axis : x y z
#
# Youngs Moduli (GPa) = 42.76376 133.33490 89.57786
#
# Poissons Ratio (x) = 0.25518 0.17497
# Poissons Ratio (y) = 0.08184 0.21273
# Poissons Ratio (z) = 0.08353 0.31665
#
# Static dielectric constant tensor:
#      x y z
#    x 3.641950 0.000000 0.000000 
#    y 0.000000 4.040260 0.000000 
#    z 0.000000 0.000000 3.762740 
# 
# 
# High freq. dielectric constant tensor:
#      x y z
#    x 1.816210 0.000000 0.000000 
#    y 0.000000 1.828960 0.000000 
#    z 0.000000 0.000000 1.808900 
# 
# From -- ./inp_files/24227.got.cif
#   From: 2010.03.12/outbox.cif.g09.slc.cpg/sg40_13_cif.got.tgz:24227.got - 2010.04.14 01:38:03.
