data_PCOD8184927
_publ_section_title
;
Structure prediction by ZEFSAII (Michael W. Deem and Ramdas Pophale) SiO2 
 PCOD8184927
Probable space group: A B A 2
;
_chemical_formula_sum "Si O2"
_cell_formula_units_Z 56
_cell_length_a 18.972011
_cell_length_b 9.143587
_cell_length_c 16.271720
_cell_angle_alpha 90.000000
_cell_angle_beta 90.000000
_cell_angle_gamma 90.000000
_cell_volume 2822.691605
_symmetry_space_group_name_H-M "A B A 2"
_symmetry_group_IT_number 41
_symmetry_cell_setting 'orthorhombic'
loop_
_space_group_symop_operation_xyz
x,y,z
-x,-y,z
1/2-x,y,1/2+z
1/2+x,-y,1/2+z
x,1/2+y,1/2+z
-x,1/2-y,1/2+z
1/2-x,1/2+y,z
1/2+x,1/2-y,z
loop_
_atom_site_type_symbol
_atom_site_label
_atom_site_fract_x
_atom_site_fract_y
_atom_site_fract_z
Si Si1 0.570752 0.073712 0.532040
Si Si2 0.393376 0.677661 0.918709
Si Si3 0.214777 0.324686 0.814752
Si Si4 0.224652 0.231591 0.041421
Si Si5 0.298205 0.463082 0.136681
Si Si6 0.316447 0.622246 0.393358
Si Si7 0.969217 0.346775 0.945612
O O1 0.622636 0.062936 0.607915
O O2 0.558800 0.246243 0.519317
O O3 0.500000 0.000000 0.564219
O O4 0.595823 0.992953 0.446099
O O5 0.346610 0.703875 0.836369
O O6 0.467866 0.756792 0.901559
O O7 0.350686 0.745687 0.996242
O O8 0.208433 0.400341 0.727191
O O9 0.210249 0.456588 0.880186
O O10 0.287973 0.236009 0.823953
O O11 0.244668 0.389917 0.072829
O O12 0.220041 0.133616 0.124966
O O13 0.285536 0.172549 0.980722
O O14 0.401739 0.624091 0.386919
O O15 0.000000 0.500000 0.978762
#
# Coordination Sequence:
#
# PCOD8184927 Si02
#       7
#     8   8   8   8   8   8   8
#     4   9  20  38  60  86 113 159 194 245 296 355
#     4   9  20  37  59  86 117 149 203 238 289 353
#     4  11  23  37  57  90 121 154 192 247 297 353
#     4  10  20  36  62  84 113 155 198 241 287 350
#     4  11  21  37  58  88 121 152 191 246 302 348
#     4  11  22  38  61  86 115 155 202 243 286 352
#     4  11  20  36  62  89 112 150 207 247 281 344
#
# _framework density 19.839217999999999
#
# number of rings (size 3 to 8) (size 9 to 14) (size 15 to 20)
#    0.000    1.714    2.857    2.571    4.000    0.000 
#    2.571    0.000    0.000    2.571    0.000    0.000 
#    0.000    0.000    0.000    0.000    0.000    0.000 
#
# Total GULP energy -346904.151059 kJ/mol
# GULP energy per Si atom -12389.433966 kJ/mol
# Density = 1.979406 g / cm^3
# Si number density = 19.839218 Si / 1000 Ang^3
#
#
#
# Elastic Constant Matrix: (Units=GPa)
#
#
# Indices 1 2 3 4 5 6 
#
# 1 121.3090 30.3932 14.0930 0.0000 0.0000 0.0000
# 2 30.3932 87.2810 6.3759 0.0000 0.0000 0.0000
# 3 14.0930 6.3759 62.6616 0.0000 0.0000 0.0000
# 4 0.0000 0.0000 0.0000 26.4270 0.0000 0.0000
# 5 0.0000 0.0000 0.0000 0.0000 17.6365 0.0000
# 6 0.0000 0.0000 0.0000 0.0000 0.0000 32.3518
#
#
#
# Elastic Compliance Matrix: (Units=1/GPa)
#
#
# Indices 1 2 3 4 5 6 
#
# 1 0.009220 -0.003082 -0.001760 0.000000 0.000000 0.000000
# 2 -0.003082 0.012573 -0.000586 0.000000 0.000000 0.000000
# 3 -0.001760 -0.000586 0.016414 0.000000 0.000000 0.000000
# 4 0.000000 0.000000 0.000000 0.037840 0.000000 0.000000
# 5 0.000000 0.000000 0.000000 0.000000 0.056701 0.000000
# 6 0.000000 0.000000 0.000000 0.000000 0.000000 0.030910
#
#
# Mechanical properties :
#
#
# Convention : Reuss Voigt Hill
#
# Bulk Modulus (GPa) = 36.56170 41.44177 39.00174
# Shear Modulus (GPa) = 27.22837 29.97570 28.60203
#
# Velocity S-wave (km/s) = 3.70868 3.89129 3.80108
# Velocity P-wave (km/s) = 6.06697 6.41277 6.24226
#
# Compressibility (1/GPa) = 0.02735102
#
# Stress axis : x y z
#
# Youngs Moduli (GPa) = 108.45895 79.53350 60.92277
#
# Poissons Ratio (x) = 0.24513 0.10723
# Poissons Ratio (y) = 0.33428 0.03571
# Poissons Ratio (z) = 0.19089 0.04662
#
# Static dielectric constant tensor:
#      x y z
#    x 3.901330 0.000000 0.000000 
#    y 0.000000 3.933370 0.000000 
#    z 0.000000 0.000000 3.144640 
# 
# 
# High freq. dielectric constant tensor:
#      x y z
#    x 1.785500 0.000000 0.000000 
#    y 0.000000 1.793060 0.000000 
#    z 0.000000 0.000000 1.722670 
# 
# From -- ./inp_files/10657.got.cif
#   From: 2010.03.12/outbox.cif.g09.slc.cpg/sg41_6_cif.got.tgz:10657.got - 2010.04.14 01:55:53.
