data_PCOD8184440
_publ_section_title
;
Structure prediction by ZEFSAII (Michael W. Deem and Ramdas Pophale) SiO2 
 PCOD8184440
Probable space group: A M A 2
;
_chemical_formula_sum "Si O2"
_cell_formula_units_Z 64
_cell_length_a 15.292038
_cell_length_b 11.841244
_cell_length_c 16.890034
_cell_angle_alpha 90.000000
_cell_angle_beta 90.000000
_cell_angle_gamma 90.000000
_cell_volume 3058.392518
_symmetry_space_group_name_H-M "A M A 2"
_symmetry_group_IT_number 40
_symmetry_cell_setting 'orthorhombic'
loop_
_space_group_symop_operation_xyz
x,y,z
-x,-y,z
1/2-x,y,z
1/2+x,-y,z
x,1/2+y,1/2+z
-x,1/2-y,1/2+z
1/2-x,1/2+y,1/2+z
1/2+x,1/2-y,1/2+z
loop_
_atom_site_type_symbol
_atom_site_label
_atom_site_fract_x
_atom_site_fract_y
_atom_site_fract_z
Si Si1 0.400912 0.004257 0.194090
Si Si2 0.149144 0.779687 0.464645
Si Si3 0.489873 0.125716 0.703827
Si Si4 0.488759 0.625138 0.383305
Si Si5 0.149263 0.002679 0.371986
Si Si6 0.849524 0.754880 0.437133
Si Si7 0.847495 0.726161 0.619403
Si Si8 0.847621 0.752262 0.147255
O O1 0.402239 0.007311 0.289512
O O2 0.354967 0.113138 0.156496
O O3 0.500000 0.000000 0.164048
O O4 0.351737 0.894919 0.161298
O O5 0.250000 0.751030 0.444197
O O6 0.086855 0.681594 0.434303
O O7 0.135436 0.788506 0.558148
O O8 0.118570 0.896276 0.424140
O O9 0.455632 0.121561 0.793319
O O10 0.417158 0.188110 0.653582
O O11 0.582204 0.190685 0.702337
O O12 0.500000 0.000000 0.669167
O O13 0.500000 0.500000 0.418011
O O14 0.582207 0.687090 0.383983
O O15 0.250000 0.991823 0.348903
O O16 0.131352 0.112447 0.425429
O O17 0.750000 0.726339 0.410786
O O18 0.866665 0.716480 0.526615
O O19 0.750000 0.775140 0.633043
O O20 0.750000 0.716685 0.174163
#
# Coordination Sequence:
#
# PCOD8184440 Si02
#       8
#     8   8   8   8   8   8   8   8
#     4  12  24  40  66 101 131 167 217 269 323 383
#     4  10  24  42  66  95 127 167 213 264 321 378
#     4  11  25  43  63  97 127 169 215 257 317 387
#     4  11  25  41  63  91 129 167 213 257 311 385
#     4  10  22  42  66  98 128 162 217 268 318 385
#     4  10  24  42  66  95 127 167 213 264 321 378
#     4  11  24  43  67  95 130 170 213 266 323 382
#     4  11  24  43  67  95 130 170 213 266 323 382
#
# _framework density 20.926024999999999
#
# number of rings (size 3 to 8) (size 9 to 14) (size 15 to 20)
#    0.000    1.250    1.250    3.375    5.250    4.000 
#    0.000    2.500    0.000    0.000    0.000    0.000 
#    0.000    0.000    0.000    0.000    0.000    0.000 
#
# Total GULP energy -396945.156118 kJ/mol
# GULP energy per Si atom -12404.536129 kJ/mol
# Density = 2.087840 g / cm^3
# Si number density = 20.926025 Si / 1000 Ang^3
#
#
#
# Elastic Constant Matrix: (Units=GPa)
#
#
# Indices 1 2 3 4 5 6 
#
# 1 105.5295 35.6102 15.5658 0.0000 0.0000 0.0000
# 2 35.6102 123.4724 17.5325 0.0000 0.0000 0.0000
# 3 15.5658 17.5325 70.0192 0.0000 0.0000 0.0000
# 4 0.0000 0.0000 0.0000 36.4504 0.0000 0.0000
# 5 0.0000 0.0000 0.0000 0.0000 44.9558 0.0000
# 6 0.0000 0.0000 0.0000 0.0000 0.0000 18.6032
#
#
#
# Elastic Compliance Matrix: (Units=1/GPa)
#
#
# Indices 1 2 3 4 5 6 
#
# 1 0.010681 -0.002844 -0.001662 0.000000 0.000000 0.000000
# 2 -0.002844 0.009155 -0.001660 0.000000 0.000000 0.000000
# 3 -0.001662 -0.001660 0.015067 0.000000 0.000000 0.000000
# 4 0.000000 0.000000 0.000000 0.027435 0.000000 0.000000
# 5 0.000000 0.000000 0.000000 0.000000 0.022244 0.000000
# 6 0.000000 0.000000 0.000000 0.000000 0.000000 0.053754
#
#
# Mechanical properties :
#
#
# Convention : Reuss Voigt Hill
#
# Bulk Modulus (GPa) = 44.30735 48.49315 46.40025
# Shear Modulus (GPa) = 31.60707 35.35606 33.48157
#
# Velocity S-wave (km/s) = 3.89063 4.11490 4.00434
# Velocity P-wave (km/s) = 6.43443 6.76760 6.60312
#
# Compressibility (1/GPa) = 0.02256962
#
# Stress axis : x y z
#
# Youngs Moduli (GPa) = 93.62379 109.22933 66.37025
#
# Poissons Ratio (x) = 0.31070 0.11032
# Poissons Ratio (y) = 0.26631 0.11018
# Poissons Ratio (z) = 0.15562 0.18133
#
# Static dielectric constant tensor:
#      x y z
#    x 3.869390 0.000000 0.000000 
#    y 0.000000 3.861370 0.000000 
#    z 0.000000 0.000000 3.688540 
# 
# 
# High freq. dielectric constant tensor:
#      x y z
#    x 1.832720 0.000000 0.000000 
#    y 0.000000 1.822100 0.000000 
#    z 0.000000 0.000000 1.823080 
# 
# From -- ./inp_files/20787.got.cif
#   From: 2010.03.12/outbox.cif.g09.slc.cpg/sg40_11_cif.got.tgz:20787.got - 2010.04.14 01:38:03.
