data_PCOD8184775
_publ_section_title
;
Structure prediction by ZEFSAII (Michael W. Deem and Ramdas Pophale) SiO2 
 PCOD8184775
Probable space group: A B A 2
;
_chemical_formula_sum "Si O2"
_cell_formula_units_Z 60
_cell_length_a 14.910376
_cell_length_b 16.519596
_cell_length_c 11.571972
_cell_angle_alpha 90.000000
_cell_angle_beta 90.000000
_cell_angle_gamma 90.000000
_cell_volume 2850.331626
_symmetry_space_group_name_H-M "A B A 2"
_symmetry_group_IT_number 41
_symmetry_cell_setting 'orthorhombic'
loop_
_space_group_symop_operation_xyz
x,y,z
-x,-y,z
1/2-x,y,1/2+z
1/2+x,-y,1/2+z
x,1/2+y,1/2+z
-x,1/2-y,1/2+z
1/2-x,1/2+y,z
1/2+x,1/2-y,z
loop_
_atom_site_type_symbol
_atom_site_label
_atom_site_fract_x
_atom_site_fract_y
_atom_site_fract_z
Si Si1 0.927730 0.645136 0.657730
Si Si2 0.088636 0.856983 0.632610
Si Si3 0.752245 0.410376 0.124764
Si Si4 0.410954 0.682975 0.019469
Si Si5 0.907541 0.318749 0.249282
Si Si6 0.744264 0.578169 0.240523
Si Si7 0.844784 0.519380 0.951218
Si Si8 0.000000 0.500000 0.796366
O O1 0.925849 0.724199 0.736864
O O2 0.825766 0.613559 0.643974
O O3 0.983649 0.660267 0.540002
O O4 0.984719 0.578630 0.722476
O O5 0.101674 0.775464 0.559253
O O6 0.165823 0.869004 0.729673
O O7 0.100146 0.932316 0.547566
O O8 0.993935 0.865681 0.698303
O O9 0.655836 0.370379 0.098996
O O10 0.820615 0.343429 0.174758
O O11 0.750446 0.482105 0.218262
O O12 0.784406 0.448730 0.004077
O O13 0.391452 0.665859 0.885181
O O14 0.711583 0.584215 0.373366
O O15 0.915285 0.473703 0.871562
#
# Coordination Sequence:
#
# PCOD8184775 Si02
#       8
#     8   8   8   8   8   8   8   4
#     4  10  22  39  60  87 118 154 205 248 294 364
#     4  10  23  40  61  90 122 159 204 248 304 372
#     4  11  23  38  59  90 121 156 205 250 302 370
#     4  11  22  39  61  88 123 159 194 250 311 356
#     4  11  24  41  60  90 124 157 199 251 305 365
#     4  10  21  40  61  87 120 160 207 252 300 364
#     4  10  20  37  60  85 118 161 203 254 304 354
#     4  10  18  36  60  82 112 160 206 246 296 360
#
# _framework density 21.050183000000001
#
# number of rings (size 3 to 8) (size 9 to 14) (size 15 to 20)
#    0.000    1.600    0.000    5.600    0.000    4.800 
#    0.000   13.333    0.000    0.000    0.000    0.000 
#    0.000    0.000    0.000    0.000    0.000    0.000 
#
# Total GULP energy -371826.111934 kJ/mol
# GULP energy per Si atom -12394.203731 kJ/mol
# Density = 2.100227 g / cm^3
# Si number density = 21.050183 Si / 1000 Ang^3
#
#
#
# Elastic Constant Matrix: (Units=GPa)
#
#
# Indices 1 2 3 4 5 6 
#
# 1 103.1291 24.4590 30.3725 0.0000 0.0000 0.0000
# 2 24.4590 80.4363 12.6443 0.0000 0.0000 0.0000
# 3 30.3725 12.6443 89.1249 0.0000 0.0000 0.0000
# 4 0.0000 0.0000 0.0000 14.7826 0.0000 0.0000
# 5 0.0000 0.0000 0.0000 0.0000 27.2201 0.0000
# 6 0.0000 0.0000 0.0000 0.0000 0.0000 34.7719
#
#
#
# Elastic Compliance Matrix: (Units=1/GPa)
#
#
# Indices 1 2 3 4 5 6 
#
# 1 0.011413 -0.002924 -0.003475 0.000000 0.000000 0.000000
# 2 -0.002924 0.013465 -0.000914 0.000000 0.000000 0.000000
# 3 -0.003475 -0.000914 0.012534 0.000000 0.000000 0.000000
# 4 0.000000 0.000000 0.000000 0.067647 0.000000 0.000000
# 5 0.000000 0.000000 0.000000 0.000000 0.036738 0.000000
# 6 0.000000 0.000000 0.000000 0.000000 0.000000 0.028759
#
#
# Mechanical properties :
#
#
# Convention : Reuss Voigt Hill
#
# Bulk Modulus (GPa) = 43.88476 45.29355 44.58915
# Shear Modulus (GPa) = 25.93666 29.03588 27.48627
#
# Velocity S-wave (km/s) = 3.51399 3.71801 3.61744
# Velocity P-wave (km/s) = 6.11204 6.32417 6.21901
#
# Compressibility (1/GPa) = 0.02278695
#
# Stress axis : x y z
#
# Youngs Moduli (GPa) = 87.61571 74.26617 79.78325
#
# Poissons Ratio (x) = 0.21718 0.27722
# Poissons Ratio (y) = 0.25622 0.07290
# Poissons Ratio (z) = 0.30444 0.06786
#
# Static dielectric constant tensor:
#      x y z
#    x 4.099530 0.000000 0.000000 
#    y 0.000000 3.767870 0.000000 
#    z 0.000000 0.000000 3.804350 
# 
# 
# High freq. dielectric constant tensor:
#      x y z
#    x 1.838280 0.000000 0.000000 
#    y 0.000000 1.826840 0.000000 
#    z 0.000000 0.000000 1.817560 
# 
# From -- ./inp_files/5701.got.cif
#   From: 2010.03.12/outbox.cif.g09.slc.cpg/sg41_3_cif.got.tgz:5701.got - 2010.04.14 01:55:53.
