data_PCOD8184323
_publ_section_title
;
Structure prediction by ZEFSAII (Michael W. Deem and Ramdas Pophale) SiO2 
 PCOD8184323
Probable space group: A M A 2
;
_chemical_formula_sum "Si O2"
_cell_formula_units_Z 44
_cell_length_a 9.837990
_cell_length_b 9.534555
_cell_length_c 26.342885
_cell_angle_alpha 90.000000
_cell_angle_beta 90.000000
_cell_angle_gamma 90.000000
_cell_volume 2470.985182
_symmetry_space_group_name_H-M "A M A 2"
_symmetry_group_IT_number 40
_symmetry_cell_setting 'orthorhombic'
loop_
_space_group_symop_operation_xyz
x,y,z
-x,-y,z
1/2-x,y,z
1/2+x,-y,z
x,1/2+y,1/2+z
-x,1/2-y,1/2+z
1/2-x,1/2+y,1/2+z
1/2+x,1/2-y,1/2+z
loop_
_atom_site_type_symbol
_atom_site_label
_atom_site_fract_x
_atom_site_fract_y
_atom_site_fract_z
Si Si1 0.000000 0.500000 0.211411
Si Si2 0.405526 0.262065 0.771564
Si Si3 0.250000 0.212838 0.055298
Si Si4 0.401401 0.633308 0.463407
Si Si5 0.908932 0.139567 0.382563
Si Si6 0.000000 0.000000 0.208113
Si Si7 0.250000 0.366659 0.154768
Si Si8 0.750000 0.443166 0.650650
O O1 0.933487 0.391038 0.250123
O O2 0.884911 0.556404 0.173607
O O3 0.250000 0.306690 0.760373
O O4 0.434434 0.272392 0.831308
O O5 0.511181 0.365473 0.744047
O O6 0.250000 0.350375 0.092334
O O7 0.250000 0.071608 0.089875
O O8 0.385058 0.203183 0.019778
O O9 0.500000 0.500000 0.463820
O O10 0.250000 0.584331 0.444855
O O11 0.457726 0.755760 0.427041
O O12 0.750000 0.097483 0.388667
O O13 0.000000 0.000000 0.384140
O O14 0.877543 0.028757 0.170076
O O15 0.250000 0.210186 0.177610
#
# Coordination Sequence:
#
# PCOD8184323 Si02
#       8
#     4   8   4   8   8   4   4   4
#     4  12  22  40  58  86 122 158 194 240 288 358
#     4  11  22  36  58  86 119 155 193 239 288 353
#     4   8  20  40  58  82 119 146 193 244 289 332
#     4   9  20  39  63  87 117 148 196 252 289 350
#     4  10  22  40  59  86 121 154 196 241 297 353
#     4  12  20  36  58  86 114 156 192 238 284 348
#     4  10  22  39  58  83 121 156 193 246 287 342
#     4  10  22  33  58  83 116 148 194 236 290 330
#
# _framework density 17.806663
#
# number of rings (size 3 to 8) (size 9 to 14) (size 15 to 20)
#    1.091    0.727    4.545    0.000    2.545    0.727 
#    3.273    0.000    2.000    0.000    0.000    0.000 
#    0.000    0.000    0.000    0.000    0.000    0.000 
#
# Total GULP energy -272558.042904 kJ/mol
# GULP energy per Si atom -12389.001950 kJ/mol
# Density = 1.776613 g / cm^3
# Si number density = 17.806663 Si / 1000 Ang^3
#
#
#
# Elastic Constant Matrix: (Units=GPa)
#
#
# Indices 1 2 3 4 5 6 
#
# 1 82.6014 29.5600 43.3885 0.0000 0.0000 0.0000
# 2 29.5600 88.7448 56.0198 0.0000 0.0000 0.0000
# 3 43.3885 56.0198 147.0725 0.0000 0.0000 0.0000
# 4 0.0000 0.0000 0.0000 34.1938 0.0000 0.0000
# 5 0.0000 0.0000 0.0000 0.0000 84.0425 0.0000
# 6 0.0000 0.0000 0.0000 0.0000 0.0000 32.2201
#
#
#
# Elastic Compliance Matrix: (Units=1/GPa)
#
#
# Indices 1 2 3 4 5 6 
#
# 1 0.014863 -0.002874 -0.003290 0.000000 0.000000 0.000000
# 2 -0.002874 0.015391 -0.005015 0.000000 0.000000 0.000000
# 3 -0.003290 -0.005015 0.009680 0.000000 0.000000 0.000000
# 4 0.000000 0.000000 0.000000 0.029245 0.000000 0.000000
# 5 0.000000 0.000000 0.000000 0.000000 0.011899 0.000000
# 6 0.000000 0.000000 0.000000 0.000000 0.000000 0.031037
#
#
# Mechanical properties :
#
#
# Convention : Reuss Voigt Hill
#
# Bulk Modulus (GPa) = 56.89290 64.03950 60.46620
# Shear Modulus (GPa) = 35.63019 42.72131 39.17575
#
# Velocity S-wave (km/s) = 4.47805 4.90345 4.69557
# Velocity P-wave (km/s) = 7.66531 8.25229 7.96421
#
# Compressibility (1/GPa) = 0.01757689
#
# Stress axis : x y z
#
# Youngs Moduli (GPa) = 67.28118 64.97328 103.30509
#
# Poissons Ratio (x) = 0.18672 0.33989
# Poissons Ratio (y) = 0.19335 0.51803
# Poissons Ratio (z) = 0.22137 0.32581
#
# Static dielectric constant tensor:
#      x y z
#    x 2.751620 0.000000 0.000000 
#    y 0.000000 3.088660 0.000000 
#    z 0.000000 0.000000 3.322790 
# 
# 
# High freq. dielectric constant tensor:
#      x y z
#    x 1.683450 0.000000 0.000000 
#    y 0.000000 1.675230 0.000000 
#    z 0.000000 0.000000 1.694790 
# 
# From -- ./inp_files/26104.got.cif
#   From: 2010.03.12/outbox.cif.g09.slc.cpg/sg40_14_cif.got.tgz:26104.got - 2010.04.14 01:38:03.
