data_PCOD8184952
_publ_section_title
;
Structure prediction by ZEFSAII (Michael W. Deem and Ramdas Pophale) SiO2 
 PCOD8184952
Probable space group: A B A 2
;
_chemical_formula_sum "Si O2"
_cell_formula_units_Z 60
_cell_length_a 32.894936
_cell_length_b 11.463105
_cell_length_c 8.099150
_cell_angle_alpha 90.000000
_cell_angle_beta 90.000000
_cell_angle_gamma 90.000000
_cell_volume 3054.012137
_symmetry_space_group_name_H-M "A B A 2"
_symmetry_group_IT_number 41
_symmetry_cell_setting 'orthorhombic'
loop_
_space_group_symop_operation_xyz
x,y,z
-x,-y,z
1/2-x,y,1/2+z
1/2+x,-y,1/2+z
x,1/2+y,1/2+z
-x,1/2-y,1/2+z
1/2-x,1/2+y,z
1/2+x,1/2-y,z
loop_
_atom_site_type_symbol
_atom_site_label
_atom_site_fract_x
_atom_site_fract_y
_atom_site_fract_z
Si Si1 0.565812 0.428477 0.567680
Si Si2 0.698036 0.425715 0.981241
Si Si3 0.870449 0.815096 0.774866
Si Si4 0.482271 0.786909 0.546369
Si Si5 0.000000 0.500000 0.326502
Si Si6 0.554573 0.670467 0.395808
Si Si7 0.235842 0.693217 0.786734
Si Si8 0.800940 0.187585 0.092313
O O1 0.610387 0.407404 0.644987
O O2 0.550600 0.308807 0.479886
O O3 0.534765 0.441605 0.718737
O O4 0.565704 0.537405 0.443889
O O5 0.654981 0.387527 0.907844
O O6 0.733777 0.409810 0.846044
O O7 0.694826 0.557820 0.032012
O O8 0.706627 0.348495 0.141802
O O9 0.904187 0.742058 0.873096
O O10 0.842940 0.723917 0.675774
O O11 0.527537 0.729591 0.540405
O O12 0.472765 0.828334 0.731797
O O13 0.478681 0.900953 0.434927
O O14 0.207140 0.730068 0.935993
O O15 0.263807 0.800465 0.722501
#
# Coordination Sequence:
#
# PCOD8184952 Si02
#       8
#     8   8   8   8   4   8   8   8
#     4  11  23  43  60  86 122 160 201 263 305 364
#     4  10  20  38  63  88 124 162 196 248 300 353
#     4  10  24  39  55  91 128 154 200 246 308 369
#     4  11  22  39  64  91 109 153 209 253 310 367
#     4  12  22  38  66  86 116 148 204 258 308 364
#     4  11  22  43  62  84 123 157 204 260 309 366
#     4   9  20  37  63  92 116 155 211 239 285 364
#     4  10  20  38  60  89 123 158 196 247 293 358
#
# _framework density 19.646286
#
# number of rings (size 3 to 8) (size 9 to 14) (size 15 to 20)
#    0.000    1.600    4.000    0.800    1.867    4.267 
#    0.000    5.333    0.000    0.000    0.000    0.000 
#    0.000    0.000    0.000    0.000    0.000    0.000 
#
# Total GULP energy -372033.063328 kJ/mol
# GULP energy per Si atom -12401.102111 kJ/mol
# Density = 1.960157 g / cm^3
# Si number density = 19.646286 Si / 1000 Ang^3
#
#
#
# Elastic Constant Matrix: (Units=GPa)
#
#
# Indices 1 2 3 4 5 6 
#
# 1 111.2908 38.6241 39.9363 0.0000 0.0000 0.0000
# 2 38.6241 116.7636 36.0774 0.0000 0.0000 0.0000
# 3 39.9363 36.0774 73.6171 0.0000 0.0000 0.0000
# 4 0.0000 0.0000 0.0000 30.5504 0.0000 0.0000
# 5 0.0000 0.0000 0.0000 0.0000 44.4907 0.0000
# 6 0.0000 0.0000 0.0000 0.0000 0.0000 18.3135
#
#
#
# Elastic Compliance Matrix: (Units=1/GPa)
#
#
# Indices 1 2 3 4 5 6 
#
# 1 0.011633 -0.002237 -0.005215 0.000000 0.000000 0.000000
# 2 -0.002237 0.010523 -0.003943 0.000000 0.000000 0.000000
# 3 -0.005215 -0.003943 0.018345 0.000000 0.000000 0.000000
# 4 0.000000 0.000000 0.000000 0.032733 0.000000 0.000000
# 5 0.000000 0.000000 0.000000 0.000000 0.022477 0.000000
# 6 0.000000 0.000000 0.000000 0.000000 0.000000 0.054604
#
#
# Mechanical properties :
#
#
# Convention : Reuss Voigt Hill
#
# Bulk Modulus (GPa) = 56.46121 58.99412 57.72767
# Shear Modulus (GPa) = 27.93173 31.13984 29.53579
#
# Velocity S-wave (km/s) = 3.77468 3.98556 3.88155
# Velocity P-wave (km/s) = 6.91367 7.16051 7.03817
#
# Compressibility (1/GPa) = 0.01771127
#
# Stress axis : x y z
#
# Youngs Moduli (GPa) = 85.96228 95.03300 54.51043
#
# Poissons Ratio (x) = 0.21258 0.28425
# Poissons Ratio (y) = 0.19229 0.21495
# Poissons Ratio (z) = 0.44825 0.37475
#
# Static dielectric constant tensor:
#      x y z
#    x 3.596880 0.000000 0.000000 
#    y 0.000000 3.650030 0.000000 
#    z 0.000000 0.000000 3.677640 
# 
# 
# High freq. dielectric constant tensor:
#      x y z
#    x 1.761490 0.000000 0.000000 
#    y 0.000000 1.772900 0.000000 
#    z 0.000000 0.000000 1.768800 
# 
# From -- ./inp_files/3968.got.cif
#   From: 2010.03.12/outbox.cif.g09.slc.cpg/sg41_2_cif.got.tgz:3968.got - 2010.04.14 01:55:53.
