data_PCOD8184795
_publ_section_title
;
Structure prediction by ZEFSAII (Michael W. Deem and Ramdas Pophale) SiO2 
 PCOD8184795
Probable space group: A B A 2
;
_chemical_formula_sum "Si O2"
_cell_formula_units_Z 48
_cell_length_a 10.780663
_cell_length_b 12.639276
_cell_length_c 17.192000
_cell_angle_alpha 90.000000
_cell_angle_beta 90.000000
_cell_angle_gamma 90.000000
_cell_volume 2342.578054
_symmetry_space_group_name_H-M "A B A 2"
_symmetry_group_IT_number 41
_symmetry_cell_setting 'orthorhombic'
loop_
_space_group_symop_operation_xyz
x,y,z
-x,-y,z
1/2-x,y,1/2+z
1/2+x,-y,1/2+z
x,1/2+y,1/2+z
-x,1/2-y,1/2+z
1/2-x,1/2+y,z
1/2+x,1/2-y,z
loop_
_atom_site_type_symbol
_atom_site_label
_atom_site_fract_x
_atom_site_fract_y
_atom_site_fract_z
Si Si1 0.063264 0.151147 0.555190
Si Si2 0.000000 0.000000 0.765195
Si Si3 0.656100 0.546123 0.625066
Si Si4 0.886717 0.173299 0.167294
Si Si5 0.376296 0.203191 0.315587
Si Si6 0.888544 0.836815 0.376142
Si Si7 0.500000 0.500000 0.274520
O O1 0.049658 0.266709 0.594961
O O2 0.110127 0.153609 0.468098
O O3 0.926903 0.100080 0.558037
O O4 0.161641 0.078882 0.604434
O O5 0.094221 0.934632 0.709847
O O6 0.923312 0.918212 0.818275
O O7 0.786759 0.600817 0.625171
O O8 0.840963 0.262364 0.227795
O O9 0.970846 0.095855 0.217311
O O10 0.245111 0.216861 0.359928
O O11 0.488143 0.271925 0.351810
O O12 0.893559 0.951547 0.331823
#
# Coordination Sequence:
#
# PCOD8184795 Si02
#       7
#     8   4   8   8   8   8   4
#     4  10  23  41  62  93 130 176 211 271 332 401
#     4  10  18  41  61  96 116 174 214 268 316 393
#     4  10  20  38  66  87 128 166 216 260 339 376
#     4  11  22  39  69  93 126 166 227 276 313 399
#     4  11  23  42  69  95 131 175 225 273 330 401
#     4  11  25  44  64  98 139 177 218 274 348 397
#     4  10  24  41  65 102 132 172 224 278 332 395
#
# _framework density 20.490245000000002
#
# number of rings (size 3 to 8) (size 9 to 14) (size 15 to 20)
#    0.000    1.667    3.333    3.000    4.667    1.333 
#    3.000    0.000    0.000    0.000    0.000    0.000 
#    0.000    0.000    0.000    0.000    0.000    0.000 
#
# Total GULP energy -297322.649632 kJ/mol
# GULP energy per Si atom -12388.443735 kJ/mol
# Density = 2.044361 g / cm^3
# Si number density = 20.490245 Si / 1000 Ang^3
#
#
#
# Elastic Constant Matrix: (Units=GPa)
#
#
# Indices 1 2 3 4 5 6 
#
# 1 94.7428 32.3805 37.4173 0.0000 0.0000 0.0000
# 2 32.3805 99.6621 46.0010 0.0000 0.0000 0.0000
# 3 37.4173 46.0010 113.2415 0.0000 0.0000 0.0000
# 4 0.0000 0.0000 0.0000 24.2028 0.0000 0.0000
# 5 0.0000 0.0000 0.0000 0.0000 21.4908 0.0000
# 6 0.0000 0.0000 0.0000 0.0000 0.0000 33.1221
#
#
#
# Elastic Compliance Matrix: (Units=1/GPa)
#
#
# Indices 1 2 3 4 5 6 
#
# 1 0.012701 -0.002695 -0.003102 0.000000 0.000000 0.000000
# 2 -0.002695 0.012921 -0.004358 0.000000 0.000000 0.000000
# 3 -0.003102 -0.004358 0.011626 0.000000 0.000000 0.000000
# 4 0.000000 0.000000 0.000000 0.041317 0.000000 0.000000
# 5 0.000000 0.000000 0.000000 0.000000 0.046531 0.000000
# 6 0.000000 0.000000 0.000000 0.000000 0.000000 0.030191
#
#
# Mechanical properties :
#
#
# Convention : Reuss Voigt Hill
#
# Bulk Modulus (GPa) = 59.03933 59.91599 59.47766
# Shear Modulus (GPa) = 27.58699 28.55301 28.07000
#
# Velocity S-wave (km/s) = 3.67324 3.73700 3.70526
# Velocity P-wave (km/s) = 6.84589 6.92278 6.88444
#
# Compressibility (1/GPa) = 0.01693786
#
# Stress axis : x y z
#
# Youngs Moduli (GPa) = 78.73404 77.39236 86.01324
#
# Poissons Ratio (x) = 0.20856 0.26681
# Poissons Ratio (y) = 0.21217 0.37488
# Poissons Ratio (z) = 0.24423 0.33731
#
# Static dielectric constant tensor:
#      x y z
#    x 3.553750 0.000000 0.000000 
#    y 0.000000 4.036730 0.000000 
#    z 0.000000 0.000000 3.669440 
# 
# 
# High freq. dielectric constant tensor:
#      x y z
#    x 1.779730 0.000000 0.000000 
#    y 0.000000 1.810090 0.000000 
#    z 0.000000 0.000000 1.793100 
# 
# From -- ./inp_files/7935.got.cif
#   From: 2010.03.12/outbox.cif.g09.slc.cpg/sg41_4_cif.got.tgz:7935.got - 2010.04.14 01:55:53.
