data_PCOD8184331
_publ_section_title
;
Structure prediction by ZEFSAII (Michael W. Deem and Ramdas Pophale) SiO2 
 PCOD8184331
Probable space group: A M A 2
;
_chemical_formula_sum "Si O2"
_cell_formula_units_Z 52
_cell_length_a 19.956183
_cell_length_b 18.696346
_cell_length_c 6.766209
_cell_angle_alpha 90.000000
_cell_angle_beta 90.000000
_cell_angle_gamma 90.000000
_cell_volume 2524.524693
_symmetry_space_group_name_H-M "A M A 2"
_symmetry_group_IT_number 40
_symmetry_cell_setting 'orthorhombic'
loop_
_space_group_symop_operation_xyz
x,y,z
-x,-y,z
1/2-x,y,z
1/2+x,-y,z
x,1/2+y,1/2+z
-x,1/2-y,1/2+z
1/2-x,1/2+y,1/2+z
1/2+x,1/2-y,1/2+z
loop_
_atom_site_type_symbol
_atom_site_label
_atom_site_fract_x
_atom_site_fract_y
_atom_site_fract_z
Si Si1 0.573070 0.282760 0.518710
Si Si2 0.500000 0.000000 0.550064
Si Si3 0.920286 0.192160 0.154607
Si Si4 0.083067 0.567586 0.343497
Si Si5 0.830964 0.786891 0.382297
Si Si6 0.899048 0.530688 0.712156
Si Si7 0.175404 0.553553 0.998831
O O1 0.577271 0.212734 0.383921
O O2 0.495582 0.296316 0.574841
O O3 0.599386 0.351388 0.398232
O O4 0.625980 0.266591 0.690154
O O5 0.518145 0.934659 0.699402
O O6 0.442854 0.971689 0.409223
O O7 0.896482 0.110436 0.129317
O O8 0.861445 0.237432 0.052868
O O9 0.073334 0.521034 0.541257
O O10 0.139500 0.531764 0.203831
O O11 0.750000 0.775076 0.356470
O O12 0.849390 0.868489 0.429733
O O13 0.830568 0.499672 0.808190
O O14 0.250000 0.556229 0.069705
#
# Coordination Sequence:
#
# PCOD8184331 Si02
#       7
#     8   4   8   8   8   8   8
#     4  12  24  41  69  99 134 179 227 280 338 405
#     4  10  22  36  62  92 130 160 210 270 330 392
#     4  12  26  41  67 101 138 174 225 285 341 398
#     4  11  22  40  66  96 126 173 222 266 335 401
#     4  11  25  46  68  98 137 181 228 277 338 416
#     4  11  24  40  64  96 132 167 215 281 338 386
#     4  10  23  43  67  95 130 176 229 276 330 414
#
# _framework density 20.597937999999999
#
# number of rings (size 3 to 8) (size 9 to 14) (size 15 to 20)
#    0.000    0.923    4.615    2.308    4.308    4.923 
#    0.000    1.538    0.000    0.000    0.000    0.000 
#    0.000    0.000    0.000    0.000    0.000    0.000 
#
# Total GULP energy -322126.602238 kJ/mol
# GULP energy per Si atom -12389.484701 kJ/mol
# Density = 2.055106 g / cm^3
# Si number density = 20.597938 Si / 1000 Ang^3
#
#
#
# Elastic Constant Matrix: (Units=GPa)
#
#
# Indices 1 2 3 4 5 6 
#
# 1 80.4682 20.2193 39.4285 0.0000 0.0000 0.0000
# 2 20.2193 75.6190 22.0316 0.0000 0.0000 0.0000
# 3 39.4285 22.0316 115.3068 0.0000 0.0000 0.0000
# 4 0.0000 0.0000 0.0000 25.8274 0.0000 0.0000
# 5 0.0000 0.0000 0.0000 0.0000 26.4007 0.0000
# 6 0.0000 0.0000 0.0000 0.0000 0.0000 24.8495
#
#
#
# Elastic Compliance Matrix: (Units=1/GPa)
#
#
# Indices 1 2 3 4 5 6 
#
# 1 0.015448 -0.002744 -0.004758 0.000000 0.000000 0.000000
# 2 -0.002744 0.014491 -0.001830 0.000000 0.000000 0.000000
# 3 -0.004758 -0.001830 0.010649 0.000000 0.000000 0.000000
# 4 0.000000 0.000000 0.000000 0.038719 0.000000 0.000000
# 5 0.000000 0.000000 0.000000 0.000000 0.037878 0.000000
# 6 0.000000 0.000000 0.000000 0.000000 0.000000 0.040242
#
#
# Mechanical properties :
#
#
# Convention : Reuss Voigt Hill
#
# Bulk Modulus (GPa) = 45.61404 48.30586 46.95995
# Shear Modulus (GPa) = 27.26270 28.06317 27.66294
#
# Velocity S-wave (km/s) = 3.64203 3.69511 3.66867
# Velocity P-wave (km/s) = 6.31497 6.45816 6.38697
#
# Compressibility (1/GPa) = 0.02192308
#
# Stress axis : x y z
#
# Youngs Moduli (GPa) = 64.73231 69.00705 93.90337
#
# Poissons Ratio (x) = 0.18938 0.44680
# Poissons Ratio (y) = 0.17765 0.17188
# Poissons Ratio (z) = 0.30800 0.12631
#
# Static dielectric constant tensor:
#      x y z
#    x 3.847070 0.000000 0.000000 
#    y 0.000000 4.031820 0.000000 
#    z 0.000000 0.000000 4.001840 
# 
# 
# High freq. dielectric constant tensor:
#      x y z
#    x 1.798810 0.000000 0.000000 
#    y 0.000000 1.796840 0.000000 
#    z 0.000000 0.000000 1.827210 
# 
# From -- ./inp_files/2356.got.cif
#   From: 2010.03.12/outbox.cif.g09.slc.cpg/sg40_2_cif.got.tgz:2356.got - 2010.04.14 01:38:03.
