data_PCOD8184425
_publ_section_title
;
Structure prediction by ZEFSAII (Michael W. Deem and Ramdas Pophale) SiO2 
 PCOD8184425
Probable space group: A M A 2
;
_chemical_formula_sum "Si O2"
_cell_formula_units_Z 48
_cell_length_a 26.157673
_cell_length_b 9.770249
_cell_length_c 9.519200
_cell_angle_alpha 90.000000
_cell_angle_beta 90.000000
_cell_angle_gamma 90.000000
_cell_volume 2432.793181
_symmetry_space_group_name_H-M "A M A 2"
_symmetry_group_IT_number 40
_symmetry_cell_setting 'orthorhombic'
loop_
_space_group_symop_operation_xyz
x,y,z
-x,-y,z
1/2-x,y,z
1/2+x,-y,z
x,1/2+y,1/2+z
-x,1/2-y,1/2+z
1/2-x,1/2+y,1/2+z
1/2+x,1/2-y,1/2+z
loop_
_atom_site_type_symbol
_atom_site_label
_atom_site_fract_x
_atom_site_fract_y
_atom_site_fract_z
Si Si1 0.020788 0.651328 0.834020
Si Si2 0.807227 0.472432 0.977415
Si Si3 0.190264 0.717323 0.489431
Si Si4 0.867912 0.281664 0.777056
Si Si5 0.034742 0.130416 0.657460
Si Si6 0.642180 0.470160 0.259775
O O1 0.074020 0.670159 0.750713
O O2 0.000000 0.500000 0.811199
O O3 0.979172 0.752628 0.768594
O O4 0.027873 0.685114 0.998772
O O5 0.750000 0.428304 0.937161
O O6 0.846145 0.370064 0.904669
O O7 0.818156 0.629004 0.931933
O O8 0.812647 0.466874 0.145594
O O9 0.250000 0.678993 0.495408
O O10 0.166484 0.692866 0.641645
O O11 0.158959 0.618936 0.389884
O O12 0.867784 0.122251 0.818160
O O13 0.092802 0.088870 0.682446
O O14 0.000000 0.000000 0.686722
#
# Coordination Sequence:
#
# PCOD8184425 Si02
#       6
#     8   8   8   8   8   8
#     4  11  26  41  66  93 126 164 211 254 314 371
#     4  10  22  42  63  88 126 164 207 258 312 368
#     4  10  24  41  64  94 127 165 207 259 312 369
#     4  11  23  42  64  95 125 166 206 258 313 371
#     4  11  24  43  62  93 127 161 205 262 307 372
#     4  11  23  40  67  91 125 163 210 254 314 371
#
# _framework density 19.730407
#
# number of rings (size 3 to 8) (size 9 to 14) (size 15 to 20)
#    0.000    1.333    3.333    1.000    4.667    5.333 
#    0.000    0.000    0.000    0.000    0.000    0.000 
#    0.000    0.000    0.000    0.000    0.000    0.000 
#
# Total GULP energy -297703.776459 kJ/mol
# GULP energy per Si atom -12404.324019 kJ/mol
# Density = 1.968550 g / cm^3
# Si number density = 19.730407 Si / 1000 Ang^3
#
#
#
# Elastic Constant Matrix: (Units=GPa)
#
#
# Indices 1 2 3 4 5 6 
#
# 1 86.5346 43.1791 26.0556 0.0000 0.0000 0.0000
# 2 43.1791 104.6524 50.3365 0.0000 0.0000 0.0000
# 3 26.0556 50.3365 77.3827 0.0000 0.0000 0.0000
# 4 0.0000 0.0000 0.0000 74.6683 0.0000 0.0000
# 5 0.0000 0.0000 0.0000 0.0000 34.2102 0.0000
# 6 0.0000 0.0000 0.0000 0.0000 0.0000 36.4387
#
#
#
# Elastic Compliance Matrix: (Units=1/GPa)
#
#
# Indices 1 2 3 4 5 6 
#
# 1 0.014664 -0.005349 -0.001458 0.000000 0.000000 0.000000
# 2 -0.005349 0.015858 -0.008514 0.000000 0.000000 0.000000
# 3 -0.001458 -0.008514 0.018952 0.000000 0.000000 0.000000
# 4 0.000000 0.000000 0.000000 0.013393 0.000000 0.000000
# 5 0.000000 0.000000 0.000000 0.000000 0.029231 0.000000
# 6 0.000000 0.000000 0.000000 0.000000 0.000000 0.027443
#
#
# Mechanical properties :
#
#
# Convention : Reuss Voigt Hill
#
# Bulk Modulus (GPa) = 53.10293 56.41245 54.75769
# Shear Modulus (GPa) = 31.95696 38.99666 35.47681
#
# Velocity S-wave (km/s) = 4.02889 4.45058 4.24498
# Velocity P-wave (km/s) = 6.97247 7.42051 7.19997
#
# Compressibility (1/GPa) = 0.01883135
#
# Stress axis : x y z
#
# Youngs Moduli (GPa) = 68.19339 63.06123 52.76473
#
# Poissons Ratio (x) = 0.33732 0.07694
# Poissons Ratio (y) = 0.36477 0.44924
# Poissons Ratio (z) = 0.09943 0.53691
#
# Static dielectric constant tensor:
#      x y z
#    x 3.904010 0.000000 0.000000 
#    y 0.000000 3.544700 0.000000 
#    z 0.000000 0.000000 3.468110 
# 
# 
# High freq. dielectric constant tensor:
#      x y z
#    x 1.786670 0.000000 0.000000 
#    y 0.000000 1.775920 0.000000 
#    z 0.000000 0.000000 1.766700 
# 
# From -- ./inp_files/9300.got.cif
#   From: 2010.03.12/outbox.cif.g09.slc.cpg/sg40_5_cif.got.tgz:9300.got - 2010.04.14 01:38:03.
