data_PCOD8184176
_publ_section_title
;
Structure prediction by ZEFSAII (Michael W. Deem and Ramdas Pophale) SiO2 
 PCOD8184176
Probable space group: A M A 2
;
_chemical_formula_sum "Si O2"
_cell_formula_units_Z 64
_cell_length_a 8.396371
_cell_length_b 15.471517
_cell_length_c 23.673020
_cell_angle_alpha 90.000000
_cell_angle_beta 90.000000
_cell_angle_gamma 90.000000
_cell_volume 3075.234115
_symmetry_space_group_name_H-M "A M A 2"
_symmetry_group_IT_number 40
_symmetry_cell_setting 'orthorhombic'
loop_
_space_group_symop_operation_xyz
x,y,z
-x,-y,z
1/2-x,y,z
1/2+x,-y,z
x,1/2+y,1/2+z
-x,1/2-y,1/2+z
1/2-x,1/2+y,1/2+z
1/2+x,1/2-y,1/2+z
loop_
_atom_site_type_symbol
_atom_site_label
_atom_site_fract_x
_atom_site_fract_y
_atom_site_fract_z
Si Si1 0.063949 0.408126 0.000000
Si Si2 0.435712 0.246982 0.197430
Si Si3 0.938060 0.591029 0.505098
Si Si4 0.436387 0.909124 0.266125
Si Si5 0.563449 0.255147 0.074976
Si Si6 0.438215 0.409305 0.268010
Si Si7 0.063093 0.649728 0.884675
Si Si8 0.060627 0.346128 0.386484
O O1 0.250000 0.400097 0.012783
O O2 0.000000 0.500000 0.022156
O O3 0.969858 0.334054 0.033186
O O4 0.031052 0.401180 0.933184
O O5 0.250000 0.233073 0.210100
O O6 0.529183 0.163178 0.219091
O O7 0.463673 0.264248 0.131804
O O8 0.502582 0.331149 0.229798
O O9 0.750000 0.590526 0.502436
O O10 0.996903 0.666927 0.545924
O O11 0.008505 0.607577 0.442282
O O12 0.000000 0.500000 0.528848
O O13 0.250000 0.913437 0.278250
O O14 0.528494 0.891515 0.324210
O O15 0.500000 0.000000 0.241619
O O16 0.750000 0.251723 0.088862
O O17 0.500000 0.500000 0.243485
O O18 0.250000 0.409529 0.266933
O O19 0.504864 0.396204 0.331600
O O20 0.250000 0.643751 0.897912
O O21 0.000302 0.747838 0.884439
O O22 0.250000 0.345851 0.386670
#
# Coordination Sequence:
#
# PCOD8184176 Si02
#       8
#     8   8   8   8   8   8   8   8
#     4  12  25  42  65  96 128 165 212 261 317 382
#     4  11  24  44  66  90 124 167 213 265 318 370
#     4  10  21  38  62  91 124 162 200 247 307 367
#     4  12  25  42  65  96 128 165 212 261 317 382
#     4  11  24  44  66  90 124 167 213 265 318 370
#     4  10  21  38  62  91 124 162 200 247 307 367
#     4  11  20  39  66  93 130 168 204 255 318 381
#     4   9  17  35  61  89 123 161 195 242 306 367
#
# _framework density 20.811423000000001
#
# number of rings (size 3 to 8) (size 9 to 14) (size 15 to 20)
#    0.000    1.250    2.500    4.125    0.000    3.000 
#    0.000    2.500    0.000    0.000    0.000    0.000 
#    0.000    0.000    0.000    0.000    0.000    0.000 
#
# Total GULP energy -396966.024093 kJ/mol
# GULP energy per Si atom -12405.188253 kJ/mol
# Density = 2.076406 g / cm^3
# Si number density = 20.811423 Si / 1000 Ang^3
#
#
#
# Elastic Constant Matrix: (Units=GPa)
#
#
# Indices 1 2 3 4 5 6 
#
# 1 51.6566 25.0984 11.8616 0.0000 0.0000 0.0000
# 2 25.0984 161.8710 36.0492 0.0000 0.0000 0.0000
# 3 11.8616 36.0492 100.8232 0.0000 0.0000 0.0000
# 4 0.0000 0.0000 0.0000 12.3636 0.0000 0.0000
# 5 0.0000 0.0000 0.0000 0.0000 31.2284 0.0000
# 6 0.0000 0.0000 0.0000 0.0000 0.0000 31.4648
#
#
#
# Elastic Compliance Matrix: (Units=1/GPa)
#
#
# Indices 1 2 3 4 5 6 
#
# 1 0.021123 -0.002957 -0.001428 0.000000 0.000000 0.000000
# 2 -0.002957 0.007126 -0.002200 0.000000 0.000000 0.000000
# 3 -0.001428 -0.002200 0.010873 0.000000 0.000000 0.000000
# 4 0.000000 0.000000 0.000000 0.080883 0.000000 0.000000
# 5 0.000000 0.000000 0.000000 0.000000 0.032022 0.000000
# 6 0.000000 0.000000 0.000000 0.000000 0.000000 0.031782
#
#
# Mechanical properties :
#
#
# Convention : Reuss Voigt Hill
#
# Bulk Modulus (GPa) = 38.53212 51.15213 44.84212
# Shear Modulus (GPa) = 24.31553 31.10079 27.70816
#
# Velocity S-wave (km/s) = 3.42186 3.86995 3.65278
# Velocity P-wave (km/s) = 5.84527 6.67839 6.27567
#
# Compressibility (1/GPa) = 0.02595237
#
# Stress axis : x y z
#
# Youngs Moduli (GPa) = 47.34114 140.32632 91.97128
#
# Poissons Ratio (x) = 0.41498 0.13131
# Poissons Ratio (y) = 0.14000 0.20234
# Poissons Ratio (z) = 0.06759 0.30873
#
# Static dielectric constant tensor:
#      x y z
#    x 3.506580 0.000000 0.000000 
#    y 0.000000 4.242130 0.000000 
#    z 0.000000 0.000000 3.735790 
# 
# 
# High freq. dielectric constant tensor:
#      x y z
#    x 1.802120 0.000000 0.000000 
#    y 0.000000 1.831750 0.000000 
#    z 0.000000 0.000000 1.810860 
# 
# From -- ./inp_files/24319.got.cif
#   From: 2010.03.12/outbox.cif.g09.slc.cpg/sg40_13_cif.got.tgz:24319.got - 2010.04.14 01:38:03.
