data_PCOD8184957
_publ_section_title
;
Structure prediction by ZEFSAII (Michael W. Deem and Ramdas Pophale) SiO2 
 PCOD8184957
Probable space group: A B A 2
;
_chemical_formula_sum "Si O2"
_cell_formula_units_Z 60
_cell_length_a 25.972787
_cell_length_b 5.505592
_cell_length_c 17.897205
_cell_angle_alpha 90.000000
_cell_angle_beta 90.000000
_cell_angle_gamma 90.000000
_cell_volume 2559.221000
_symmetry_space_group_name_H-M "A B A 2"
_symmetry_group_IT_number 41
_symmetry_cell_setting 'orthorhombic'
loop_
_space_group_symop_operation_xyz
x,y,z
-x,-y,z
1/2-x,y,1/2+z
1/2+x,-y,1/2+z
x,1/2+y,1/2+z
-x,1/2-y,1/2+z
1/2-x,1/2+y,z
1/2+x,1/2-y,z
loop_
_atom_site_type_symbol
_atom_site_label
_atom_site_fract_x
_atom_site_fract_y
_atom_site_fract_z
Si Si1 0.627557 0.471120 0.762430
Si Si2 0.500000 0.500000 0.928284
Si Si3 0.279581 0.700014 0.014256
Si Si4 0.872552 0.763547 0.122341
Si Si5 0.057192 0.909382 0.212412
Si Si6 0.923227 0.326545 0.862284
Si Si7 0.219880 0.716357 0.341443
Si Si8 0.556442 0.609192 0.501518
O O1 0.650966 0.632277 0.695239
O O2 0.572774 0.372847 0.727084
O O3 0.618309 0.622539 0.839184
O O4 0.669528 0.271566 0.787776
O O5 0.520355 0.712948 0.875407
O O6 0.546989 0.391139 0.977804
O O7 0.244074 0.465640 0.032264
O O8 0.328327 0.653285 0.066511
O O9 0.296540 0.703895 0.927890
O O10 0.911596 0.587825 0.077287
O O11 0.904702 0.998590 0.148090
O O12 0.072181 0.001725 0.293026
O O13 0.000000 0.000000 0.190324
O O14 0.909411 0.472162 0.937884
O O15 0.250359 0.466183 0.322495
O O16 0.500000 0.500000 0.515872
#
# Coordination Sequence:
#
# PCOD8184957 Si02
#       8
#     8   4   8   8   8   8   8   8
#     4  11  26  44  69 104 142 194 241 300 372 442
#     4  10  20  38  62 100 126 192 232 310 340 418
#     4  10  25  50  77 108 143 186 243 315 379 436
#     4  11  28  42  68 106 142 198 230 299 367 446
#     4  11  25  43  66 101 150 194 242 290 362 437
#     4  10  21  39  67  96 133 185 245 300 344 425
#     4  10  25  48  80 109 143 186 248 317 376 448
#     4  10  23  40  65  99 141 187 248 295 358 427
#
# _framework density 23.444634000000001
#
# number of rings (size 3 to 8) (size 9 to 14) (size 15 to 20)
#    0.000    1.600    0.000    2.800   12.133    5.333 
#    0.000    0.000    0.000    0.000    0.000    0.000 
#    0.000    0.000    0.000    0.000    0.000    0.000 
#
# Total GULP energy -371680.478688 kJ/mol
# GULP energy per Si atom -12389.349290 kJ/mol
# Density = 2.339127 g / cm^3
# Si number density = 23.444634 Si / 1000 Ang^3
#
#
#
# Elastic Constant Matrix: (Units=GPa)
#
#
# Indices 1 2 3 4 5 6 
#
# 1 102.4480 29.5571 50.6691 0.0000 0.0000 0.0000
# 2 29.5571 108.4912 28.4237 0.0000 0.0000 0.0000
# 3 50.6691 28.4237 110.0972 0.0000 0.0000 0.0000
# 4 0.0000 0.0000 0.0000 20.0377 0.0000 0.0000
# 5 0.0000 0.0000 0.0000 0.0000 45.6122 0.0000
# 6 0.0000 0.0000 0.0000 0.0000 0.0000 29.7868
#
#
#
# Elastic Compliance Matrix: (Units=1/GPa)
#
#
# Indices 1 2 3 4 5 6 
#
# 1 0.013081 -0.002131 -0.005470 0.000000 0.000000 0.000000
# 2 -0.002131 0.010233 -0.001661 0.000000 0.000000 0.000000
# 3 -0.005470 -0.001661 0.012029 0.000000 0.000000 0.000000
# 4 0.000000 0.000000 0.000000 0.049906 0.000000 0.000000
# 5 0.000000 0.000000 0.000000 0.000000 0.021924 0.000000
# 6 0.000000 0.000000 0.000000 0.000000 0.000000 0.033572
#
#
# Mechanical properties :
#
#
# Convention : Reuss Voigt Hill
#
# Bulk Modulus (GPa) = 59.45561 59.81513 59.63537
# Shear Modulus (GPa) = 30.32579 33.24644 31.78611
#
# Velocity S-wave (km/s) = 3.60044 3.76983 3.68611
# Velocity P-wave (km/s) = 6.53447 6.67215 6.60367
#
# Compressibility (1/GPa) = 0.01681927
#
# Stress axis : x y z
#
# Youngs Moduli (GPa) = 76.44542 97.72256 83.13059
#
# Poissons Ratio (x) = 0.20822 0.45474
# Poissons Ratio (y) = 0.16288 0.13810
# Poissons Ratio (z) = 0.41817 0.16234
#
# Static dielectric constant tensor:
#      x y z
#    x 4.086070 0.000000 0.000000 
#    y 0.000000 4.574540 0.000000 
#    z 0.000000 0.000000 4.314650 
# 
# 
# High freq. dielectric constant tensor:
#      x y z
#    x 1.907050 0.000000 0.000000 
#    y 0.000000 1.934720 0.000000 
#    z 0.000000 0.000000 1.935580 
# 
# From -- ./inp_files/10797.got.cif
#   From: 2010.03.12/outbox.cif.g09.slc.cpg/sg41_6_cif.got.tgz:10797.got - 2010.04.14 01:55:53.
