data_PCOD8184266
_publ_section_title
;
Structure prediction by ZEFSAII (Michael W. Deem and Ramdas Pophale) SiO2 
 PCOD8184266
Probable space group: A M A 2
;
_chemical_formula_sum "Si O2"
_cell_formula_units_Z 48
_cell_length_a 15.157188
_cell_length_b 7.958226
_cell_length_c 17.976845
_cell_angle_alpha 90.000000
_cell_angle_beta 90.000000
_cell_angle_gamma 90.000000
_cell_volume 2168.444841
_symmetry_space_group_name_H-M "A M A 2"
_symmetry_group_IT_number 40
_symmetry_cell_setting 'orthorhombic'
loop_
_space_group_symop_operation_xyz
x,y,z
-x,-y,z
1/2-x,y,z
1/2+x,-y,z
x,1/2+y,1/2+z
-x,1/2-y,1/2+z
1/2-x,1/2+y,1/2+z
1/2+x,1/2-y,1/2+z
loop_
_atom_site_type_symbol
_atom_site_label
_atom_site_fract_x
_atom_site_fract_y
_atom_site_fract_z
Si Si1 0.347312 0.596391 0.363340
Si Si2 0.095017 0.930149 0.298532
Si Si3 0.845806 0.865165 0.037109
Si Si4 0.525935 0.817910 0.536927
Si Si5 0.654132 0.678635 0.640979
Si Si6 0.351654 0.239139 0.397548
O O1 0.250000 0.638241 0.330581
O O2 0.412399 0.742854 0.334561
O O3 0.346426 0.597974 0.451023
O O4 0.373600 0.401808 0.343974
O O5 0.142673 0.909685 0.220185
O O6 0.143015 0.063669 0.352358
O O7 0.000000 0.000000 0.281237
O O8 0.750000 0.778832 0.057783
O O9 0.932803 0.764490 0.057656
O O10 0.854058 0.039469 0.078371
O O11 0.581759 0.815679 0.614555
O O12 0.581518 0.747569 0.467112
O O13 0.500000 0.000000 0.510658
O O14 0.750000 0.765917 0.640067
O O15 0.250000 0.253804 0.425952
#
# Coordination Sequence:
#
# PCOD8184266 Si02
#       6
#     8   8   8   8   8   8
#     4  10  21  40  66  96 130 176 227 277 336 404
#     4  12  25  42  67 100 138 181 228 288 349 407
#     4  10  21  40  66  93 127 174 222 273 335 405
#     4  12  24  40  67 100 135 172 227 279 340 407
#     4  11  24  46  69  92 134 181 223 281 344 405
#     4  11  23  42  70 103 139 181 230 285 341 407
#
# _framework density 22.135679
#
# number of rings (size 3 to 8) (size 9 to 14) (size 15 to 20)
#    0.000    1.000    1.667    6.000    0.000    4.667 
#    6.000    0.000    0.000    0.000    0.000    0.000 
#    0.000    0.000    0.000    0.000    0.000    0.000 
#
# Total GULP energy -297315.313536 kJ/mol
# GULP energy per Si atom -12388.138064 kJ/mol
# Density = 2.208530 g / cm^3
# Si number density = 22.135679 Si / 1000 Ang^3
#
#
#
# Elastic Constant Matrix: (Units=GPa)
#
#
# Indices 1 2 3 4 5 6 
#
# 1 142.3455 52.8997 34.2452 0.0000 0.0000 0.0000
# 2 52.8997 110.8734 21.4807 0.0000 0.0000 0.0000
# 3 34.2452 21.4807 86.2307 0.0000 0.0000 0.0000
# 4 0.0000 0.0000 0.0000 33.7575 0.0000 0.0000
# 5 0.0000 0.0000 0.0000 0.0000 25.8935 0.0000
# 6 0.0000 0.0000 0.0000 0.0000 0.0000 31.3471
#
#
#
# Elastic Compliance Matrix: (Units=1/GPa)
#
#
# Indices 1 2 3 4 5 6 
#
# 1 0.009083 -0.003819 -0.002656 0.000000 0.000000 0.000000
# 2 -0.003819 0.011083 -0.001244 0.000000 0.000000 0.000000
# 3 -0.002656 -0.001244 0.012961 0.000000 0.000000 0.000000
# 4 0.000000 0.000000 0.000000 0.029623 0.000000 0.000000
# 5 0.000000 0.000000 0.000000 0.000000 0.038620 0.000000
# 6 0.000000 0.000000 0.000000 0.000000 0.000000 0.031901
#
#
# Mechanical properties :
#
#
# Convention : Reuss Voigt Hill
#
# Bulk Modulus (GPa) = 56.53218 61.85563 59.19390
# Shear Modulus (GPa) = 32.34027 33.58789 32.96408
#
# Velocity S-wave (km/s) = 3.82645 3.89956 3.86318
# Velocity P-wave (km/s) = 6.71690 6.94838 6.83362
#
# Compressibility (1/GPa) = 0.01768904
#
# Stress axis : x y z
#
# Youngs Moduli (GPa) = 110.08977 90.23172 77.15192
#
# Poissons Ratio (x) = 0.34463 0.20491
# Poissons Ratio (y) = 0.42047 0.09597
# Poissons Ratio (z) = 0.29239 0.11224
#
# Static dielectric constant tensor:
#      x y z
#    x 4.797540 0.000000 0.000000 
#    y 0.000000 4.449840 0.000000 
#    z 0.000000 0.000000 4.102260 
# 
# 
# High freq. dielectric constant tensor:
#      x y z
#    x 1.893500 0.000000 0.000000 
#    y 0.000000 1.864830 0.000000 
#    z 0.000000 0.000000 1.853320 
# 
# From -- ./inp_files/20563.got.cif
#   From: 2010.03.12/outbox.cif.g09.slc.cpg/sg40_11_cif.got.tgz:20563.got - 2010.04.14 01:38:03.
