data_PCOD8184274
_publ_section_title
;
Structure prediction by ZEFSAII (Michael W. Deem and Ramdas Pophale) SiO2 
 PCOD8184274
Probable space group: A M A 2
;
_chemical_formula_sum "Si O2"
_cell_formula_units_Z 40
_cell_length_a 25.960717
_cell_length_b 13.515933
_cell_length_c 4.817592
_cell_angle_alpha 90.000000
_cell_angle_beta 90.000000
_cell_angle_gamma 90.000000
_cell_volume 1690.412635
_symmetry_space_group_name_H-M "A M A 2"
_symmetry_group_IT_number 40
_symmetry_cell_setting 'orthorhombic'
loop_
_space_group_symop_operation_xyz
x,y,z
-x,-y,z
1/2-x,y,z
1/2+x,-y,z
x,1/2+y,1/2+z
-x,1/2-y,1/2+z
1/2-x,1/2+y,1/2+z
1/2+x,1/2-y,1/2+z
loop_
_atom_site_type_symbol
_atom_site_label
_atom_site_fract_x
_atom_site_fract_y
_atom_site_fract_z
Si Si1 0.602674 0.055480 0.375000
Si Si2 0.807407 0.689099 0.721923
Si Si3 0.807209 0.822928 0.227606
Si Si4 0.395470 0.073872 0.910672
Si Si5 0.965040 0.742399 0.960316
O O1 0.653743 0.097598 0.222599
O O2 0.566171 0.140981 0.491227
O O3 0.617694 0.981486 0.624839
O O4 0.573248 0.997433 0.125074
O O5 0.750000 0.656029 0.623391
O O6 0.827040 0.780338 0.525139
O O7 0.805595 0.726605 0.035226
O O8 0.750000 0.869770 0.259219
O O9 0.844252 0.904074 0.092690
O O10 0.427624 0.172325 0.845315
O O11 0.013996 0.729096 0.761768
#
# Coordination Sequence:
#
# PCOD8184274 Si02
#       5
#     8   8   8   8   8
#     4  12  26  43  72 103 135 178 230 284 344 416
#     4  10  21  40  68  99 140 185 224 272 336 410
#     4  10  21  40  68  99 140 185 224 272 336 410
#     4  12  26  43  72 103 135 178 230 284 344 416
#     4  12  28  48  71  96 135 178 226 292 354 406
#
# _framework density 23.662859999999998
#
# number of rings (size 3 to 8) (size 9 to 14) (size 15 to 20)
#    0.000    0.800    2.000    4.800    2.800    6.400 
#    0.000    0.000    0.000    0.000    0.000    0.000 
#    0.000    0.000    0.000    0.000    0.000    0.000 
#
# Total GULP energy -248003.649681 kJ/mol
# GULP energy per Si atom -12400.182484 kJ/mol
# Density = 2.360900 g / cm^3
# Si number density = 23.662860 Si / 1000 Ang^3
#
#
#
# Elastic Constant Matrix: (Units=GPa)
#
#
# Indices 1 2 3 4 5 6 
#
# 1 83.4281 31.4681 7.1211 0.0000 0.0000 0.0000
# 2 31.4681 101.9986 13.9498 0.0000 0.0000 0.0000
# 3 7.1211 13.9498 94.1637 0.0000 0.0000 0.0000
# 4 0.0000 0.0000 0.0000 46.0407 0.0000 0.0000
# 5 0.0000 0.0000 0.0000 0.0000 33.0963 0.0000
# 6 0.0000 0.0000 0.0000 0.0000 0.0000 6.2379
#
#
#
# Elastic Compliance Matrix: (Units=1/GPa)
#
#
# Indices 1 2 3 4 5 6 
#
# 1 0.013581 -0.004133 -0.000415 0.000000 0.000000 0.000000
# 2 -0.004133 0.011265 -0.001356 0.000000 0.000000 0.000000
# 3 -0.000415 -0.001356 0.010852 0.000000 0.000000 0.000000
# 4 0.000000 0.000000 0.000000 0.021720 0.000000 0.000000
# 5 0.000000 0.000000 0.000000 0.000000 0.030215 0.000000
# 6 0.000000 0.000000 0.000000 0.000000 0.000000 0.160310
#
#
# Mechanical properties :
#
#
# Convention : Reuss Voigt Hill
#
# Bulk Modulus (GPa) = 41.85976 42.74093 42.30034
# Shear Modulus (GPa) = 18.67670 32.21173 25.44422
#
# Velocity S-wave (km/s) = 2.81247 3.69355 3.28270
# Velocity P-wave (km/s) = 5.31743 6.02424 5.68184
#
# Compressibility (1/GPa) = 0.02388929
#
# Stress axis : x y z
#
# Youngs Moduli (GPa) = 73.63372 88.77305 92.14816
#
# Poissons Ratio (x) = 0.36691 0.03822
# Poissons Ratio (y) = 0.30434 0.12497
# Poissons Ratio (z) = 0.03054 0.12040
#
# Static dielectric constant tensor:
#      x y z
#    x 4.242070 0.000000 0.000000 
#    y 0.000000 4.222200 0.000000 
#    z 0.000000 0.000000 4.302370 
# 
# 
# High freq. dielectric constant tensor:
#      x y z
#    x 1.926810 0.000000 0.000000 
#    y 0.000000 1.937070 0.000000 
#    z 0.000000 0.000000 1.955790 
# 
# From -- ./inp_files/2958.got.cif
#   From: 2010.03.12/outbox.cif.g09.slc.cpg/sg40_2_cif.got.tgz:2958.got - 2010.04.14 01:38:03.
