data_PCOD8184371
_publ_section_title
;
Structure prediction by ZEFSAII (Michael W. Deem and Ramdas Pophale) SiO2 
 PCOD8184371
Probable space group: A M A 2
;
_chemical_formula_sum "Si O2"
_cell_formula_units_Z 64
_cell_length_a 22.742687
_cell_length_b 9.286503
_cell_length_c 15.508820
_cell_angle_alpha 90.000000
_cell_angle_beta 90.000000
_cell_angle_gamma 90.000000
_cell_volume 3275.463266
_symmetry_space_group_name_H-M "A M A 2"
_symmetry_group_IT_number 40
_symmetry_cell_setting 'orthorhombic'
loop_
_space_group_symop_operation_xyz
x,y,z
-x,-y,z
1/2-x,y,z
1/2+x,-y,z
x,1/2+y,1/2+z
-x,1/2-y,1/2+z
1/2-x,1/2+y,1/2+z
1/2+x,1/2-y,1/2+z
loop_
_atom_site_type_symbol
_atom_site_label
_atom_site_fract_x
_atom_site_fract_y
_atom_site_fract_z
Si Si1 0.017134 0.657218 0.937460
Si Si2 0.816402 0.453066 0.703717
Si Si3 0.859074 0.416183 0.882064
Si Si4 0.626194 0.754963 0.071927
Si Si5 0.318011 0.055258 0.563477
Si Si6 0.883611 0.746910 0.697140
Si Si7 0.105413 0.264647 0.883192
Si Si8 0.497243 0.828093 0.103182
O O1 0.075495 0.649248 0.879948
O O2 0.000000 0.500000 0.977296
O O3 0.964317 0.707626 0.876513
O O4 0.027838 0.773308 0.011984
O O5 0.750000 0.510292 0.699309
O O6 0.826526 0.367300 0.794295
O O7 0.825974 0.344677 0.624257
O O8 0.861255 0.583455 0.694680
O O9 0.858372 0.588252 0.882845
O O10 0.825221 0.369328 0.969506
O O11 0.644054 0.589108 0.069020
O O12 0.562682 0.765601 0.118195
O O13 0.621530 0.816894 0.972922
O O14 0.250000 0.024159 0.582737
O O15 0.343654 0.161279 0.634401
O O16 0.877698 0.816018 0.793857
O O17 0.952580 0.737708 0.673334
O O18 0.500000 0.000000 0.105551
#
# Coordination Sequence:
#
# PCOD8184371 Si02
#       8
#     8   8   8   8   8   8   8   8
#     4   9  17  34  59  86 119 155 194 240 295 359
#     4  11  22  38  58  86 119 156 204 249 294 355
#     4   9  18  34  59  87 111 152 199 246 289 346
#     4  10  22  40  61  86 117 160 199 242 302 357
#     4  11  22  40  61  86 119 158 202 248 296 353
#     4  11  22  37  61  91 118 155 199 250 301 353
#     4   8  19  34  58  85 118 152 197 236 295 359
#     4  11  21  35  59  91 123 151 189 246 306 361
#
# _framework density 19.539221000000001
#
# number of rings (size 3 to 8) (size 9 to 14) (size 15 to 20)
#    0.000    2.000    2.500    1.875    1.750    0.500 
#    0.000    5.625    0.000    0.000    0.000    0.000 
#    0.000    0.000    0.000    0.000    0.000    0.000 
#
# Total GULP energy -396624.801616 kJ/mol
# GULP energy per Si atom -12394.525051 kJ/mol
# Density = 1.949475 g / cm^3
# Si number density = 19.539221 Si / 1000 Ang^3
#
#
#
# Elastic Constant Matrix: (Units=GPa)
#
#
# Indices 1 2 3 4 5 6 
#
# 1 107.2177 15.5233 45.7757 0.0000 0.0000 0.0000
# 2 15.5233 40.3433 32.1199 0.0000 0.0000 0.0000
# 3 45.7757 32.1199 146.3798 0.0000 0.0000 0.0000
# 4 0.0000 0.0000 0.0000 25.9183 0.0000 0.0000
# 5 0.0000 0.0000 0.0000 0.0000 24.6745 0.0000
# 6 0.0000 0.0000 0.0000 0.0000 0.0000 26.9830
#
#
#
# Elastic Compliance Matrix: (Units=1/GPa)
#
#
# Indices 1 2 3 4 5 6 
#
# 1 0.010869 -0.001789 -0.003007 0.000000 0.000000 0.000000
# 2 -0.001789 0.030329 -0.006096 0.000000 0.000000 0.000000
# 3 -0.003007 -0.006096 0.009109 0.000000 0.000000 0.000000
# 4 0.000000 0.000000 0.000000 0.038583 0.000000 0.000000
# 5 0.000000 0.000000 0.000000 0.000000 0.040528 0.000000
# 6 0.000000 0.000000 0.000000 0.000000 0.000000 0.037060
#
#
# Mechanical properties :
#
#
# Convention : Reuss Voigt Hill
#
# Bulk Modulus (GPa) = 35.05613 53.41986 44.23799
# Shear Modulus (GPa) = 25.28209 28.88328 27.08268
#
# Velocity S-wave (km/s) = 3.60101 3.84893 3.72703
# Velocity P-wave (km/s) = 5.93886 6.86670 6.41956
#
# Compressibility (1/GPa) = 0.02852569
#
# Stress axis : x y z
#
# Youngs Moduli (GPa) = 92.00125 32.97220 109.77763
#
# Poissons Ratio (x) = 0.05897 0.33006
# Poissons Ratio (y) = 0.16455 0.66917
# Poissons Ratio (z) = 0.27661 0.20099
#
# Static dielectric constant tensor:
#      x y z
#    x 3.600330 0.000000 0.000000 
#    y 0.000000 3.232960 0.000000 
#    z 0.000000 0.000000 3.943120 
# 
# 
# High freq. dielectric constant tensor:
#      x y z
#    x 1.767570 0.000000 0.000000 
#    y 0.000000 1.719730 0.000000 
#    z 0.000000 0.000000 1.769900 
# 
# From -- ./inp_files/18506.got.cif
#   From: 2010.03.12/outbox.cif.g09.slc.cpg/sg40_10_cif.got.tgz:18506.got - 2010.04.14 01:38:03.
