data_PCOD8184572
_publ_section_title
;
Structure prediction by ZEFSAII (Michael W. Deem and Ramdas Pophale) SiO2 
 PCOD8184572
Probable space group: A M A 2
;
_chemical_formula_sum "Si O2"
_cell_formula_units_Z 56
_cell_length_a 14.288404
_cell_length_b 12.371656
_cell_length_c 15.120601
_cell_angle_alpha 90.000000
_cell_angle_beta 90.000000
_cell_angle_gamma 90.000000
_cell_volume 2672.887072
_symmetry_space_group_name_H-M "A M A 2"
_symmetry_group_IT_number 40
_symmetry_cell_setting 'orthorhombic'
loop_
_space_group_symop_operation_xyz
x,y,z
-x,-y,z
1/2-x,y,z
1/2+x,-y,z
x,1/2+y,1/2+z
-x,1/2-y,1/2+z
1/2-x,1/2+y,1/2+z
1/2+x,1/2-y,1/2+z
loop_
_atom_site_type_symbol
_atom_site_label
_atom_site_fract_x
_atom_site_fract_y
_atom_site_fract_z
Si Si1 0.854640 0.169067 0.313750
Si Si2 0.604058 0.665325 0.115245
Si Si3 0.146915 0.453461 0.280432
Si Si4 0.353085 0.046539 0.506488
Si Si5 0.854640 0.830933 0.973170
Si Si6 0.395942 0.165325 0.671676
Si Si7 0.000000 0.500000 0.872236
Si Si8 0.500000 0.000000 0.914685
O O1 0.750000 0.120536 0.326942
O O2 0.878901 0.250000 0.393460
O O3 0.854651 0.229917 0.219644
O O4 0.933963 0.076260 0.312373
O O5 0.657900 0.639463 0.206410
O O6 0.610557 0.564608 0.049155
O O7 0.500000 0.689640 0.143460
O O8 0.645349 0.770084 0.067277
O O9 0.250000 0.470811 0.322339
O O10 0.110557 0.564608 0.237766
O O11 0.070625 0.425791 0.355598
O O12 0.250000 0.029189 0.464581
O O13 0.342100 0.139463 0.580510
O O14 0.429375 0.074209 0.431322
O O15 0.750000 0.879464 0.959979
O O16 0.933963 0.923740 0.974548
#
# Coordination Sequence:
#
# PCOD8184572 Si02
#       8
#     8   8   8   8   8   8   4   4
#     4  11  22  38  61  91 128 169 209 256 321 383
#     4  11  19  35  59  91 123 155 203 255 314 373
#     4  11  19  33  60  93 124 155 203 262 316 373
#     4  11  19  33  60  93 124 155 203 262 316 373
#     4  11  22  38  61  91 128 169 209 256 321 383
#     4  11  19  35  59  91 123 155 203 255 314 373
#     4  12  22  37  59  96 126 164 212 260 309 376
#     4  12  22  37  59  96 126 164 212 260 309 376
#
# _framework density 20.951128000000001
#
# number of rings (size 3 to 8) (size 9 to 14) (size 15 to 20)
#    0.000    0.857    5.714    5.143    0.000    0.000 
#    0.000    0.714    0.000   24.000    0.000    0.000 
#    0.000    0.000    0.000    0.000    0.000    0.000 
#
# Total GULP energy -347003.902780 kJ/mol
# GULP energy per Si atom -12392.996528 kJ/mol
# Density = 2.090344 g / cm^3
# Si number density = 20.951128 Si / 1000 Ang^3
#
#
#
# Elastic Constant Matrix: (Units=GPa)
#
#
# Indices 1 2 3 4 5 6 
#
# 1 109.3476 39.3940 43.4947 0.0000 0.0000 0.0000
# 2 39.3940 89.6373 53.8923 0.0000 0.0000 0.0000
# 3 43.4947 53.8923 74.3956 0.0000 0.0000 0.0000
# 4 0.0000 0.0000 0.0000 41.4341 0.0000 0.0000
# 5 0.0000 0.0000 0.0000 0.0000 15.3245 0.0000
# 6 0.0000 0.0000 0.0000 0.0000 0.0000 26.9585
#
#
#
# Elastic Compliance Matrix: (Units=1/GPa)
#
#
# Indices 1 2 3 4 5 6 
#
# 1 0.012093 -0.001885 -0.005705 0.000000 0.000000 0.000000
# 2 -0.001885 0.020058 -0.013428 0.000000 0.000000 0.000000
# 3 -0.005705 -0.013428 0.026504 0.000000 0.000000 0.000000
# 4 0.000000 0.000000 0.000000 0.024135 0.000000 0.000000
# 5 0.000000 0.000000 0.000000 0.000000 0.065255 0.000000
# 6 0.000000 0.000000 0.000000 0.000000 0.000000 0.037094
#
#
# Mechanical properties :
#
#
# Convention : Reuss Voigt Hill
#
# Bulk Modulus (GPa) = 60.16860 60.77140 60.47000
# Shear Modulus (GPa) = 21.48560 25.85005 23.66783
#
# Velocity S-wave (km/s) = 3.20583 3.51640 3.36470
# Velocity P-wave (km/s) = 6.51798 6.74952 6.63476
#
# Compressibility (1/GPa) = 0.01661996
#
# Stress axis : x y z
#
# Youngs Moduli (GPa) = 82.68961 49.85644 37.73012
#
# Poissons Ratio (x) = 0.09398 0.21524
# Poissons Ratio (y) = 0.15586 0.50663
# Poissons Ratio (z) = 0.47173 0.66946
#
# Static dielectric constant tensor:
#      x y z
#    x 4.101460 0.000000 0.000000 
#    y 0.000000 3.308370 0.000000 
#    z 0.000000 0.000000 3.834470 
# 
# 
# High freq. dielectric constant tensor:
#      x y z
#    x 1.851360 0.000000 0.000000 
#    y 0.000000 1.765390 0.000000 
#    z 0.000000 0.000000 1.796600 
# 
# From -- ./inp_files/17106.got.cif
#   From: 2010.03.12/outbox.cif.g09.slc.cpg/sg40_9_cif.got.tgz:17106.got - 2010.04.14 01:38:03.
