data_PCOD8184827
_publ_section_title
;
Structure prediction by ZEFSAII (Michael W. Deem and Ramdas Pophale) SiO2 
 PCOD8184827
Probable space group: A B A 2
;
_chemical_formula_sum "Si O2"
_cell_formula_units_Z 52
_cell_length_a 8.705196
_cell_length_b 19.310415
_cell_length_c 13.925747
_cell_angle_alpha 90.000000
_cell_angle_beta 90.000000
_cell_angle_gamma 90.000000
_cell_volume 2340.931264
_symmetry_space_group_name_H-M "A B A 2"
_symmetry_group_IT_number 41
_symmetry_cell_setting 'orthorhombic'
loop_
_space_group_symop_operation_xyz
x,y,z
-x,-y,z
1/2-x,y,1/2+z
1/2+x,-y,1/2+z
x,1/2+y,1/2+z
-x,1/2-y,1/2+z
1/2-x,1/2+y,z
1/2+x,1/2-y,z
loop_
_atom_site_type_symbol
_atom_site_label
_atom_site_fract_x
_atom_site_fract_y
_atom_site_fract_z
Si Si1 0.532825 0.133857 0.753950
Si Si2 0.500000 0.000000 0.265735
Si Si3 0.711948 0.383735 0.837084
Si Si4 0.832124 0.658680 0.944757
Si Si5 0.157689 0.208714 0.491211
Si Si6 0.460471 0.211177 0.195611
Si Si7 0.697205 0.100314 0.139877
O O1 0.373820 0.097017 0.784601
O O2 0.662183 0.126252 0.838525
O O3 0.493023 0.211829 0.723980
O O4 0.620942 0.097503 0.665420
O O5 0.601654 0.951059 0.335380
O O6 0.390196 0.961335 0.191356
O O7 0.741813 0.354447 0.944967
O O8 0.626124 0.322087 0.784215
O O9 0.697980 0.714471 0.955656
O O10 0.986881 0.702106 0.953575
O O11 0.816557 0.597000 0.023667
O O12 0.159159 0.204806 0.606444
O O13 0.621449 0.173586 0.171394
#
# Coordination Sequence:
#
# PCOD8184827 Si02
#       7
#     8   4   8   8   8   8   8
#     4  11  20  34  62  96 123 157 215 273 334 386
#     4  10  24  46  62  78 130 186 226 256 318 390
#     4  10  22  38  60  90 127 173 218 262 320 397
#     4  10  21  34  57  92 127 158 195 264 326 386
#     4  10  20  33  56  92 129 155 201 260 336 384
#     4  10  19  34  59  92 130 158 200 271 341 391
#     4  10  22  39  59  86 122 173 208 263 317 388
#
# _framework density 22.213380000000001
#
# number of rings (size 3 to 8) (size 9 to 14) (size 15 to 20)
#    0.000    1.846    3.077    0.923    4.308    0.615 
#    0.000    6.154    0.000    0.000    0.000    0.000 
#    0.000    0.000    0.000    0.000    0.000    0.000 
#
# Total GULP energy -322275.166748 kJ/mol
# GULP energy per Si atom -12395.198721 kJ/mol
# Density = 2.216282 g / cm^3
# Si number density = 22.213380 Si / 1000 Ang^3
#
#
#
# Elastic Constant Matrix: (Units=GPa)
#
#
# Indices 1 2 3 4 5 6 
#
# 1 79.1476 20.2799 13.4627 0.0000 0.0000 0.0000
# 2 20.2799 52.4390 12.3113 0.0000 0.0000 0.0000
# 3 13.4627 12.3113 88.5534 0.0000 0.0000 0.0000
# 4 0.0000 0.0000 0.0000 26.5882 0.0000 0.0000
# 5 0.0000 0.0000 0.0000 0.0000 28.5943 0.0000
# 6 0.0000 0.0000 0.0000 0.0000 0.0000 32.1397
#
#
#
# Elastic Compliance Matrix: (Units=1/GPa)
#
#
# Indices 1 2 3 4 5 6 
#
# 1 0.014200 -0.005153 -0.001442 0.000000 0.000000 0.000000
# 2 -0.005153 0.021583 -0.002217 0.000000 0.000000 0.000000
# 3 -0.001442 -0.002217 0.011820 0.000000 0.000000 0.000000
# 4 0.000000 0.000000 0.000000 0.037611 0.000000 0.000000
# 5 0.000000 0.000000 0.000000 0.000000 0.034972 0.000000
# 6 0.000000 0.000000 0.000000 0.000000 0.000000 0.031114
#
#
# Mechanical properties :
#
#
# Convention : Reuss Voigt Hill
#
# Bulk Modulus (GPa) = 33.35760 34.69421 34.02590
# Shear Modulus (GPa) = 27.94561 29.07016 28.50789
#
# Velocity S-wave (km/s) = 3.55075 3.62149 3.58630
# Velocity P-wave (km/s) = 5.64446 5.75669 5.70085
#
# Compressibility (1/GPa) = 0.02997818
#
# Stress axis : x y z
#
# Youngs Moduli (GPa) = 70.42074 46.33235 84.60121
#
# Poissons Ratio (x) = 0.23876 0.12203
# Poissons Ratio (y) = 0.36289 0.18758
# Poissons Ratio (z) = 0.10158 0.10273
#
# Static dielectric constant tensor:
#      x y z
#    x 4.046750 0.000000 0.000000 
#    y 0.000000 3.587090 0.000000 
#    z 0.000000 0.000000 4.600150 
# 
# 
# High freq. dielectric constant tensor:
#      x y z
#    x 1.882520 0.000000 0.000000 
#    y 0.000000 1.835270 0.000000 
#    z 0.000000 0.000000 1.878430 
# 
# From -- ./inp_files/7420.got.cif
#   From: 2010.03.12/outbox.cif.g09.slc.cpg/sg41_4_cif.got.tgz:7420.got - 2010.04.14 01:55:53.
