data_PCOD8184180
_publ_section_title
;
Structure prediction by ZEFSAII (Michael W. Deem and Ramdas Pophale) SiO2 
 PCOD8184180
Probable space group: A M A 2
;
_chemical_formula_sum "Si O2"
_cell_formula_units_Z 60
_cell_length_a 24.754639
_cell_length_b 7.061535
_cell_length_c 17.383235
_cell_angle_alpha 90.000000
_cell_angle_beta 90.000000
_cell_angle_gamma 90.000000
_cell_volume 3038.689427
_symmetry_space_group_name_H-M "A M A 2"
_symmetry_group_IT_number 40
_symmetry_cell_setting 'orthorhombic'
loop_
_space_group_symop_operation_xyz
x,y,z
-x,-y,z
1/2-x,y,z
1/2+x,-y,z
x,1/2+y,1/2+z
-x,1/2-y,1/2+z
1/2-x,1/2+y,1/2+z
1/2+x,1/2-y,1/2+z
loop_
_atom_site_type_symbol
_atom_site_label
_atom_site_fract_x
_atom_site_fract_y
_atom_site_fract_z
Si Si1 0.896688 0.610417 0.514000
Si Si2 0.813038 0.282401 0.518175
Si Si3 0.500000 0.500000 0.611384
Si Si4 0.311107 0.122542 0.759693
Si Si5 0.118460 0.816877 0.844169
Si Si6 0.541067 0.155957 0.705088
Si Si7 0.868613 0.968307 0.609473
Si Si8 0.310689 0.452058 0.870488
O O1 0.845752 0.475603 0.530446
O O2 0.910175 0.616584 0.423030
O O3 0.881609 0.821188 0.541837
O O4 0.948329 0.529387 0.557776
O O5 0.750000 0.334498 0.521973
O O6 0.827429 0.131636 0.583825
O O7 0.829865 0.189023 0.437518
O O8 0.507171 0.324256 0.668020
O O9 0.250000 0.049719 0.750056
O O10 0.340598 0.142774 0.678702
O O11 0.312650 0.334591 0.791903
O O12 0.340582 0.977153 0.816234
O O13 0.075179 0.771047 0.777967
O O14 0.150338 0.627645 0.863433
O O15 0.500000 0.000000 0.737620
O O16 0.576542 0.066094 0.637240
O O17 0.250000 0.525137 0.887773
#
# Coordination Sequence:
#
# PCOD8184180 Si02
#       8
#     8   8   4   8   8   8   8   8
#     4  12  25  43  68  99 129 175 220 275 330 393
#     4  11  23  40  65 100 136 171 218 271 327 391
#     4  12  26  46  70  92 130 174 224 276 332 392
#     4  10  22  39  61  93 133 173 212 260 316 390
#     4  11  24  40  66  93 129 169 221 263 329 391
#     4  11  25  45  66  93 127 171 214 277 331 388
#     4  11  23  42  66  94 133 169 217 268 332 393
#     4  10  21  38  62  94 134 175 213 262 319 388
#
# _framework density 19.745356000000001
#
# number of rings (size 3 to 8) (size 9 to 14) (size 15 to 20)
#    0.000    1.067    5.333    0.800    2.800    1.600 
#    0.000    4.000    0.000    0.000    0.000    0.000 
#    0.000    0.000    0.000    0.000    0.000    0.000 
#
# Total GULP energy -372127.610729 kJ/mol
# GULP energy per Si atom -12404.253691 kJ/mol
# Density = 1.970041 g / cm^3
# Si number density = 19.745356 Si / 1000 Ang^3
#
#
#
# Elastic Constant Matrix: (Units=GPa)
#
#
# Indices 1 2 3 4 5 6 
#
# 1 102.9423 42.0588 37.3803 0.0000 0.0000 0.0000
# 2 42.0588 84.7178 32.1372 0.0000 0.0000 0.0000
# 3 37.3803 32.1372 84.5378 0.0000 0.0000 0.0000
# 4 0.0000 0.0000 0.0000 26.4604 0.0000 0.0000
# 5 0.0000 0.0000 0.0000 0.0000 28.5603 0.0000
# 6 0.0000 0.0000 0.0000 0.0000 0.0000 37.3001
#
#
#
# Elastic Compliance Matrix: (Units=1/GPa)
#
#
# Indices 1 2 3 4 5 6 
#
# 1 0.013207 -0.005073 -0.003911 0.000000 0.000000 0.000000
# 2 -0.005073 0.015742 -0.003741 0.000000 0.000000 0.000000
# 3 -0.003911 -0.003741 0.014981 0.000000 0.000000 0.000000
# 4 0.000000 0.000000 0.000000 0.037792 0.000000 0.000000
# 5 0.000000 0.000000 0.000000 0.000000 0.035014 0.000000
# 6 0.000000 0.000000 0.000000 0.000000 0.000000 0.026810
#
#
# Mechanical properties :
#
#
# Convention : Reuss Voigt Hill
#
# Bulk Modulus (GPa) = 54.11663 55.03895 54.57779
# Shear Modulus (GPa) = 28.54609 29.17224 28.85916
#
# Velocity S-wave (km/s) = 3.80638 3.84790 3.82719
# Velocity P-wave (km/s) = 6.83994 6.90483 6.87246
#
# Compressibility (1/GPa) = 0.01847861
#
# Stress axis : x y z
#
# Youngs Moduli (GPa) = 75.71664 63.52595 66.75274
#
# Poissons Ratio (x) = 0.32227 0.26109
# Poissons Ratio (y) = 0.38412 0.24972
# Poissons Ratio (z) = 0.29615 0.23765
#
# Static dielectric constant tensor:
#      x y z
#    x 3.614190 0.000000 0.000000 
#    y 0.000000 3.585060 0.000000 
#    z 0.000000 0.000000 3.724610 
# 
# 
# High freq. dielectric constant tensor:
#      x y z
#    x 1.771190 0.000000 0.000000 
#    y 0.000000 1.775950 0.000000 
#    z 0.000000 0.000000 1.779830 
# 
# From -- ./inp_files/21610.got.cif
#   From: 2010.03.12/outbox.cif.g09.slc.cpg/sg40_11_cif.got.tgz:21610.got - 2010.04.14 01:38:03.
