data_PCOD8184288
_publ_section_title
;
Structure prediction by ZEFSAII (Michael W. Deem and Ramdas Pophale) SiO2 
 PCOD8184288
Probable space group: A M A 2
;
_chemical_formula_sum "Si O2"
_cell_formula_units_Z 48
_cell_length_a 22.586769
_cell_length_b 9.340672
_cell_length_c 10.452155
_cell_angle_alpha 90.000000
_cell_angle_beta 90.000000
_cell_angle_gamma 90.000000
_cell_volume 2205.149680
_symmetry_space_group_name_H-M "A M A 2"
_symmetry_group_IT_number 40
_symmetry_cell_setting 'orthorhombic'
loop_
_space_group_symop_operation_xyz
x,y,z
-x,-y,z
1/2-x,y,z
1/2+x,-y,z
x,1/2+y,1/2+z
-x,1/2-y,1/2+z
1/2-x,1/2+y,1/2+z
1/2+x,1/2-y,1/2+z
loop_
_atom_site_type_symbol
_atom_site_label
_atom_site_fract_x
_atom_site_fract_y
_atom_site_fract_z
Si Si1 0.750000 0.846648 0.805331
Si Si2 0.250000 0.072415 0.188678
Si Si3 0.750000 0.631301 0.449012
Si Si4 0.028923 0.148779 0.609511
Si Si5 0.750000 0.077027 0.457782
Si Si6 0.978524 0.840114 0.328346
Si Si7 0.151821 0.258420 0.288620
Si Si8 0.154663 0.543681 0.144097
O O1 0.750000 0.750200 0.933576
O O2 0.808274 0.831085 0.716874
O O3 0.750000 0.014900 0.837027
O O4 0.191863 0.173838 0.183337
O O5 0.250000 0.947201 0.083823
O O6 0.250000 0.983233 0.317108
O O7 0.808980 0.728043 0.421237
O O8 0.005002 0.210196 0.473366
O O9 0.015854 0.252808 0.725942
O O10 0.098541 0.125813 0.589086
O O11 0.000000 0.000000 0.646284
O O12 0.808755 0.028427 0.529561
O O13 0.908051 0.829710 0.308906
O O14 0.000000 0.000000 0.309349
O O15 0.134050 0.415435 0.237948
#
# Coordination Sequence:
#
# PCOD8184288 Si02
#       8
#     4   4   4   8   4   8   8   8
#     4   9  20  36  61  99 125 167 220 271 334 406
#     4  11  22  36  63 101 139 167 210 276 341 393
#     4   9  20  38  61  95 127 173 218 260 337 413
#     4  11  24  46  69  94 133 181 231 283 342 400
#     4  11  22  36  61  99 135 169 212 275 338 400
#     4  11  26  45  68 102 133 178 237 288 341 405
#     4  10  21  42  65  90 133 174 219 279 334 400
#     4  10  21  41  67  89 127 179 224 269 339 411
#
# _framework density 21.767230000000001
#
# number of rings (size 3 to 8) (size 9 to 14) (size 15 to 20)
#    0.000    1.667    1.667    3.500    0.000   10.000 
#    6.000    0.000    0.000    0.000    0.000    0.000 
#    0.000    0.000    0.000    0.000    0.000    0.000 
#
# Total GULP energy -297530.581165 kJ/mol
# GULP energy per Si atom -12397.107549 kJ/mol
# Density = 2.171769 g / cm^3
# Si number density = 21.767230 Si / 1000 Ang^3
#
#
#
# Elastic Constant Matrix: (Units=GPa)
#
#
# Indices 1 2 3 4 5 6 
#
# 1 140.7426 59.2715 50.2481 0.0000 0.0000 0.0000
# 2 59.2715 89.4126 61.4464 0.0000 0.0000 0.0000
# 3 50.2481 61.4464 144.1287 0.0000 0.0000 0.0000
# 4 0.0000 0.0000 0.0000 355.8404 0.0000 0.0000
# 5 0.0000 0.0000 0.0000 0.0000 23.2521 0.0000
# 6 0.0000 0.0000 0.0000 0.0000 0.0000 31.1001
#
#
#
# Elastic Compliance Matrix: (Units=1/GPa)
#
#
# Indices 1 2 3 4 5 6 
#
# 1 0.009944 -0.005954 -0.000929 0.000000 0.000000 0.000000
# 2 -0.005954 0.019383 -0.006188 0.000000 0.000000 0.000000
# 3 -0.000929 -0.006188 0.009900 0.000000 0.000000 0.000000
# 4 0.000000 0.000000 0.000000 0.002810 0.000000 0.000000
# 5 0.000000 0.000000 0.000000 0.000000 0.043007 0.000000
# 6 0.000000 0.000000 0.000000 0.000000 0.000000 0.032154
#
#
# Mechanical properties :
#
#
# Convention : Reuss Voigt Hill
#
# Bulk Modulus (GPa) = 76.41267 79.57952 77.99610
# Shear Modulus (GPa) = 33.85199 95.59306 64.72252
#
# Velocity S-wave (km/s) = 3.94786 6.63411 5.45880
# Velocity P-wave (km/s) = 7.48074 9.76322 8.69718
#
# Compressibility (1/GPa) = 0.01308684
#
# Stress axis : x y z
#
# Youngs Moduli (GPa) = 100.56316 51.59050 101.00881
#
# Poissons Ratio (x) = 0.30716 0.09379
# Poissons Ratio (y) = 0.59873 0.62505
# Poissons Ratio (z) = 0.09338 0.31925
#
# Static dielectric constant tensor:
#      x y z
#    x 3.569120 0.000000 0.000000 
#    y 0.000000 3.090310 0.000000 
#    z 0.000000 0.000000 3.987460 
# 
# 
# High freq. dielectric constant tensor:
#      x y z
#    x 1.852260 0.000000 0.000000 
#    y 0.000000 1.856930 0.000000 
#    z 0.000000 0.000000 1.863020 
# 
# From -- ./inp_files/13970.got.cif
#   From: 2010.03.12/outbox.cif.g09.slc.cpg/sg40_7_cif.got.tgz:13970.got - 2010.04.14 01:38:03.
