data_PCOD8184166
_publ_section_title
;
Structure prediction by ZEFSAII (Michael W. Deem and Ramdas Pophale) SiO2 
 PCOD8184166
Probable space group: A M A 2
;
_chemical_formula_sum "Si O2"
_cell_formula_units_Z 48
_cell_length_a 8.691251
_cell_length_b 9.166026
_cell_length_c 30.033284
_cell_angle_alpha 90.000000
_cell_angle_beta 90.000000
_cell_angle_gamma 90.000000
_cell_volume 2392.578523
_symmetry_space_group_name_H-M "A M A 2"
_symmetry_group_IT_number 40
_symmetry_cell_setting 'orthorhombic'
loop_
_space_group_symop_operation_xyz
x,y,z
-x,-y,z
1/2-x,y,z
1/2+x,-y,z
x,1/2+y,1/2+z
-x,1/2-y,1/2+z
1/2-x,1/2+y,1/2+z
1/2+x,1/2-y,1/2+z
loop_
_atom_site_type_symbol
_atom_site_label
_atom_site_fract_x
_atom_site_fract_y
_atom_site_fract_z
Si Si1 0.067933 0.657273 0.504450
Si Si2 0.570574 0.347117 0.078159
Si Si3 0.432398 0.158445 0.255337
Si Si4 0.930193 0.345945 0.181509
Si Si5 0.932743 0.340883 0.334964
Si Si6 0.568856 0.158729 0.420545
O O1 0.250000 0.646475 0.505889
O O2 0.008720 0.761830 0.464960
O O3 0.000000 0.500000 0.494862
O O4 0.007370 0.716242 0.551451
O O5 0.500000 0.500000 0.062120
O O6 0.750000 0.350872 0.067838
O O7 0.535125 0.319097 0.129776
O O8 0.250000 0.149779 0.256938
O O9 0.487633 0.214132 0.207161
O O10 0.493949 0.271394 0.291361
O O11 0.500000 0.000000 0.265390
O O12 0.750000 0.346497 0.192189
O O13 0.000000 0.500000 0.197298
O O14 0.750000 0.347237 0.329548
O O15 0.985468 0.248130 0.377546
O O16 0.000000 0.500000 0.341822
O O17 0.750000 0.144963 0.421681
O O18 0.500000 0.000000 0.417750
#
# Coordination Sequence:
#
# PCOD8184166 Si02
#       6
#     8   8   8   8   8   8
#     4  11  23  39  59  86 119 156 198 243 293 347
#     4  10  21  38  61  88 118 154 196 242 292 348
#     4  12  25  41  61  87 119 155 196 242 293 348
#     4  10  21  39  62  88 118 154 196 241 292 348
#     4  11  23  41  63  89 120 155 196 240 290 345
#     4  10  23  40  61  88 118 154 195 240 290 346
#
# _framework density 20.062037
#
# number of rings (size 3 to 8) (size 9 to 14) (size 15 to 20)
#    0.000    1.333    0.000    5.500    0.000    8.000 
#    0.000    0.000    0.000    0.000    0.000    0.000 
#    0.000    0.000    0.000    0.000    0.000    0.000 
#
# Total GULP energy -297772.714645 kJ/mol
# GULP energy per Si atom -12407.196444 kJ/mol
# Density = 2.001637 g / cm^3
# Si number density = 20.062037 Si / 1000 Ang^3
#
#
#
# Elastic Constant Matrix: (Units=GPa)
#
#
# Indices 1 2 3 4 5 6 
#
# 1 111.7269 58.5450 51.4499 0.0000 0.0000 0.0000
# 2 58.5450 164.8630 67.1630 0.0000 0.0000 0.0000
# 3 51.4499 67.1630 105.6502 0.0000 0.0000 0.0000
# 4 0.0000 0.0000 0.0000 39.7053 0.0000 0.0000
# 5 0.0000 0.0000 0.0000 0.0000 29.4360 0.0000
# 6 0.0000 0.0000 0.0000 0.0000 0.0000 43.5430
#
#
#
# Elastic Compliance Matrix: (Units=1/GPa)
#
#
# Indices 1 2 3 4 5 6 
#
# 1 0.012314 -0.002604 -0.004341 0.000000 0.000000 0.000000
# 2 -0.002604 0.008736 -0.004285 0.000000 0.000000 0.000000
# 3 -0.004341 -0.004285 0.014304 0.000000 0.000000 0.000000
# 4 0.000000 0.000000 0.000000 0.025186 0.000000 0.000000
# 5 0.000000 0.000000 0.000000 0.000000 0.033972 0.000000
# 6 0.000000 0.000000 0.000000 0.000000 0.000000 0.022966
#
#
# Mechanical properties :
#
#
# Convention : Reuss Voigt Hill
#
# Bulk Modulus (GPa) = 77.56722 81.83951 79.70336
# Shear Modulus (GPa) = 34.66515 36.20899 35.43707
#
# Velocity S-wave (km/s) = 4.16131 4.25296 4.20739
# Velocity P-wave (km/s) = 7.86360 8.06218 7.96351
#
# Compressibility (1/GPa) = 0.01289204
#
# Stress axis : x y z
#
# Youngs Moduli (GPa) = 81.20705 114.46425 69.91240
#
# Poissons Ratio (x) = 0.29811 0.30350
# Poissons Ratio (y) = 0.21150 0.29961
# Poissons Ratio (z) = 0.35253 0.49054
#
# Static dielectric constant tensor:
#      x y z
#    x 3.727820 0.000000 0.000000 
#    y 0.000000 3.657940 0.000000 
#    z 0.000000 0.000000 3.825090 
# 
# 
# High freq. dielectric constant tensor:
#      x y z
#    x 1.794800 0.000000 0.000000 
#    y 0.000000 1.792560 0.000000 
#    z 0.000000 0.000000 1.797450 
# 
# From -- ./inp_files/26111.got.cif
#   From: 2010.03.12/outbox.cif.g09.slc.cpg/sg40_14_cif.got.tgz:26111.got - 2010.04.14 01:38:03.
