data_PCOD8184528
_publ_section_title
;
Structure prediction by ZEFSAII (Michael W. Deem and Ramdas Pophale) SiO2 
 PCOD8184528
Probable space group: A M A 2
;
_chemical_formula_sum "Si O2"
_cell_formula_units_Z 48
_cell_length_a 25.167448
_cell_length_b 5.307450
_cell_length_c 14.258748
_cell_angle_alpha 90.000000
_cell_angle_beta 90.000000
_cell_angle_gamma 90.000000
_cell_volume 1904.611863
_symmetry_space_group_name_H-M "A M A 2"
_symmetry_group_IT_number 40
_symmetry_cell_setting 'orthorhombic'
loop_
_space_group_symop_operation_xyz
x,y,z
-x,-y,z
1/2-x,y,z
1/2+x,-y,z
x,1/2+y,1/2+z
-x,1/2-y,1/2+z
1/2-x,1/2+y,1/2+z
1/2+x,1/2-y,1/2+z
loop_
_atom_site_type_symbol
_atom_site_label
_atom_site_fract_x
_atom_site_fract_y
_atom_site_fract_z
Si Si1 0.750000 0.268321 0.836231
Si Si2 0.250000 0.112906 0.690497
Si Si3 0.250000 0.380197 0.002202
Si Si4 0.637823 0.762711 0.939965
Si Si5 0.000000 0.000000 0.835573
Si Si6 0.927113 0.754212 0.479835
Si Si7 0.159478 0.909726 0.248631
Si Si8 0.049757 0.325719 0.686372
O O1 0.805414 0.367355 0.792235
O O2 0.750000 0.978371 0.801304
O O3 0.750000 0.347248 0.946088
O O4 0.196666 0.271785 0.672553
O O5 0.250000 0.896490 0.614254
O O6 0.302627 0.224289 0.980167
O O7 0.642899 0.789902 0.828656
O O8 0.608143 0.498156 0.959258
O O9 0.607157 0.998653 0.982468
O O10 0.954400 0.884796 0.768188
O O11 0.026449 0.784035 0.902114
O O12 0.952458 0.795467 0.582770
O O13 0.104424 0.988775 0.198217
O O14 0.000000 0.500000 0.701549
#
# Coordination Sequence:
#
# PCOD8184528 Si02
#       8
#     4   4   4   8   4   8   8   8
#     4   9  23  41  70  97 151 190 245 308 375 444
#     4  11  23  43  71 103 149 197 250 315 374 470
#     4  10  24  44  69 114 140 201 249 309 381 458
#     4  11  26  49  77 107 156 196 251 320 384 461
#     4  12  28  50  78 110 160 202 264 326 386 460
#     4  12  28  50  77 111 151 204 255 317 389 463
#     4  10  23  45  68 109 143 198 250 311 383 451
#     4  12  27  46  77 109 151 203 258 317 389 462
#
# _framework density 25.201985000000001
#
# number of rings (size 3 to 8) (size 9 to 14) (size 15 to 20)
#    0.000    1.000    2.500    2.500    9.333    2.000 
#    0.000    0.000    0.000    0.000    0.000    0.000 
#    0.000    0.000    0.000    0.000    0.000    0.000 
#
# Total GULP energy -297382.237790 kJ/mol
# GULP energy per Si atom -12390.926575 kJ/mol
# Density = 2.514462 g / cm^3
# Si number density = 25.201985 Si / 1000 Ang^3
#
#
#
# Elastic Constant Matrix: (Units=GPa)
#
#
# Indices 1 2 3 4 5 6 
#
# 1 180.6164 49.1040 45.3017 0.0000 0.0000 0.0000
# 2 49.1040 85.7862 7.0282 0.0000 0.0000 0.0000
# 3 45.3017 7.0282 125.0980 0.0000 0.0000 0.0000
# 4 0.0000 0.0000 0.0000 22.4639 0.0000 0.0000
# 5 0.0000 0.0000 0.0000 0.0000 27.5120 0.0000
# 6 0.0000 0.0000 0.0000 0.0000 0.0000 18.8192
#
#
#
# Elastic Compliance Matrix: (Units=1/GPa)
#
#
# Indices 1 2 3 4 5 6 
#
# 1 0.007203 -0.003928 -0.002388 0.000000 0.000000 0.000000
# 2 -0.003928 0.013852 0.000644 0.000000 0.000000 0.000000
# 3 -0.002388 0.000644 0.008822 0.000000 0.000000 0.000000
# 4 0.000000 0.000000 0.000000 0.044516 0.000000 0.000000
# 5 0.000000 0.000000 0.000000 0.000000 0.036348 0.000000
# 6 0.000000 0.000000 0.000000 0.000000 0.000000 0.053137
#
#
# Mechanical properties :
#
#
# Convention : Reuss Voigt Hill
#
# Bulk Modulus (GPa) = 53.95178 66.04093 59.99636
# Shear Modulus (GPa) = 27.56344 33.09680 30.33012
#
# Velocity S-wave (km/s) = 3.31070 3.62783 3.47289
# Velocity P-wave (km/s) = 6.00571 6.61889 6.31974
#
# Compressibility (1/GPa) = 0.01853507
#
# Stress axis : x y z
#
# Youngs Moduli (GPa) = 138.82550 72.19053 113.34955
#
# Poissons Ratio (x) = 0.28353 0.27066
# Poissons Ratio (y) = 0.54524 -0.07300
# Poissons Ratio (z) = 0.33150 -0.04649
#
# Static dielectric constant tensor:
#      x y z
#    x 4.823530 0.000000 0.000000 
#    y 0.000000 4.157460 0.000000 
#    z 0.000000 0.000000 4.763990 
# 
# 
# High freq. dielectric constant tensor:
#      x y z
#    x 2.033170 0.000000 0.000000 
#    y 0.000000 1.973410 0.000000 
#    z 0.000000 0.000000 2.013110 
# 
# From -- ./inp_files/18688.got.cif
#   From: 2010.03.12/outbox.cif.g09.slc.cpg/sg40_10_cif.got.tgz:18688.got - 2010.04.14 01:38:03.
