data_PCOD8184074
_publ_section_title
;
Structure prediction by ZEFSAII (Michael W. Deem and Ramdas Pophale) SiO2 
 PCOD8184074
Probable space group: A M A 2
;
_chemical_formula_sum "Si O2"
_cell_formula_units_Z 64
_cell_length_a 10.320794
_cell_length_b 9.675126
_cell_length_c 32.745466
_cell_angle_alpha 90.000000
_cell_angle_beta 90.000000
_cell_angle_gamma 90.000000
_cell_volume 3269.797930
_symmetry_space_group_name_H-M "A M A 2"
_symmetry_group_IT_number 40
_symmetry_cell_setting 'orthorhombic'
loop_
_space_group_symop_operation_xyz
x,y,z
-x,-y,z
1/2-x,y,z
1/2+x,-y,z
x,1/2+y,1/2+z
-x,1/2-y,1/2+z
1/2-x,1/2+y,1/2+z
1/2+x,1/2-y,1/2+z
loop_
_atom_site_type_symbol
_atom_site_label
_atom_site_fract_x
_atom_site_fract_y
_atom_site_fract_z
Si Si1 0.605478 0.379010 0.622700
Si Si2 0.898390 0.615692 0.271235
Si Si3 0.960336 0.342820 0.534858
Si Si4 0.110228 0.614397 0.447524
Si Si5 0.105478 0.120990 0.324281
Si Si6 0.960336 0.342820 0.912124
Si Si7 0.101610 0.384308 0.175746
Si Si8 0.389772 0.114397 0.499457
O O1 0.500000 0.500000 0.626973
O O2 0.750000 0.436035 0.632885
O O3 0.612221 0.311928 0.577212
O O4 0.566088 0.258313 0.653617
O O5 0.750000 0.569916 0.281140
O O6 0.933912 0.758313 0.293365
O O7 0.916835 0.642804 0.223491
O O8 0.000000 0.500000 0.286606
O O9 0.877502 0.322548 0.493439
O O10 0.000000 0.500000 0.537055
O O11 0.082919 0.239773 0.530806
O O12 0.250000 0.550149 0.435935
O O13 0.000000 0.500000 0.443327
O O14 0.082919 0.739773 0.416175
O O15 0.250000 0.063965 0.314097
O O16 0.112221 0.188072 0.369769
O O17 0.000000 0.000000 0.320008
O O18 0.877502 0.322548 0.953542
O O19 0.000000 0.500000 0.909926
O O20 0.250000 0.430084 0.165842
O O21 0.000000 0.500000 0.160375
O O22 0.250000 0.050149 0.511046
O O23 0.500000 0.000000 0.503654
#
# Coordination Sequence:
#
# PCOD8184074 Si02
#       8
#     8   8   8   8   8   8   8   8
#     4  10  21  36  55  81 111 142 177 219 266 317
#     4   9  19  37  59  82 109 141 177 217 262 314
#     4   9  20  35  53  75 105 141 180 221 265 313
#     4  10  21  36  55  78 105 140 182 226 271 319
#     4  10  21  36  55  81 111 142 177 219 266 317
#     4   9  20  35  53  75 105 141 180 221 265 313
#     4   9  19  37  59  82 109 141 177 217 262 314
#     4  10  21  36  55  78 105 140 182 226 271 319
#
# _framework density 19.573073999999998
#
# number of rings (size 3 to 8) (size 9 to 14) (size 15 to 20)
#    0.000    2.500    0.000    0.750    0.000   16.500 
#    0.000    2.500    0.000    0.000    0.000    0.000 
#    0.000    0.000    0.000    0.000    0.000    0.000 
#
# Total GULP energy -396501.324168 kJ/mol
# GULP energy per Si atom -12390.666380 kJ/mol
# Density = 1.952852 g / cm^3
# Si number density = 19.573074 Si / 1000 Ang^3
#
#
#
# Elastic Constant Matrix: (Units=GPa)
#
#
# Indices 1 2 3 4 5 6 
#
# 1 168.2594 88.5905 39.1770 0.0000 0.0000 0.0000
# 2 88.5905 117.6135 55.1343 0.0000 0.0000 0.0000
# 3 39.1770 55.1343 63.9072 0.0000 0.0000 0.0000
# 4 0.0000 0.0000 0.0000 39.0208 0.0000 0.0000
# 5 0.0000 0.0000 0.0000 0.0000 5.9468 0.0000
# 6 0.0000 0.0000 0.0000 0.0000 0.0000 38.0793
#
#
#
# Elastic Compliance Matrix: (Units=1/GPa)
#
#
# Indices 1 2 3 4 5 6 
#
# 1 0.009863 -0.007715 0.000610 0.000000 0.000000 0.000000
# 2 -0.007715 0.020311 -0.012793 0.000000 0.000000 0.000000
# 3 0.000610 -0.012793 0.026311 0.000000 0.000000 0.000000
# 4 0.000000 0.000000 0.000000 0.025627 0.000000 0.000000
# 5 0.000000 0.000000 0.000000 0.000000 0.168159 0.000000
# 6 0.000000 0.000000 0.000000 0.000000 0.000000 0.026261
#
#
# Mechanical properties :
#
#
# Convention : Reuss Voigt Hill
#
# Bulk Modulus (GPa) = 59.92414 79.50930 69.71672
# Shear Modulus (GPa) = 15.53314 27.73459 21.63387
#
# Velocity S-wave (km/s) = 2.82014 3.76836 3.32819
# Velocity P-wave (km/s) = 6.42544 7.72295 7.10388
#
# Compressibility (1/GPa) = 0.01668776
#
# Stress axis : x y z
#
# Youngs Moduli (GPa) = 101.38467 49.23487 38.00713
#
# Poissons Ratio (x) = 0.37986 -0.02317
# Poissons Ratio (y) = 0.78220 0.48622
# Poissons Ratio (z) = -0.06180 0.62986
#
# Static dielectric constant tensor:
#      x y z
#    x 3.598080 0.000000 0.000000 
#    y 0.000000 3.410570 0.000000 
#    z 0.000000 0.000000 3.949790 
# 
# 
# High freq. dielectric constant tensor:
#      x y z
#    x 1.762700 0.000000 0.000000 
#    y 0.000000 1.754600 0.000000 
#    z 0.000000 0.000000 1.755360 
# 
# From -- ./inp_files/26552.got.cif
#   From: 2010.03.12/outbox.cif.g09.slc.cpg/sg40_14_cif.got.tgz:26552.got - 2010.04.14 01:38:03.
