data_PCOD8184379
_publ_section_title
;
Structure prediction by ZEFSAII (Michael W. Deem and Ramdas Pophale) SiO2 
 PCOD8184379
Probable space group: A M A 2
;
_chemical_formula_sum "Si O2"
_cell_formula_units_Z 64
_cell_length_a 8.649487
_cell_length_b 15.352837
_cell_length_c 23.465605
_cell_angle_alpha 90.000000
_cell_angle_beta 90.000000
_cell_angle_gamma 90.000000
_cell_volume 3116.095400
_symmetry_space_group_name_H-M "A M A 2"
_symmetry_group_IT_number 40
_symmetry_cell_setting 'orthorhombic'
loop_
_space_group_symop_operation_xyz
x,y,z
-x,-y,z
1/2-x,y,z
1/2+x,-y,z
x,1/2+y,1/2+z
-x,1/2-y,1/2+z
1/2-x,1/2+y,1/2+z
1/2+x,1/2-y,1/2+z
loop_
_atom_site_type_symbol
_atom_site_label
_atom_site_fract_x
_atom_site_fract_y
_atom_site_fract_z
Si Si1 0.568344 0.411242 0.607320
Si Si2 0.068393 0.853740 0.710945
Si Si3 0.930887 0.259003 0.519053
Si Si4 0.431169 0.756746 0.898326
Si Si5 0.931191 0.410877 0.324984
Si Si6 0.430459 0.333615 0.717167
Si Si7 0.430823 0.906837 0.340215
Si Si8 0.932551 0.090893 0.586615
O O1 0.500000 0.500000 0.580464
O O2 0.750000 0.418883 0.619389
O O3 0.531201 0.333674 0.564288
O O4 0.477443 0.396834 0.666100
O O5 0.250000 0.869093 0.720170
O O6 0.009041 0.890066 0.650519
O O7 0.973832 0.905659 0.758513
O O8 0.035201 0.751612 0.713906
O O9 0.750000 0.256481 0.504186
O O10 0.989547 0.167552 0.544983
O O11 0.026589 0.280418 0.462804
O O12 0.250000 0.758494 0.889432
O O13 0.503035 0.827430 0.856496
O O14 0.495359 0.662033 0.883360
O O15 0.750000 0.412157 0.333368
O O16 0.000000 0.500000 0.351088
O O17 0.250000 0.308325 0.714145
O O18 0.470549 0.383020 0.775361
O O19 0.250000 0.908312 0.351725
O O20 0.500000 0.000000 0.355565
O O21 0.750000 0.087072 0.586026
O O22 0.000000 0.000000 0.564041
#
# Coordination Sequence:
#
# PCOD8184379 Si02
#       8
#     8   8   8   8   8   8   8   8
#     4  11  23  41  65  93 128 167 208 259 315 375
#     4  11  21  38  64  95 131 169 207 255 314 377
#     4  10  23  45  65  86 124 169 211 264 319 372
#     4  12  26  44  67  94 124 166 214 267 320 376
#     4  12  25  43  66  96 130 169 211 260 316 378
#     4  11  22  37  63  96 130 168 208 255 313 376
#     4  11  24  42  65  95 129 168 211 260 316 376
#     4  10  22  40  63  93 126 166 206 252 311 366
#
# _framework density 20.538525
#
# number of rings (size 3 to 8) (size 9 to 14) (size 15 to 20)
#    0.000    1.000    2.500    4.500    0.000    7.000 
#    0.000    2.500    0.000    0.000    0.000    0.000 
#    0.000    0.000    0.000    0.000    0.000    0.000 
#
# Total GULP energy -397031.272065 kJ/mol
# GULP energy per Si atom -12407.227252 kJ/mol
# Density = 2.049178 g / cm^3
# Si number density = 20.538525 Si / 1000 Ang^3
#
#
#
# Elastic Constant Matrix: (Units=GPa)
#
#
# Indices 1 2 3 4 5 6 
#
# 1 83.0689 27.1551 24.7274 0.0000 0.0000 0.0000
# 2 27.1551 122.9785 9.7685 0.0000 0.0000 0.0000
# 3 24.7274 9.7685 75.2411 0.0000 0.0000 0.0000
# 4 0.0000 0.0000 0.0000 7.4758 0.0000 0.0000
# 5 0.0000 0.0000 0.0000 0.0000 22.8267 0.0000
# 6 0.0000 0.0000 0.0000 0.0000 0.0000 36.5272
#
#
#
# Elastic Compliance Matrix: (Units=1/GPa)
#
#
# Indices 1 2 3 4 5 6 
#
# 1 0.014239 -0.002801 -0.004316 0.000000 0.000000 0.000000
# 2 -0.002801 0.008767 -0.000218 0.000000 0.000000 0.000000
# 3 -0.004316 -0.000218 0.014737 0.000000 0.000000 0.000000
# 4 0.000000 0.000000 0.000000 0.133766 0.000000 0.000000
# 5 0.000000 0.000000 0.000000 0.000000 0.043808 0.000000
# 6 0.000000 0.000000 0.000000 0.000000 0.000000 0.027377
#
#
# Mechanical properties :
#
#
# Convention : Reuss Voigt Hill
#
# Bulk Modulus (GPa) = 43.33901 44.95451 44.14676
# Shear Modulus (GPa) = 18.86405 28.00843 23.43624
#
# Velocity S-wave (km/s) = 3.03392 3.69684 3.38166
# Velocity P-wave (km/s) = 5.78100 6.33700 6.06538
#
# Compressibility (1/GPa) = 0.02307390
#
# Stress axis : x y z
#
# Youngs Moduli (GPa) = 70.23165 114.05968 67.85553
#
# Poissons Ratio (x) = 0.31951 0.29285
# Poissons Ratio (y) = 0.19674 0.01477
# Poissons Ratio (z) = 0.30310 0.02483
#
# Static dielectric constant tensor:
#      x y z
#    x 3.729070 0.000000 0.000000 
#    y 0.000000 4.033490 0.000000 
#    z 0.000000 0.000000 3.744990 
# 
# 
# High freq. dielectric constant tensor:
#      x y z
#    x 1.808090 0.000000 0.000000 
#    y 0.000000 1.819850 0.000000 
#    z 0.000000 0.000000 1.800370 
# 
# From -- ./inp_files/24325.got.cif
#   From: 2010.03.12/outbox.cif.g09.slc.cpg/sg40_13_cif.got.tgz:24325.got - 2010.04.14 01:38:03.
