data_PCOD8184956
_publ_section_title
;
Structure prediction by ZEFSAII (Michael W. Deem and Ramdas Pophale) SiO2 
 PCOD8184956
Probable space group: A B A 2
;
_chemical_formula_sum "Si O2"
_cell_formula_units_Z 64
_cell_length_a 8.414014
_cell_length_b 19.993990
_cell_length_c 18.677992
_cell_angle_alpha 90.000000
_cell_angle_beta 90.000000
_cell_angle_gamma 90.000000
_cell_volume 3142.193211
_symmetry_space_group_name_H-M "A B A 2"
_symmetry_group_IT_number 41
_symmetry_cell_setting 'orthorhombic'
loop_
_space_group_symop_operation_xyz
x,y,z
-x,-y,z
1/2-x,y,1/2+z
1/2+x,-y,1/2+z
x,1/2+y,1/2+z
-x,1/2-y,1/2+z
1/2-x,1/2+y,z
1/2+x,1/2-y,z
loop_
_atom_site_type_symbol
_atom_site_label
_atom_site_fract_x
_atom_site_fract_y
_atom_site_fract_z
Si Si1 0.607258 0.936236 0.567920
Si Si2 0.131314 0.055069 0.463379
Si Si3 0.433321 0.818739 0.977172
Si Si4 0.923070 0.680688 0.487642
Si Si5 0.131314 0.055069 0.831142
Si Si6 0.566679 0.181261 0.317349
Si Si7 0.076930 0.819312 0.306879
Si Si8 0.107258 0.063765 0.226601
O O1 0.764000 0.966814 0.530865
O O2 0.529626 0.878511 0.519172
O O3 0.643337 0.907220 0.647260
O O4 0.500000 0.000000 0.575432
O O5 0.250000 0.069430 0.397260
O O6 0.047151 0.120268 0.495399
O O7 0.000000 0.000000 0.440921
O O8 0.507469 0.752054 0.012235
O O9 0.259324 0.828376 0.012342
O O10 0.426036 0.818578 0.891932
O O11 0.926036 0.681422 0.402588
O O12 0.236000 0.033186 0.763656
O O13 0.047151 0.120268 0.799121
O O14 0.000000 0.000000 0.853599
O O15 0.740676 0.171624 0.282179
O O16 0.492531 0.247946 0.282286
O O17 0.970374 0.878511 0.275349
O O18 0.000000 0.000000 0.219088
#
# Coordination Sequence:
#
# PCOD8184956 Si02
#       8
#     8   8   8   8   8   8   8   8
#     4  11  24  43  64  90 132 175 213 263 326 384
#     4  12  24  38  64  96 127 168 218 277 321 383
#     4  10  21  35  64  92 127 158 210 265 318 364
#     4  10  20  38  61  94 125 167 205 260 315 379
#     4  12  24  38  64  96 127 168 218 277 321 383
#     4  10  21  35  64  92 127 158 210 265 318 364
#     4  10  20  38  61  94 125 167 205 260 315 379
#     4  11  24  43  64  90 132 175 213 263 326 384
#
# _framework density 20.367939
#
# number of rings (size 3 to 8) (size 9 to 14) (size 15 to 20)
#    0.000    1.250    2.500    3.750    7.000    0.500 
#    0.000    6.250    0.000    0.000    0.000    0.000 
#    0.000    0.000    0.000    0.000    0.000    0.000 
#
# Total GULP energy -396646.556914 kJ/mol
# GULP energy per Si atom -12395.204904 kJ/mol
# Density = 2.032158 g / cm^3
# Si number density = 20.367939 Si / 1000 Ang^3
#
#
#
# Elastic Constant Matrix: (Units=GPa)
#
#
# Indices 1 2 3 4 5 6 
#
# 1 127.7745 28.3937 44.2670 0.0000 0.0000 0.0000
# 2 28.3937 102.4523 23.7017 0.0000 0.0000 0.0000
# 3 44.2670 23.7017 56.4706 0.0000 0.0000 0.0000
# 4 0.0000 0.0000 0.0000 -3.5214 0.0000 0.0000
# 5 0.0000 0.0000 0.0000 0.0000 -193.5293 0.0000
# 6 0.0000 0.0000 0.0000 0.0000 0.0000 39.2365
#
#
#
# Elastic Compliance Matrix: (Units=1/GPa)
#
#
# Indices 1 2 3 4 5 6 
#
# 1 0.010866 -0.001153 -0.008034 0.000000 0.000000 0.000000
# 2 -0.001153 0.010933 -0.003685 0.000000 0.000000 0.000000
# 3 -0.008034 -0.003685 0.025553 0.000000 0.000000 0.000000
# 4 0.000000 0.000000 0.000000 -0.283976 0.000000 0.000000
# 5 0.000000 0.000000 0.000000 0.000000 -0.005167 0.000000
# 6 0.000000 0.000000 0.000000 0.000000 0.000000 0.025486
#
#
# Mechanical properties :
#
#
# Convention : Reuss Voigt Hill
#
# Bulk Modulus (GPa) = 46.27919 53.26911 49.77415
# Shear Modulus (GPa) = -27.26874 -18.87385 -23.07130
#
# Velocity S-wave (km/s) = -3.66294 -3.04739 -3.36925
# Velocity P-wave (km/s) = 2.20939 3.71862 3.05855
#
# Compressibility (1/GPa) = 0.02160799
#
# Stress axis : x y z
#
# Youngs Moduli (GPa) = 92.03259 91.46947 39.13499
#
# Poissons Ratio (x) = 0.10544 0.31440
# Poissons Ratio (y) = 0.10609 0.14421
# Poissons Ratio (z) = 0.73937 0.33706
#
# Static dielectric constant tensor:
#      x y z
#    x 4.151310 0.000000 0.000000 
#    y 0.000000 3.830970 0.000000 
#    z 0.000000 0.000000 3.625090 
# 
# 
# High freq. dielectric constant tensor:
#      x y z
#    x 1.816930 0.000000 0.000000 
#    y 0.000000 1.804280 0.000000 
#    z 0.000000 0.000000 1.757660 
# 
# From -- ./inp_files/11303.got.cif
#   From: 2010.03.12/outbox.cif.g09.slc.cpg/sg41_6_cif.got.tgz:11303.got - 2010.04.14 01:55:53.
