data_PCOD8184154
_publ_section_title
;
Structure prediction by ZEFSAII (Michael W. Deem and Ramdas Pophale) SiO2 
 PCOD8184154
Probable space group: A M A 2
;
_chemical_formula_sum "Si O2"
_cell_formula_units_Z 64
_cell_length_a 8.704718
_cell_length_b 30.831947
_cell_length_c 11.937798
_cell_angle_alpha 90.000000
_cell_angle_beta 90.000000
_cell_angle_gamma 90.000000
_cell_volume 3203.906864
_symmetry_space_group_name_H-M "A M A 2"
_symmetry_group_IT_number 40
_symmetry_cell_setting 'orthorhombic'
loop_
_space_group_symop_operation_xyz
x,y,z
-x,-y,z
1/2-x,y,z
1/2+x,-y,z
x,1/2+y,1/2+z
-x,1/2-y,1/2+z
1/2-x,1/2+y,1/2+z
1/2+x,1/2-y,1/2+z
loop_
_atom_site_type_symbol
_atom_site_label
_atom_site_fract_x
_atom_site_fract_y
_atom_site_fract_z
Si Si1 0.569352 0.375492 0.675340
Si Si2 0.431503 0.044620 0.781861
Si Si3 0.573987 0.161654 0.546587
Si Si4 0.929221 0.929716 0.535287
Si Si5 0.574551 0.700404 0.808117
Si Si6 0.430433 0.701372 0.260006
Si Si7 0.430352 0.955649 0.308137
Si Si8 0.931960 0.874293 0.922471
O O1 0.750000 0.383378 0.677656
O O2 0.532624 0.329696 0.732291
O O3 0.491250 0.414300 0.742189
O O4 0.503769 0.374680 0.548821
O O5 0.250000 0.043428 0.792015
O O6 0.482706 0.050303 0.653199
O O7 0.498698 0.084289 0.855144
O O8 0.500000 0.000000 0.829711
O O9 0.750000 0.145649 0.557080
O O10 0.460451 0.121270 0.537899
O O11 0.550123 0.190886 0.438036
O O12 0.528501 0.190905 0.650991
O O13 0.750000 0.937395 0.511516
O O14 0.026624 0.952661 0.438758
O O15 0.750000 0.692089 0.771611
O O16 0.526350 0.750023 0.793000
O O17 0.250000 0.695353 0.234910
O O18 0.483767 0.669704 0.360478
O O19 0.250000 0.957273 0.294842
O O20 0.500000 0.000000 0.257314
O O21 0.750000 0.876893 0.925177
#
# Coordination Sequence:
#
# PCOD8184154 Si02
#       8
#     8   8   8   8   8   8   8   8
#     4  11  23  40  65  89 119 161 208 252 303 367
#     4  10  21  38  60  87 119 151 194 243 298 358
#     4  11  22  37  61  93 126 157 198 254 310 363
#     4  11  21  38  64  91 122 161 202 244 301 366
#     4  10  23  40  61  89 124 161 200 253 311 358
#     4  10  21  41  64  86 121 164 204 250 306 365
#     4  12  25  42  63  90 126 160 203 254 305 363
#     4   9  20  40  62  85 115 158 204 250 299 359
#
# _framework density 19.975611000000001
#
# number of rings (size 3 to 8) (size 9 to 14) (size 15 to 20)
#    0.000    1.500    2.500    2.625    1.750    3.500 
#    0.000    3.750    0.000    0.000    0.000    0.000 
#    0.000    0.000    0.000    0.000    0.000    0.000 
#
# Total GULP energy -396937.264762 kJ/mol
# GULP energy per Si atom -12404.289524 kJ/mol
# Density = 1.993015 g / cm^3
# Si number density = 19.975611 Si / 1000 Ang^3
#
#
#
# Elastic Constant Matrix: (Units=GPa)
#
#
# Indices 1 2 3 4 5 6 
#
# 1 64.8863 33.9187 38.4137 0.0000 0.0000 0.0000
# 2 33.9187 158.4462 58.1605 0.0000 0.0000 0.0000
# 3 38.4137 58.1605 134.6030 0.0000 0.0000 0.0000
# 4 0.0000 0.0000 0.0000 40.4385 0.0000 0.0000
# 5 0.0000 0.0000 0.0000 0.0000 1.4363 0.0000
# 6 0.0000 0.0000 0.0000 0.0000 0.0000 33.0141
#
#
#
# Elastic Compliance Matrix: (Units=1/GPa)
#
#
# Indices 1 2 3 4 5 6 
#
# 1 0.019352 -0.002514 -0.004436 0.000000 0.000000 0.000000
# 2 -0.002514 0.007828 -0.002665 0.000000 0.000000 0.000000
# 3 -0.004436 -0.002665 0.009847 0.000000 0.000000 0.000000
# 4 0.000000 0.000000 0.000000 0.024729 0.000000 0.000000
# 5 0.000000 0.000000 0.000000 0.000000 0.696237 0.000000
# 6 0.000000 0.000000 0.000000 0.000000 0.000000 0.030290
#
#
# Mechanical properties :
#
#
# Convention : Reuss Voigt Hill
#
# Bulk Modulus (GPa) = 56.19296 68.76902 62.48099
# Shear Modulus (GPa) = 6.14669 30.14062 18.14366
#
# Velocity S-wave (km/s) = 1.75607 3.88863 3.01706
# Velocity P-wave (km/s) = 5.68362 7.39346 6.59419
#
# Compressibility (1/GPa) = 0.01779582
#
# Stress axis : x y z
#
# Youngs Moduli (GPa) = 51.67335 127.75228 101.55641
#
# Poissons Ratio (x) = 0.32120 0.45055
# Poissons Ratio (y) = 0.12992 0.27062
# Poissons Ratio (z) = 0.22925 0.34042
#
# Static dielectric constant tensor:
#      x y z
#    x 3.499070 0.000000 0.000000 
#    y 0.000000 3.734440 0.000000 
#    z 0.000000 0.000000 3.858720 
# 
# 
# High freq. dielectric constant tensor:
#      x y z
#    x 1.766420 0.000000 0.000000 
#    y 0.000000 1.793980 0.000000 
#    z 0.000000 0.000000 1.784010 
# 
# From -- ./inp_files/10585.got.cif
#   From: 2010.03.12/outbox.cif.g09.slc.cpg/sg40_6_cif.got.tgz:10585.got - 2010.04.14 01:38:03.
