data_PCOD8184255
_publ_section_title
;
Structure prediction by ZEFSAII (Michael W. Deem and Ramdas Pophale) SiO2 
 PCOD8184255
Probable space group: A M A 2
;
_chemical_formula_sum "Si O2"
_cell_formula_units_Z 48
_cell_length_a 15.307674
_cell_length_b 17.866208
_cell_length_c 8.715636
_cell_angle_alpha 90.000000
_cell_angle_beta 90.000000
_cell_angle_gamma 90.000000
_cell_volume 2383.640054
_symmetry_space_group_name_H-M "A M A 2"
_symmetry_group_IT_number 40
_symmetry_cell_setting 'orthorhombic'
loop_
_space_group_symop_operation_xyz
x,y,z
-x,-y,z
1/2-x,y,z
1/2+x,-y,z
x,1/2+y,1/2+z
-x,1/2-y,1/2+z
1/2-x,1/2+y,1/2+z
1/2+x,1/2-y,1/2+z
loop_
_atom_site_type_symbol
_atom_site_label
_atom_site_fract_x
_atom_site_fract_y
_atom_site_fract_z
Si Si1 0.073287 0.290089 0.517030
Si Si2 0.750000 0.293349 0.003599
Si Si3 0.250000 0.189295 0.857479
Si Si4 0.918200 0.050067 0.873881
Si Si5 0.250000 0.527461 0.508658
Si Si6 0.250000 0.548943 0.867278
Si Si7 0.846707 0.064842 0.545603
Si Si8 0.586406 0.207369 0.376282
O O1 0.166554 0.257307 0.469134
O O2 0.060090 0.366889 0.427958
O O3 0.066242 0.301880 0.697843
O O4 0.998774 0.233104 0.466362
O O5 0.750000 0.362455 0.887597
O O6 0.750000 0.325020 0.175837
O O7 0.335677 0.234440 0.907995
O O8 0.250000 0.109458 0.937141
O O9 0.907061 0.048991 0.690894
O O10 0.000000 0.000000 0.920022
O O11 0.833749 0.018559 0.957313
O O12 0.250000 0.530934 0.689778
O O13 0.163854 0.511661 0.945946
O O14 0.750000 0.092176 0.600070
O O15 0.889338 0.126161 0.437063
#
# Coordination Sequence:
#
# PCOD8184255 Si02
#       8
#     8   4   4   8   4   4   8   8
#     4  11  25  41  66  96 130 173 219 270 330 388
#     4  10  23  42  63  89 131 169 213 258 323 386
#     4  10  21  40  65  87 125 171 207 268 323 390
#     4  12  25  43  65  96 131 174 220 273 328 395
#     4  12  23  40  65  91 131 169 219 266 331 392
#     4  10  23  40  65  97 123 171 215 266 325 388
#     4  10  22  43  68  92 128 171 219 262 334 390
#     4  11  22  43  65  96 129 168 220 273 327 393
#
# _framework density 20.137270000000001
#
# number of rings (size 3 to 8) (size 9 to 14) (size 15 to 20)
#    0.500    0.667    1.667    4.500    0.000    8.000 
#    0.000    1.667    0.000    0.000    0.000    0.000 
#    0.000    0.000    0.000    0.000    0.000    0.000 
#
# Total GULP energy -297698.946689 kJ/mol
# GULP energy per Si atom -12404.122779 kJ/mol
# Density = 2.009144 g / cm^3
# Si number density = 20.137270 Si / 1000 Ang^3
#
#
#
# Elastic Constant Matrix: (Units=GPa)
#
#
# Indices 1 2 3 4 5 6 
#
# 1 114.3347 22.0997 16.3019 0.0000 0.0000 0.0000
# 2 22.0997 97.9840 25.7288 0.0000 0.0000 0.0000
# 3 16.3019 25.7288 83.0450 0.0000 0.0000 0.0000
# 4 0.0000 0.0000 0.0000 13.2179 0.0000 0.0000
# 5 0.0000 0.0000 0.0000 0.0000 44.6647 0.0000
# 6 0.0000 0.0000 0.0000 0.0000 0.0000 14.8624
#
#
#
# Elastic Compliance Matrix: (Units=1/GPa)
#
#
# Indices 1 2 3 4 5 6 
#
# 1 0.009267 -0.001755 -0.001275 0.000000 0.000000 0.000000
# 2 -0.001755 0.011442 -0.003200 0.000000 0.000000 0.000000
# 3 -0.001275 -0.003200 0.013284 0.000000 0.000000 0.000000
# 4 0.000000 0.000000 0.000000 0.075655 0.000000 0.000000
# 5 0.000000 0.000000 0.000000 0.000000 0.022389 0.000000
# 6 0.000000 0.000000 0.000000 0.000000 0.000000 0.067284
#
#
# Mechanical properties :
#
#
# Convention : Reuss Voigt Hill
#
# Bulk Modulus (GPa) = 46.44503 47.06939 46.75721
# Shear Modulus (GPa) = 22.83521 29.96455 26.39988
#
# Velocity S-wave (km/s) = 3.37111 3.86166 3.62470
# Velocity P-wave (km/s) = 6.18602 6.58090 6.38651
#
# Compressibility (1/GPa) = 0.02153083
#
# Stress axis : x y z
#
# Youngs Moduli (GPa) = 107.90534 87.39731 75.28113
#
# Poissons Ratio (x) = 0.15341 0.09601
# Poissons Ratio (y) = 0.18941 0.24093
# Poissons Ratio (z) = 0.13762 0.27970
#
# Static dielectric constant tensor:
#      x y z
#    x 3.754610 0.000000 0.000000 
#    y 0.000000 3.650970 0.000000 
#    z 0.000000 0.000000 3.666050 
# 
# 
# High freq. dielectric constant tensor:
#      x y z
#    x 1.792020 0.000000 0.000000 
#    y 0.000000 1.796560 0.000000 
#    z 0.000000 0.000000 1.794960 
# 
# From -- ./inp_files/6521.got.cif
#   From: 2010.03.12/outbox.cif.g09.slc.cpg/sg40_4_cif.got.tgz:6521.got - 2010.04.14 01:38:03.
