data_PCOD8184238
_publ_section_title
;
Structure prediction by ZEFSAII (Michael W. Deem and Ramdas Pophale) SiO2 
 PCOD8184238
Probable space group: A M A 2
;
_chemical_formula_sum "Si O2"
_cell_formula_units_Z 64
_cell_length_a 8.543182
_cell_length_b 31.079931
_cell_length_c 11.991299
_cell_angle_alpha 90.000000
_cell_angle_beta 90.000000
_cell_angle_gamma 90.000000
_cell_volume 3183.947782
_symmetry_space_group_name_H-M "A M A 2"
_symmetry_group_IT_number 40
_symmetry_cell_setting 'orthorhombic'
loop_
_space_group_symop_operation_xyz
x,y,z
-x,-y,z
1/2-x,y,z
1/2+x,-y,z
x,1/2+y,1/2+z
-x,1/2-y,1/2+z
1/2-x,1/2+y,1/2+z
1/2+x,1/2-y,1/2+z
loop_
_atom_site_type_symbol
_atom_site_label
_atom_site_fract_x
_atom_site_fract_y
_atom_site_fract_z
Si Si1 0.068444 0.331879 0.764590
Si Si2 0.566370 0.423700 0.752364
Si Si3 0.435524 0.295383 0.530903
Si Si4 0.064709 0.956184 0.030713
Si Si5 0.935669 0.375212 0.138306
Si Si6 0.433175 0.701287 0.988209
Si Si7 0.566034 0.954686 0.494442
Si Si8 0.064889 0.874281 0.884659
O O1 0.250000 0.324853 0.793060
O O2 0.015455 0.304776 0.657386
O O3 0.037229 0.381321 0.737964
O O4 0.962832 0.316351 0.865657
O O5 0.750000 0.412308 0.753261
O O6 0.522236 0.454054 0.649689
O O7 0.515755 0.446801 0.866741
O O8 0.250000 0.296076 0.519155
O O9 0.508572 0.248800 0.500681
O O10 0.501925 0.332086 0.448005
O O11 0.250000 0.957600 0.047846
O O12 0.014251 0.916319 0.953690
O O13 0.000000 0.000000 0.973710
O O14 0.750000 0.375069 0.129762
O O15 0.987106 0.376735 0.264918
O O16 0.003375 0.332044 0.079085
O O17 0.003019 0.416652 0.072227
O O18 0.250000 0.705410 0.008216
O O19 0.750000 0.956123 0.506651
O O20 0.500000 0.000000 0.536991
O O21 0.250000 0.872253 0.870505
#
# Coordination Sequence:
#
# PCOD8184238 Si02
#       8
#     8   8   8   8   8   8   8   8
#     4  11  21  37  62  91 122 155 196 245 298 353
#     4  11  21  38  62  89 122 157 195 240 298 358
#     4   9  20  39  61  85 119 157 191 239 299 348
#     4  11  23  40  61  88 122 156 197 247 298 353
#     4  10  22  40  59  83 117 154 195 242 292 350
#     4  10  21  40  62  85 120 159 194 242 298 352
#     4  10  22  39  58  84 116 149 190 237 289 344
#     4  10  22  41  60  83 117 155 196 244 295 348
#
# _framework density 20.100830999999999
#
# number of rings (size 3 to 8) (size 9 to 14) (size 15 to 20)
#    0.000    1.750    2.500    1.500    1.750    4.500 
#    0.000    3.750    0.000    0.000    0.000    0.000 
#    0.000    0.000    0.000    0.000    0.000    0.000 
#
# Total GULP energy -396864.519451 kJ/mol
# GULP energy per Si atom -12402.016233 kJ/mol
# Density = 2.005508 g / cm^3
# Si number density = 20.100831 Si / 1000 Ang^3
#
#
#
# Elastic Constant Matrix: (Units=GPa)
#
#
# Indices 1 2 3 4 5 6 
#
# 1 20.6768 20.0182 17.6840 0.0000 0.0000 0.0000
# 2 20.0182 179.2588 69.5241 0.0000 0.0000 0.0000
# 3 17.6840 69.5241 138.1785 0.0000 0.0000 0.0000
# 4 0.0000 0.0000 0.0000 -42.9601 0.0000 0.0000
# 5 0.0000 0.0000 0.0000 0.0000 28.8701 0.0000
# 6 0.0000 0.0000 0.0000 0.0000 0.0000 25.0082
#
#
#
# Elastic Compliance Matrix: (Units=1/GPa)
#
#
# Indices 1 2 3 4 5 6 
#
# 1 0.056959 -0.004390 -0.005081 0.000000 0.000000 0.000000
# 2 -0.004390 0.007269 -0.003096 0.000000 0.000000 0.000000
# 3 -0.005081 -0.003096 0.009445 0.000000 0.000000 0.000000
# 4 0.000000 0.000000 0.000000 -0.023277 0.000000 0.000000
# 5 0.000000 0.000000 0.000000 0.000000 0.034638 0.000000
# 6 0.000000 0.000000 0.000000 0.000000 0.000000 0.039987
#
#
# Mechanical properties :
#
#
# Convention : Reuss Voigt Hill
#
# Bulk Modulus (GPa) = 20.60152 61.39630 40.99891
# Shear Modulus (GPa) = 30.05999 17.57616 23.81807
#
# Velocity S-wave (km/s) = 3.87131 2.96023 3.44602
# Velocity P-wave (km/s) = 5.50037 6.50342 6.02281
#
# Compressibility (1/GPa) = 0.04854011
#
# Stress axis : x y z
#
# Youngs Moduli (GPa) = 17.55645 137.56186 105.87775
#
# Poissons Ratio (x) = 0.60393 0.53793
# Poissons Ratio (y) = 0.07708 0.32777
# Poissons Ratio (z) = 0.08920 0.42586
#
# Static dielectric constant tensor:
#      x y z
#    x 3.324460 0.000000 0.000000 
#    y 0.000000 4.341060 0.000000 
#    z 0.000000 0.000000 3.660750 
# 
# 
# High freq. dielectric constant tensor:
#      x y z
#    x 1.760720 0.000000 0.000000 
#    y 0.000000 1.803400 0.000000 
#    z 0.000000 0.000000 1.787090 
# 
# From -- ./inp_files/10558.got.cif
#   From: 2010.03.12/outbox.cif.g09.slc.cpg/sg40_6_cif.got.tgz:10558.got - 2010.04.14 01:38:03.
