data_PCOD8184996
_publ_section_title
;
Structure prediction by ZEFSAII (Michael W. Deem and Ramdas Pophale) SiO2 
 PCOD8184996
Probable space group: A B A 2
;
_chemical_formula_sum "Si O2"
_cell_formula_units_Z 52
_cell_length_a 9.315156
_cell_length_b 14.679728
_cell_length_c 16.403739
_cell_angle_alpha 90.000000
_cell_angle_beta 90.000000
_cell_angle_gamma 90.000000
_cell_volume 2243.112170
_symmetry_space_group_name_H-M "A B A 2"
_symmetry_group_IT_number 41
_symmetry_cell_setting 'orthorhombic'
loop_
_space_group_symop_operation_xyz
x,y,z
-x,-y,z
1/2-x,y,1/2+z
1/2+x,-y,1/2+z
x,1/2+y,1/2+z
-x,1/2-y,1/2+z
1/2-x,1/2+y,z
1/2+x,1/2-y,z
loop_
_atom_site_type_symbol
_atom_site_label
_atom_site_fract_x
_atom_site_fract_y
_atom_site_fract_z
Si Si1 0.081926 0.689074 0.707540
Si Si2 0.719426 0.053505 0.517877
Si Si3 0.500000 0.000000 0.653472
Si Si4 0.500000 0.000000 0.091633
Si Si5 0.880081 0.817588 0.629419
Si Si6 0.704885 0.248783 0.466219
Si Si7 0.500000 0.500000 0.885373
Si Si8 0.543447 0.301482 0.857615
O O1 0.054184 0.581084 0.711678
O O2 0.254715 0.699780 0.697325
O O3 0.995250 0.734849 0.632179
O O4 0.014690 0.738228 0.785902
O O5 0.627397 0.040230 0.599423
O O6 0.768581 0.157473 0.505427
O O7 0.641474 0.010063 0.440411
O O8 0.867643 0.003275 0.530492
O O9 0.468847 0.089146 0.147762
O O10 0.807042 0.822412 0.539431
O O11 0.793218 0.283399 0.386928
O O12 0.545580 0.221665 0.438293
O O13 0.522945 0.408139 0.832115
#
# Coordination Sequence:
#
# PCOD8184996 Si02
#       8
#     8   8   4   4   8   8   4   8
#     4  12  26  45  69  99 144 190 234 300 366 436
#     4  10  20  39  71 106 135 178 235 299 343 416
#     4  11  22  46  69  99 139 188 230 296 367 416
#     4  12  22  37  63 113 131 170 236 296 342 413
#     4  12  25  42  70 104 139 188 245 293 353 431
#     4  11  22  43  69 102 135 183 238 294 347 425
#     4   9  22  41  70  98 144 190 228 286 369 433
#     4  11  24  44  67 102 142 185 230 290 371 426
#
# _framework density 23.182075000000001
#
# number of rings (size 3 to 8) (size 9 to 14) (size 15 to 20)
#    0.000    0.923    3.077    4.615    2.154    0.615 
#    0.000   10.769    0.000    0.000    0.000    0.000 
#    0.000    0.000    0.000    0.000    0.000    0.000 
#
# Total GULP energy -322308.151336 kJ/mol
# GULP energy per Si atom -12396.467359 kJ/mol
# Density = 2.312931 g / cm^3
# Si number density = 23.182075 Si / 1000 Ang^3
#
#
#
# Elastic Constant Matrix: (Units=GPa)
#
#
# Indices 1 2 3 4 5 6 
#
# 1 97.3699 28.3575 -10.4739 0.0000 0.0000 0.0000
# 2 28.3575 164.1287 30.7262 0.0000 0.0000 0.0000
# 3 -10.4739 30.7262 67.3828 0.0000 0.0000 0.0000
# 4 0.0000 0.0000 0.0000 27.4630 0.0000 0.0000
# 5 0.0000 0.0000 0.0000 0.0000 23.1492 0.0000
# 6 0.0000 0.0000 0.0000 0.0000 0.0000 38.1473
#
#
#
# Elastic Compliance Matrix: (Units=1/GPa)
#
#
# Indices 1 2 3 4 5 6 
#
# 1 0.011309 -0.002496 0.002896 0.000000 0.000000 0.000000
# 2 -0.002496 0.007212 -0.003677 0.000000 0.000000 0.000000
# 3 0.002896 -0.003677 0.016967 0.000000 0.000000 0.000000
# 4 0.000000 0.000000 0.000000 0.036413 0.000000 0.000000
# 5 0.000000 0.000000 0.000000 0.000000 0.043198 0.000000
# 6 0.000000 0.000000 0.000000 0.000000 0.000000 0.026214
#
#
# Mechanical properties :
#
#
# Convention : Reuss Voigt Hill
#
# Bulk Modulus (GPa) = 34.56073 47.34454 40.95264
# Shear Modulus (GPa) = 31.74370 36.43667 34.09018
#
# Velocity S-wave (km/s) = 3.70445 3.96884 3.83892
# Velocity P-wave (km/s) = 5.76524 6.43969 6.11177
#
# Compressibility (1/GPa) = 0.02893458
#
# Stress axis : x y z
#
# Youngs Moduli (GPa) = 88.42876 138.65118 58.93685
#
# Poissons Ratio (x) = 0.34607 -0.17068
# Poissons Ratio (y) = 0.22072 0.21670
# Poissons Ratio (z) = -0.25608 0.50979
#
# Static dielectric constant tensor:
#      x y z
#    x 4.467470 0.000000 0.000000 
#    y 0.000000 4.421220 0.000000 
#    z 0.000000 0.000000 3.755170 
# 
# 
# High freq. dielectric constant tensor:
#      x y z
#    x 1.927880 0.000000 0.000000 
#    y 0.000000 1.930170 0.000000 
#    z 0.000000 0.000000 1.888900 
# 
# From -- ./inp_files/11185.got.cif
#   From: 2010.03.12/outbox.cif.g09.slc.cpg/sg41_6_cif.got.tgz:11185.got - 2010.04.14 01:55:53.
