data_PCOD8184500
_publ_section_title
;
Structure prediction by ZEFSAII (Michael W. Deem and Ramdas Pophale) SiO2 
 PCOD8184500
Probable space group: A M A 2
;
_chemical_formula_sum "Si O2"
_cell_formula_units_Z 48
_cell_length_a 22.595039
_cell_length_b 8.406918
_cell_length_c 11.379742
_cell_angle_alpha 90.000000
_cell_angle_beta 90.000000
_cell_angle_gamma 90.000000
_cell_volume 2161.634796
_symmetry_space_group_name_H-M "A M A 2"
_symmetry_group_IT_number 40
_symmetry_cell_setting 'orthorhombic'
loop_
_space_group_symop_operation_xyz
x,y,z
-x,-y,z
1/2-x,y,z
1/2+x,-y,z
x,1/2+y,1/2+z
-x,1/2-y,1/2+z
1/2-x,1/2+y,1/2+z
1/2+x,1/2-y,1/2+z
loop_
_atom_site_type_symbol
_atom_site_label
_atom_site_fract_x
_atom_site_fract_y
_atom_site_fract_z
Si Si1 0.910070 0.586902 0.165570
Si Si2 0.402974 0.780705 0.910133
Si Si3 0.470399 0.747387 0.127672
Si Si4 0.182839 0.298414 0.983857
Si Si5 0.184602 0.950686 0.061613
Si Si6 0.108318 0.949383 0.285574
O O1 0.900955 0.591956 0.305423
O O2 0.931983 0.413178 0.131966
O O3 0.849768 0.627658 0.097917
O O4 0.959779 0.719490 0.135243
O O5 0.409115 0.602891 0.860996
O O6 0.457734 0.820246 0.998088
O O7 0.343927 0.805333 0.988376
O O8 0.450538 0.863102 0.234330
O O9 0.250000 0.368121 0.980018
O O10 0.186065 0.108859 0.984551
O O11 0.145838 0.333338 0.867367
O O12 0.250000 0.893799 0.096878
O O13 0.149242 0.998625 0.177777
#
# Coordination Sequence:
#
# PCOD8184500 Si02
#       6
#     8   8   8   8   8   8
#     4  11  23  43  64  98 131 172 220 270 335 388
#     4  11  23  42  65  96 127 171 216 269 333 384
#     4  10  25  42  65  96 133 169 220 278 326 398
#     4  11  23  41  66  94 131 175 217 267 330 398
#     4  10  23  42  63  93 130 171 219 267 322 392
#     4  11  22  43  67  94 129 169 222 267 330 382
#
# _framework density 22.205416
#
# number of rings (size 3 to 8) (size 9 to 14) (size 15 to 20)
#    0.000    1.333    3.333    1.500    2.333    2.667 
#    0.000    0.833    0.000    0.000    0.000    0.000 
#    0.000    0.000    0.000    0.000    0.000    0.000 
#
# Total GULP energy -297605.975984 kJ/mol
# GULP energy per Si atom -12400.248999 kJ/mol
# Density = 2.215488 g / cm^3
# Si number density = 22.205416 Si / 1000 Ang^3
#
#
#
# Elastic Constant Matrix: (Units=GPa)
#
#
# Indices 1 2 3 4 5 6 
#
# 1 86.2647 -1.6206 26.7854 0.0000 0.0000 0.0000
# 2 -1.6206 54.6699 12.5525 0.0000 0.0000 0.0000
# 3 26.7854 12.5525 127.0375 0.0000 0.0000 0.0000
# 4 0.0000 0.0000 0.0000 37.9310 0.0000 0.0000
# 5 0.0000 0.0000 0.0000 0.0000 13.5091 0.0000
# 6 0.0000 0.0000 0.0000 0.0000 0.0000 29.3563
#
#
#
# Elastic Compliance Matrix: (Units=1/GPa)
#
#
# Indices 1 2 3 4 5 6 
#
# 1 0.012457 0.000995 -0.002725 0.000000 0.000000 0.000000
# 2 0.000995 0.018796 -0.002067 0.000000 0.000000 0.000000
# 3 -0.002725 -0.002067 0.008650 0.000000 0.000000 0.000000
# 4 0.000000 0.000000 0.000000 0.026364 0.000000 0.000000
# 5 0.000000 0.000000 0.000000 0.000000 0.074024 0.000000
# 6 0.000000 0.000000 0.000000 0.000000 0.000000 0.034064
#
#
# Mechanical properties :
#
#
# Convention : Reuss Voigt Hill
#
# Bulk Modulus (GPa) = 30.95078 38.15629 34.55354
# Shear Modulus (GPa) = 25.94459 31.50961 28.72710
#
# Velocity S-wave (km/s) = 3.42188 3.77106 3.60070
# Velocity P-wave (km/s) = 5.43884 6.01513 5.73423
#
# Compressibility (1/GPa) = 0.03230936
#
# Stress axis : x y z
#
# Youngs Moduli (GPa) = 80.27631 53.20369 115.60097
#
# Poissons Ratio (x) = -0.05293 0.31499
# Poissons Ratio (y) = -0.07987 0.23894
# Poissons Ratio (z) = 0.21874 0.10997
#
# Static dielectric constant tensor:
#      x y z
#    x 4.079730 0.000000 0.000000 
#    y 0.000000 3.852050 0.000000 
#    z 0.000000 0.000000 4.249220 
# 
# 
# High freq. dielectric constant tensor:
#      x y z
#    x 1.872190 0.000000 0.000000 
#    y 0.000000 1.870160 0.000000 
#    z 0.000000 0.000000 1.888300 
# 
# From -- ./inp_files/13903.got.cif
#   From: 2010.03.12/outbox.cif.g09.slc.cpg/sg40_7_cif.got.tgz:13903.got - 2010.04.14 01:38:03.
