data_PCOD8184991
_publ_section_title
;
Structure prediction by ZEFSAII (Michael W. Deem and Ramdas Pophale) SiO2 
 PCOD8184991
Probable space group: A B A 2
;
_chemical_formula_sum "Si O2"
_cell_formula_units_Z 48
_cell_length_a 9.020798
_cell_length_b 27.071939
_cell_length_c 8.400077
_cell_angle_alpha 90.000000
_cell_angle_beta 90.000000
_cell_angle_gamma 90.000000
_cell_volume 2051.386947
_symmetry_space_group_name_H-M "A B A 2"
_symmetry_group_IT_number 41
_symmetry_cell_setting 'orthorhombic'
loop_
_space_group_symop_operation_xyz
x,y,z
-x,-y,z
1/2-x,y,1/2+z
1/2+x,-y,1/2+z
x,1/2+y,1/2+z
-x,1/2-y,1/2+z
1/2-x,1/2+y,z
1/2+x,1/2-y,z
loop_
_atom_site_type_symbol
_atom_site_label
_atom_site_fract_x
_atom_site_fract_y
_atom_site_fract_z
Si Si1 0.666519 0.086253 0.371670
Si Si2 0.420386 0.048273 0.567837
Si Si3 0.848331 0.986256 0.404311
Si Si4 0.209223 0.761772 0.201943
Si Si5 0.067836 0.213579 0.406157
Si Si6 0.380222 0.854545 0.074215
O O1 0.529673 0.090093 0.498828
O O2 0.753513 0.034222 0.352153
O O3 0.602314 0.099941 0.197579
O O4 0.777768 0.128362 0.429076
O O5 0.500000 0.000000 0.496595
O O6 0.251869 0.051200 0.505193
O O7 0.412625 0.045866 0.757420
O O8 0.000000 0.000000 0.500767
O O9 0.312445 0.715348 0.262240
O O10 0.315711 0.808320 0.172811
O O11 0.094446 0.770923 0.344797
O O12 0.122585 0.751531 0.039987
O O13 0.039317 0.160578 0.493831
#
# Coordination Sequence:
#
# PCOD8184991 Si02
#       6
#     8   8   8   8   8   8
#     4  11  23  41  65  97 133 169 220 276 341 396
#     4   9  20  38  62  91 120 168 214 251 309 407
#     4  10  20  39  66  89 123 170 216 257 315 399
#     4  12  23  43  71  96 130 180 238 274 343 422
#     4  12  23  43  69  97 130 181 232 280 335 427
#     4  12  23  40  68  98 133 174 219 289 351 387
#
# _framework density 23.398803000000001
#
# number of rings (size 3 to 8) (size 9 to 14) (size 15 to 20)
#    0.000    1.000    5.000    3.000    0.000    3.333 
#    0.000    3.333    0.000    0.000    0.000    0.000 
#    0.000    0.000    0.000    0.000    0.000    0.000 
#
# Total GULP energy -297358.749579 kJ/mol
# GULP energy per Si atom -12389.947899 kJ/mol
# Density = 2.334555 g / cm^3
# Si number density = 23.398803 Si / 1000 Ang^3
#
#
#
# Elastic Constant Matrix: (Units=GPa)
#
#
# Indices 1 2 3 4 5 6 
#
# 1 91.4504 2.6517 12.8618 0.0000 0.0000 0.0000
# 2 2.6517 34.6772 3.1171 0.0000 0.0000 0.0000
# 3 12.8618 3.1171 64.8664 0.0000 0.0000 0.0000
# 4 0.0000 0.0000 0.0000 28.2994 0.0000 0.0000
# 5 0.0000 0.0000 0.0000 0.0000 43.0388 0.0000
# 6 0.0000 0.0000 0.0000 0.0000 0.0000 32.0896
#
#
#
# Elastic Compliance Matrix: (Units=1/GPa)
#
#
# Indices 1 2 3 4 5 6 
#
# 1 0.011264 -0.000663 -0.002202 0.000000 0.000000 0.000000
# 2 -0.000663 0.029002 -0.001262 0.000000 0.000000 0.000000
# 3 -0.002202 -0.001262 0.015913 0.000000 0.000000 0.000000
# 4 0.000000 0.000000 0.000000 0.035336 0.000000 0.000000
# 5 0.000000 0.000000 0.000000 0.000000 0.023235 0.000000
# 6 0.000000 0.000000 0.000000 0.000000 0.000000 0.031163
#
#
# Mechanical properties :
#
#
# Convention : Reuss Voigt Hill
#
# Bulk Modulus (GPa) = 20.86606 25.36170 23.11388
# Shear Modulus (GPa) = 29.38723 32.17644 30.78183
#
# Velocity S-wave (km/s) = 3.54775 3.71230 3.63096
# Velocity P-wave (km/s) = 5.07139 5.40715 5.24196
#
# Compressibility (1/GPa) = 0.04792471
#
# Stress axis : x y z
#
# Youngs Moduli (GPa) = 88.78033 34.48085 62.83987
#
# Poissons Ratio (x) = 0.02288 0.13834
# Poissons Ratio (y) = 0.05890 0.07931
# Poissons Ratio (z) = 0.19545 0.04352
#
# Static dielectric constant tensor:
#      x y z
#    x 4.660730 0.000000 0.000000 
#    y 0.000000 3.848150 0.000000 
#    z 0.000000 0.000000 4.195320 
# 
# 
# High freq. dielectric constant tensor:
#      x y z
#    x 1.935510 0.000000 0.000000 
#    y 0.000000 1.882460 0.000000 
#    z 0.000000 0.000000 1.934440 
# 
# From -- ./inp_files/1809.got.cif
#   From: 2010.03.12/outbox.cif.g09.slc.cpg/sg41_1_cif.got.tgz:1809.got - 2010.04.14 01:55:53.
