data_PCOD8184472
_publ_section_title
;
Structure prediction by ZEFSAII (Michael W. Deem and Ramdas Pophale) SiO2 
 PCOD8184472
Probable space group: A M A 2
;
_chemical_formula_sum "Si O2"
_cell_formula_units_Z 40
_cell_length_a 18.403174
_cell_length_b 7.963820
_cell_length_c 11.912224
_cell_angle_alpha 90.000000
_cell_angle_beta 90.000000
_cell_angle_gamma 90.000000
_cell_volume 1745.850370
_symmetry_space_group_name_H-M "A M A 2"
_symmetry_group_IT_number 40
_symmetry_cell_setting 'orthorhombic'
loop_
_space_group_symop_operation_xyz
x,y,z
-x,-y,z
1/2-x,y,z
1/2+x,-y,z
x,1/2+y,1/2+z
-x,1/2-y,1/2+z
1/2-x,1/2+y,1/2+z
1/2+x,1/2-y,1/2+z
loop_
_atom_site_type_symbol
_atom_site_label
_atom_site_fract_x
_atom_site_fract_y
_atom_site_fract_z
Si Si1 0.619013 0.216426 0.684740
Si Si2 0.923603 0.403288 0.288500
Si Si3 0.669574 0.216970 0.459919
Si Si4 0.422792 0.088337 0.400525
Si Si5 0.024385 0.806973 0.094218
O O1 0.679369 0.265983 0.592427
O O2 0.607178 0.355632 0.779303
O O3 0.547192 0.192142 0.606004
O O4 0.634328 0.034420 0.737664
O O5 0.889014 0.341392 0.404379
O O6 0.929677 0.240418 0.206872
O O7 0.000000 0.500000 0.312823
O O8 0.750000 0.230297 0.405168
O O9 0.639883 0.027326 0.451842
O O10 0.433284 0.251035 0.481324
O O11 0.500000 0.000000 0.380916
O O12 0.000000 0.000000 0.090885
#
# Coordination Sequence:
#
# PCOD8184472 Si02
#       5
#     8   8   8   8   8
#     4  11  24  41  71 100 141 180 233 295 351 416
#     4  10  22  45  70 105 141 185 237 300 353 417
#     4  12  27  47  70 103 149 190 234 296 363 428
#     4  12  23  45  72 105 141 186 238 294 352 415
#     4  11  22  38  72 111 138 175 239 300 346 413
#
# _framework density 22.911470999999999
#
# number of rings (size 3 to 8) (size 9 to 14) (size 15 to 20)
#    0.000    0.800    4.000    4.800    2.800    2.400 
#    0.000    0.000    0.000    0.000    0.000    0.000 
#    0.000    0.000    0.000    0.000    0.000    0.000 
#
# Total GULP energy -247859.538060 kJ/mol
# GULP energy per Si atom -12392.976903 kJ/mol
# Density = 2.285932 g / cm^3
# Si number density = 22.911471 Si / 1000 Ang^3
#
#
#
# Elastic Constant Matrix: (Units=GPa)
#
#
# Indices 1 2 3 4 5 6 
#
# 1 87.6090 39.0005 46.3836 0.0000 0.0000 0.0000
# 2 39.0005 144.1635 70.4709 0.0000 0.0000 0.0000
# 3 46.3836 70.4709 167.5067 0.0000 0.0000 0.0000
# 4 0.0000 0.0000 0.0000 35.4678 0.0000 0.0000
# 5 0.0000 0.0000 0.0000 0.0000 18.4742 0.0000
# 6 0.0000 0.0000 0.0000 0.0000 0.0000 15.9643
#
#
#
# Elastic Compliance Matrix: (Units=1/GPa)
#
#
# Indices 1 2 3 4 5 6 
#
# 1 0.013996 -0.002382 -0.002874 0.000000 0.000000 0.000000
# 2 -0.002382 0.009138 -0.003185 0.000000 0.000000 0.000000
# 3 -0.002874 -0.003185 0.008105 0.000000 0.000000 0.000000
# 4 0.000000 0.000000 0.000000 0.028195 0.000000 0.000000
# 5 0.000000 0.000000 0.000000 0.000000 0.054130 0.000000
# 6 0.000000 0.000000 0.000000 0.000000 0.000000 0.062640
#
#
# Mechanical properties :
#
#
# Convention : Reuss Voigt Hill
#
# Bulk Modulus (GPa) = 69.64226 78.99881 74.32054
# Shear Modulus (GPa) = 25.26920 30.20953 27.73937
#
# Velocity S-wave (km/s) = 3.32461 3.63510 3.48331
# Velocity P-wave (km/s) = 6.72306 7.22312 6.97757
#
# Compressibility (1/GPa) = 0.01435910
#
# Stress axis : x y z
#
# Youngs Moduli (GPa) = 71.44918 109.43705 123.37331
#
# Poissons Ratio (x) = 0.26064 0.35453
# Poissons Ratio (y) = 0.17017 0.39292
# Poissons Ratio (z) = 0.20532 0.34853
#
# Static dielectric constant tensor:
#      x y z
#    x 3.732050 0.000000 0.000000 
#    y 0.000000 4.149330 0.000000 
#    z 0.000000 0.000000 4.498310 
# 
# 
# High freq. dielectric constant tensor:
#      x y z
#    x 1.849170 0.000000 0.000000 
#    y 0.000000 1.907840 0.000000 
#    z 0.000000 0.000000 1.933080 
# 
# From -- ./inp_files/13426.got.cif
#   From: 2010.03.12/outbox.cif.g09.slc.cpg/sg40_7_cif.got.tgz:13426.got - 2010.04.14 01:38:03.
