data_PCOD8184856
_publ_section_title
;
Structure prediction by ZEFSAII (Michael W. Deem and Ramdas Pophale) SiO2 
 PCOD8184856
Probable space group: A B A 2
;
_chemical_formula_sum "Si O2"
_cell_formula_units_Z 60
_cell_length_a 8.701444
_cell_length_b 18.178744
_cell_length_c 17.579781
_cell_angle_alpha 90.000000
_cell_angle_beta 90.000000
_cell_angle_gamma 90.000000
_cell_volume 2780.793015
_symmetry_space_group_name_H-M "A B A 2"
_symmetry_group_IT_number 41
_symmetry_cell_setting 'orthorhombic'
loop_
_space_group_symop_operation_xyz
x,y,z
-x,-y,z
1/2-x,y,1/2+z
1/2+x,-y,1/2+z
x,1/2+y,1/2+z
-x,1/2-y,1/2+z
1/2-x,1/2+y,z
1/2+x,1/2-y,z
loop_
_atom_site_type_symbol
_atom_site_label
_atom_site_fract_x
_atom_site_fract_y
_atom_site_fract_z
Si Si1 0.774921 0.371713 0.604520
Si Si2 0.413191 0.386967 0.786501
Si Si3 0.000000 0.500000 0.836408
Si Si4 0.100136 0.356673 0.553185
Si Si5 0.202030 0.387430 0.924202
Si Si6 0.030402 0.200061 0.511993
Si Si7 0.320021 0.286849 0.656345
Si Si8 0.717929 0.458341 0.748305
O O1 0.669559 0.356595 0.530088
O O2 0.785101 0.299953 0.659428
O O3 0.715211 0.436379 0.659149
O O4 0.938378 0.395275 0.568902
O O5 0.335947 0.363464 0.865867
O O6 0.394545 0.315038 0.734084
O O7 0.593157 0.409232 0.795163
O O8 0.324906 0.455824 0.749136
O O9 0.113130 0.456554 0.891447
O O10 0.110868 0.551517 0.784105
O O11 0.212585 0.409398 0.503735
O O12 0.089330 0.283074 0.499480
O O13 0.166371 0.333158 0.635842
O O14 0.073504 0.324414 0.940218
O O15 0.934681 0.198050 0.588569
#
# Coordination Sequence:
#
# PCOD8184856 Si02
#       8
#     8   8   4   8   8   8   8   8
#     4  10  19  36  65  93 122 153 207 266 305 370
#     4  10  21  41  64  87 126 167 206 258 310 380
#     4  10  24  44  60  84 132 166 204 264 312 370
#     4   9  20  36  63  89 125 156 201 256 311 369
#     4  10  22  42  61  86 126 169 203 248 315 376
#     4   9  18  39  60  90 124 159 198 255 311 359
#     4   9  18  37  62  91 120 156 205 251 309 359
#     4  10  22  40  63  88 123 163 207 257 321 353
#
# _framework density 21.576578999999999
#
# number of rings (size 3 to 8) (size 9 to 14) (size 15 to 20)
#    0.000    2.400    1.333    0.800    3.733    1.067 
#    9.600    0.000    0.000    0.000    0.000    0.000 
#    0.000    0.000    0.000    0.000    0.000    0.000 
#
# Total GULP energy -371799.756755 kJ/mol
# GULP energy per Si atom -12393.325225 kJ/mol
# Density = 2.152747 g / cm^3
# Si number density = 21.576579 Si / 1000 Ang^3
#
#
#
# Elastic Constant Matrix: (Units=GPa)
#
#
# Indices 1 2 3 4 5 6 
#
# 1 130.4583 16.7114 32.7756 0.0000 0.0000 0.0000
# 2 16.7114 34.2882 27.7545 0.0000 0.0000 0.0000
# 3 32.7756 27.7545 76.0445 0.0000 0.0000 0.0000
# 4 0.0000 0.0000 0.0000 27.2379 0.0000 0.0000
# 5 0.0000 0.0000 0.0000 0.0000 33.8731 0.0000
# 6 0.0000 0.0000 0.0000 0.0000 0.0000 27.5384
#
#
#
# Elastic Compliance Matrix: (Units=1/GPa)
#
#
# Indices 1 2 3 4 5 6 
#
# 1 0.008666 -0.001703 -0.003113 0.000000 0.000000 0.000000
# 2 -0.001703 0.041728 -0.014496 0.000000 0.000000 0.000000
# 3 -0.003113 -0.014496 0.019783 0.000000 0.000000 0.000000
# 4 0.000000 0.000000 0.000000 0.036714 0.000000 0.000000
# 5 0.000000 0.000000 0.000000 0.000000 0.029522 0.000000
# 6 0.000000 0.000000 0.000000 0.000000 0.000000 0.036313
#
#
# Mechanical properties :
#
#
# Convention : Reuss Voigt Hill
#
# Bulk Modulus (GPa) = 31.69393 43.91935 37.80664
# Shear Modulus (GPa) = 22.53604 28.63318 25.58461
#
# Velocity S-wave (km/s) = 3.23533 3.64682 3.44722
# Velocity P-wave (km/s) = 5.35513 6.17509 5.77967
#
# Compressibility (1/GPa) = 0.03155179
#
# Stress axis : x y z
#
# Youngs Moduli (GPa) = 115.39824 23.96459 50.54955
#
# Poissons Ratio (x) = 0.04082 0.15737
# Poissons Ratio (y) = 0.19658 0.73275
# Poissons Ratio (z) = 0.35926 0.34738
#
# Static dielectric constant tensor:
#      x y z
#    x 4.572360 0.000000 0.000000 
#    y 0.000000 3.794720 0.000000 
#    z 0.000000 0.000000 3.720370 
# 
# 
# High freq. dielectric constant tensor:
#      x y z
#    x 1.873640 0.000000 0.000000 
#    y 0.000000 1.814790 0.000000 
#    z 0.000000 0.000000 1.820630 
# 
# From -- ./inp_files/9775.got.cif
#   From: 2010.03.12/outbox.cif.g09.slc.cpg/sg41_5_cif.got.tgz:9775.got - 2010.04.14 01:55:53.
