data_PCOD8184632
_publ_section_title
;
Structure prediction by ZEFSAII (Michael W. Deem and Ramdas Pophale) SiO2 
 PCOD8184632
Probable space group: A M A 2
;
_chemical_formula_sum "Si O2"
_cell_formula_units_Z 48
_cell_length_a 14.675442
_cell_length_b 4.903978
_cell_length_c 29.066807
_cell_angle_alpha 90.000000
_cell_angle_beta 90.000000
_cell_angle_gamma 90.000000
_cell_volume 2091.881266
_symmetry_space_group_name_H-M "A M A 2"
_symmetry_group_IT_number 40
_symmetry_cell_setting 'orthorhombic'
loop_
_space_group_symop_operation_xyz
x,y,z
-x,-y,z
1/2-x,y,z
1/2+x,-y,z
x,1/2+y,1/2+z
-x,1/2-y,1/2+z
1/2-x,1/2+y,1/2+z
1/2+x,1/2-y,1/2+z
loop_
_atom_site_type_symbol
_atom_site_label
_atom_site_fract_x
_atom_site_fract_y
_atom_site_fract_z
Si Si1 0.146650 0.410840 0.582640
Si Si2 0.064249 0.763907 0.326254
Si Si3 0.750000 0.183190 0.709052
Si Si4 0.597461 0.102022 0.638741
Si Si5 0.850022 0.667506 0.480417
Si Si6 0.750000 0.191866 0.270757
Si Si7 0.589103 0.656622 0.931821
O O1 0.250000 0.523323 0.580807
O O2 0.082879 0.655526 0.601599
O O3 0.110760 0.319055 0.532331
O O4 0.147687 0.150695 0.615624
O O5 0.157918 0.733732 0.298320
O O6 0.097769 0.843555 0.377064
O O7 0.000000 0.500000 0.325932
O O8 0.000000 0.000000 0.305358
O O9 0.658387 0.228864 0.679584
O O10 0.750000 0.379646 0.753701
O O11 0.750000 0.872338 0.725260
O O12 0.500000 0.000000 0.657931
O O13 0.750000 0.535480 0.482242
O O14 0.911114 0.466716 0.449274
O O15 0.836626 0.964110 0.456554
O O16 0.500000 0.500000 0.949295
#
# Coordination Sequence:
#
# PCOD8184632 Si02
#       7
#     8   8   4   8   8   4   8
#     4  11  22  43  64  95 142 183 226 287 331 397
#     4  11  25  48  72 105 145 180 232 287 341 421
#     4  12  26  48  70 105 140 165 230 292 346 428
#     4  12  25  43  72  98 134 182 225 278 351 413
#     4  11  24  37  64  98 135 182 233 276 327 395
#     4  12  28  46  80 103 132 191 218 284 376 414
#     4  11  23  42  62  94 139 181 222 287 335 389
#
# _framework density 22.945851000000001
#
# number of rings (size 3 to 8) (size 9 to 14) (size 15 to 20)
#    0.000    0.667    1.667    6.500    2.333    8.667 
#    0.000    0.000    0.000    0.000    0.000    0.000 
#    0.000    0.000    0.000    0.000    0.000    0.000 
#
# Total GULP energy -297586.419086 kJ/mol
# GULP energy per Si atom -12399.434129 kJ/mol
# Density = 2.289363 g / cm^3
# Si number density = 22.945851 Si / 1000 Ang^3
#
#
#
# Elastic Constant Matrix: (Units=GPa)
#
#
# Indices 1 2 3 4 5 6 
#
# 1 121.5031 24.2879 55.0482 0.0000 0.0000 0.0000
# 2 24.2879 126.7232 32.9527 0.0000 0.0000 0.0000
# 3 55.0482 32.9527 107.8266 0.0000 0.0000 0.0000
# 4 0.0000 0.0000 0.0000 40.5155 0.0000 0.0000
# 5 0.0000 0.0000 0.0000 0.0000 19.2207 0.0000
# 6 0.0000 0.0000 0.0000 0.0000 0.0000 38.4552
#
#
#
# Elastic Compliance Matrix: (Units=1/GPa)
#
#
# Indices 1 2 3 4 5 6 
#
# 1 0.010762 -0.000689 -0.005284 0.000000 0.000000 0.000000
# 2 -0.000689 0.008617 -0.002282 0.000000 0.000000 0.000000
# 3 -0.005284 -0.002282 0.012669 0.000000 0.000000 0.000000
# 4 0.000000 0.000000 0.000000 0.024682 0.000000 0.000000
# 5 0.000000 0.000000 0.000000 0.000000 0.052027 0.000000
# 6 0.000000 0.000000 0.000000 0.000000 0.000000 0.026004
#
#
# Mechanical properties :
#
#
# Convention : Reuss Voigt Hill
#
# Bulk Modulus (GPa) = 64.35382 64.51449 64.43416
# Shear Modulus (GPa) = 31.95944 35.88923 33.92434
#
# Velocity S-wave (km/s) = 3.73610 3.95914 3.84924
# Velocity P-wave (km/s) = 6.83506 7.00548 6.92080
#
# Compressibility (1/GPa) = 0.01553909
#
# Stress axis : x y z
#
# Youngs Moduli (GPa) = 92.92197 116.05607 78.93346
#
# Poissons Ratio (x) = 0.07992 0.41706
# Poissons Ratio (y) = 0.06399 0.18010
# Poissons Ratio (z) = 0.49097 0.26481
#
# Static dielectric constant tensor:
#      x y z
#    x 4.188100 0.000000 0.000000 
#    y 0.000000 4.207680 0.000000 
#    z 0.000000 0.000000 3.961760 
# 
# 
# High freq. dielectric constant tensor:
#      x y z
#    x 1.916130 0.000000 0.000000 
#    y 0.000000 1.918870 0.000000 
#    z 0.000000 0.000000 1.897260 
# 
# From -- ./inp_files/25730.got.cif
#   From: 2010.03.12/outbox.cif.g09.slc.cpg/sg40_13_cif.got.tgz:25730.got - 2010.04.14 01:38:03.
