data_PCOD8184774
_publ_section_title
;
Structure prediction by ZEFSAII (Michael W. Deem and Ramdas Pophale) SiO2 
 PCOD8184774
Probable space group: A B A 2
;
_chemical_formula_sum "Si O2"
_cell_formula_units_Z 52
_cell_length_a 20.036610
_cell_length_b 15.914533
_cell_length_c 8.540085
_cell_angle_alpha 90.000000
_cell_angle_beta 90.000000
_cell_angle_gamma 90.000000
_cell_volume 2723.205010
_symmetry_space_group_name_H-M "A B A 2"
_symmetry_group_IT_number 41
_symmetry_cell_setting 'orthorhombic'
loop_
_space_group_symop_operation_xyz
x,y,z
-x,-y,z
1/2-x,y,1/2+z
1/2+x,-y,1/2+z
x,1/2+y,1/2+z
-x,1/2-y,1/2+z
1/2-x,1/2+y,z
1/2+x,1/2-y,z
loop_
_atom_site_type_symbol
_atom_site_label
_atom_site_fract_x
_atom_site_fract_y
_atom_site_fract_z
Si Si1 0.036099 0.672475 0.176500
Si Si2 0.163858 0.749670 0.310637
Si Si3 0.000000 0.500000 0.100236
Si Si4 0.239181 0.663428 0.049603
Si Si5 0.408098 0.418803 0.345187
Si Si6 0.337772 0.084445 0.776027
Si Si7 0.035814 0.181398 0.305212
O O1 0.096134 0.698598 0.287711
O O2 0.025535 0.574203 0.211373
O O3 0.972371 0.726299 0.232282
O O4 0.045566 0.686424 0.991700
O O5 0.204062 0.738865 0.147277
O O6 0.206242 0.708999 0.446554
O O7 0.146382 0.844550 0.364069
O O8 0.937583 0.536995 0.000735
O O9 0.275277 0.595939 0.161504
O O10 0.185719 0.608621 0.952088
O O11 0.366793 0.490626 0.255623
O O12 0.472880 0.378932 0.257472
O O13 0.397514 0.146360 0.726627
#
# Coordination Sequence:
#
# PCOD8184774 Si02
#       7
#     8   8   4   8   8   8   8
#     4  10  20  36  59  85 113 150 188 237 297 341
#     4  10  21  39  57  85 115 155 196 234 284 353
#     4  10  18  36  56  90 112 148 178 240 306 338
#     4  10  23  37  59  79 117 162 195 231 282 343
#     4  10  19  35  62  84 114 145 190 243 295 335
#     4  11  20  39  58  84 114 155 192 238 281 345
#     4  10  20  35  62  85 114 147 189 239 297 345
#
# _framework density 19.095147000000001
#
# number of rings (size 3 to 8) (size 9 to 14) (size 15 to 20)
#    0.000    1.846    4.615    0.000    6.462    1.231 
#    0.000    3.077    0.000    0.000    0.000    0.000 
#    0.000    0.000    0.000    0.000    0.000    0.000 
#
# Total GULP energy -322172.873022 kJ/mol
# GULP energy per Si atom -12391.264347 kJ/mol
# Density = 1.905169 g / cm^3
# Si number density = 19.095147 Si / 1000 Ang^3
#
#
#
# Elastic Constant Matrix: (Units=GPa)
#
#
# Indices 1 2 3 4 5 6 
#
# 1 90.5170 55.3853 22.6151 0.0000 0.0000 0.0000
# 2 55.3853 157.5152 35.4826 0.0000 0.0000 0.0000
# 3 22.6151 35.4826 50.3100 0.0000 0.0000 0.0000
# 4 0.0000 0.0000 0.0000 26.1528 0.0000 0.0000
# 5 0.0000 0.0000 0.0000 0.0000 24.6452 0.0000
# 6 0.0000 0.0000 0.0000 0.0000 0.0000 29.7127
#
#
#
# Elastic Compliance Matrix: (Units=1/GPa)
#
#
# Indices 1 2 3 4 5 6 
#
# 1 0.014574 -0.004338 -0.003492 0.000000 0.000000 0.000000
# 2 -0.004338 0.008839 -0.004284 0.000000 0.000000 0.000000
# 3 -0.003492 -0.004284 0.024468 0.000000 0.000000 0.000000
# 4 0.000000 0.000000 0.000000 0.038237 0.000000 0.000000
# 5 0.000000 0.000000 0.000000 0.000000 0.040576 0.000000
# 6 0.000000 0.000000 0.000000 0.000000 0.000000 0.033656
#
#
# Mechanical properties :
#
#
# Convention : Reuss Voigt Hill
#
# Bulk Modulus (GPa) = 42.27710 58.36759 50.32234
# Shear Modulus (GPa) = 25.97921 28.42609 27.20265
#
# Velocity S-wave (km/s) = 3.69252 3.86250 3.77846
# Velocity P-wave (km/s) = 6.35357 7.10809 6.74139
#
# Compressibility (1/GPa) = 0.02365347
#
# Stress axis : x y z
#
# Youngs Moduli (GPa) = 68.61338 113.13560 40.87006
#
# Poissons Ratio (x) = 0.49079 0.14271
# Poissons Ratio (y) = 0.29765 0.17508
# Poissons Ratio (z) = 0.23959 0.48466
#
# Static dielectric constant tensor:
#      x y z
#    x 3.735640 0.000000 0.000000 
#    y 0.000000 3.766810 0.000000 
#    z 0.000000 0.000000 3.289890 
# 
# 
# High freq. dielectric constant tensor:
#      x y z
#    x 1.756780 0.000000 0.000000 
#    y 0.000000 1.742580 0.000000 
#    z 0.000000 0.000000 1.715420 
# 
# From -- ./inp_files/3142.got.cif
#   From: 2010.03.12/outbox.cif.g09.slc.cpg/sg41_2_cif.got.tgz:3142.got - 2010.04.14 01:55:53.
