data_PCOD8184330
_publ_section_title
;
Structure prediction by ZEFSAII (Michael W. Deem and Ramdas Pophale) SiO2 
 PCOD8184330
Probable space group: A M A 2
;
_chemical_formula_sum "Si O2"
_cell_formula_units_Z 64
_cell_length_a 15.476419
_cell_length_b 7.554793
_cell_length_c 27.311434
_cell_angle_alpha 90.000000
_cell_angle_beta 90.000000
_cell_angle_gamma 90.000000
_cell_volume 3193.284051
_symmetry_space_group_name_H-M "A M A 2"
_symmetry_group_IT_number 40
_symmetry_cell_setting 'orthorhombic'
loop_
_space_group_symop_operation_xyz
x,y,z
-x,-y,z
1/2-x,y,z
1/2+x,-y,z
x,1/2+y,1/2+z
-x,1/2-y,1/2+z
1/2-x,1/2+y,1/2+z
1/2+x,1/2-y,1/2+z
loop_
_atom_site_type_symbol
_atom_site_label
_atom_site_fract_x
_atom_site_fract_y
_atom_site_fract_z
Si Si1 0.650941 0.204505 0.495070
Si Si2 0.097334 0.500000 0.310308
Si Si3 0.500000 0.794454 0.567312
Si Si4 0.150941 0.704505 0.995070
Si Si5 0.846485 0.204465 0.242393
Si Si6 0.153515 0.204466 0.242393
Si Si7 0.650752 0.500000 0.417839
Si Si8 0.500000 0.699343 0.677606
O O1 0.750000 0.237274 0.512294
O O2 0.586596 0.262130 0.538516
O O3 0.628116 0.324005 0.448473
O O4 0.635642 0.000000 0.480403
O O5 0.144083 0.677432 0.291104
O O6 0.144083 0.322569 0.291103
O O7 0.095170 0.500000 0.368940
O O8 0.000000 0.500000 0.290816
O O9 0.586596 0.737871 0.538515
O O10 0.500000 0.702019 0.619416
O O11 0.500000 0.000000 0.577926
O O12 0.250000 0.737273 0.012294
O O13 0.128116 0.824004 0.948473
O O14 0.750000 0.227080 0.220969
O O15 0.912467 0.280736 0.201035
O O16 0.863550 1.000000 0.256900
O O17 0.250000 0.227081 0.220969
O O18 0.087533 0.280736 0.201035
O O19 0.750000 0.500000 0.402265
O O20 0.500000 0.500000 0.695326
#
# Coordination Sequence:
#
# PCOD8184330 Si02
#       8
#     8   8   8   8   8   8   8   8
#     4   9  20  39  58  82 119 155 194 244 291 347
#     4  12  24  38  64  95 125 160 203 249 306 367
#     4  10  22  36  58  85 115 154 200 242 297 354
#     4   9  20  39  58  82 119 155 194 244 291 347
#     4  10  22  42  63  85 122 162 201 250 301 357
#     4  10  22  42  63  85 122 162 201 250 301 357
#     4  10  22  38  60  90 118 155 203 240 293 359
#     4  10  22  38  58  89 117 152 202 250 303 358
#
# _framework density 20.042062000000001
#
# number of rings (size 3 to 8) (size 9 to 14) (size 15 to 20)
#    0.000    2.000    1.250    1.125    5.250    2.000 
#    0.000    2.500    0.000    0.000    0.000    0.000 
#    0.000    0.000    0.000    0.000    0.000    0.000 
#
# Total GULP energy -396741.763130 kJ/mol
# GULP energy per Si atom -12398.180098 kJ/mol
# Density = 1.999645 g / cm^3
# Si number density = 20.042062 Si / 1000 Ang^3
#
#
#
# Elastic Constant Matrix: (Units=GPa)
#
#
# Indices 1 2 3 4 5 6 
#
# 1 145.2186 45.2820 69.9688 0.0000 0.0000 0.0000
# 2 45.2820 91.5900 51.3209 0.0000 0.0000 0.0000
# 3 69.9688 51.3209 137.9671 0.0000 0.0000 0.0000
# 4 0.0000 0.0000 0.0000 27.8272 0.0000 0.0000
# 5 0.0000 0.0000 0.0000 0.0000 27.9657 0.0000
# 6 0.0000 0.0000 0.0000 0.0000 0.0000 19.9658
#
#
#
# Elastic Compliance Matrix: (Units=1/GPa)
#
#
# Indices 1 2 3 4 5 6 
#
# 1 0.009558 -0.002539 -0.003903 0.000000 0.000000 0.000000
# 2 -0.002539 0.014467 -0.004094 0.000000 0.000000 0.000000
# 3 -0.003903 -0.004094 0.010750 0.000000 0.000000 0.000000
# 4 0.000000 0.000000 0.000000 0.035936 0.000000 0.000000
# 5 0.000000 0.000000 0.000000 0.000000 0.035758 0.000000
# 6 0.000000 0.000000 0.000000 0.000000 0.000000 0.050086
#
#
# Mechanical properties :
#
#
# Convention : Reuss Voigt Hill
#
# Bulk Modulus (GPa) = 72.96881 78.65769 75.81325
# Shear Modulus (GPa) = 27.44298 29.03200 28.23749
#
# Velocity S-wave (km/s) = 3.70438 3.81012 3.75762
# Velocity P-wave (km/s) = 7.40158 7.66078 7.53229
#
# Compressibility (1/GPa) = 0.01370449
#
# Stress axis : x y z
#
# Youngs Moduli (GPa) = 104.62057 69.12096 93.01903
#
# Poissons Ratio (x) = 0.17547 0.36307
# Poissons Ratio (y) = 0.26559 0.38083
# Poissons Ratio (z) = 0.40835 0.28299
#
# Static dielectric constant tensor:
#      x y z
#    x 3.934060 0.000000 0.000000 
#    y 0.000000 3.748590 0.000000 
#    z 0.000000 0.000000 3.293890 
# 
# 
# High freq. dielectric constant tensor:
#      x y z
#    x 1.799910 0.000000 0.000000 
#    y 0.000000 1.789140 0.000000 
#    z 0.000000 0.000000 1.757960 
# 
# From -- ./inp_files/24842.got.cif
#   From: 2010.03.12/outbox.cif.g09.slc.cpg/sg40_13_cif.got.tgz:24842.got - 2010.04.14 01:38:03.
