data_PCOD8184199
_publ_section_title
;
Structure prediction by ZEFSAII (Michael W. Deem and Ramdas Pophale) SiO2 
 PCOD8184199
Probable space group: A M A 2
;
_chemical_formula_sum "Si O2"
_cell_formula_units_Z 48
_cell_length_a 25.303613
_cell_length_b 8.094996
_cell_length_c 11.931600
_cell_angle_alpha 90.000000
_cell_angle_beta 90.000000
_cell_angle_gamma 90.000000
_cell_volume 2443.981199
_symmetry_space_group_name_H-M "A M A 2"
_symmetry_group_IT_number 40
_symmetry_cell_setting 'orthorhombic'
loop_
_space_group_symop_operation_xyz
x,y,z
-x,-y,z
1/2-x,y,z
1/2+x,-y,z
x,1/2+y,1/2+z
-x,1/2-y,1/2+z
1/2-x,1/2+y,1/2+z
1/2+x,1/2-y,1/2+z
loop_
_atom_site_type_symbol
_atom_site_label
_atom_site_fract_x
_atom_site_fract_y
_atom_site_fract_z
Si Si1 0.629153 0.347360 0.935950
Si Si2 0.409284 0.314889 0.988558
Si Si3 0.190073 0.861958 0.369120
Si Si4 0.927078 0.326577 0.720187
Si Si5 0.119426 0.320287 0.666841
Si Si6 0.971298 0.324997 0.294355
O O1 0.585155 0.489576 0.961652
O O2 0.684006 0.443427 0.905389
O O3 0.607726 0.257038 0.824616
O O4 0.635187 0.219180 0.038439
O O5 0.350225 0.256306 0.947632
O O6 0.454286 0.213799 0.922273
O O7 0.414833 0.297178 0.119866
O O8 0.250000 0.802855 0.386449
O O9 0.173141 0.833738 0.239411
O O10 0.912302 0.509347 0.679607
O O11 0.988584 0.316304 0.752101
O O12 0.080680 0.178404 0.715317
O O13 0.000000 0.500000 0.288766
#
# Coordination Sequence:
#
# PCOD8184199 Si02
#       6
#     8   8   8   8   8   8
#     4   9  21  39  60  85 122 151 199 249 303 356
#     4   9  22  40  56  89 120 155 206 249 292 370
#     4   8  18  40  65  85 117 156 199 254 309 361
#     4  11  22  38  58  86 126 157 200 250 297 358
#     4  10  21  39  60  90 120 157 203 254 297 369
#     4  11  23  36  58  87 122 172 202 242 305 361
#
# _framework density 19.640086
#
# number of rings (size 3 to 8) (size 9 to 14) (size 15 to 20)
#    1.000    1.333    1.667    1.500    4.667    0.667 
#    0.000    3.333    0.000    0.000    0.000    0.000 
#    0.000    0.000    0.000    0.000    0.000    0.000 
#
# Total GULP energy -297316.451698 kJ/mol
# GULP energy per Si atom -12388.185487 kJ/mol
# Density = 1.959538 g / cm^3
# Si number density = 19.640086 Si / 1000 Ang^3
#
#
#
# Elastic Constant Matrix: (Units=GPa)
#
#
# Indices 1 2 3 4 5 6 
#
# 1 116.0008 24.8294 45.6643 0.0000 0.0000 0.0000
# 2 24.8294 52.4394 26.3702 0.0000 0.0000 0.0000
# 3 45.6643 26.3702 160.9537 0.0000 0.0000 0.0000
# 4 0.0000 0.0000 0.0000 34.8168 0.0000 0.0000
# 5 0.0000 0.0000 0.0000 0.0000 12.8309 0.0000
# 6 0.0000 0.0000 0.0000 0.0000 0.0000 14.5703
#
#
#
# Elastic Compliance Matrix: (Units=1/GPa)
#
#
# Indices 1 2 3 4 5 6 
#
# 1 0.010332 -0.003725 -0.002321 0.000000 0.000000 0.000000
# 2 -0.003725 0.022125 -0.002568 0.000000 0.000000 0.000000
# 3 -0.002321 -0.002568 0.007292 0.000000 0.000000 0.000000
# 4 0.000000 0.000000 0.000000 0.028722 0.000000 0.000000
# 5 0.000000 0.000000 0.000000 0.000000 0.077937 0.000000
# 6 0.000000 0.000000 0.000000 0.000000 0.000000 0.068633
#
#
# Mechanical properties :
#
#
# Convention : Reuss Voigt Hill
#
# Bulk Modulus (GPa) = 44.40324 58.12466 51.26395
# Shear Modulus (GPa) = 20.85295 27.94560 24.39928
#
# Velocity S-wave (km/s) = 3.26199 3.77621 3.52848
# Velocity P-wave (km/s) = 6.07001 6.97654 6.53901
#
# Compressibility (1/GPa) = 0.02252088
#
# Stress axis : x y z
#
# Youngs Moduli (GPa) = 96.79107 45.19845 137.13308
#
# Poissons Ratio (x) = 0.16835 0.31827
# Poissons Ratio (y) = 0.36052 0.35217
# Poissons Ratio (z) = 0.22464 0.11607
#
# Static dielectric constant tensor:
#      x y z
#    x 3.257630 0.000000 0.000000 
#    y 0.000000 3.250660 0.000000 
#    z 0.000000 0.000000 3.746830 
# 
# 
# High freq. dielectric constant tensor:
#      x y z
#    x 1.736360 0.000000 0.000000 
#    y 0.000000 1.742730 0.000000 
#    z 0.000000 0.000000 1.775700 
# 
# From -- ./inp_files/14151.got.cif
#   From: 2010.03.12/outbox.cif.g09.slc.cpg/sg40_8_cif.got.tgz:14151.got - 2010.04.14 01:38:03.
