data_PCOD8184202
_publ_section_title
;
Structure prediction by ZEFSAII (Michael W. Deem and Ramdas Pophale) SiO2 
 PCOD8184202
Probable space group: A M A 2
;
_chemical_formula_sum "Si O2"
_cell_formula_units_Z 56
_cell_length_a 8.691296
_cell_length_b 21.055878
_cell_length_c 14.342575
_cell_angle_alpha 90.000000
_cell_angle_beta 90.000000
_cell_angle_gamma 90.000000
_cell_volume 2624.732363
_symmetry_space_group_name_H-M "A M A 2"
_symmetry_group_IT_number 40
_symmetry_cell_setting 'orthorhombic'
loop_
_space_group_symop_operation_xyz
x,y,z
-x,-y,z
1/2-x,y,z
1/2+x,-y,z
x,1/2+y,1/2+z
-x,1/2-y,1/2+z
1/2-x,1/2+y,1/2+z
1/2+x,1/2-y,1/2+z
loop_
_atom_site_type_symbol
_atom_site_label
_atom_site_fract_x
_atom_site_fract_y
_atom_site_fract_z
Si Si1 0.928881 0.432761 0.232350
Si Si2 0.069499 0.433210 0.612352
Si Si3 0.572175 0.369273 0.046239
Si Si4 0.428534 0.435768 0.895047
Si Si5 0.573807 0.843532 0.259354
Si Si6 0.069092 0.617931 0.428462
Si Si7 0.570658 0.252516 0.916156
O O1 0.750000 0.444896 0.243675
O O2 0.959883 0.376338 0.156783
O O3 0.996228 0.408291 0.330589
O O4 0.000000 0.500000 0.202368
O O5 0.250000 0.440690 0.616276
O O6 0.000000 0.500000 0.650935
O O7 0.026137 0.370479 0.673569
O O8 0.014673 0.422613 0.507612
O O9 0.750000 0.385838 0.024193
O O10 0.458729 0.423507 0.004079
O O11 0.529086 0.301070 0.001277
O O12 0.500000 0.500000 0.858797
O O13 0.250000 0.429251 0.866557
O O14 0.542306 0.386287 0.848190
O O15 0.750000 0.845718 0.226866
O O16 0.532854 0.775731 0.308759
O O17 0.250000 0.608123 0.439701
O O18 0.032454 0.692024 0.437661
O O19 0.750000 0.234994 0.922595
#
# Coordination Sequence:
#
# PCOD8184202 Si02
#       7
#     8   8   8   8   8   8   8
#     4  10  22  39  60  86 116 152 194 243 296 349
#     4  12  25  42  64  90 121 158 203 254 309 364
#     4   9  19  37  58  83 116 152 192 242 299 354
#     4  11  20  31  50  80 116 154 194 237 291 353
#     4  10  21  39  61  87 120 155 194 244 301 360
#     4  11  24  41  61  87 121 161 205 251 297 352
#     4   9  20  39  62  89 122 158 195 239 295 356
#
# _framework density 21.335508000000001
#
# number of rings (size 3 to 8) (size 9 to 14) (size 15 to 20)
#    0.000    1.714    0.000    5.571    0.000    8.000 
#    0.000    1.429    0.000    0.000    0.000    0.000 
#    0.000    0.000    0.000    0.000    0.000    0.000 
#
# Total GULP energy -346920.571062 kJ/mol
# GULP energy per Si atom -12390.020395 kJ/mol
# Density = 2.128695 g / cm^3
# Si number density = 21.335508 Si / 1000 Ang^3
#
#
#
# Elastic Constant Matrix: (Units=GPa)
#
#
# Indices 1 2 3 4 5 6 
#
# 1 70.5242 25.7218 27.6055 0.0000 0.0000 0.0000
# 2 25.7218 75.6134 22.4701 0.0000 0.0000 0.0000
# 3 27.6055 22.4701 119.4693 0.0000 0.0000 0.0000
# 4 0.0000 0.0000 0.0000 26.9718 0.0000 0.0000
# 5 0.0000 0.0000 0.0000 0.0000 25.7170 0.0000
# 6 0.0000 0.0000 0.0000 0.0000 0.0000 32.6749
#
#
#
# Elastic Compliance Matrix: (Units=1/GPa)
#
#
# Indices 1 2 3 4 5 6 
#
# 1 0.017170 -0.004938 -0.003039 0.000000 0.000000 0.000000
# 2 -0.004938 0.015428 -0.001761 0.000000 0.000000 0.000000
# 3 -0.003039 -0.001761 0.009404 0.000000 0.000000 0.000000
# 4 0.000000 0.000000 0.000000 0.037076 0.000000 0.000000
# 5 0.000000 0.000000 0.000000 0.000000 0.038885 0.000000
# 6 0.000000 0.000000 0.000000 0.000000 0.000000 0.030604
#
#
# Mechanical properties :
#
#
# Convention : Reuss Voigt Hill
#
# Bulk Modulus (GPa) = 44.39087 46.35577 45.37332
# Shear Modulus (GPa) = 28.48185 29.72670 29.10428
#
# Velocity S-wave (km/s) = 3.65766 3.73674 3.69741
# Velocity P-wave (km/s) = 6.22007 6.35546 6.28813
#
# Compressibility (1/GPa) = 0.02252715
#
# Stress axis : x y z
#
# Youngs Moduli (GPa) = 58.24150 64.81669 106.34142
#
# Poissons Ratio (x) = 0.32005 0.32314
# Poissons Ratio (y) = 0.28758 0.18725
# Poissons Ratio (z) = 0.17698 0.11413
#
# Static dielectric constant tensor:
#      x y z
#    x 3.757640 0.000000 0.000000 
#    y 0.000000 3.605210 0.000000 
#    z 0.000000 0.000000 4.082110 
# 
# 
# High freq. dielectric constant tensor:
#      x y z
#    x 1.830690 0.000000 0.000000 
#    y 0.000000 1.829080 0.000000 
#    z 0.000000 0.000000 1.845630 
# 
# From -- ./inp_files/15299.got.cif
#   From: 2010.03.12/outbox.cif.g09.slc.cpg/sg40_8_cif.got.tgz:15299.got - 2010.04.14 01:38:03.
