data_PCOD8184834
_publ_section_title
;
Structure prediction by ZEFSAII (Michael W. Deem and Ramdas Pophale) SiO2 
 PCOD8184834
Probable space group: A B A 2
;
_chemical_formula_sum "Si O2"
_cell_formula_units_Z 60
_cell_length_a 26.528820
_cell_length_b 5.324337
_cell_length_c 18.188884
_cell_angle_alpha 90.000000
_cell_angle_beta 90.000000
_cell_angle_gamma 90.000000
_cell_volume 2569.150361
_symmetry_space_group_name_H-M "A B A 2"
_symmetry_group_IT_number 41
_symmetry_cell_setting 'orthorhombic'
loop_
_space_group_symop_operation_xyz
x,y,z
-x,-y,z
1/2-x,y,1/2+z
1/2+x,-y,1/2+z
x,1/2+y,1/2+z
-x,1/2-y,1/2+z
1/2-x,1/2+y,z
1/2+x,1/2-y,z
loop_
_atom_site_type_symbol
_atom_site_label
_atom_site_fract_x
_atom_site_fract_y
_atom_site_fract_z
Si Si1 0.517812 0.256672 0.757280
Si Si2 0.863589 0.375584 0.440260
Si Si3 0.500000 0.000000 0.014334
Si Si4 0.057205 0.269677 0.388603
Si Si5 0.623671 0.614960 0.303553
Si Si6 0.402599 0.844651 0.081801
Si Si7 0.781563 0.142325 0.020953
Si Si8 0.856570 0.643586 0.645210
O O1 0.500000 0.500000 0.709614
O O2 0.491359 0.283643 0.837145
O O3 0.576940 0.278923 0.771121
O O4 0.500000 0.000000 0.717779
O O5 0.919454 0.467973 0.416268
O O6 0.842228 0.247981 0.365970
O O7 0.869745 0.173988 0.506134
O O8 0.827798 0.606224 0.463932
O O9 0.462593 0.841766 0.066727
O O10 0.539801 0.849516 0.964949
O O11 0.101096 0.132953 0.341505
O O12 0.657973 0.593934 0.230840
O O13 0.393358 0.587280 0.125908
O O14 0.384472 0.092476 0.126310
O O15 0.756769 0.412100 0.007080
O O16 0.803267 0.128502 0.103422
#
# Coordination Sequence:
#
# PCOD8184834 Si02
#       8
#     8   8   4   8   8   8   8   8
#     4  10  19  35  54  93 131 182 218 254 310 391
#     4  11  23  41  75  99 133 174 237 292 354 416
#     4  12  20  40  62  98 138 194 244 280 316 392
#     4  11  21  36  66 101 138 185 229 281 338 391
#     4  11  23  41  68 101 141 184 227 284 338 413
#     4  11  25  44  64  99 139 193 235 283 331 412
#     4  11  25  48  75 100 131 176 229 294 368 441
#     4  11  27  48  69  99 141 186 231 282 368 422
#
# _framework density 23.354023000000002
#
# number of rings (size 3 to 8) (size 9 to 14) (size 15 to 20)
#    0.000    1.067    4.667    3.200    3.733    1.600 
#    8.400    1.333    0.000    0.000    0.000    0.000 
#    0.000    0.000    0.000    0.000    0.000    0.000 
#
# Total GULP energy -371659.875912 kJ/mol
# GULP energy per Si atom -12388.662530 kJ/mol
# Density = 2.330087 g / cm^3
# Si number density = 23.354023 Si / 1000 Ang^3
#
#
#
# Elastic Constant Matrix: (Units=GPa)
#
#
# Indices 1 2 3 4 5 6 
#
# 1 42.8558 -1.7094 1.6672 0.0000 0.0000 0.0000
# 2 -1.7094 126.1662 19.3861 0.0000 0.0000 0.0000
# 3 1.6672 19.3861 127.0628 0.0000 0.0000 0.0000
# 4 0.0000 0.0000 0.0000 12.5329 0.0000 0.0000
# 5 0.0000 0.0000 0.0000 0.0000 26.7014 0.0000
# 6 0.0000 0.0000 0.0000 0.0000 0.0000 34.2462
#
#
#
# Elastic Compliance Matrix: (Units=1/GPa)
#
#
# Indices 1 2 3 4 5 6 
#
# 1 0.023363 0.000372 -0.000363 0.000000 0.000000 0.000000
# 2 0.000372 0.008122 -0.001244 0.000000 0.000000 0.000000
# 3 -0.000363 -0.001244 0.008065 0.000000 0.000000 0.000000
# 4 0.000000 0.000000 0.000000 0.079790 0.000000 0.000000
# 5 0.000000 0.000000 0.000000 0.000000 0.037451 0.000000
# 6 0.000000 0.000000 0.000000 0.000000 0.000000 0.029200
#
#
# Mechanical properties :
#
#
# Convention : Reuss Voigt Hill
#
# Bulk Modulus (GPa) = 26.96883 37.19696 32.08290
# Shear Modulus (GPa) = 24.89772 33.14550 29.02161
#
# Velocity S-wave (km/s) = 3.26866 3.77140 3.52899
# Velocity P-wave (km/s) = 5.08118 5.90987 5.51113
#
# Compressibility (1/GPa) = 0.03707984
#
# Stress axis : x y z
#
# Youngs Moduli (GPa) = 42.80262 123.11839 123.99711
#
# Poissons Ratio (x) = -0.04585 0.04506
# Poissons Ratio (y) = -0.01594 0.15427
# Poissons Ratio (z) = 0.01555 0.15317
#
# Static dielectric constant tensor:
#      x y z
#    x 3.983700 0.000000 0.000000 
#    y 0.000000 7.246500 0.000000 
#    z 0.000000 0.000000 4.437130 
# 
# 
# High freq. dielectric constant tensor:
#      x y z
#    x 1.888040 0.000000 0.000000 
#    y 0.000000 1.933640 0.000000 
#    z 0.000000 0.000000 1.925980 
# 
# From -- ./inp_files/10806.got.cif
#   From: 2010.03.12/outbox.cif.g09.slc.cpg/sg41_6_cif.got.tgz:10806.got - 2010.04.14 01:55:53.
