data_PCOD8184269
_publ_section_title
;
Structure prediction by ZEFSAII (Michael W. Deem and Ramdas Pophale) SiO2 
 PCOD8184269
Probable space group: A M A 2
;
_chemical_formula_sum "Si O2"
_cell_formula_units_Z 64
_cell_length_a 18.518343
_cell_length_b 15.263769
_cell_length_c 11.324622
_cell_angle_alpha 90.000000
_cell_angle_beta 90.000000
_cell_angle_gamma 90.000000
_cell_volume 3201.014368
_symmetry_space_group_name_H-M "A M A 2"
_symmetry_group_IT_number 40
_symmetry_cell_setting 'orthorhombic'
loop_
_space_group_symop_operation_xyz
x,y,z
-x,-y,z
1/2-x,y,z
1/2+x,-y,z
x,1/2+y,1/2+z
-x,1/2-y,1/2+z
1/2-x,1/2+y,1/2+z
1/2+x,1/2-y,1/2+z
loop_
_atom_site_type_symbol
_atom_site_label
_atom_site_fract_x
_atom_site_fract_y
_atom_site_fract_z
Si Si1 0.445467 0.344456 0.887410
Si Si2 0.665485 0.854144 0.155900
Si Si3 0.666619 0.114793 0.984714
Si Si4 0.945470 0.579283 0.146617
Si Si5 0.834390 0.806055 0.888909
Si Si6 0.920620 0.229306 0.815845
Si Si7 0.421944 0.474634 0.682223
Si Si8 0.330735 0.518695 0.275978
O O1 0.379456 0.279994 0.859434
O O2 0.521460 0.298566 0.861335
O O3 0.436983 0.430282 0.808270
O O4 0.444747 0.372675 0.022626
O O5 0.750000 0.864500 0.180352
O O6 0.635529 0.770171 0.223732
O O7 0.626006 0.940026 0.204391
O O8 0.648070 0.841230 0.018999
O O9 0.750000 0.137745 0.016019
O O10 0.621188 0.093615 0.101439
O O11 0.627461 0.197736 0.925914
O O12 0.663289 0.030711 0.900718
O O13 0.961721 0.649255 0.250540
O O14 0.869069 0.533226 0.171124
O O15 0.000000 0.500000 0.153838
O O16 0.750000 0.783253 0.876297
O O17 0.858733 0.882312 0.797788
O O18 0.500000 0.500000 0.625487
O O19 0.250000 0.522989 0.230465
#
# Coordination Sequence:
#
# PCOD8184269 Si02
#       8
#     8   8   8   8   8   8   8   8
#     4  12  26  41  63  94 134 172 214 264 327 394
#     4  11  22  43  69  95 126 168 217 267 327 386
#     4  10  22  40  67  96 127 163 214 271 319 383
#     4  11  24  41  62  90 129 169 207 258 325 384
#     4  10  21  40  67  95 125 163 218 271 318 382
#     4  11  24  41  68  96 125 167 216 275 324 385
#     4  12  25  41  65  97 133 170 214 263 324 393
#     4   9  19  40  66  93 119 158 213 264 313 372
#
# _framework density 19.993662
#
# number of rings (size 3 to 8) (size 9 to 14) (size 15 to 20)
#    0.000    1.250    3.750    1.875    3.500    4.000 
#    0.000    0.000    0.000    0.000    0.000    0.000 
#    0.000    0.000    0.000    0.000    0.000    0.000 
#
# Total GULP energy -396864.293034 kJ/mol
# GULP energy per Si atom -12402.009157 kJ/mol
# Density = 1.994816 g / cm^3
# Si number density = 19.993662 Si / 1000 Ang^3
#
#
#
# Elastic Constant Matrix: (Units=GPa)
#
#
# Indices 1 2 3 4 5 6 
#
# 1 100.4152 36.9133 31.7841 0.0000 0.0000 0.0000
# 2 36.9133 90.5557 19.4197 0.0000 0.0000 0.0000
# 3 31.7841 19.4197 68.4909 0.0000 0.0000 0.0000
# 4 0.0000 0.0000 0.0000 38.1478 0.0000 0.0000
# 5 0.0000 0.0000 0.0000 0.0000 25.6112 0.0000
# 6 0.0000 0.0000 0.0000 0.0000 0.0000 41.4866
#
#
#
# Elastic Compliance Matrix: (Units=1/GPa)
#
#
# Indices 1 2 3 4 5 6 
#
# 1 0.013070 -0.004288 -0.004850 0.000000 0.000000 0.000000
# 2 -0.004288 0.013164 -0.001743 0.000000 0.000000 0.000000
# 3 -0.004850 -0.001743 0.017345 0.000000 0.000000 0.000000
# 4 0.000000 0.000000 0.000000 0.026214 0.000000 0.000000
# 5 0.000000 0.000000 0.000000 0.000000 0.039045 0.000000
# 6 0.000000 0.000000 0.000000 0.000000 0.000000 0.024104
#
#
# Mechanical properties :
#
#
# Convention : Reuss Voigt Hill
#
# Bulk Modulus (GPa) = 45.83093 48.41066 47.12080
# Shear Modulus (GPa) = 30.86875 32.47209 31.67042
#
# Velocity S-wave (km/s) = 3.93355 4.03441 3.98430
# Velocity P-wave (km/s) = 6.60325 6.77993 6.69217
#
# Compressibility (1/GPa) = 0.02181933
#
# Stress axis : x y z
#
# Youngs Moduli (GPa) = 76.51202 75.96193 57.65308
#
# Poissons Ratio (x) = 0.32570 0.27959
# Poissons Ratio (y) = 0.32806 0.10048
# Poissons Ratio (z) = 0.37105 0.13239
#
# Static dielectric constant tensor:
#      x y z
#    x 3.896900 0.000000 0.000000 
#    y 0.000000 3.762760 0.000000 
#    z 0.000000 0.000000 3.493930 
# 
# 
# High freq. dielectric constant tensor:
#      x y z
#    x 1.791490 0.000000 0.000000 
#    y 0.000000 1.792480 0.000000 
#    z 0.000000 0.000000 1.765630 
# 
# From -- ./inp_files/13153.got.cif
#   From: 2010.03.12/outbox.cif.g09.slc.cpg/sg40_7_cif.got.tgz:13153.got - 2010.04.14 01:38:03.
