data_PCOD8184584
_publ_section_title
;
Structure prediction by ZEFSAII (Michael W. Deem and Ramdas Pophale) SiO2 
 PCOD8184584
Probable space group: A M A 2
;
_chemical_formula_sum "Si O2"
_cell_formula_units_Z 48
_cell_length_a 19.107829
_cell_length_b 9.127471
_cell_length_c 13.557225
_cell_angle_alpha 90.000000
_cell_angle_beta 90.000000
_cell_angle_gamma 90.000000
_cell_volume 2364.463486
_symmetry_space_group_name_H-M "A M A 2"
_symmetry_group_IT_number 40
_symmetry_cell_setting 'orthorhombic'
loop_
_space_group_symop_operation_xyz
x,y,z
-x,-y,z
1/2-x,y,z
1/2+x,-y,z
x,1/2+y,1/2+z
-x,1/2-y,1/2+z
1/2-x,1/2+y,1/2+z
1/2+x,1/2-y,1/2+z
loop_
_atom_site_type_symbol
_atom_site_label
_atom_site_fract_x
_atom_site_fract_y
_atom_site_fract_z
Si Si1 0.457807 0.858950 0.420510
Si Si2 0.830280 0.008340 0.511537
Si Si3 0.670719 0.686642 0.420846
Si Si4 0.466231 0.713291 0.226582
Si Si5 0.045108 0.866454 0.035824
Si Si6 0.889036 0.071314 0.724563
O O1 0.460414 0.847298 0.302523
O O2 0.495350 0.713625 0.457961
O O3 0.500000 0.000000 0.459242
O O4 0.378062 0.871012 0.457331
O O5 0.750000 0.050818 0.493571
O O6 0.845969 0.852128 0.458087
O O7 0.845521 0.020580 0.628523
O O8 0.750000 0.643903 0.447755
O O9 0.616237 0.583367 0.479931
O O10 0.659047 0.658081 0.303837
O O11 0.430670 0.763529 0.125135
O O12 0.546527 0.677425 0.197172
O O13 0.423107 0.575886 0.270540
O O14 0.000000 0.000000 0.078374
#
# Coordination Sequence:
#
# PCOD8184584 Si02
#       6
#     8   8   8   8   8   8
#     4  12  21  40  63  93 130 171 220 273 328 396
#     4  11  23  41  66  95 131 176 221 272 336 402
#     4  11  23  40  64  97 134 174 221 275 338 403
#     4  11  22  36  67  98 126 165 226 274 328 393
#     4  12  23  40  64  97 132 170 222 282 329 391
#     4  11  20  40  66  97 125 172 220 272 332 397
#
# _framework density 20.300587
#
# number of rings (size 3 to 8) (size 9 to 14) (size 15 to 20)
#    0.000    0.667    6.667    2.000    0.000    0.000 
#    0.000    5.000    0.000    0.000    0.000    0.000 
#    0.000    0.000    0.000    0.000    0.000    0.000 
#
# Total GULP energy -297521.279503 kJ/mol
# GULP energy per Si atom -12396.719979 kJ/mol
# Density = 2.025438 g / cm^3
# Si number density = 20.300587 Si / 1000 Ang^3
#
#
#
# Elastic Constant Matrix: (Units=GPa)
#
#
# Indices 1 2 3 4 5 6 
#
# 1 140.6204 41.6220 45.0474 0.0000 0.0000 0.0000
# 2 41.6220 57.5950 35.7616 0.0000 0.0000 0.0000
# 3 45.0474 35.7616 123.3248 0.0000 0.0000 0.0000
# 4 0.0000 0.0000 0.0000 41.6305 0.0000 0.0000
# 5 0.0000 0.0000 0.0000 0.0000 32.1785 0.0000
# 6 0.0000 0.0000 0.0000 0.0000 0.0000 21.7053
#
#
#
# Elastic Compliance Matrix: (Units=1/GPa)
#
#
# Indices 1 2 3 4 5 6 
#
# 1 0.009355 -0.005657 -0.001777 0.000000 0.000000 0.000000
# 2 -0.005657 0.024597 -0.005066 0.000000 0.000000 0.000000
# 3 -0.001777 -0.005066 0.010227 0.000000 0.000000 0.000000
# 4 0.000000 0.000000 0.000000 0.024021 0.000000 0.000000
# 5 0.000000 0.000000 0.000000 0.000000 0.031077 0.000000
# 6 0.000000 0.000000 0.000000 0.000000 0.000000 0.046072
#
#
# Mechanical properties :
#
#
# Convention : Reuss Voigt Hill
#
# Bulk Modulus (GPa) = 52.14253 62.93360 57.53806
# Shear Modulus (GPa) = 28.29010 32.37681 30.33346
#
# Velocity S-wave (km/s) = 3.73709 3.99792 3.86970
# Velocity P-wave (km/s) = 6.66049 7.23735 6.95491
#
# Compressibility (1/GPa) = 0.01917820
#
# Stress axis : x y z
#
# Youngs Moduli (GPa) = 106.89458 40.65602 97.78380
#
# Poissons Ratio (x) = 0.23001 0.17372
# Poissons Ratio (y) = 0.60475 0.49537
# Poissons Ratio (z) = 0.18991 0.20596
#
# Static dielectric constant tensor:
#      x y z
#    x 3.702840 0.000000 0.000000 
#    y 0.000000 3.488970 0.000000 
#    z 0.000000 0.000000 3.632400 
# 
# 
# High freq. dielectric constant tensor:
#      x y z
#    x 1.790780 0.000000 0.000000 
#    y 0.000000 1.776370 0.000000 
#    z 0.000000 0.000000 1.800980 
# 
# From -- ./inp_files/17621.got.cif
#   From: 2010.03.12/outbox.cif.g09.slc.cpg/sg40_9_cif.got.tgz:17621.got - 2010.04.14 01:38:03.
