data_PCOD8184914
_publ_section_title
;
Structure prediction by ZEFSAII (Michael W. Deem and Ramdas Pophale) SiO2 
 PCOD8184914
Probable space group: A B A 2
;
_chemical_formula_sum "Si O2"
_cell_formula_units_Z 64
_cell_length_a 19.686200
_cell_length_b 20.076915
_cell_length_c 8.674863
_cell_angle_alpha 90.000000
_cell_angle_beta 90.000000
_cell_angle_gamma 90.000000
_cell_volume 3428.636926
_symmetry_space_group_name_H-M "A B A 2"
_symmetry_group_IT_number 41
_symmetry_cell_setting 'orthorhombic'
loop_
_space_group_symop_operation_xyz
x,y,z
-x,-y,z
1/2-x,y,1/2+z
1/2+x,-y,1/2+z
x,1/2+y,1/2+z
-x,1/2-y,1/2+z
1/2-x,1/2+y,z
1/2+x,1/2-y,z
loop_
_atom_site_type_symbol
_atom_site_label
_atom_site_fract_x
_atom_site_fract_y
_atom_site_fract_z
Si Si1 0.079975 0.322086 0.223550
Si Si2 0.579975 0.677914 0.368271
Si Si3 0.321894 0.926638 0.726685
Si Si4 0.321894 0.426638 0.865136
Si Si5 0.177801 0.567497 0.227973
Si Si6 0.576504 0.816813 0.867066
Si Si7 0.923496 0.316813 0.224754
Si Si8 0.177801 0.567497 0.863848
O O1 0.122175 0.371595 0.329575
O O2 0.098741 0.246551 0.266948
O O3 0.001150 0.336322 0.257820
O O4 0.098506 0.334469 0.045910
O O5 0.622175 0.628405 0.262246
O O6 0.501150 0.663678 0.334000
O O7 0.598741 0.753449 0.324873
O O8 0.313295 0.935498 0.545911
O O9 0.250000 0.903654 0.795911
O O10 0.345801 0.996648 0.797796
O O11 0.345800 0.496648 0.794025
O O12 0.122273 0.621549 0.278162
O O13 0.250000 0.589740 0.295910
O O14 0.183983 0.561477 0.045910
O O15 0.622273 0.878451 0.813658
O O16 0.587327 0.799071 0.045911
#
# Coordination Sequence:
#
# PCOD8184914 Si02
#       8
#     8   8   8   8   8   8   8   8
#     4  10  20  36  57  80 108 142 180 222 267 315
#     4  10  20  36  57  80 108 142 180 222 267 315
#     4  11  22  37  56  79 108 140 178 221 267 319
#     4  11  22  37  56  79 108 140 178 221 267 319
#     4  10  20  36  56  79 108 140 177 219 265 316
#     4   9  20  37  56  79 109 144 180 220 266 318
#     4   9  20  37  56  79 109 144 180 220 266 318
#     4  10  20  36  56  79 108 140 177 219 265 316
#
# _framework density 18.666308999999998
#
# number of rings (size 3 to 8) (size 9 to 14) (size 15 to 20)
#    0.000    2.000    0.000    5.250    0.000    5.000 
#    0.000    7.500    0.000    0.000    0.000    0.000 
#    0.000    0.000    0.000    0.000    0.000    0.000 
#
# Total GULP energy -396951.228879 kJ/mol
# GULP energy per Si atom -12404.725902 kJ/mol
# Density = 1.862382 g / cm^3
# Si number density = 18.666309 Si / 1000 Ang^3
#
#
#
# Elastic Constant Matrix: (Units=GPa)
#
#
# Indices 1 2 3 4 5 6 
#
# 1 96.3133 83.0078 40.9758 0.0000 0.0000 0.0000
# 2 83.0078 119.8020 48.2506 0.0000 0.0000 0.0000
# 3 40.9758 48.2506 94.3596 0.0000 0.0000 0.0000
# 4 0.0000 0.0000 0.0000 34.9311 0.0000 0.0000
# 5 0.0000 0.0000 0.0000 0.0000 29.8252 0.0000
# 6 0.0000 0.0000 0.0000 0.0000 0.0000 29.9132
#
#
#
# Elastic Compliance Matrix: (Units=1/GPa)
#
#
# Indices 1 2 3 4 5 6 
#
# 1 0.026288 -0.017148 -0.002647 0.000000 0.000000 0.000000
# 2 -0.017148 0.021698 -0.003649 0.000000 0.000000 0.000000
# 3 -0.002647 -0.003649 0.013613 0.000000 0.000000 0.000000
# 4 0.000000 0.000000 0.000000 0.028628 0.000000 0.000000
# 5 0.000000 0.000000 0.000000 0.000000 0.033529 0.000000
# 6 0.000000 0.000000 0.000000 0.000000 0.000000 0.033430
#
#
# Mechanical properties :
#
#
# Convention : Reuss Voigt Hill
#
# Bulk Modulus (GPa) = 67.97398 72.77149 70.37273
# Shear Modulus (GPa) = 23.92598 28.14996 26.03797
#
# Velocity S-wave (km/s) = 3.58407 3.88759 3.73891
# Velocity P-wave (km/s) = 7.32269 7.69553 7.51143
#
# Compressibility (1/GPa) = 0.01471151
#
# Stress axis : x y z
#
# Youngs Moduli (GPa) = 38.03976 46.08652 73.45966
#
# Poissons Ratio (x) = 0.79031 0.19444
# Poissons Ratio (y) = 0.65232 0.26803
# Poissons Ratio (z) = 0.10069 0.16815
#
# Static dielectric constant tensor:
#      x y z
#    x 3.428610 0.000000 0.000000 
#    y 0.000000 3.442010 0.000000 
#    z 0.000000 0.000000 3.493350 
# 
# 
# High freq. dielectric constant tensor:
#      x y z
#    x 1.724130 0.000000 0.000000 
#    y 0.000000 1.728380 0.000000 
#    z 0.000000 0.000000 1.737400 
# 
# From -- ./inp_files/3534.got.cif
#   From: 2010.03.12/outbox.cif.g09.slc.cpg/sg41_2_cif.got.tgz:3534.got - 2010.04.14 01:55:53.
