data_PCOD8184077
_publ_section_title
;
Structure prediction by ZEFSAII (Michael W. Deem and Ramdas Pophale) SiO2 
 PCOD8184077
Probable space group: A M A 2
;
_chemical_formula_sum "Si O2"
_cell_formula_units_Z 64
_cell_length_a 9.020756
_cell_length_b 17.555703
_cell_length_c 20.119639
_cell_angle_alpha 90.000000
_cell_angle_beta 90.000000
_cell_angle_gamma 90.000000
_cell_volume 3186.260979
_symmetry_space_group_name_H-M "A M A 2"
_symmetry_group_IT_number 40
_symmetry_cell_setting 'orthorhombic'
loop_
_space_group_symop_operation_xyz
x,y,z
-x,-y,z
1/2-x,y,z
1/2+x,-y,z
x,1/2+y,1/2+z
-x,1/2-y,1/2+z
1/2-x,1/2+y,1/2+z
1/2+x,1/2-y,1/2+z
loop_
_atom_site_type_symbol
_atom_site_label
_atom_site_fract_x
_atom_site_fract_y
_atom_site_fract_z
Si Si1 0.075903 0.165458 0.964040
Si Si2 0.578894 0.578344 0.086237
Si Si3 0.425402 0.080345 0.332517
Si Si4 0.421028 0.664709 0.201946
Si Si5 0.921654 0.661794 0.715009
Si Si6 0.577821 0.921406 0.834047
Si Si7 0.076904 0.420016 0.579008
Si Si8 0.420405 0.339594 0.950899
O O1 0.250000 0.156637 0.978133
O O2 0.020739 0.112253 0.903806
O O3 0.036896 0.251495 0.944004
O O4 0.987413 0.143442 0.029901
O O5 0.500000 0.500000 0.068440
O O6 0.750000 0.560309 0.097062
O O7 0.518884 0.614431 0.153466
O O8 0.550916 0.636814 0.026581
O O9 0.250000 0.070385 0.331200
O O10 0.475440 0.139529 0.276367
O O11 0.474405 0.110653 0.404211
O O12 0.500000 0.000000 0.316790
O O13 0.250000 0.650508 0.183971
O O14 0.463488 0.752868 0.193518
O O15 0.456831 0.639960 0.277087
O O16 0.750000 0.657432 0.737145
O O17 0.955377 0.605788 0.653998
O O18 0.750000 0.938830 0.838824
O O19 0.500000 0.000000 0.816690
O O20 0.250000 0.428980 0.565245
O O21 0.000000 0.500000 0.564773
O O22 0.250000 0.354158 0.929984
#
# Coordination Sequence:
#
# PCOD8184077 Si02
#       8
#     8   8   8   8   8   8   8   8
#     4  10  21  39  62  86 116 154 194 240 295 351
#     4  11  23  38  59  87 118 154 196 242 293 351
#     4  12  25  40  62  90 120 156 199 246 293 348
#     4  10  21  39  62  86 116 154 194 240 295 351
#     4  10  22  41  63  87 118 155 195 243 298 353
#     4  10  21  36  56  82 112 150 191 232 284 344
#     4  11  23  38  59  87 118 154 196 242 293 351
#     4  10  22  41  63  87 118 155 195 243 298 353
#
# _framework density 20.08624
#
# number of rings (size 3 to 8) (size 9 to 14) (size 15 to 20)
#    0.000    1.500    0.000    4.875    0.000   10.000 
#    0.000    1.250    0.000    0.000    0.000    0.000 
#    0.000    0.000    0.000    0.000    0.000    0.000 
#
# Total GULP energy -397031.590560 kJ/mol
# GULP energy per Si atom -12407.237205 kJ/mol
# Density = 2.004052 g / cm^3
# Si number density = 20.086240 Si / 1000 Ang^3
#
#
#
# Elastic Constant Matrix: (Units=GPa)
#
#
# Indices 1 2 3 4 5 6 
#
# 1 96.7239 40.7428 44.6784 0.0000 0.0000 0.0000
# 2 40.7428 96.3818 16.7592 0.0000 0.0000 0.0000
# 3 44.6784 16.7592 81.7659 0.0000 0.0000 0.0000
# 4 0.0000 0.0000 0.0000 34.4634 0.0000 0.0000
# 5 0.0000 0.0000 0.0000 0.0000 35.8936 0.0000
# 6 0.0000 0.0000 0.0000 0.0000 0.0000 32.6994
#
#
#
# Elastic Compliance Matrix: (Units=1/GPa)
#
#
# Indices 1 2 3 4 5 6 
#
# 1 0.016240 -0.005519 -0.007743 0.000000 0.000000 0.000000
# 2 -0.005519 0.012634 0.000426 0.000000 0.000000 0.000000
# 3 -0.007743 0.000426 0.016373 0.000000 0.000000 0.000000
# 4 0.000000 0.000000 0.000000 0.029016 0.000000 0.000000
# 5 0.000000 0.000000 0.000000 0.000000 0.027860 0.000000
# 6 0.000000 0.000000 0.000000 0.000000 0.000000 0.030582
#
#
# Mechanical properties :
#
#
# Convention : Reuss Voigt Hill
#
# Bulk Modulus (GPa) = 51.08087 53.24802 52.16445
# Shear Modulus (GPa) = 30.32113 32.12402 31.22257
#
# Velocity S-wave (km/s) = 3.88950 4.00347 3.94690
# Velocity P-wave (km/s) = 6.75699 6.92370 6.84085
#
# Compressibility (1/GPa) = 0.01957680
#
# Stress axis : x y z
#
# Youngs Moduli (GPa) = 61.57742 79.15031 61.07454
#
# Poissons Ratio (x) = 0.43680 0.47287
# Poissons Ratio (y) = 0.33982 -0.02601
# Poissons Ratio (z) = 0.47677 -0.03371
#
# Static dielectric constant tensor:
#      x y z
#    x 3.622790 0.000000 0.000000 
#    y 0.000000 3.761140 0.000000 
#    z 0.000000 0.000000 3.648550 
# 
# 
# High freq. dielectric constant tensor:
#      x y z
#    x 1.779020 0.000000 0.000000 
#    y 0.000000 1.798840 0.000000 
#    z 0.000000 0.000000 1.796000 
# 
# From -- ./inp_files/22419.got.cif
#   From: 2010.03.12/outbox.cif.g09.slc.cpg/sg40_12_cif.got.tgz:22419.got - 2010.04.14 01:38:03.
