data_PCOD8184373
_publ_section_title
;
Structure prediction by ZEFSAII (Michael W. Deem and Ramdas Pophale) SiO2 
 PCOD8184373
Probable space group: A M A 2
;
_chemical_formula_sum "Si O2"
_cell_formula_units_Z 48
_cell_length_a 9.959785
_cell_length_b 30.162112
_cell_length_c 8.032825
_cell_angle_alpha 90.000000
_cell_angle_beta 90.000000
_cell_angle_gamma 90.000000
_cell_volume 2413.126103
_symmetry_space_group_name_H-M "A M A 2"
_symmetry_group_IT_number 40
_symmetry_cell_setting 'orthorhombic'
loop_
_space_group_symop_operation_xyz
x,y,z
-x,-y,z
1/2-x,y,z
1/2+x,-y,z
x,1/2+y,1/2+z
-x,1/2-y,1/2+z
1/2-x,1/2+y,1/2+z
1/2+x,1/2-y,1/2+z
loop_
_atom_site_type_symbol
_atom_site_label
_atom_site_fract_x
_atom_site_fract_y
_atom_site_fract_z
Si Si1 0.750000 0.887958 0.972100
Si Si2 0.012320 0.447162 0.489518
Si Si3 0.250000 0.183322 0.674412
Si Si4 0.900733 0.040332 0.642347
Si Si5 0.750000 0.304972 0.677394
Si Si6 0.097813 0.904367 0.324587
Si Si7 0.750000 0.737307 0.895694
Si Si8 0.476138 0.684402 0.907867
O O1 0.750000 0.854654 0.814926
O O2 0.626846 0.921612 0.974105
O O3 0.750000 0.857798 0.138767
O O4 0.094134 0.434272 0.320800
O O5 0.089648 0.431966 0.654775
O O6 0.000000 0.500000 0.505472
O O7 0.250000 0.236336 0.720654
O O8 0.389557 0.176161 0.574554
O O9 0.750000 0.023459 0.608332
O O10 0.951189 0.069026 0.487070
O O11 0.000000 0.000000 0.658438
O O12 0.750000 0.279940 0.508143
O O13 0.618885 0.289441 0.779850
O O14 0.250000 0.888899 0.352231
O O15 0.005343 0.861589 0.315439
O O16 0.616525 0.709424 0.934744
#
# Coordination Sequence:
#
# PCOD8184373 Si02
#       8
#     4   8   4   8   4   8   4   8
#     4  11  22  42  61  91 122 168 220 258 319 378
#     4  11  24  39  64  92 126 171 216 271 322 381
#     4  10  24  40  68  94 126 172 211 267 324 389
#     4  10  23  41  60  90 126 165 215 266 318 383
#     4  10  22  40  62  90 122 155 206 257 307 385
#     4  11  22  40  63  91 128 166 213 265 324 381
#     4  11  22  40  67  91 130 159 203 264 322 398
#     4  11  21  41  62  94 124 161 210 256 323 384
#
# _framework density 19.891210000000001
#
# number of rings (size 3 to 8) (size 9 to 14) (size 15 to 20)
#    0.000    1.333    2.500    3.000    5.833    0.000 
#    4.500    0.000    0.000    0.000    0.000    0.000 
#    0.000    0.000    0.000    0.000    0.000    0.000 
#
# Total GULP energy -297409.266239 kJ/mol
# GULP energy per Si atom -12392.052760 kJ/mol
# Density = 1.984594 g / cm^3
# Si number density = 19.891210 Si / 1000 Ang^3
#
#
#
# Elastic Constant Matrix: (Units=GPa)
#
#
# Indices 1 2 3 4 5 6 
#
# 1 121.2808 46.2352 25.3379 0.0000 0.0000 0.0000
# 2 46.2352 88.6214 33.5871 0.0000 0.0000 0.0000
# 3 25.3379 33.5871 119.6126 0.0000 0.0000 0.0000
# 4 0.0000 0.0000 0.0000 29.3723 0.0000 0.0000
# 5 0.0000 0.0000 0.0000 0.0000 50.6659 0.0000
# 6 0.0000 0.0000 0.0000 0.0000 0.0000 24.1381
#
#
#
# Elastic Compliance Matrix: (Units=1/GPa)
#
#
# Indices 1 2 3 4 5 6 
#
# 1 0.010353 -0.005115 -0.000757 0.000000 0.000000 0.000000
# 2 -0.005115 0.015154 -0.003172 0.000000 0.000000 0.000000
# 3 -0.000757 -0.003172 0.009411 0.000000 0.000000 0.000000
# 4 0.000000 0.000000 0.000000 0.034046 0.000000 0.000000
# 5 0.000000 0.000000 0.000000 0.000000 0.019737 0.000000
# 6 0.000000 0.000000 0.000000 0.000000 0.000000 0.041428
#
#
# Mechanical properties :
#
#
# Convention : Reuss Voigt Hill
#
# Bulk Modulus (GPa) = 59.41028 59.98169 59.69598
# Shear Modulus (GPa) = 32.50386 35.79223 34.14805
#
# Velocity S-wave (km/s) = 4.04676 4.24653 4.14785
# Velocity P-wave (km/s) = 7.19496 7.36644 7.28121
#
# Compressibility (1/GPa) = 0.01683210
#
# Stress axis : x y z
#
# Youngs Moduli (GPa) = 96.58777 65.98721 106.25466
#
# Poissons Ratio (x) = 0.33750 0.08044
# Poissons Ratio (y) = 0.49400 0.33703
# Poissons Ratio (z) = 0.07312 0.20931
#
# Static dielectric constant tensor:
#      x y z
#    x 3.476370 0.000000 0.000000 
#    y 0.000000 3.544010 0.000000 
#    z 0.000000 0.000000 4.018260 
# 
# 
# High freq. dielectric constant tensor:
#      x y z
#    x 1.787550 0.000000 0.000000 
#    y 0.000000 1.766800 0.000000 
#    z 0.000000 0.000000 1.790900 
# 
# From -- ./inp_files/4694.got.cif
#   From: 2010.03.12/outbox.cif.g09.slc.cpg/sg40_3_cif.got.tgz:4694.got - 2010.04.14 01:38:03.
