data_PCOD8184299
_publ_section_title
;
Structure prediction by ZEFSAII (Michael W. Deem and Ramdas Pophale) SiO2 
 PCOD8184299
Probable space group: A M A 2
;
_chemical_formula_sum "Si O2"
_cell_formula_units_Z 40
_cell_length_a 26.241164
_cell_length_b 12.309065
_cell_length_c 5.080525
_cell_angle_alpha 90.000000
_cell_angle_beta 90.000000
_cell_angle_gamma 90.000000
_cell_volume 1641.030879
_symmetry_space_group_name_H-M "A M A 2"
_symmetry_group_IT_number 40
_symmetry_cell_setting 'orthorhombic'
loop_
_space_group_symop_operation_xyz
x,y,z
-x,-y,z
1/2-x,y,z
1/2+x,-y,z
x,1/2+y,1/2+z
-x,1/2-y,1/2+z
1/2-x,1/2+y,1/2+z
1/2+x,1/2-y,1/2+z
loop_
_atom_site_type_symbol
_atom_site_label
_atom_site_fract_x
_atom_site_fract_y
_atom_site_fract_z
Si Si1 0.606989 0.141487 0.365070
Si Si2 0.146194 0.123472 0.942786
Si Si3 0.692168 0.968762 0.418680
Si Si4 0.943579 0.986906 0.756853
Si Si5 0.033444 0.737912 0.035872
O O1 0.623271 0.257895 0.476473
O O2 0.575108 0.164794 0.092785
O O3 0.658724 0.073537 0.342377
O O4 0.567793 0.088998 0.571570
O O5 0.172778 0.099388 0.665715
O O6 0.099560 0.034929 0.980473
O O7 0.188194 0.110604 0.169067
O O8 0.750000 0.007068 0.462650
O O9 0.940057 0.879108 0.570871
O O10 0.000000 0.000000 0.883614
O O11 0.986928 0.749421 0.242368
#
# Coordination Sequence:
#
# PCOD8184299 Si02
#       5
#     8   8   8   8   8
#     4  10  24  45  69  99 141 180 228 281 340 404
#     4  10  25  45  67 101 139 171 230 286 337 413
#     4  11  25  46  72 100 131 177 233 293 353 408
#     4  10  21  42  65 100 135 187 223 269 327 413
#     4  11  24  41  64  97 138 184 226 270 332 398
#
# _framework density 24.374921000000001
#
# number of rings (size 3 to 8) (size 9 to 14) (size 15 to 20)
#    0.000    1.600    2.000    0.600    2.800   14.400 
#    0.000    0.000    0.000    0.000    0.000    0.000 
#    0.000    0.000    0.000    0.000    0.000    0.000 
#
# Total GULP energy -247995.059394 kJ/mol
# GULP energy per Si atom -12399.752970 kJ/mol
# Density = 2.431944 g / cm^3
# Si number density = 24.374921 Si / 1000 Ang^3
#
#
#
# Elastic Constant Matrix: (Units=GPa)
#
#
# Indices 1 2 3 4 5 6 
#
# 1 166.8861 41.4390 28.0901 0.0000 0.0000 0.0000
# 2 41.4390 115.4689 23.3258 0.0000 0.0000 0.0000
# 3 28.0901 23.3258 79.6217 0.0000 0.0000 0.0000
# 4 0.0000 0.0000 0.0000 17.6443 0.0000 0.0000
# 5 0.0000 0.0000 0.0000 0.0000 30.0034 0.0000
# 6 0.0000 0.0000 0.0000 0.0000 0.0000 37.2769
#
#
#
# Elastic Compliance Matrix: (Units=1/GPa)
#
#
# Indices 1 2 3 4 5 6 
#
# 1 0.006811 -0.002082 -0.001793 0.000000 0.000000 0.000000
# 2 -0.002082 0.009842 -0.002149 0.000000 0.000000 0.000000
# 3 -0.001793 -0.002149 0.013821 0.000000 0.000000 0.000000
# 4 0.000000 0.000000 0.000000 0.056675 0.000000 0.000000
# 5 0.000000 0.000000 0.000000 0.000000 0.033330 0.000000
# 6 0.000000 0.000000 0.000000 0.000000 0.000000 0.026826
#
#
# Mechanical properties :
#
#
# Convention : Reuss Voigt Hill
#
# Bulk Modulus (GPa) = 54.26918 60.85405 57.56161
# Shear Modulus (GPa) = 30.21250 34.92639 32.56944
#
# Velocity S-wave (km/s) = 3.52446 3.78945 3.65935
# Velocity P-wave (km/s) = 6.23499 6.64580 6.44367
#
# Compressibility (1/GPa) = 0.01842667
#
# Stress axis : x y z
#
# Youngs Moduli (GPa) = 146.82381 101.60952 72.35176
#
# Poissons Ratio (x) = 0.21156 0.12972
# Poissons Ratio (y) = 0.30570 0.15546
# Poissons Ratio (z) = 0.26324 0.21832
#
# Static dielectric constant tensor:
#      x y z
#    x 4.469000 0.000000 0.000000 
#    y 0.000000 4.661380 0.000000 
#    z 0.000000 0.000000 4.045030 
# 
# 
# High freq. dielectric constant tensor:
#      x y z
#    x 1.965460 0.000000 0.000000 
#    y 0.000000 1.989760 0.000000 
#    z 0.000000 0.000000 1.958810 
# 
# From -- ./inp_files/2951.got.cif
#   From: 2010.03.12/outbox.cif.g09.slc.cpg/sg40_2_cif.got.tgz:2951.got - 2010.04.14 01:38:03.
