data_PCOD8184016
_publ_section_title
;
Structure prediction by ZEFSAII (Michael W. Deem and Ramdas Pophale) SiO2 
 PCOD8184016
Probable space group: A M A 2
;
_chemical_formula_sum "Si O2"
_cell_formula_units_Z 32
_cell_length_a 15.729093
_cell_length_b 8.998174
_cell_length_c 11.383662
_cell_angle_alpha 90.000000
_cell_angle_beta 90.000000
_cell_angle_gamma 90.000000
_cell_volume 1611.165151
_symmetry_space_group_name_H-M "A M A 2"
_symmetry_group_IT_number 40
_symmetry_cell_setting 'orthorhombic'
loop_
_space_group_symop_operation_xyz
x,y,z
-x,-y,z
1/2-x,y,z
1/2+x,-y,z
x,1/2+y,1/2+z
-x,1/2-y,1/2+z
1/2-x,1/2+y,1/2+z
1/2+x,1/2-y,1/2+z
loop_
_atom_site_type_symbol
_atom_site_label
_atom_site_fract_x
_atom_site_fract_y
_atom_site_fract_z
Si Si1 0.250000 0.889209 0.200860
Si Si2 0.750000 0.865504 0.012268
Si Si3 0.122547 0.316029 0.156704
Si Si4 0.750000 0.941270 0.738582
Si Si5 0.591691 0.456358 0.808102
Si Si6 0.500000 0.500000 0.031348
O O1 0.250000 0.715007 0.169648
O O2 0.250000 0.977386 0.078983
O O3 0.334444 0.927531 0.275941
O O4 0.831604 0.768299 0.049307
O O5 0.750000 0.900357 0.875712
O O6 0.167765 0.465176 0.201943
O O7 0.117513 0.207715 0.267678
O O8 0.029146 0.362167 0.111940
O O9 0.500000 0.500000 0.749976
O O10 0.580338 0.451932 0.949738
#
# Coordination Sequence:
#
# PCOD8184016 Si02
#       6
#     4   4   8   4   8   4
#     4  10  20  40  68  88 120 164 204 246 312 362
#     4   9  21  41  58  86 120 163 199 253 310 352
#     4  10  22  39  58  89 124 152 209 253 294 367
#     4  11  23  37  66  92 118 159 207 255 298 360
#     4   9  22  42  62  86 126 160 198 249 302 361
#     4  10  22  36  62  88 122 162 198 250 310 342
#
# _framework density 19.861404
#
# number of rings (size 3 to 8) (size 9 to 14) (size 15 to 20)
#    0.750    1.500    0.000    2.250    3.500    3.000 
#    4.500    2.500    0.000    0.000    0.000    0.000 
#    0.000    0.000    0.000    0.000    0.000    0.000 
#
# Total GULP energy -198327.035196 kJ/mol
# GULP energy per Si atom -12395.439700 kJ/mol
# Density = 1.981620 g / cm^3
# Si number density = 19.861404 Si / 1000 Ang^3
#
#
#
# Elastic Constant Matrix: (Units=GPa)
#
#
# Indices 1 2 3 4 5 6 
#
# 1 94.9158 38.5148 4.2487 0.0000 0.0000 0.0000
# 2 38.5148 159.2667 36.4256 0.0000 0.0000 0.0000
# 3 4.2487 36.4256 76.3998 0.0000 0.0000 0.0000
# 4 0.0000 0.0000 0.0000 22.2517 0.0000 0.0000
# 5 0.0000 0.0000 0.0000 0.0000 33.7966 0.0000
# 6 0.0000 0.0000 0.0000 0.0000 0.0000 30.4059
#
#
#
# Elastic Compliance Matrix: (Units=1/GPa)
#
#
# Indices 1 2 3 4 5 6 
#
# 1 0.011724 -0.003015 0.000785 0.000000 0.000000 0.000000
# 2 -0.003015 0.007822 -0.003562 0.000000 0.000000 0.000000
# 3 0.000785 -0.003562 0.014744 0.000000 0.000000 0.000000
# 4 0.000000 0.000000 0.000000 0.044940 0.000000 0.000000
# 5 0.000000 0.000000 0.000000 0.000000 0.029589 0.000000
# 6 0.000000 0.000000 0.000000 0.000000 0.000000 0.032888
#
#
# Mechanical properties :
#
#
# Convention : Reuss Voigt Hill
#
# Bulk Modulus (GPa) = 44.03864 54.32894 49.18379
# Shear Modulus (GPa) = 31.08312 34.05039 32.56675
#
# Velocity S-wave (km/s) = 3.96030 4.14502 4.05371
# Velocity P-wave (km/s) = 6.56758 7.09378 6.83574
#
# Compressibility (1/GPa) = 0.02270733
#
# Stress axis : x y z
#
# Youngs Moduli (GPa) = 85.29650 127.83712 67.82605
#
# Poissons Ratio (x) = 0.38540 -0.05327
# Poissons Ratio (y) = 0.25715 0.24159
# Poissons Ratio (z) = -0.06699 0.45534
#
# Static dielectric constant tensor:
#      x y z
#    x 3.630580 0.000000 0.000000 
#    y 0.000000 3.586030 0.000000 
#    z 0.000000 0.000000 3.364390 
# 
# 
# High freq. dielectric constant tensor:
#      x y z
#    x 1.774830 0.000000 0.000000 
#    y 0.000000 1.778810 0.000000 
#    z 0.000000 0.000000 1.763020 
# 
# From -- ./inp_files/11759.got.cif
#   From: 2010.03.12/outbox.cif.g09.slc.cpg/sg40_6_cif.got.tgz:11759.got - 2010.04.14 01:38:03.
