data_PCOD8184326
_publ_section_title
;
Structure prediction by ZEFSAII (Michael W. Deem and Ramdas Pophale) SiO2 
 PCOD8184326
Probable space group: A M A 2
;
_chemical_formula_sum "Si O2"
_cell_formula_units_Z 40
_cell_length_a 8.999965
_cell_length_b 28.142506
_cell_length_c 9.440947
_cell_angle_alpha 90.000000
_cell_angle_beta 90.000000
_cell_angle_gamma 90.000000
_cell_volume 2391.217869
_symmetry_space_group_name_H-M "A M A 2"
_symmetry_group_IT_number 40
_symmetry_cell_setting 'orthorhombic'
loop_
_space_group_symop_operation_xyz
x,y,z
-x,-y,z
1/2-x,y,z
1/2+x,-y,z
x,1/2+y,1/2+z
-x,1/2-y,1/2+z
1/2-x,1/2+y,1/2+z
1/2+x,1/2-y,1/2+z
loop_
_atom_site_type_symbol
_atom_site_label
_atom_site_fract_x
_atom_site_fract_y
_atom_site_fract_z
Si Si1 0.922759 0.868052 0.079700
Si Si2 0.074771 0.704809 0.048137
Si Si3 0.581360 0.638628 0.851231
Si Si4 0.581547 0.548850 0.691934
Si Si5 0.577563 0.286320 0.371147
O O1 0.750000 0.875060 0.112248
O O2 0.997858 0.839654 0.212220
O O3 0.999675 0.920417 0.067813
O O4 0.950409 0.838451 0.937157
O O5 0.250000 0.699881 0.036291
O O6 0.024172 0.712103 0.209423
O O7 0.001284 0.655842 0.992592
O O8 0.019900 0.748061 0.952675
O O9 0.750000 0.657667 0.851522
O O10 0.576686 0.580903 0.836338
O O11 0.500000 0.500000 0.723077
O O12 0.750000 0.538753 0.644211
O O13 0.750000 0.271992 0.384746
#
# Coordination Sequence:
#
# PCOD8184326 Si02
#       5
#     8   8   8   8   8
#     4   9  17  32  53  75 103 135 170 211 257 304
#     4  11  22  34  51  73 101 138 176 214 259 307
#     4   9  19  33  50  75 104 131 170 213 254 306
#     4   9  18  31  53  81 107 134 171 218 259 307
#     4  10  22  36  50  73 104 137 175 215 257 309
#
# _framework density 16.727878
#
# number of rings (size 3 to 8) (size 9 to 14) (size 15 to 20)
#    1.200    1.200    0.000    3.000    0.000    6.400 
#    0.000    0.000    0.000    1.200    0.000    2.800 
#    0.000    0.000    0.000    0.000    0.000    0.000 
#
# Total GULP energy -247827.272344 kJ/mol
# GULP energy per Si atom -12391.363617 kJ/mol
# Density = 1.668981 g / cm^3
# Si number density = 16.727878 Si / 1000 Ang^3
#
#
#
# Elastic Constant Matrix: (Units=GPa)
#
#
# Indices 1 2 3 4 5 6 
#
# 1 118.1493 51.1114 56.5460 0.0000 0.0000 0.0000
# 2 51.1114 101.8862 48.6964 0.0000 0.0000 0.0000
# 3 56.5460 48.6964 111.8740 0.0000 0.0000 0.0000
# 4 0.0000 0.0000 0.0000 22.7616 0.0000 0.0000
# 5 0.0000 0.0000 0.0000 0.0000 21.6288 0.0000
# 6 0.0000 0.0000 0.0000 0.0000 0.0000 29.2300
#
#
#
# Elastic Compliance Matrix: (Units=1/GPa)
#
#
# Indices 1 2 3 4 5 6 
#
# 1 0.012366 -0.004061 -0.004483 0.000000 0.000000 0.000000
# 2 -0.004061 0.013727 -0.003922 0.000000 0.000000 0.000000
# 3 -0.004483 -0.003922 0.012912 0.000000 0.000000 0.000000
# 4 0.000000 0.000000 0.000000 0.043934 0.000000 0.000000
# 5 0.000000 0.000000 0.000000 0.000000 0.046235 0.000000
# 6 0.000000 0.000000 0.000000 0.000000 0.000000 0.034211
#
#
# Mechanical properties :
#
#
# Convention : Reuss Voigt Hill
#
# Bulk Modulus (GPa) = 71.06084 71.62413 71.34248
# Shear Modulus (GPa) = 25.90578 26.42779 26.16678
#
# Velocity S-wave (km/s) = 3.93957 3.97906 3.95937
# Velocity P-wave (km/s) = 7.95401 8.00130 7.97769
#
# Compressibility (1/GPa) = 0.01407245
#
# Stress axis : x y z
#
# Youngs Moduli (GPa) = 80.86660 72.85042 77.44906
#
# Poissons Ratio (x) = 0.29584 0.34718
# Poissons Ratio (y) = 0.32840 0.30379
# Poissons Ratio (z) = 0.36250 0.28575
#
# Static dielectric constant tensor:
#      x y z
#    x 3.253400 0.000000 0.000000 
#    y 0.000000 3.009260 0.000000 
#    z 0.000000 0.000000 3.012470 
# 
# 
# High freq. dielectric constant tensor:
#      x y z
#    x 1.663230 0.000000 0.000000 
#    y 0.000000 1.634010 0.000000 
#    z 0.000000 0.000000 1.615850 
# 
# From -- ./inp_files/4378.got.cif
#   From: 2010.03.12/outbox.cif.g09.slc.cpg/sg40_3_cif.got.tgz:4378.got - 2010.04.14 01:38:03.
