data_PCOD8184393
_publ_section_title
;
Structure prediction by ZEFSAII (Michael W. Deem and Ramdas Pophale) SiO2 
 PCOD8184393
Probable space group: A M A 2
;
_chemical_formula_sum "Si O2"
_cell_formula_units_Z 36
_cell_length_a 17.835444
_cell_length_b 8.700878
_cell_length_c 11.301254
_cell_angle_alpha 90.000000
_cell_angle_beta 90.000000
_cell_angle_gamma 90.000000
_cell_volume 1753.774053
_symmetry_space_group_name_H-M "A M A 2"
_symmetry_group_IT_number 40
_symmetry_cell_setting 'orthorhombic'
loop_
_space_group_symop_operation_xyz
x,y,z
-x,-y,z
1/2-x,y,z
1/2+x,-y,z
x,1/2+y,1/2+z
-x,1/2-y,1/2+z
1/2-x,1/2+y,1/2+z
1/2+x,1/2-y,1/2+z
loop_
_atom_site_type_symbol
_atom_site_label
_atom_site_fract_x
_atom_site_fract_y
_atom_site_fract_z
Si Si1 0.914729 0.507231 0.689690
Si Si2 0.583055 0.850319 0.759038
Si Si3 0.000000 0.500000 0.067308
Si Si4 0.837156 0.522582 0.460144
Si Si5 0.947742 0.273844 0.887568
O O1 0.890509 0.680698 0.721552
O O2 0.861035 0.444857 0.584976
O O3 0.092464 0.598674 0.805592
O O4 0.000000 0.500000 0.642018
O O5 0.498566 0.842316 0.812123
O O6 0.574500 0.968179 0.647512
O O7 0.644059 0.912450 0.850557
O O8 0.994748 0.648968 0.982120
O O9 0.750000 0.559575 0.459189
O O10 0.882198 0.682317 0.452498
#
# Coordination Sequence:
#
# PCOD8184393 Si02
#       5
#     8   8   4   8   8
#     4  10  22  40  68  91 117 156 212 265 304 355
#     4  11  22  38  66  93 120 154 209 261 307 357
#     4  12  20  36  68  96 118 148 204 274 308 338
#     4  12  26  40  58  90 134 170 198 245 314 383
#     4  11  22  40  67  95 115 157 215 263 304 355
#
# _framework density 20.527159999999999
#
# number of rings (size 3 to 8) (size 9 to 14) (size 15 to 20)
#    0.000    0.889    7.778    1.333    3.111    1.778 
#    0.000    0.000    0.000    0.000    0.000    0.000 
#    0.000    0.000    0.000    0.000    0.000    0.000 
#
# Total GULP energy -223130.645970 kJ/mol
# GULP energy per Si atom -12396.146998 kJ/mol
# Density = 2.048044 g / cm^3
# Si number density = 20.527160 Si / 1000 Ang^3
#
#
#
# Elastic Constant Matrix: (Units=GPa)
#
#
# Indices 1 2 3 4 5 6 
#
# 1 82.2813 27.9561 27.1789 0.0000 0.0000 0.0000
# 2 27.9561 95.2572 44.3086 0.0000 0.0000 0.0000
# 3 27.1789 44.3086 121.1249 0.0000 0.0000 0.0000
# 4 0.0000 0.0000 0.0000 20.7723 0.0000 0.0000
# 5 0.0000 0.0000 0.0000 0.0000 20.0978 0.0000
# 6 0.0000 0.0000 0.0000 0.0000 0.0000 18.1565
#
#
#
# Elastic Compliance Matrix: (Units=1/GPa)
#
#
# Indices 1 2 3 4 5 6 
#
# 1 0.013874 -0.003162 -0.001957 0.000000 0.000000 0.000000
# 2 -0.003162 0.013371 -0.004182 0.000000 0.000000 0.000000
# 3 -0.001957 -0.004182 0.010225 0.000000 0.000000 0.000000
# 4 0.000000 0.000000 0.000000 0.048141 0.000000 0.000000
# 5 0.000000 0.000000 0.000000 0.000000 0.049757 0.000000
# 6 0.000000 0.000000 0.000000 0.000000 0.000000 0.055077
#
#
# Mechanical properties :
#
#
# Convention : Reuss Voigt Hill
#
# Bulk Modulus (GPa) = 52.99534 55.28339 54.13936
# Shear Modulus (GPa) = 23.21976 25.08664 24.15320
#
# Velocity S-wave (km/s) = 3.36694 3.49967 3.43395
# Velocity P-wave (km/s) = 6.40221 6.58184 6.49264
#
# Compressibility (1/GPa) = 0.01886958
#
# Stress axis : x y z
#
# Youngs Moduli (GPa) = 72.07764 74.78924 97.80234
#
# Poissons Ratio (x) = 0.23646 0.19136
# Poissons Ratio (y) = 0.22788 0.40899
# Poissons Ratio (z) = 0.14103 0.31275
#
# Static dielectric constant tensor:
#      x y z
#    x 3.156130 0.000000 0.000000 
#    y 0.000000 3.750010 0.000000 
#    z 0.000000 0.000000 4.070050 
# 
# 
# High freq. dielectric constant tensor:
#      x y z
#    x 1.738500 0.000000 0.000000 
#    y 0.000000 1.810960 0.000000 
#    z 0.000000 0.000000 1.831450 
# 
# From -- ./inp_files/12776.got.cif
#   From: 2010.03.12/outbox.cif.g09.slc.cpg/sg40_7_cif.got.tgz:12776.got - 2010.04.14 01:38:03.
