data_PCOD8184496
_publ_section_title
;
Structure prediction by ZEFSAII (Michael W. Deem and Ramdas Pophale) SiO2 
 PCOD8184496
Probable space group: A M A 2
;
_chemical_formula_sum "Si O2"
_cell_formula_units_Z 48
_cell_length_a 22.513925
_cell_length_b 12.142484
_cell_length_c 8.277951
_cell_angle_alpha 90.000000
_cell_angle_beta 90.000000
_cell_angle_gamma 90.000000
_cell_volume 2262.984640
_symmetry_space_group_name_H-M "A M A 2"
_symmetry_group_IT_number 40
_symmetry_cell_setting 'orthorhombic'
loop_
_space_group_symop_operation_xyz
x,y,z
-x,-y,z
1/2-x,y,z
1/2+x,-y,z
x,1/2+y,1/2+z
-x,1/2-y,1/2+z
1/2-x,1/2+y,1/2+z
1/2+x,1/2-y,1/2+z
loop_
_atom_site_type_symbol
_atom_site_label
_atom_site_fract_x
_atom_site_fract_y
_atom_site_fract_z
Si Si1 0.531741 0.772631 0.239780
Si Si2 0.610134 0.964613 0.228003
Si Si3 0.316227 0.462684 0.025389
Si Si4 0.419683 0.320271 0.556699
Si Si5 0.819122 0.314390 0.189157
Si Si6 0.360023 0.735139 0.546248
O O1 0.551741 0.897655 0.289331
O O2 0.548051 0.688719 0.383770
O O3 0.462448 0.768976 0.195802
O O4 0.569803 0.739818 0.078279
O O5 0.639349 0.029568 0.374988
O O6 0.591768 0.051304 0.090006
O O7 0.656409 0.874449 0.150870
O O8 0.250000 0.475288 0.956732
O O9 0.324034 0.342752 0.107408
O O10 0.328421 0.556002 0.158560
O O11 0.357339 0.253606 0.556939
O O12 0.750000 0.279819 0.176377
O O13 0.845472 0.285069 0.361350
#
# Coordination Sequence:
#
# PCOD8184496 Si02
#       6
#     8   8   8   8   8   8
#     4  10  25  43  67  98 137 174 219 287 335 415
#     4  10  24  42  68  95 137 172 224 278 337 402
#     4  11  23  43  67  95 137 184 227 275 336 406
#     4  12  22  45  70  99 135 176 228 275 351 404
#     4  11  23  41  67  97 133 176 226 278 335 408
#     4  10  23  41  65  98 131 173 225 277 337 394
#
# _framework density 21.210925
#
# number of rings (size 3 to 8) (size 9 to 14) (size 15 to 20)
#    1.000    0.333    3.333    2.000    2.333    1.333 
#    0.000    2.500    0.000    0.000    0.000    0.000 
#    0.000    0.000    0.000    0.000    0.000    0.000 
#
# Total GULP energy -297436.432933 kJ/mol
# GULP energy per Si atom -12393.184706 kJ/mol
# Density = 2.116265 g / cm^3
# Si number density = 21.210925 Si / 1000 Ang^3
#
#
#
# Elastic Constant Matrix: (Units=GPa)
#
#
# Indices 1 2 3 4 5 6 
#
# 1 111.4437 42.5327 42.1969 0.0000 0.0000 0.0000
# 2 42.5327 135.4372 32.8593 0.0000 0.0000 0.0000
# 3 42.1969 32.8593 58.7298 0.0000 0.0000 0.0000
# 4 0.0000 0.0000 0.0000 37.6873 0.0000 0.0000
# 5 0.0000 0.0000 0.0000 0.0000 29.4321 0.0000
# 6 0.0000 0.0000 0.0000 0.0000 0.0000 27.4082
#
#
#
# Elastic Compliance Matrix: (Units=1/GPa)
#
#
# Indices 1 2 3 4 5 6 
#
# 1 0.012810 -0.002071 -0.008045 0.000000 0.000000 0.000000
# 2 -0.002071 0.008878 -0.003479 0.000000 0.000000 0.000000
# 3 -0.008045 -0.003479 0.024754 0.000000 0.000000 0.000000
# 4 0.000000 0.000000 0.000000 0.026534 0.000000 0.000000
# 5 0.000000 0.000000 0.000000 0.000000 0.033977 0.000000
# 6 0.000000 0.000000 0.000000 0.000000 0.000000 0.036485
#
#
# Mechanical properties :
#
#
# Convention : Reuss Voigt Hill
#
# Bulk Modulus (GPa) = 51.94441 60.08760 56.01601
# Shear Modulus (GPa) = 28.24136 31.44028 29.84082
#
# Velocity S-wave (km/s) = 3.65287 3.85420 3.75488
# Velocity P-wave (km/s) = 6.50645 6.94238 6.72794
#
# Compressibility (1/GPa) = 0.01925135
#
# Stress axis : x y z
#
# Youngs Moduli (GPa) = 78.06623 112.63824 40.39742
#
# Poissons Ratio (x) = 0.23326 0.32500
# Poissons Ratio (y) = 0.16167 0.14056
# Poissons Ratio (z) = 0.62804 0.39190
#
# Static dielectric constant tensor:
#      x y z
#    x 3.806870 0.000000 0.000000 
#    y 0.000000 3.986560 0.000000 
#    z 0.000000 0.000000 3.481050 
# 
# 
# High freq. dielectric constant tensor:
#      x y z
#    x 1.825610 0.000000 0.000000 
#    y 0.000000 1.838170 0.000000 
#    z 0.000000 0.000000 1.814180 
# 
# From -- ./inp_files/8739.got.cif
#   From: 2010.03.12/outbox.cif.g09.slc.cpg/sg40_5_cif.got.tgz:8739.got - 2010.04.14 01:38:03.
