data_PCOD8184714
_publ_section_title
;
Structure prediction by ZEFSAII (Michael W. Deem and Ramdas Pophale) SiO2 
 PCOD8184714
Probable space group: A M A 2
;
_chemical_formula_sum "Si O2"
_cell_formula_units_Z 48
_cell_length_a 18.423779
_cell_length_b 12.033199
_cell_length_c 9.797964
_cell_angle_alpha 90.000000
_cell_angle_beta 90.000000
_cell_angle_gamma 90.000000
_cell_volume 2172.179215
_symmetry_space_group_name_H-M "A M A 2"
_symmetry_group_IT_number 40
_symmetry_cell_setting 'orthorhombic'
loop_
_space_group_symop_operation_xyz
x,y,z
-x,-y,z
1/2-x,y,z
1/2+x,-y,z
x,1/2+y,1/2+z
-x,1/2-y,1/2+z
1/2-x,1/2+y,1/2+z
1/2+x,1/2-y,1/2+z
loop_
_atom_site_type_symbol
_atom_site_label
_atom_site_fract_x
_atom_site_fract_y
_atom_site_fract_z
Si Si1 0.428254 0.351406 0.284440
Si Si2 0.666060 0.989030 0.634300
Si Si3 0.908179 0.821157 0.825771
Si Si4 0.922163 0.484516 0.540763
Si Si5 0.830911 0.640301 0.694261
Si Si6 0.169092 0.696673 0.936652
O O1 0.387355 0.405031 0.153109
O O2 0.512813 0.330127 0.252346
O O3 0.420913 0.438416 0.406807
O O4 0.389420 0.234777 0.323802
O O5 0.750000 0.026423 0.648756
O O6 0.650487 0.898716 0.751498
O O7 0.652318 0.929274 0.487604
O O8 0.911662 0.857881 0.985819
O O9 0.879544 0.694402 0.815041
O O10 0.861296 0.519372 0.649983
O O11 0.000000 0.500000 0.613421
O O12 0.750000 0.622272 0.749429
O O13 0.834977 0.721053 0.565080
O O14 0.250000 0.702681 0.873617
#
# Coordination Sequence:
#
# PCOD8184714 Si02
#       6
#     8   8   8   8   8   8
#     4   9  15  24  38  59  92 124 155 200 245 286
#     4   9  15  23  37  59  90 124 158 199 243 289
#     4   9  16  25  38  62  96 125 158 204 245 291
#     4   8  15  26  40  61  92 126 161 201 243 290
#     4   9  16  25  40  65  95 126 161 201 245 294
#     4   8  14  23  36  58  89 123 158 197 241 290
#
# _framework density 22.097625000000001
#
# number of rings (size 3 to 8) (size 9 to 14) (size 15 to 20)
#    0.000    3.333    0.000    3.500    0.000    4.667 
#    0.000    0.000    0.000    0.000    0.000   11.667 
#    0.000   90.667    0.000    0.333    0.000    0.000 
#
# Total GULP energy -297389.489486 kJ/mol
# GULP energy per Si atom -12391.228729 kJ/mol
# Density = 2.204733 g / cm^3
# Si number density = 22.097625 Si / 1000 Ang^3
#
#
#
# Elastic Constant Matrix: (Units=GPa)
#
#
# Indices 1 2 3 4 5 6 
#
# 1 165.4366 66.5109 35.9284 0.0000 0.0000 0.0000
# 2 66.5109 78.2122 32.1872 0.0000 0.0000 0.0000
# 3 35.9284 32.1872 30.6380 0.0000 0.0000 0.0000
# 4 0.0000 0.0000 0.0000 27.3889 0.0000 0.0000
# 5 0.0000 0.0000 0.0000 0.0000 11.0992 0.0000
# 6 0.0000 0.0000 0.0000 0.0000 0.0000 13.0534
#
#
#
# Elastic Compliance Matrix: (Units=1/GPa)
#
#
# Indices 1 2 3 4 5 6 
#
# 1 0.009554 -0.006190 -0.004701 0.000000 0.000000 0.000000
# 2 -0.006190 0.026535 -0.020617 0.000000 0.000000 0.000000
# 3 -0.004701 -0.020617 0.059811 0.000000 0.000000 0.000000
# 4 0.000000 0.000000 0.000000 0.036511 0.000000 0.000000
# 5 0.000000 0.000000 0.000000 0.000000 0.090097 0.000000
# 6 0.000000 0.000000 0.000000 0.000000 0.000000 0.076608
#
#
# Mechanical properties :
#
#
# Convention : Reuss Voigt Hill
#
# Bulk Modulus (GPa) = 30.41004 60.39331 45.40167
# Shear Modulus (GPa) = 13.40147 19.61898 16.51022
#
# Velocity S-wave (km/s) = 2.46533 2.98288 2.73637
# Velocity P-wave (km/s) = 4.67924 6.26522 5.52939
#
# Compressibility (1/GPa) = 0.03288388
#
# Stress axis : x y z
#
# Youngs Moduli (GPa) = 104.66640 37.68664 16.71928
#
# Poissons Ratio (x) = 0.23329 0.07859
# Poissons Ratio (y) = 0.64792 0.34470
# Poissons Ratio (z) = 0.49200 0.77699
#
# Static dielectric constant tensor:
#      x y z
#    x 4.155770 0.000000 0.000000 
#    y 0.000000 4.091030 0.000000 
#    z 0.000000 0.000000 3.525290 
# 
# 
# High freq. dielectric constant tensor:
#      x y z
#    x 1.877470 0.000000 0.000000 
#    y 0.000000 1.848970 0.000000 
#    z 0.000000 0.000000 1.811240 
# 
# From -- ./inp_files/12906.got.cif
#   From: 2010.03.12/outbox.cif.g09.slc.cpg/sg40_7_cif.got.tgz:12906.got - 2010.04.14 01:38:03.
