data_PCOD8184097
_publ_section_title
;
Structure prediction by ZEFSAII (Michael W. Deem and Ramdas Pophale) SiO2 
 PCOD8184097
Probable space group: A M A 2
;
_chemical_formula_sum "Si O2"
_cell_formula_units_Z 56
_cell_length_a 25.158994
_cell_length_b 20.075887
_cell_length_c 5.121431
_cell_angle_alpha 90.000000
_cell_angle_beta 90.000000
_cell_angle_gamma 90.000000
_cell_volume 2586.779080
_symmetry_space_group_name_H-M "A M A 2"
_symmetry_group_IT_number 40
_symmetry_cell_setting 'orthorhombic'
loop_
_space_group_symop_operation_xyz
x,y,z
-x,-y,z
1/2-x,y,z
1/2+x,-y,z
x,1/2+y,1/2+z
-x,1/2-y,1/2+z
1/2-x,1/2+y,1/2+z
1/2+x,1/2-y,1/2+z
loop_
_atom_site_type_symbol
_atom_site_label
_atom_site_fract_x
_atom_site_fract_y
_atom_site_fract_z
Si Si1 0.360323 0.922765 0.017990
Si Si2 0.635272 0.253367 0.625812
Si Si3 0.151235 0.135177 0.473588
Si Si4 0.447754 0.324779 0.435961
Si Si5 0.312300 0.560355 0.470012
Si Si6 0.189552 0.368844 0.016118
Si Si7 0.060164 0.190572 0.735765
O O1 0.340162 0.917127 0.314602
O O2 0.421063 0.894855 0.026899
O O3 0.326570 0.877815 0.818399
O O4 0.351368 0.997793 0.913192
O O5 0.665889 0.290040 0.866944
O O6 0.587367 0.204252 0.703686
O O7 0.676856 0.209136 0.458244
O O8 0.607797 0.309815 0.448079
O O9 0.181210 0.114822 0.740176
O O10 0.086419 0.142598 0.513303
O O11 0.168371 0.084195 0.251957
O O12 0.451807 0.267466 0.657192
O O13 0.506604 0.343334 0.337730
O O14 0.250000 0.539817 0.484354
O O15 0.250000 0.385867 0.975319
#
# Coordination Sequence:
#
# PCOD8184097 Si02
#       7
#     8   8   8   8   8   8   8
#     4  11  24  43  65  96 127 166 227 278 316 402
#     4  10  21  39  62  99 133 161 213 267 323 408
#     4  11  25  43  64  95 131 169 224 273 317 398
#     4  10  21  36  71  99 130 168 208 261 345 392
#     4  12  25  45  68  88 125 183 230 273 326 387
#     4  11  22  38  62  95 130 163 204 276 344 385
#     4  11  19  40  67  99 133 171 206 270 330 407
#
# _framework density 21.648541000000002
#
# number of rings (size 3 to 8) (size 9 to 14) (size 15 to 20)
#    0.000    1.143    4.286    2.571    0.000    1.143 
#    0.000    0.714    3.143    0.000    0.000    0.000 
#    0.000    0.000    0.000    0.000    0.000    0.000 
#
# Total GULP energy -346873.654603 kJ/mol
# GULP energy per Si atom -12388.344807 kJ/mol
# Density = 2.159927 g / cm^3
# Si number density = 21.648541 Si / 1000 Ang^3
#
#
#
# Elastic Constant Matrix: (Units=GPa)
#
#
# Indices 1 2 3 4 5 6 
#
# 1 82.4858 37.6663 27.1045 0.0000 0.0000 0.0000
# 2 37.6663 68.2377 18.8309 0.0000 0.0000 0.0000
# 3 27.1045 18.8309 94.6169 0.0000 0.0000 0.0000
# 4 0.0000 0.0000 0.0000 32.4421 0.0000 0.0000
# 5 0.0000 0.0000 0.0000 0.0000 32.0969 0.0000
# 6 0.0000 0.0000 0.0000 0.0000 0.0000 27.7445
#
#
#
# Elastic Compliance Matrix: (Units=1/GPa)
#
#
# Indices 1 2 3 4 5 6 
#
# 1 0.017073 -0.008544 -0.003190 0.000000 0.000000 0.000000
# 2 -0.008544 0.019782 -0.001490 0.000000 0.000000 0.000000
# 3 -0.003190 -0.001490 0.011779 0.000000 0.000000 0.000000
# 4 0.000000 0.000000 0.000000 0.030824 0.000000 0.000000
# 5 0.000000 0.000000 0.000000 0.000000 0.031156 0.000000
# 6 0.000000 0.000000 0.000000 0.000000 0.000000 0.036043
#
#
# Mechanical properties :
#
#
# Convention : Reuss Voigt Hill
#
# Bulk Modulus (GPa) = 45.07190 45.83819 45.45505
# Shear Modulus (GPa) = 27.70085 29.23929 28.47007
#
# Velocity S-wave (km/s) = 3.58099 3.67909 3.63037
# Velocity P-wave (km/s) = 6.16141 6.26637 6.21411
#
# Compressibility (1/GPa) = 0.02218677
#
# Stress axis : x y z
#
# Youngs Moduli (GPa) = 58.57190 50.55185 84.89441
#
# Poissons Ratio (x) = 0.43190 0.27085
# Poissons Ratio (y) = 0.50042 0.12645
# Poissons Ratio (z) = 0.18687 0.07530
#
# Static dielectric constant tensor:
#      x y z
#    x 3.894200 0.000000 0.000000 
#    y 0.000000 3.840340 0.000000 
#    z 0.000000 0.000000 4.025840 
# 
# 
# High freq. dielectric constant tensor:
#      x y z
#    x 1.835900 0.000000 0.000000 
#    y 0.000000 1.827440 0.000000 
#    z 0.000000 0.000000 1.863350 
# 
# From -- ./inp_files/2787.got.cif
#   From: 2010.03.12/outbox.cif.g09.slc.cpg/sg40_2_cif.got.tgz:2787.got - 2010.04.14 01:38:03.
