data_PCOD8184824
_publ_section_title
;
Structure prediction by ZEFSAII (Michael W. Deem and Ramdas Pophale) SiO2 
 PCOD8184824
Probable space group: A B A 2
;
_chemical_formula_sum "Si O2"
_cell_formula_units_Z 64
_cell_length_a 5.225886
_cell_length_b 24.948876
_cell_length_c 25.989388
_cell_angle_alpha 90.000000
_cell_angle_beta 90.000000
_cell_angle_gamma 90.000000
_cell_volume 3388.495935
_symmetry_space_group_name_H-M "A B A 2"
_symmetry_group_IT_number 41
_symmetry_cell_setting 'orthorhombic'
loop_
_space_group_symop_operation_xyz
x,y,z
-x,-y,z
1/2-x,y,1/2+z
1/2+x,-y,1/2+z
x,1/2+y,1/2+z
-x,1/2-y,1/2+z
1/2-x,1/2+y,z
1/2+x,1/2-y,z
loop_
_atom_site_type_symbol
_atom_site_label
_atom_site_fract_x
_atom_site_fract_y
_atom_site_fract_z
Si Si1 0.541625 0.940566 0.808930
Si Si2 0.499843 0.436160 0.653147
Si Si3 0.500663 0.730725 0.772910
Si Si4 0.491366 0.223178 0.887160
Si Si5 0.482637 0.564085 0.975621
Si Si6 0.000401 0.936782 0.092298
Si Si7 0.959286 0.607541 0.265374
Si Si8 0.017370 0.399852 0.918031
O O1 0.835846 0.926141 0.797829
O O2 0.496059 0.939364 0.869668
O O3 0.334214 0.904081 0.779769
O O4 0.500000 0.000000 0.787716
O O5 0.500000 0.500000 0.663814
O O6 0.747039 0.416927 0.621454
O O7 0.504295 0.403392 0.705722
O O8 0.251809 0.416788 0.621892
O O9 0.254454 0.752205 0.741435
O O10 0.512567 0.764529 0.826258
O O11 0.484105 0.667983 0.781605
O O12 0.741124 0.250060 0.912993
O O13 0.488905 0.160172 0.897178
O O14 0.500000 0.500000 0.970576
O O15 0.708636 0.592362 0.944357
O O16 0.208175 0.584542 0.956668
O O17 0.505641 0.584549 0.034153
O O18 0.000000 0.000000 0.090516
#
# Coordination Sequence:
#
# PCOD8184824 Si02
#       8
#     8   8   8   8   8   8   8   8
#     4  12  23  35  50  79 121 159 183 214 267 343
#     4  10  19  34  55  84 113 145 184 226 276 337
#     4  10  20  36  54  75 103 139 187 238 272 312
#     4  10  19  35  54  75 103 138 185 239 274 311
#     4  11  22  38  57  85 118 152 189 229 277 340
#     4   9  19  35  57  80 111 145 183 233 277 322
#     4  12  23  37  57  82 114 154 189 229 280 333
#     4  12  23  36  56  82 113 154 192 230 278 332
#
# _framework density 18.887436999999998
#
# number of rings (size 3 to 8) (size 9 to 14) (size 15 to 20)
#    0.000    1.250    0.000    9.000    0.000    3.000 
#    0.000    0.000    0.000    0.000    0.000   17.500 
#    0.000    0.000    0.000    0.000    0.000    0.000 
#
# Total GULP energy -396776.827640 kJ/mol
# GULP energy per Si atom -12399.275864 kJ/mol
# Density = 1.884445 g / cm^3
# Si number density = 18.887437 Si / 1000 Ang^3
#
#
#
# Elastic Constant Matrix: (Units=GPa)
#
#
# Indices 1 2 3 4 5 6 
#
# 1 141.2663 17.9004 24.9529 0.0000 0.0000 0.0000
# 2 17.9004 89.2262 10.6396 0.0000 0.0000 0.0000
# 3 24.9529 10.6396 101.0846 0.0000 0.0000 0.0000
# 4 0.0000 0.0000 0.0000 10.8209 0.0000 0.0000
# 5 0.0000 0.0000 0.0000 0.0000 27.2282 0.0000
# 6 0.0000 0.0000 0.0000 0.0000 0.0000 31.0151
#
#
#
# Elastic Compliance Matrix: (Units=1/GPa)
#
#
# Indices 1 2 3 4 5 6 
#
# 1 0.007550 -0.001309 -0.001726 0.000000 0.000000 0.000000
# 2 -0.001309 0.011577 -0.000895 0.000000 0.000000 0.000000
# 3 -0.001726 -0.000895 0.010413 0.000000 0.000000 0.000000
# 4 0.000000 0.000000 0.000000 0.092414 0.000000 0.000000
# 5 0.000000 0.000000 0.000000 0.000000 0.036727 0.000000
# 6 0.000000 0.000000 0.000000 0.000000 0.000000 0.032242
#
#
# Mechanical properties :
#
#
# Convention : Reuss Voigt Hill
#
# Bulk Modulus (GPa) = 46.12723 48.72922 47.42822
# Shear Modulus (GPa) = 24.27080 32.35179 28.31130
#
# Velocity S-wave (km/s) = 3.58861 4.14318 3.87583
# Velocity P-wave (km/s) = 6.45337 6.98167 6.72271
#
# Compressibility (1/GPa) = 0.02167917
#
# Stress axis : x y z
#
# Youngs Moduli (GPa) = 132.45877 86.37959 96.03393
#
# Poissons Ratio (x) = 0.11305 0.16574
# Poissons Ratio (y) = 0.17336 0.08599
# Poissons Ratio (z) = 0.22861 0.07735
#
# Static dielectric constant tensor:
#      x y z
#    x 5.498780 0.000000 0.000000 
#    y 0.000000 3.370950 0.000000 
#    z 0.000000 0.000000 3.359060 
# 
# 
# High freq. dielectric constant tensor:
#      x y z
#    x 1.769840 0.000000 0.000000 
#    y 0.000000 1.715980 0.000000 
#    z 0.000000 0.000000 1.706950 
# 
# From -- ./inp_files/11905.got.cif
#   From: 2010.03.12/outbox.cif.g09.slc.cpg/sg41_6_cif.got.tgz:11905.got - 2010.04.14 01:55:53.
