data_PCOD8184946
_publ_section_title
;
Structure prediction by ZEFSAII (Michael W. Deem and Ramdas Pophale) SiO2 
 PCOD8184946
Probable space group: A B A 2
;
_chemical_formula_sum "Si O2"
_cell_formula_units_Z 60
_cell_length_a 4.974080
_cell_length_b 26.003871
_cell_length_c 21.584222
_cell_angle_alpha 90.000000
_cell_angle_beta 90.000000
_cell_angle_gamma 90.000000
_cell_volume 2791.818418
_symmetry_space_group_name_H-M "A B A 2"
_symmetry_group_IT_number 41
_symmetry_cell_setting 'orthorhombic'
loop_
_space_group_symop_operation_xyz
x,y,z
-x,-y,z
1/2-x,y,1/2+z
1/2+x,-y,1/2+z
x,1/2+y,1/2+z
-x,1/2-y,1/2+z
1/2-x,1/2+y,z
1/2+x,1/2-y,z
loop_
_atom_site_type_symbol
_atom_site_label
_atom_site_fract_x
_atom_site_fract_y
_atom_site_fract_z
Si Si1 0.343882 0.553760 0.129080
Si Si2 0.649757 0.578395 0.456202
Si Si3 0.392043 0.602524 0.753266
Si Si4 0.374417 0.118689 0.518222
Si Si5 0.587062 0.058323 0.815178
Si Si6 0.130487 0.718477 0.069631
Si Si7 0.500000 0.500000 0.538496
Si Si8 0.638941 0.283658 0.713216
O O1 0.500000 0.500000 0.140666
O O2 0.243257 0.577517 0.192761
O O3 0.487894 0.596272 0.084862
O O4 0.091979 0.544599 0.084743
O O5 0.339742 0.586477 0.476974
O O6 0.688889 0.567269 0.384164
O O7 0.729076 0.526064 0.494281
O O8 0.857009 0.623384 0.475959
O O9 0.676314 0.574955 0.767415
O O10 0.431248 0.663661 0.748444
O O11 0.176498 0.593501 0.807401
O O12 0.231728 0.173053 0.526579
O O13 0.500000 0.000000 0.801528
O O14 0.322060 0.767417 0.055222
O O15 0.146427 0.702178 0.141063
O O16 0.425147 0.239956 0.732042
#
# Coordination Sequence:
#
# PCOD8184946 Si02
#       8
#     8   8   8   8   8   8   4   8
#     4  11  23  38  60  96 135 164 206 257 337 383
#     4  11  23  42  65  88 129 176 228 249 305 379
#     4  12  26  42  67  97 135 169 218 279 332 397
#     4  11  22  39  67  97 126 168 214 274 314 391
#     4  12  27  45  65  93 135 184 224 266 316 390
#     4  10  20  37  63  97 134 164 206 269 344 399
#     4  10  22  38  60  90 126 172 204 256 298 384
#     4  10  21  41  66  94 128 169 216 272 337 408
#
# _framework density 21.491371999999998
#
# number of rings (size 3 to 8) (size 9 to 14) (size 15 to 20)
#    0.000    1.067    3.333    3.200    3.733    0.000 
#    0.000    0.000    0.000   16.000    0.000    0.000 
#    0.000    0.000    0.000    0.000    0.000    0.000 
#
# Total GULP energy -371727.673335 kJ/mol
# GULP energy per Si atom -12390.922445 kJ/mol
# Density = 2.144246 g / cm^3
# Si number density = 21.491372 Si / 1000 Ang^3
#
#
#
# Elastic Constant Matrix: (Units=GPa)
#
#
# Indices 1 2 3 4 5 6 
#
# 1 100.8923 23.1878 22.0511 0.0000 0.0000 0.0000
# 2 23.1878 104.7901 37.7183 0.0000 0.0000 0.0000
# 3 22.0511 37.7183 76.2773 0.0000 0.0000 0.0000
# 4 0.0000 0.0000 0.0000 21.0820 0.0000 0.0000
# 5 0.0000 0.0000 0.0000 0.0000 32.1018 0.0000
# 6 0.0000 0.0000 0.0000 0.0000 0.0000 33.9116
#
#
#
# Elastic Compliance Matrix: (Units=1/GPa)
#
#
# Indices 1 2 3 4 5 6 
#
# 1 0.010780 -0.001537 -0.002356 0.000000 0.000000 0.000000
# 2 -0.001537 0.011828 -0.005405 0.000000 0.000000 0.000000
# 3 -0.002356 -0.005405 0.016464 0.000000 0.000000 0.000000
# 4 0.000000 0.000000 0.000000 0.047434 0.000000 0.000000
# 5 0.000000 0.000000 0.000000 0.000000 0.031151 0.000000
# 6 0.000000 0.000000 0.000000 0.000000 0.000000 0.029488
#
#
# Mechanical properties :
#
#
# Convention : Reuss Voigt Hill
#
# Bulk Modulus (GPa) = 48.83804 49.76380 49.30092
# Shear Modulus (GPa) = 28.97434 30.68591 29.83013
#
# Velocity S-wave (km/s) = 3.67575 3.78276 3.72964
# Velocity P-wave (km/s) = 6.38660 6.50265 6.44489
#
# Compressibility (1/GPa) = 0.02047584
#
# Stress axis : x y z
#
# Youngs Moduli (GPa) = 92.76577 84.54240 60.73953
#
# Poissons Ratio (x) = 0.12996 0.14311
# Poissons Ratio (y) = 0.14260 0.32827
# Poissons Ratio (z) = 0.21857 0.45692
#
# Static dielectric constant tensor:
#      x y z
#    x 3.943690 0.000000 0.000000 
#    y 0.000000 3.962380 0.000000 
#    z 0.000000 0.000000 3.722200 
# 
# 
# High freq. dielectric constant tensor:
#      x y z
#    x 1.851540 0.000000 0.000000 
#    y 0.000000 1.839080 0.000000 
#    z 0.000000 0.000000 1.827890 
# 
# From -- ./inp_files/11016.got.cif
#   From: 2010.03.12/outbox.cif.g09.slc.cpg/sg41_6_cif.got.tgz:11016.got - 2010.04.14 01:55:53.
