data_PCOD8184585
_publ_section_title
;
Structure prediction by ZEFSAII (Michael W. Deem and Ramdas Pophale) SiO2 
 PCOD8184585
Probable space group: A M A 2
;
_chemical_formula_sum "Si O2"
_cell_formula_units_Z 48
_cell_length_a 21.286546
_cell_length_b 12.090671
_cell_length_c 8.592234
_cell_angle_alpha 90.000000
_cell_angle_beta 90.000000
_cell_angle_gamma 90.000000
_cell_volume 2211.371445
_symmetry_space_group_name_H-M "A M A 2"
_symmetry_group_IT_number 40
_symmetry_cell_setting 'orthorhombic'
loop_
_space_group_symop_operation_xyz
x,y,z
-x,-y,z
1/2-x,y,z
1/2+x,-y,z
x,1/2+y,1/2+z
-x,1/2-y,1/2+z
1/2-x,1/2+y,1/2+z
1/2+x,1/2-y,1/2+z
loop_
_atom_site_type_symbol
_atom_site_label
_atom_site_fract_x
_atom_site_fract_y
_atom_site_fract_z
Si Si1 0.509396 0.665374 0.678780
Si Si2 0.899604 0.578084 0.906495
Si Si3 0.108956 0.664359 0.477783
Si Si4 0.322172 0.603506 0.768088
Si Si5 0.082531 0.779290 0.893211
Si Si6 0.073153 0.999197 0.741361
O O1 0.541860 0.571456 0.785886
O O2 0.453434 0.621089 0.569742
O O3 0.481197 0.757077 0.794468
O O4 0.564028 0.721509 0.574720
O O5 0.885918 0.703896 0.956956
O O6 0.840375 0.521105 0.821056
O O7 0.916615 0.505754 0.057065
O O8 0.167038 0.623069 0.583607
O O9 0.108283 0.607742 0.308810
O O10 0.250000 0.624099 0.808291
O O11 0.364114 0.688847 0.866880
O O12 0.106511 0.897698 0.832646
O O13 0.000000 0.000000 0.781724
#
# Coordination Sequence:
#
# PCOD8184585 Si02
#       6
#     8   8   8   8   8   8
#     4  11  20  41  63 114 143 171 224 292 372 431
#     4  12  26  42  72 103 143 185 230 295 357 433
#     4  11  25  44  71 103 147 179 232 295 360 433
#     4  11  28  49  69  97 141 199 251 291 344 426
#     4  11  22  40  70 103 148 179 227 293 363 430
#     4  12  23  41  70 109 145 176 216 287 373 438
#
# _framework density 21.705987
#
# number of rings (size 3 to 8) (size 9 to 14) (size 15 to 20)
#    0.000    0.667    6.667    1.000    9.333    0.667 
#    0.000    4.167    0.000    0.000    0.000    0.000 
#    0.000    0.000    0.000    0.000    0.000    0.000 
#
# Total GULP energy -297565.068284 kJ/mol
# GULP energy per Si atom -12398.544512 kJ/mol
# Density = 2.165658 g / cm^3
# Si number density = 21.705987 Si / 1000 Ang^3
#
#
#
# Elastic Constant Matrix: (Units=GPa)
#
#
# Indices 1 2 3 4 5 6 
#
# 1 104.3161 47.4131 47.0524 0.0000 0.0000 0.0000
# 2 47.4131 97.5813 57.1021 0.0000 0.0000 0.0000
# 3 47.0524 57.1021 140.5263 0.0000 0.0000 0.0000
# 4 0.0000 0.0000 0.0000 42.2322 0.0000 0.0000
# 5 0.0000 0.0000 0.0000 0.0000 17.9883 0.0000
# 6 0.0000 0.0000 0.0000 0.0000 0.0000 19.7757
#
#
#
# Elastic Compliance Matrix: (Units=1/GPa)
#
#
# Indices 1 2 3 4 5 6 
#
# 1 0.012854 -0.004890 -0.002317 0.000000 0.000000 0.000000
# 2 -0.004890 0.015305 -0.004582 0.000000 0.000000 0.000000
# 3 -0.002317 -0.004582 0.009754 0.000000 0.000000 0.000000
# 4 0.000000 0.000000 0.000000 0.023679 0.000000 0.000000
# 5 0.000000 0.000000 0.000000 0.000000 0.055592 0.000000
# 6 0.000000 0.000000 0.000000 0.000000 0.000000 0.050567
#
#
# Mechanical properties :
#
#
# Convention : Reuss Voigt Hill
#
# Bulk Modulus (GPa) = 69.75710 71.72876 70.74293
# Shear Modulus (GPa) = 25.49655 28.72297 27.10976
#
# Velocity S-wave (km/s) = 3.43101 3.64163 3.53789
# Velocity P-wave (km/s) = 6.92118 7.12736 7.02503
#
# Compressibility (1/GPa) = 0.01433546
#
# Stress axis : x y z
#
# Youngs Moduli (GPa) = 77.79859 65.33897 102.52522
#
# Poissons Ratio (x) = 0.31948 0.23755
# Poissons Ratio (y) = 0.38040 0.46975
# Poissons Ratio (z) = 0.18026 0.29937
#
# Static dielectric constant tensor:
#      x y z
#    x 3.410430 0.000000 0.000000 
#    y 0.000000 3.903390 0.000000 
#    z 0.000000 0.000000 4.229780 
# 
# 
# High freq. dielectric constant tensor:
#      x y z
#    x 1.790560 0.000000 0.000000 
#    y 0.000000 1.864880 0.000000 
#    z 0.000000 0.000000 1.874440 
# 
# From -- ./inp_files/8764.got.cif
#   From: 2010.03.12/outbox.cif.g09.slc.cpg/sg40_5_cif.got.tgz:8764.got - 2010.04.14 01:38:03.
