data_PCOD8184566
_publ_section_title
;
Structure prediction by ZEFSAII (Michael W. Deem and Ramdas Pophale) SiO2 
 PCOD8184566
Probable space group: A M A 2
;
_chemical_formula_sum "Si O2"
_cell_formula_units_Z 64
_cell_length_a 17.331982
_cell_length_b 14.830139
_cell_length_c 13.901801
_cell_angle_alpha 90.000000
_cell_angle_beta 90.000000
_cell_angle_gamma 90.000000
_cell_volume 3573.259182
_symmetry_space_group_name_H-M "A M A 2"
_symmetry_group_IT_number 40
_symmetry_cell_setting 'orthorhombic'
loop_
_space_group_symop_operation_xyz
x,y,z
-x,-y,z
1/2-x,y,z
1/2+x,-y,z
x,1/2+y,1/2+z
-x,1/2-y,1/2+z
1/2-x,1/2+y,1/2+z
1/2+x,1/2-y,1/2+z
loop_
_atom_site_type_symbol
_atom_site_label
_atom_site_fract_x
_atom_site_fract_y
_atom_site_fract_z
Si Si1 0.509723 0.600590 0.317040
Si Si2 0.426023 0.675342 0.957417
Si Si3 0.838882 0.165221 0.300725
Si Si4 0.339134 0.802346 0.820135
Si Si5 0.584210 0.474369 0.804523
Si Si6 0.582057 0.286247 0.450021
Si Si7 0.558212 0.766464 0.662036
Si Si8 0.601777 0.819797 0.158442
O O1 0.500000 0.500000 0.282890
O O2 0.601517 0.614777 0.333334
O O3 0.456720 0.621708 0.410007
O O4 0.476522 0.663012 0.234967
O O5 0.360312 0.732647 0.904009
O O6 0.421941 0.577379 0.907462
O O7 0.512431 0.713553 0.948939
O O8 0.408211 0.677647 0.071097
O O9 0.750000 0.157192 0.281858
O O10 0.854220 0.237013 0.385288
O O11 0.874207 0.204804 0.203157
O O12 0.866931 0.063878 0.323032
O O13 0.250000 0.833619 0.829218
O O14 0.353815 0.758812 0.715456
O O15 0.500000 0.500000 0.768523
O O16 0.618355 0.412207 0.717452
O O17 0.628317 0.314922 0.547100
O O18 0.489440 0.696376 0.642463
#
# Coordination Sequence:
#
# PCOD8184566 Si02
#       8
#     8   8   8   8   8   8   8   8
#     4   9  18  34  54  79 106 139 186 221 256 319
#     4   9  18  33  58  79 102 141 182 224 269 324
#     4  11  22  36  54  79 117 151 178 226 288 334
#     4   9  18  33  53  76 106 136 172 228 278 312
#     4  11  18  33  55  87 115 137 181 236 274 321
#     4   9  18  36  55  78 105 144 185 218 270 331
#     4   9  18  36  55  78 105 144 185 218 270 331
#     4   9  18  33  58  79 102 141 182 224 269 324
#
# _framework density 17.910820000000001
#
# number of rings (size 3 to 8) (size 9 to 14) (size 15 to 20)
#    0.000    2.500    2.500    1.500    0.000    4.000 
#    4.500    2.500    0.000    0.000    0.000    0.000 
#    0.000    0.000    0.000    0.000    0.000    0.000 
#
# Total GULP energy -396419.672135 kJ/mol
# GULP energy per Si atom -12388.114754 kJ/mol
# Density = 1.787005 g / cm^3
# Si number density = 17.910820 Si / 1000 Ang^3
#
#
#
# Elastic Constant Matrix: (Units=GPa)
#
#
# Indices 1 2 3 4 5 6 
#
# 1 82.6755 20.8435 0.3380 0.0000 0.0000 0.0000
# 2 20.8435 69.9722 1.1068 0.0000 0.0000 0.0000
# 3 0.3380 1.1068 80.0467 0.0000 0.0000 0.0000
# 4 0.0000 0.0000 0.0000 11.6944 0.0000 0.0000
# 5 0.0000 0.0000 0.0000 0.0000 13.2757 0.0000
# 6 0.0000 0.0000 0.0000 0.0000 0.0000 15.6789
#
#
#
# Elastic Compliance Matrix: (Units=1/GPa)
#
#
# Indices 1 2 3 4 5 6 
#
# 1 0.013078 -0.003896 -0.000001 0.000000 0.000000 0.000000
# 2 -0.003896 0.015455 -0.000197 0.000000 0.000000 0.000000
# 3 -0.000001 -0.000197 0.012495 0.000000 0.000000 0.000000
# 4 0.000000 0.000000 0.000000 0.085511 0.000000 0.000000
# 5 0.000000 0.000000 0.000000 0.000000 0.075326 0.000000
# 6 0.000000 0.000000 0.000000 0.000000 0.000000 0.063780
#
#
# Mechanical properties :
#
#
# Convention : Reuss Voigt Hill
#
# Bulk Modulus (GPa) = 30.45100 30.80788 30.62944
# Shear Modulus (GPa) = 17.55744 22.15687 19.85715
#
# Velocity S-wave (km/s) = 3.13432 3.52101 3.33328
# Velocity P-wave (km/s) = 5.48972 5.81103 5.65266
#
# Compressibility (1/GPa) = 0.03283964
#
# Stress axis : x y z
#
# Youngs Moduli (GPa) = 76.46659 64.70429 80.02920
#
# Poissons Ratio (x) = 0.25206 0.00011
# Poissons Ratio (y) = 0.29788 0.01578
# Poissons Ratio (z) = 0.00010 0.01276
#
# Static dielectric constant tensor:
#      x y z
#    x 3.141340 0.000000 0.000000 
#    y 0.000000 3.395550 0.000000 
#    z 0.000000 0.000000 3.588520 
# 
# 
# High freq. dielectric constant tensor:
#      x y z
#    x 1.674350 0.000000 0.000000 
#    y 0.000000 1.677980 0.000000 
#    z 0.000000 0.000000 1.696180 
# 
# From -- ./inp_files/17961.got.cif
#   From: 2010.03.12/outbox.cif.g09.slc.cpg/sg40_9_cif.got.tgz:17961.got - 2010.04.14 01:38:03.
