data_PCOD8184659
_publ_section_title
;
Structure prediction by ZEFSAII (Michael W. Deem and Ramdas Pophale) SiO2 
 PCOD8184659
Probable space group: A M A 2
;
_chemical_formula_sum "Si O2"
_cell_formula_units_Z 48
_cell_length_a 24.209397
_cell_length_b 5.244193
_cell_length_c 17.228480
_cell_angle_alpha 90.000000
_cell_angle_beta 90.000000
_cell_angle_gamma 90.000000
_cell_volume 2187.306290
_symmetry_space_group_name_H-M "A M A 2"
_symmetry_group_IT_number 40
_symmetry_cell_setting 'orthorhombic'
loop_
_space_group_symop_operation_xyz
x,y,z
-x,-y,z
1/2-x,y,z
1/2+x,-y,z
x,1/2+y,1/2+z
-x,1/2-y,1/2+z
1/2-x,1/2+y,1/2+z
1/2+x,1/2-y,1/2+z
loop_
_atom_site_type_symbol
_atom_site_label
_atom_site_fract_x
_atom_site_fract_y
_atom_site_fract_z
Si Si1 0.857738 0.228286 0.739210
Si Si2 0.441775 0.380009 0.712324
Si Si3 0.618349 0.425232 0.104059
Si Si4 0.750000 0.339854 0.830959
Si Si5 0.865614 0.913944 0.008820
Si Si6 0.935836 0.948695 0.853932
Si Si7 0.250000 0.660219 0.435189
O O1 0.889260 0.444521 0.689213
O O2 0.803509 0.342011 0.777370
O O3 0.841123 0.004060 0.677456
O O4 0.903765 0.159791 0.803806
O O5 0.500000 0.500000 0.695725
O O6 0.438116 0.146678 0.650499
O O7 0.434659 0.307696 0.802817
O O8 0.607473 0.677984 0.054388
O O9 0.638444 0.187516 0.051864
O O10 0.750000 0.593471 0.881170
O O11 0.750000 0.091494 0.883711
O O12 0.903604 0.930703 0.933683
O O13 0.803365 0.833116 0.989294
O O14 0.000000 0.000000 0.870927
#
# Coordination Sequence:
#
# PCOD8184659 Si02
#       7
#     8   8   8   4   8   8   4
#     4  11  24  48  72 107 138 186 245 292 353 419
#     4  11  23  46  75 102 145 189 244 295 356 416
#     4  11  27  47  69 105 146 188 230 289 359 426
#     4  12  26  44  79 107 138 183 244 302 341 426
#     4  12  26  48  70 106 148 185 236 288 364 429
#     4  11  24  42  72 105 140 188 242 297 349 421
#     4  12  26  46  75 105 142 187 228 302 363 412
#
# _framework density 21.944800999999998
#
# number of rings (size 3 to 8) (size 9 to 14) (size 15 to 20)
#    0.000    0.667    5.000    2.000    4.667    2.000 
#    3.000    0.833    0.000    0.000    0.000    0.000 
#    0.000    0.000    0.000    0.000    0.000    0.000 
#
# Total GULP energy -297341.708638 kJ/mol
# GULP energy per Si atom -12389.237860 kJ/mol
# Density = 2.189485 g / cm^3
# Si number density = 21.944801 Si / 1000 Ang^3
#
#
#
# Elastic Constant Matrix: (Units=GPa)
#
#
# Indices 1 2 3 4 5 6 
#
# 1 117.3734 22.9615 43.9810 0.0000 0.0000 0.0000
# 2 22.9615 137.8449 60.2785 0.0000 0.0000 0.0000
# 3 43.9810 60.2785 140.7657 0.0000 0.0000 0.0000
# 4 0.0000 0.0000 0.0000 52.3319 0.0000 0.0000
# 5 0.0000 0.0000 0.0000 0.0000 -5.2641 0.0000
# 6 0.0000 0.0000 0.0000 0.0000 0.0000 -4.0531
#
#
#
# Elastic Compliance Matrix: (Units=1/GPa)
#
#
# Indices 1 2 3 4 5 6 
#
# 1 0.009664 -0.000356 -0.002867 0.000000 0.000000 0.000000
# 2 -0.000356 0.008939 -0.003717 0.000000 0.000000 0.000000
# 3 -0.002867 -0.003717 0.009591 0.000000 0.000000 0.000000
# 4 0.000000 0.000000 0.000000 0.019109 0.000000 0.000000
# 5 0.000000 0.000000 0.000000 0.000000 -0.189964 0.000000
# 6 0.000000 0.000000 0.000000 0.000000 0.000000 -0.246727
#
#
# Mechanical properties :
#
#
# Convention : Reuss Voigt Hill
#
# Bulk Modulus (GPa) = 69.85715 72.26955 71.06335
# Shear Modulus (GPa) = -13.48663 26.52048 6.51692
#
# Velocity S-wave (km/s) = -2.48174 3.48013 1.72515
# Velocity P-wave (km/s) = 4.86725 7.01087 6.03500
#
# Compressibility (1/GPa) = 0.01431493
#
# Stress axis : x y z
#
# Youngs Moduli (GPa) = 103.47987 111.86806 104.26160
#
# Poissons Ratio (x) = 0.03983 0.29890
# Poissons Ratio (y) = 0.03685 0.38750
# Poissons Ratio (z) = 0.29666 0.41577
#
# Static dielectric constant tensor:
#      x y z
#    x 3.882420 0.000000 0.000000 
#    y 0.000000 4.262210 0.000000 
#    z 0.000000 0.000000 4.216050 
# 
# 
# High freq. dielectric constant tensor:
#      x y z
#    x 1.850220 0.000000 0.000000 
#    y 0.000000 1.881950 0.000000 
#    z 0.000000 0.000000 1.880570 
# 
# From -- ./inp_files/21513.got.cif
#   From: 2010.03.12/outbox.cif.g09.slc.cpg/sg40_11_cif.got.tgz:21513.got - 2010.04.14 01:38:03.
