data_PCOD8184891
_publ_section_title
;
Structure prediction by ZEFSAII (Michael W. Deem and Ramdas Pophale) SiO2 
 PCOD8184891
Probable space group: A B A 2
;
_chemical_formula_sum "Si O2"
_cell_formula_units_Z 52
_cell_length_a 28.928269
_cell_length_b 17.038399
_cell_length_c 5.302714
_cell_angle_alpha 90.000000
_cell_angle_beta 90.000000
_cell_angle_gamma 90.000000
_cell_volume 2613.662072
_symmetry_space_group_name_H-M "A B A 2"
_symmetry_group_IT_number 41
_symmetry_cell_setting 'orthorhombic'
loop_
_space_group_symop_operation_xyz
x,y,z
-x,-y,z
1/2-x,y,1/2+z
1/2+x,-y,1/2+z
x,1/2+y,1/2+z
-x,1/2-y,1/2+z
1/2-x,1/2+y,z
1/2+x,1/2-y,z
loop_
_atom_site_type_symbol
_atom_site_label
_atom_site_fract_x
_atom_site_fract_y
_atom_site_fract_z
Si Si1 0.377326 0.908318 0.141560
Si Si2 0.277561 0.341633 0.659801
Si Si3 0.377326 0.591682 0.179798
Si Si4 0.584264 0.920912 0.181882
Si Si5 0.500000 0.500000 0.910679
Si Si6 0.777561 0.841633 0.161556
Si Si7 0.584264 0.579088 0.139476
O O1 0.323847 0.889758 0.111393
O O2 0.397762 0.869935 0.399831
O O3 0.383968 0.001580 0.161148
O O4 0.407227 0.874693 0.902177
O O5 0.243703 0.364815 0.430210
O O6 0.289596 0.250000 0.660679
O O7 0.407227 0.625307 0.419181
O O8 0.323847 0.610242 0.209965
O O9 0.383968 0.498420 0.160210
O O10 0.397762 0.630065 0.921527
O O11 0.531022 0.945714 0.226954
O O12 0.531022 0.554286 0.094404
O O13 0.743703 0.864815 0.391147
#
# Coordination Sequence:
#
# PCOD8184891 Si02
#       7
#     8   8   8   8   4   8   8
#     4   9  17  31  44  68  96 117 152 189 228 271
#     4  10  20  33  49  66  89 125 165 196 222 265
#     4   9  17  31  44  68  96 117 152 189 228 271
#     4   9  18  29  48  70  95 120 145 185 231 278
#     4   8  16  30  48  74  96 118 152 178 224 288
#     4  10  20  33  49  66  89 125 165 196 222 265
#     4   9  18  29  48  70  95 120 145 185 231 278
#
# _framework density 19.895455999999999
#
# number of rings (size 3 to 8) (size 9 to 14) (size 15 to 20)
#    0.000    3.077    0.000    1.846    0.000    9.846 
#    0.000   18.462    0.000    0.000    0.000   34.462 
#    0.000    0.000    0.000    0.000    0.000    0.000 
#
# Total GULP energy -322101.662319 kJ/mol
# GULP energy per Si atom -12388.525474 kJ/mol
# Density = 1.985017 g / cm^3
# Si number density = 19.895456 Si / 1000 Ang^3
#
#
#
# Elastic Constant Matrix: (Units=GPa)
#
#
# Indices 1 2 3 4 5 6 
#
# 1 157.3985 30.8946 60.5352 0.0000 0.0000 0.0000
# 2 30.8946 18.2824 9.5151 0.0000 0.0000 0.0000
# 3 60.5352 9.5151 214.6717 0.0000 0.0000 0.0000
# 4 0.0000 0.0000 0.0000 9.5442 0.0000 0.0000
# 5 0.0000 0.0000 0.0000 0.0000 -53.6213 0.0000
# 6 0.0000 0.0000 0.0000 0.0000 0.0000 -2.0868
#
#
#
# Elastic Compliance Matrix: (Units=1/GPa)
#
#
# Indices 1 2 3 4 5 6 
#
# 1 0.010442 -0.016493 -0.002213 0.000000 0.000000 0.000000
# 2 -0.016493 0.082041 0.001015 0.000000 0.000000 0.000000
# 3 -0.002213 0.001015 0.005237 0.000000 0.000000 0.000000
# 4 0.000000 0.000000 0.000000 0.104776 0.000000 0.000000
# 5 0.000000 0.000000 0.000000 0.000000 -0.018649 0.000000
# 6 0.000000 0.000000 0.000000 0.000000 0.000000 -0.479196
#
#
# Mechanical properties :
#
#
# Convention : Reuss Voigt Hill
#
# Bulk Modulus (GPa) = 16.04216 65.80471 40.92344
# Shear Modulus (GPa) = -20.90425 10.06105 -5.42160
#
# Velocity S-wave (km/s) = -3.24497 2.25121 -1.65256
# Velocity P-wave (km/s) = 2.44112 6.31699 4.11978
#
# Compressibility (1/GPa) = 0.06233573
#
# Stress axis : x y z
#
# Youngs Moduli (GPa) = 95.76725 12.18905 190.93140
#
# Poissons Ratio (x) = 0.20104 0.42262
# Poissons Ratio (y) = 1.57953 -0.19372
# Poissons Ratio (z) = 0.21198 -0.01237
#
# Static dielectric constant tensor:
#      x y z
#    x 3.463220 0.000000 0.000000 
#    y 0.000000 2.942100 0.000000 
#    z 0.000000 0.000000 6.454160 
# 
# 
# High freq. dielectric constant tensor:
#      x y z
#    x 1.774080 0.000000 0.000000 
#    y 0.000000 1.694260 0.000000 
#    z 0.000000 0.000000 1.820330 
# 
# From -- ./inp_files/1168.got.cif
#   From: 2010.03.12/outbox.cif.g09.slc.cpg/sg41_1_cif.got.tgz:1168.got - 2010.04.14 01:55:53.
