data_PCOD8184622
_publ_section_title
;
Structure prediction by ZEFSAII (Michael W. Deem and Ramdas Pophale) SiO2 
 PCOD8184622
Probable space group: A M A 2
;
_chemical_formula_sum "Si O2"
_cell_formula_units_Z 64
_cell_length_a 23.814050
_cell_length_b 11.588095
_cell_length_c 10.511717
_cell_angle_alpha 90.000000
_cell_angle_beta 90.000000
_cell_angle_gamma 90.000000
_cell_volume 2900.807891
_symmetry_space_group_name_H-M "A M A 2"
_symmetry_group_IT_number 40
_symmetry_cell_setting 'orthorhombic'
loop_
_space_group_symop_operation_xyz
x,y,z
-x,-y,z
1/2-x,y,z
1/2+x,-y,z
x,1/2+y,1/2+z
-x,1/2-y,1/2+z
1/2-x,1/2+y,1/2+z
1/2+x,1/2-y,1/2+z
loop_
_atom_site_type_symbol
_atom_site_label
_atom_site_fract_x
_atom_site_fract_y
_atom_site_fract_z
Si Si1 0.564883 0.982693 0.337340
Si Si2 0.364318 0.326231 0.954263
Si Si3 0.482639 0.614992 0.366218
Si Si4 0.117428 0.718134 0.211840
Si Si5 0.186210 0.416534 0.407960
Si Si6 0.311115 0.012642 0.627512
Si Si7 0.409150 0.754574 0.950460
Si Si8 0.393566 0.085270 0.064529
O O1 0.580808 0.881583 0.435727
O O2 0.600587 0.953486 0.210340
O O3 0.500000 0.000000 0.305067
O O4 0.581359 0.102009 0.406976
O O5 0.340635 0.275133 0.817359
O O6 0.322617 0.414164 0.022544
O O7 0.378368 0.222248 0.051746
O O8 0.500000 0.500000 0.288471
O O9 0.437165 0.683265 0.288536
O O10 0.538263 0.688410 0.382252
O O11 0.453802 0.569343 0.496652
O O12 0.145761 0.617785 0.128150
O O13 0.093426 0.798407 0.098736
O O14 0.250000 0.394407 0.458860
O O15 0.188654 0.461523 0.266606
O O16 0.150610 0.298080 0.395661
O O17 0.155165 0.510263 0.497096
O O18 0.250000 0.062364 0.593391
#
# Coordination Sequence:
#
# PCOD8184622 Si02
#       8
#     8   8   8   8   8   8   8   8
#     4  12  26  44  69 108 152 185 235 304 364 439
#     4  11  24  45  68 107 140 186 242 292 360 442
#     4  11  22  40  67 101 139 186 234 288 362 431
#     4  11  24  45  67 102 146 183 239 295 369 431
#     4  11  24  46  73 102 139 191 248 300 356 432
#     4  11  23  46  72  98 139 187 242 306 362 424
#     4  12  25  44  70 104 146 195 238 302 364 443
#     4  11  23  43  72 102 149 189 236 295 370 427
#
# _framework density 22.062821
#
# number of rings (size 3 to 8) (size 9 to 14) (size 15 to 20)
#    0.000    0.750    5.000    3.375    3.500    2.000 
#    4.500    2.500    0.000    0.000    0.000    0.000 
#    0.000    0.000    0.000    0.000    0.000    0.000 
#
# Total GULP energy -396434.976117 kJ/mol
# GULP energy per Si atom -12388.593004 kJ/mol
# Density = 2.201260 g / cm^3
# Si number density = 22.062821 Si / 1000 Ang^3
#
#
#
# Elastic Constant Matrix: (Units=GPa)
#
#
# Indices 1 2 3 4 5 6 
#
# 1 138.6871 46.4368 46.2618 0.0000 0.0000 0.0000
# 2 46.4368 110.8121 19.7578 0.0000 0.0000 0.0000
# 3 46.2618 19.7578 100.9910 0.0000 0.0000 0.0000
# 4 0.0000 0.0000 0.0000 29.2676 0.0000 0.0000
# 5 0.0000 0.0000 0.0000 0.0000 9.0283 0.0000
# 6 0.0000 0.0000 0.0000 0.0000 0.0000 -304.0229
#
#
#
# Elastic Compliance Matrix: (Units=1/GPa)
#
#
# Indices 1 2 3 4 5 6 
#
# 1 0.009576 -0.003348 -0.003732 0.000000 0.000000 0.000000
# 2 -0.003348 0.010521 -0.000525 0.000000 0.000000 0.000000
# 3 -0.003732 -0.000525 0.011714 0.000000 0.000000 0.000000
# 4 0.000000 0.000000 0.000000 0.034168 0.000000 0.000000
# 5 0.000000 0.000000 0.000000 0.000000 0.110762 0.000000
# 6 0.000000 0.000000 0.000000 0.000000 0.000000 -0.003289
#
#
# Mechanical properties :
#
#
# Convention : Reuss Voigt Hill
#
# Bulk Modulus (GPa) = 60.23155 63.93366 62.08261
# Shear Modulus (GPa) = 25.74747 -37.27648 -5.76451
#
# Velocity S-wave (km/s) = 3.41985 -4.11489 -1.61816
# Velocity P-wave (km/s) = 6.55387 2.54254 4.97080
#
# Compressibility (1/GPa) = 0.01660259
#
# Stress axis : x y z
#
# Youngs Moduli (GPa) = 104.42617 95.05073 85.36821
#
# Poissons Ratio (x) = 0.31819 0.31857
# Poissons Ratio (y) = 0.34958 0.04480
# Poissons Ratio (z) = 0.38969 0.04988
#
# Static dielectric constant tensor:
#      x y z
#    x 4.179090 0.000000 0.000000 
#    y 0.000000 4.363800 0.000000 
#    z 0.000000 0.000000 4.249870 
# 
# 
# High freq. dielectric constant tensor:
#      x y z
#    x 1.854670 0.000000 0.000000 
#    y 0.000000 1.885450 0.000000 
#    z 0.000000 0.000000 1.871770 
# 
# From -- ./inp_files/14041.got.cif
#   From: 2010.03.12/outbox.cif.g09.slc.cpg/sg40_8_cif.got.tgz:14041.got - 2010.04.14 01:38:03.
