data_PCOD8184204
_publ_section_title
;
Structure prediction by ZEFSAII (Michael W. Deem and Ramdas Pophale) SiO2 
 PCOD8184204
Probable space group: A M A 2
;
_chemical_formula_sum "Si O2"
_cell_formula_units_Z 64
_cell_length_a 27.827298
_cell_length_b 8.252247
_cell_length_c 13.092572
_cell_angle_alpha 90.000000
_cell_angle_beta 90.000000
_cell_angle_gamma 90.000000
_cell_volume 3006.548598
_symmetry_space_group_name_H-M "A M A 2"
_symmetry_group_IT_number 40
_symmetry_cell_setting 'orthorhombic'
loop_
_space_group_symop_operation_xyz
x,y,z
-x,-y,z
1/2-x,y,z
1/2+x,-y,z
x,1/2+y,1/2+z
-x,1/2-y,1/2+z
1/2-x,1/2+y,1/2+z
1/2+x,1/2-y,1/2+z
loop_
_atom_site_type_symbol
_atom_site_label
_atom_site_fract_x
_atom_site_fract_y
_atom_site_fract_z
Si Si1 0.991669 0.676493 0.502320
Si Si2 0.924386 0.607776 0.320101
Si Si3 0.304382 0.286041 0.490862
Si Si4 0.093132 0.349586 0.975157
Si Si5 0.549868 0.937429 0.622531
Si Si6 0.840001 0.399394 0.401627
Si Si7 0.132907 0.090751 0.328533
Si Si8 0.193738 0.829144 0.222264
O O1 0.965296 0.676136 0.393620
O O2 0.955466 0.750200 0.589513
O O3 0.000000 0.500000 0.547339
O O4 0.043686 0.752200 0.480628
O O5 0.948469 0.483135 0.240702
O O6 0.887757 0.499123 0.380985
O O7 0.896950 0.765267 0.271865
O O8 0.250000 0.221419 0.483636
O O9 0.303459 0.475068 0.453889
O O10 0.336888 0.170171 0.421507
O O11 0.322604 0.276870 0.608445
O O12 0.141509 0.240006 0.979553
O O13 0.095450 0.458281 0.872351
O O14 0.095216 0.474225 0.070137
O O15 0.500000 0.000000 0.572967
O O16 0.818279 0.318080 0.299598
O O17 0.167609 0.998376 0.249775
O O18 0.250000 0.865925 0.225768
#
# Coordination Sequence:
#
# PCOD8184204 Si02
#       8
#     8   8   8   8   8   8   8   8
#     4  11  21  41  64  83 129 170 205 264 319 360
#     4  11  22  38  64  88 123 165 209 257 309 368
#     4  10  22  41  65  90 123 165 202 254 324 382
#     4  10  21  39  61  88 123 164 206 257 312 361
#     4  10  23  38  59  89 119 164 212 253 307 373
#     4  10  22  37  61  91 121 159 207 262 303 372
#     4  10  22  40  64  94 124 164 205 262 310 376
#     4  10  22  41  63  92 126 160 204 258 315 381
#
# _framework density 21.286867000000001
#
# number of rings (size 3 to 8) (size 9 to 14) (size 15 to 20)
#    0.000    1.750    2.500    1.125    3.500    0.000 
#    0.000    1.250    0.000    7.500    0.000    0.000 
#    0.000    0.000    0.000    0.000    0.000    0.000 
#
# Total GULP energy -396437.259184 kJ/mol
# GULP energy per Si atom -12388.664350 kJ/mol
# Density = 2.123842 g / cm^3
# Si number density = 21.286867 Si / 1000 Ang^3
#
#
#
# Elastic Constant Matrix: (Units=GPa)
#
#
# Indices 1 2 3 4 5 6 
#
# 1 62.8697 30.3540 28.7213 0.0000 0.0000 0.0000
# 2 30.3540 106.6118 30.9256 0.0000 0.0000 0.0000
# 3 28.7213 30.9256 84.3527 0.0000 0.0000 0.0000
# 4 0.0000 0.0000 0.0000 29.5985 0.0000 0.0000
# 5 0.0000 0.0000 0.0000 0.0000 17.0036 0.0000
# 6 0.0000 0.0000 0.0000 0.0000 0.0000 35.5856
#
#
#
# Elastic Compliance Matrix: (Units=1/GPa)
#
#
# Indices 1 2 3 4 5 6 
#
# 1 0.020423 -0.004249 -0.005396 0.000000 0.000000 0.000000
# 2 -0.004249 0.011380 -0.002725 0.000000 0.000000 0.000000
# 3 -0.005396 -0.002725 0.014691 0.000000 0.000000 0.000000
# 4 0.000000 0.000000 0.000000 0.033786 0.000000 0.000000
# 5 0.000000 0.000000 0.000000 0.000000 0.058811 0.000000
# 6 0.000000 0.000000 0.000000 0.000000 0.000000 0.028101
#
#
# Mechanical properties :
#
#
# Convention : Reuss Voigt Hill
#
# Bulk Modulus (GPa) = 45.97047 48.20398 47.08723
# Shear Modulus (GPa) = 25.10238 27.35976 26.23107
#
# Velocity S-wave (km/s) = 3.43774 3.58898 3.51417
# Velocity P-wave (km/s) = 6.11555 6.31415 6.21564
#
# Compressibility (1/GPa) = 0.02175309
#
# Stress axis : x y z
#
# Youngs Moduli (GPa) = 48.96551 87.87144 68.06718
#
# Poissons Ratio (x) = 0.37340 0.36727
# Poissons Ratio (y) = 0.20808 0.18551
# Poissons Ratio (z) = 0.26421 0.23948
#
# Static dielectric constant tensor:
#      x y z
#    x 3.960050 0.000000 0.000000 
#    y 0.000000 4.380360 0.000000 
#    z 0.000000 0.000000 3.681700 
# 
# 
# High freq. dielectric constant tensor:
#      x y z
#    x 1.836470 0.000000 0.000000 
#    y 0.000000 1.849210 0.000000 
#    z 0.000000 0.000000 1.814460 
# 
# From -- ./inp_files/14416.got.cif
#   From: 2010.03.12/outbox.cif.g09.slc.cpg/sg40_8_cif.got.tgz:14416.got - 2010.04.14 01:38:03.
