data_PCOD8184754
_publ_section_title
;
Structure prediction by ZEFSAII (Michael W. Deem and Ramdas Pophale) SiO2 
 PCOD8184754
Probable space group: A B A 2
;
_chemical_formula_sum "Si O2"
_cell_formula_units_Z 56
_cell_length_a 9.361224
_cell_length_b 19.624263
_cell_length_c 14.184841
_cell_angle_alpha 90.000000
_cell_angle_beta 90.000000
_cell_angle_gamma 90.000000
_cell_volume 2605.856313
_symmetry_space_group_name_H-M "A B A 2"
_symmetry_group_IT_number 41
_symmetry_cell_setting 'orthorhombic'
loop_
_space_group_symop_operation_xyz
x,y,z
-x,-y,z
1/2-x,y,1/2+z
1/2+x,-y,1/2+z
x,1/2+y,1/2+z
-x,1/2-y,1/2+z
1/2-x,1/2+y,z
1/2+x,1/2-y,z
loop_
_atom_site_type_symbol
_atom_site_label
_atom_site_fract_x
_atom_site_fract_y
_atom_site_fract_z
Si Si1 0.000000 0.000000 0.772640
Si Si2 0.951818 0.725275 0.026176
Si Si3 0.329121 0.828230 0.497278
Si Si4 0.146795 0.322655 0.720215
Si Si5 0.405777 0.603784 0.629714
Si Si6 0.500000 0.500000 0.478035
Si Si7 0.752708 0.066381 0.864071
Si Si8 0.170698 0.195533 0.190055
O O1 0.001316 0.068745 0.710913
O O2 0.851985 0.003741 0.830550
O O3 0.835084 0.687253 0.961965
O O4 0.860463 0.780007 0.084256
O O5 0.068585 0.766012 0.964796
O O6 0.024348 0.675425 0.101635
O O7 0.337357 0.840817 0.609050
O O8 0.359610 0.896171 0.438654
O O9 0.212839 0.384923 0.777223
O O10 0.230468 0.251970 0.743107
O O11 0.978309 0.315288 0.745947
O O12 0.405063 0.552532 0.540402
O O13 0.251006 0.622862 0.673902
O O14 0.609203 0.540085 0.412339
#
# Coordination Sequence:
#
# PCOD8184754 Si02
#       8
#     4   8   8   8   8   4   8   8
#     4  11  28  44  65  90 136 186 225 266 317 404
#     4  10  17  37  68 100 119 160 212 270 340 381
#     4  10  21  40  66  95 131 161 209 275 337 386
#     4  10  23  40  70 100 134 164 217 282 339 396
#     4  11  21  44  72  88 130 182 218 260 336 397
#     4  11  28  44  65  88 136 190 221 262 319 404
#     4  12  27  45  61  99 134 176 230 272 322 401
#     4  10  19  38  71 102 125 163 216 275 345 392
#
# _framework density 21.490057
#
# number of rings (size 3 to 8) (size 9 to 14) (size 15 to 20)
#    0.000    1.429    5.714    1.714    4.000    3.429 
#    0.000    0.714    0.000    0.000    0.000    0.000 
#    0.000    0.000    0.000    0.000    0.000    0.000 
#
# Total GULP energy -347022.356299 kJ/mol
# GULP energy per Si atom -12393.655582 kJ/mol
# Density = 2.144114 g / cm^3
# Si number density = 21.490057 Si / 1000 Ang^3
#
#
#
# Elastic Constant Matrix: (Units=GPa)
#
#
# Indices 1 2 3 4 5 6 
#
# 1 146.9365 55.9640 31.3129 0.0000 0.0000 0.0000
# 2 55.9640 100.8731 38.8250 0.0000 0.0000 0.0000
# 3 31.3129 38.8250 59.2948 0.0000 0.0000 0.0000
# 4 0.0000 0.0000 0.0000 23.4797 0.0000 0.0000
# 5 0.0000 0.0000 0.0000 0.0000 18.0360 0.0000
# 6 0.0000 0.0000 0.0000 0.0000 0.0000 42.3530
#
#
#
# Elastic Compliance Matrix: (Units=1/GPa)
#
#
# Indices 1 2 3 4 5 6 
#
# 1 0.008792 -0.004132 -0.001937 0.000000 0.000000 0.000000
# 2 -0.004132 0.015196 -0.007768 0.000000 0.000000 0.000000
# 3 -0.001937 -0.007768 0.022974 0.000000 0.000000 0.000000
# 4 0.000000 0.000000 0.000000 0.042590 0.000000 0.000000
# 5 0.000000 0.000000 0.000000 0.000000 0.055445 0.000000
# 6 0.000000 0.000000 0.000000 0.000000 0.000000 0.023611
#
#
# Mechanical properties :
#
#
# Convention : Reuss Voigt Hill
#
# Bulk Modulus (GPa) = 51.84699 62.14536 56.99617
# Shear Modulus (GPa) = 24.66557 28.84056 26.75307
#
# Velocity S-wave (km/s) = 3.39155 3.66736 3.53215
# Velocity P-wave (km/s) = 6.28611 6.84936 6.57377
#
# Compressibility (1/GPa) = 0.01928752
#
# Stress axis : x y z
#
# Youngs Moduli (GPa) = 113.73432 65.80811 43.52735
#
# Poissons Ratio (x) = 0.27194 0.08433
# Poissons Ratio (y) = 0.46998 0.33810
# Poissons Ratio (z) = 0.22035 0.51117
#
# Static dielectric constant tensor:
#      x y z
#    x 4.259710 0.000000 0.000000 
#    y 0.000000 3.917310 0.000000 
#    z 0.000000 0.000000 3.580100 
# 
# 
# High freq. dielectric constant tensor:
#      x y z
#    x 1.854450 0.000000 0.000000 
#    y 0.000000 1.838690 0.000000 
#    z 0.000000 0.000000 1.821840 
# 
# From -- ./inp_files/7503.got.cif
#   From: 2010.03.12/outbox.cif.g09.slc.cpg/sg41_4_cif.got.tgz:7503.got - 2010.04.14 01:55:53.
