data_PCOD8184849
_publ_section_title
;
Structure prediction by ZEFSAII (Michael W. Deem and Ramdas Pophale) SiO2 
 PCOD8184849
Probable space group: A B A 2
;
_chemical_formula_sum "Si O2"
_cell_formula_units_Z 48
_cell_length_a 13.437864
_cell_length_b 4.966718
_cell_length_c 32.362543
_cell_angle_alpha 90.000000
_cell_angle_beta 90.000000
_cell_angle_gamma 90.000000
_cell_volume 2159.943467
_symmetry_space_group_name_H-M "A B A 2"
_symmetry_group_IT_number 41
_symmetry_cell_setting 'orthorhombic'
loop_
_space_group_symop_operation_xyz
x,y,z
-x,-y,z
1/2-x,y,1/2+z
1/2+x,-y,1/2+z
x,1/2+y,1/2+z
-x,1/2-y,1/2+z
1/2-x,1/2+y,z
1/2+x,1/2-y,z
loop_
_atom_site_type_symbol
_atom_site_label
_atom_site_fract_x
_atom_site_fract_y
_atom_site_fract_z
Si Si1 0.686148 0.784853 0.015050
Si Si2 0.819766 0.992111 0.849828
Si Si3 0.934229 0.267445 0.092983
Si Si4 0.813840 0.868817 0.762406
Si Si5 0.000000 0.000000 0.909137
Si Si6 0.681135 0.857282 0.172310
Si Si7 0.000000 0.000000 0.464102
O O1 0.725786 0.490146 0.003038
O O2 0.662768 0.750474 0.063878
O O3 0.587459 0.870508 0.991157
O O4 0.768101 0.705254 0.856309
O O5 0.871200 0.971371 0.803670
O O6 0.905383 0.072963 0.881429
O O7 0.905039 0.371836 0.138492
O O8 0.000000 0.500000 0.072371
O O9 0.000000 0.000000 0.094526
O O10 0.786446 0.552813 0.763688
O O11 0.868233 0.908621 0.717966
O O12 0.036453 0.254223 0.935831
O O13 0.730541 0.567466 0.165838
#
# Coordination Sequence:
#
# PCOD8184849 Si02
#       7
#     8   8   8   8   4   8   4
#     4  12  26  46  72  96 128 178 217 265 341 399
#     4  10  21  40  65  93 129 170 213 262 321 389
#     4  12  24  40  63  93 136 168 215 277 321 382
#     4   8  16  32  58  85 120 164 207 259 305 365
#     4  12  26  42  68  97 130 169 210 274 340 392
#     4  10  19  36  60  89 123 168 220 258 312 381
#     4  12  28  46  66  99 134 159 218 286 322 408
#
# _framework density 22.222801
#
# number of rings (size 3 to 8) (size 9 to 14) (size 15 to 20)
#    0.000    1.333    0.833    5.000    1.167    4.000 
#    1.500    0.000    1.833    0.000    0.000    0.000 
#    0.000    0.000    0.000    0.000    0.000    0.000 
#
# Total GULP energy -297341.320758 kJ/mol
# GULP energy per Si atom -12389.221698 kJ/mol
# Density = 2.217222 g / cm^3
# Si number density = 22.222801 Si / 1000 Ang^3
#
#
#
# Elastic Constant Matrix: (Units=GPa)
#
#
# Indices 1 2 3 4 5 6 
#
# 1 70.3861 6.2900 39.4077 0.0000 0.0000 0.0000
# 2 6.2900 83.3003 21.2497 0.0000 0.0000 0.0000
# 3 39.4077 21.2497 118.3317 0.0000 0.0000 0.0000
# 4 0.0000 0.0000 0.0000 32.9255 0.0000 0.0000
# 5 0.0000 0.0000 0.0000 0.0000 24.6500 0.0000
# 6 0.0000 0.0000 0.0000 0.0000 0.0000 35.8037
#
#
#
# Elastic Compliance Matrix: (Units=1/GPa)
#
#
# Indices 1 2 3 4 5 6 
#
# 1 0.017466 0.000173 -0.005848 0.000000 0.000000 0.000000
# 2 0.000173 0.012583 -0.002317 0.000000 0.000000 0.000000
# 3 -0.005848 -0.002317 0.010814 0.000000 0.000000 0.000000
# 4 0.000000 0.000000 0.000000 0.030372 0.000000 0.000000
# 5 0.000000 0.000000 0.000000 0.000000 0.040568 0.000000
# 6 0.000000 0.000000 0.000000 0.000000 0.000000 0.027930
#
#
# Mechanical properties :
#
#
# Convention : Reuss Voigt Hill
#
# Bulk Modulus (GPa) = 40.19428 45.10144 42.64786
# Shear Modulus (GPa) = 30.48600 32.34720 31.41660
#
# Velocity S-wave (km/s) = 3.70785 3.81935 3.76401
# Velocity P-wave (km/s) = 6.03797 6.30786 6.17439
#
# Compressibility (1/GPa) = 0.02487916
#
# Stress axis : x y z
#
# Youngs Moduli (GPa) = 57.25447 79.47357 92.46963
#
# Poissons Ratio (x) = -0.01374 0.54073
# Poissons Ratio (y) = -0.00990 0.21427
# Poissons Ratio (z) = 0.33480 0.18415
#
# Static dielectric constant tensor:
#      x y z
#    x 3.473880 0.000000 0.000000 
#    y 0.000000 4.136510 0.000000 
#    z 0.000000 0.000000 4.478970 
# 
# 
# High freq. dielectric constant tensor:
#      x y z
#    x 1.833190 0.000000 0.000000 
#    y 0.000000 1.894560 0.000000 
#    z 0.000000 0.000000 1.896050 
# 
# From -- ./inp_files/12728.got.cif
#   From: 2010.03.12/outbox.cif.g09.slc.cpg/sg41_7_cif.got.tgz:12728.got - 2010.04.14 01:55:53.
