data_PCOD8184853
_publ_section_title
;
Structure prediction by ZEFSAII (Michael W. Deem and Ramdas Pophale) SiO2 
 PCOD8184853
Probable space group: A B A 2
;
_chemical_formula_sum "Si O2"
_cell_formula_units_Z 60
_cell_length_a 10.918689
_cell_length_b 15.512053
_cell_length_c 17.791698
_cell_angle_alpha 90.000000
_cell_angle_beta 90.000000
_cell_angle_gamma 90.000000
_cell_volume 3013.402707
_symmetry_space_group_name_H-M "A B A 2"
_symmetry_group_IT_number 41
_symmetry_cell_setting 'orthorhombic'
loop_
_space_group_symop_operation_xyz
x,y,z
-x,-y,z
1/2-x,y,1/2+z
1/2+x,-y,1/2+z
x,1/2+y,1/2+z
-x,1/2-y,1/2+z
1/2-x,1/2+y,z
1/2+x,1/2-y,z
loop_
_atom_site_type_symbol
_atom_site_label
_atom_site_fract_x
_atom_site_fract_y
_atom_site_fract_z
Si Si1 0.707134 0.323258 0.702300
Si Si2 0.735789 0.134226 0.184828
Si Si3 0.093045 0.429776 0.812413
Si Si4 0.470611 0.843622 0.294488
Si Si5 0.869921 0.826651 0.338530
Si Si6 0.263434 0.035979 0.934664
Si Si7 0.858526 0.983199 0.597313
Si Si8 0.500000 0.000000 0.403203
O O1 0.742028 0.233662 0.658896
O O2 0.592783 0.303668 0.757610
O O3 0.819957 0.352210 0.755430
O O4 0.684371 0.398744 0.642846
O O5 0.843232 0.110665 0.241099
O O6 0.606886 0.119384 0.225781
O O7 0.726579 0.066462 0.116358
O O8 0.188088 0.468789 0.872346
O O9 0.000000 0.500000 0.780047
O O10 0.007769 0.359889 0.853752
O O11 0.384032 0.776627 0.340803
O O12 0.505327 0.917534 0.351020
O O13 0.778609 0.866581 0.401350
O O14 0.122717 0.009628 0.953288
O O15 0.342972 0.033090 0.009351
O O16 0.000000 0.000000 0.614832
#
# Coordination Sequence:
#
# PCOD8184853 Si02
#       8
#     8   8   8   8   8   8   8   4
#     4  11  22  40  66  99 125 163 220 264 319 383
#     4  11  22  39  65  95 124 161 212 266 315 378
#     4  10  19  36  61  89 122 158 206 262 313 362
#     4  11  20  38  69  94 123 153 215 271 315 374
#     4  10  21  38  64  95 124 158 208 274 309 365
#     4  11  24  42  62  93 128 167 214 255 323 386
#     4  12  24  44  64  88 132 179 213 257 321 396
#     4  12  22  42  64  94 122 166 214 268 324 376
#
# _framework density 19.911045999999999
#
# number of rings (size 3 to 8) (size 9 to 14) (size 15 to 20)
#    0.000    1.067    5.333    3.600    0.000    0.000 
#    6.000    1.333    0.000    0.000    0.000    0.000 
#    0.000    0.000    0.000    0.000    0.000    0.000 
#
# Total GULP energy -371820.053239 kJ/mol
# GULP energy per Si atom -12394.001775 kJ/mol
# Density = 1.986573 g / cm^3
# Si number density = 19.911046 Si / 1000 Ang^3
#
#
#
# Elastic Constant Matrix: (Units=GPa)
#
#
# Indices 1 2 3 4 5 6 
#
# 1 97.8502 24.6664 11.8950 0.0000 0.0000 0.0000
# 2 24.6664 98.1256 48.5698 0.0000 0.0000 0.0000
# 3 11.8950 48.5698 63.0771 0.0000 0.0000 0.0000
# 4 0.0000 0.0000 0.0000 6.1282 0.0000 0.0000
# 5 0.0000 0.0000 0.0000 0.0000 23.4524 0.0000
# 6 0.0000 0.0000 0.0000 0.0000 0.0000 29.3577
#
#
#
# Elastic Compliance Matrix: (Units=1/GPa)
#
#
# Indices 1 2 3 4 5 6 
#
# 1 0.010911 -0.002786 0.000088 0.000000 0.000000 0.000000
# 2 -0.002786 0.017179 -0.012702 0.000000 0.000000 0.000000
# 3 0.000088 -0.012702 0.025618 0.000000 0.000000 0.000000
# 4 0.000000 0.000000 0.000000 0.163180 0.000000 0.000000
# 5 0.000000 0.000000 0.000000 0.000000 0.042640 0.000000
# 6 0.000000 0.000000 0.000000 0.000000 0.000000 0.034063
#
#
# Mechanical properties :
#
#
# Convention : Reuss Voigt Hill
#
# Bulk Modulus (GPa) = 43.65579 47.70168 45.67874
# Shear Modulus (GPa) = 15.05899 23.38244 19.22071
#
# Velocity S-wave (km/s) = 2.75310 3.43059 3.11035
# Velocity P-wave (km/s) = 5.66384 6.30090 5.99084
#
# Compressibility (1/GPa) = 0.02290647
#
# Stress axis : x y z
#
# Youngs Moduli (GPa) = 91.64713 58.21134 39.03514
#
# Poissons Ratio (x) = 0.16220 -0.00343
# Poissons Ratio (y) = 0.25536 0.49584
# Poissons Ratio (z) = -0.00805 0.73942
#
# Static dielectric constant tensor:
#      x y z
#    x 3.935870 0.000000 0.000000 
#    y 0.000000 3.885310 0.000000 
#    z 0.000000 0.000000 3.190530 
# 
# 
# High freq. dielectric constant tensor:
#      x y z
#    x 1.794970 0.000000 0.000000 
#    y 0.000000 1.789270 0.000000 
#    z 0.000000 0.000000 1.733140 
# 
# From -- ./inp_files/10084.got.cif
#   From: 2010.03.12/outbox.cif.g09.slc.cpg/sg41_6_cif.got.tgz:10084.got - 2010.04.14 01:55:53.
