data_PCOD8184454
_publ_section_title
;
Structure prediction by ZEFSAII (Michael W. Deem and Ramdas Pophale) SiO2 
 PCOD8184454
Probable space group: A M A 2
;
_chemical_formula_sum "Si O2"
_cell_formula_units_Z 60
_cell_length_a 26.441084
_cell_length_b 12.135982
_cell_length_c 8.324884
_cell_angle_alpha 90.000000
_cell_angle_beta 90.000000
_cell_angle_gamma 90.000000
_cell_volume 2671.359702
_symmetry_space_group_name_H-M "A M A 2"
_symmetry_group_IT_number 40
_symmetry_cell_setting 'orthorhombic'
loop_
_space_group_symop_operation_xyz
x,y,z
-x,-y,z
1/2-x,y,z
1/2+x,-y,z
x,1/2+y,1/2+z
-x,1/2-y,1/2+z
1/2-x,1/2+y,1/2+z
1/2+x,1/2-y,1/2+z
loop_
_atom_site_type_symbol
_atom_site_label
_atom_site_fract_x
_atom_site_fract_y
_atom_site_fract_z
Si Si1 0.192783 0.399890 0.011480
Si Si2 0.968311 0.107809 0.696251
Si Si3 0.629409 0.777959 0.824324
Si Si4 0.099492 0.990723 0.939436
Si Si5 0.806433 0.635583 0.383994
Si Si6 0.475103 0.797190 0.349288
Si Si7 0.000000 0.000000 0.154283
Si Si8 0.192224 0.139896 0.525094
O O1 0.250000 0.378466 0.954253
O O2 0.188753 0.402494 0.202682
O O3 0.173347 0.521869 0.956516
O O4 0.159386 0.305952 0.935211
O O5 0.914921 0.064881 0.766672
O O6 0.963024 0.180469 0.536405
O O7 0.994541 0.182344 0.834656
O O8 0.000000 0.000000 0.654750
O O9 0.578865 0.717375 0.760029
O O10 0.661591 0.820055 0.677638
O O11 0.612932 0.881395 0.931687
O O12 0.150690 0.925308 0.993603
O O13 0.050808 0.980267 0.053135
O O14 0.750000 0.606212 0.451655
O O15 0.814040 0.767786 0.388225
O O16 0.507366 0.894416 0.268956
O O17 0.250000 0.125042 0.581637
#
# Coordination Sequence:
#
# PCOD8184454 Si02
#       8
#     8   8   8   8   8   8   4   8
#     4  10  22  43  67  96 136 176 227 280 339 412
#     4  12  24  48  68  97 135 184 224 285 341 411
#     4  12  23  40  67  99 131 178 225 279 346 399
#     4  12  23  45  70  99 144 179 231 288 339 413
#     4  10  22  43  70  99 133 176 223 282 345 401
#     4  12  26  44  72  97 138 180 232 285 347 413
#     4  12  26  46  64 106 140 186 236 284 346 412
#     4  10  22  43  66  94 136 177 223 280 338 404
#
# _framework density 22.460471999999999
#
# number of rings (size 3 to 8) (size 9 to 14) (size 15 to 20)
#    0.000    0.800    4.000    3.600    0.000    0.533 
#    7.200    0.000    0.000    0.000    0.000    0.000 
#    0.000    0.000    0.000    0.000    0.000    0.000 
#
# Total GULP energy -371953.767300 kJ/mol
# GULP energy per Si atom -12398.458910 kJ/mol
# Density = 2.240935 g / cm^3
# Si number density = 22.460472 Si / 1000 Ang^3
#
#
#
# Elastic Constant Matrix: (Units=GPa)
#
#
# Indices 1 2 3 4 5 6 
#
# 1 129.9918 71.2439 27.8015 0.0000 0.0000 0.0000
# 2 71.2439 161.1584 35.0672 0.0000 0.0000 0.0000
# 3 27.8015 35.0672 45.8984 0.0000 0.0000 0.0000
# 4 0.0000 0.0000 0.0000 39.5457 0.0000 0.0000
# 5 0.0000 0.0000 0.0000 0.0000 20.8067 0.0000
# 6 0.0000 0.0000 0.0000 0.0000 0.0000 43.8697
#
#
#
# Elastic Compliance Matrix: (Units=1/GPa)
#
#
# Indices 1 2 3 4 5 6 
#
# 1 0.010577 -0.003936 -0.003399 0.000000 0.000000 0.000000
# 2 -0.003936 0.008907 -0.004421 0.000000 0.000000 0.000000
# 3 -0.003399 -0.004421 0.027224 0.000000 0.000000 0.000000
# 4 0.000000 0.000000 0.000000 0.025287 0.000000 0.000000
# 5 0.000000 0.000000 0.000000 0.000000 0.048061 0.000000
# 6 0.000000 0.000000 0.000000 0.000000 0.000000 0.022795
#
#
# Mechanical properties :
#
#
# Convention : Reuss Voigt Hill
#
# Bulk Modulus (GPa) = 43.11258 67.25265 55.18261
# Shear Modulus (GPa) = 28.71970 34.37350 31.54660
#
# Velocity S-wave (km/s) = 3.57974 3.91628 3.75178
# Velocity P-wave (km/s) = 6.02682 7.10333 6.58710
#
# Compressibility (1/GPa) = 0.02319509
#
# Stress axis : x y z
#
# Youngs Moduli (GPa) = 94.54383 112.26957 36.73220
#
# Poissons Ratio (x) = 0.44191 0.12487
# Poissons Ratio (y) = 0.37214 0.16239
# Poissons Ratio (z) = 0.32140 0.49634
#
# Static dielectric constant tensor:
#      x y z
#    x 4.356660 0.000000 0.000000 
#    y 0.000000 4.487120 0.000000 
#    z 0.000000 0.000000 3.732110 
# 
# 
# High freq. dielectric constant tensor:
#      x y z
#    x 1.897640 0.000000 0.000000 
#    y 0.000000 1.910500 0.000000 
#    z 0.000000 0.000000 1.855340 
# 
# From -- ./inp_files/9169.got.cif
#   From: 2010.03.12/outbox.cif.g09.slc.cpg/sg40_5_cif.got.tgz:9169.got - 2010.04.14 01:38:03.
