data_PCOD8184494
_publ_section_title
;
Structure prediction by ZEFSAII (Michael W. Deem and Ramdas Pophale) SiO2 
 PCOD8184494
Probable space group: A M A 2
;
_chemical_formula_sum "Si O2"
_cell_formula_units_Z 60
_cell_length_a 29.422419
_cell_length_b 5.244083
_cell_length_c 17.769202
_cell_angle_alpha 90.000000
_cell_angle_beta 90.000000
_cell_angle_gamma 90.000000
_cell_volume 2741.674275
_symmetry_space_group_name_H-M "A M A 2"
_symmetry_group_IT_number 40
_symmetry_cell_setting 'orthorhombic'
loop_
_space_group_symop_operation_xyz
x,y,z
-x,-y,z
1/2-x,y,z
1/2+x,-y,z
x,1/2+y,1/2+z
-x,1/2-y,1/2+z
1/2-x,1/2+y,1/2+z
1/2+x,1/2-y,1/2+z
loop_
_atom_site_type_symbol
_atom_site_label
_atom_site_fract_x
_atom_site_fract_y
_atom_site_fract_z
Si Si1 0.428349 0.942587 0.893440
Si Si2 0.040164 0.187342 0.523535
Si Si3 0.661773 0.185353 0.821898
Si Si4 0.946614 0.670269 0.677431
Si Si5 0.198169 0.827242 0.394320
Si Si6 0.000000 0.000000 0.771016
Si Si7 0.889766 0.196763 0.676562
Si Si8 0.619483 0.676347 0.007127
O O1 0.385661 0.774101 0.866665
O O2 0.453510 0.028306 0.818092
O O3 0.467985 0.798353 0.940387
O O4 0.411126 0.158276 0.950441
O O5 0.091616 0.082189 0.518032
O O6 0.041372 0.396594 0.590281
O O7 0.000000 0.000000 0.545008
O O8 0.692682 0.429080 0.839846
O O9 0.653405 0.166992 0.732040
O O10 0.685175 0.924802 0.848255
O O11 0.919289 0.432432 0.711441
O O12 0.918639 0.937574 0.678050
O O13 0.994477 0.741309 0.720095
O O14 0.250000 0.807265 0.420810
O O15 0.168779 0.864641 0.470196
O O16 0.873326 0.280853 0.592596
#
# Coordination Sequence:
#
# PCOD8184494 Si02
#       8
#     8   8   8   8   8   4   8   8
#     4  11  22  40  58  93 126 175 221 273 316 379
#     4  11  21  38  60  91 131 179 219 269 313 381
#     4  11  23  42  68  98 129 164 217 265 335 394
#     4  11  24  41  58  92 131 181 222 267 320 370
#     4  11  24  45  71  99 132 165 209 273 340 405
#     4  12  24  40  58  96 134 184 232 274 308 388
#     4  11  23  43  68  90 130 174 218 271 326 386
#     4  10  23  41  65  92 129 170 220 264 332 388
#
# _framework density 21.884436000000001
#
# number of rings (size 3 to 8) (size 9 to 14) (size 15 to 20)
#    0.000    1.067    4.667    2.000    1.867    1.600 
#    2.400    1.333    0.000    0.000    0.000    0.000 
#    0.000    0.000    0.000    0.000    0.000    0.000 
#
# Total GULP energy -371720.278065 kJ/mol
# GULP energy per Si atom -12390.675936 kJ/mol
# Density = 2.183463 g / cm^3
# Si number density = 21.884436 Si / 1000 Ang^3
#
#
#
# Elastic Constant Matrix: (Units=GPa)
#
#
# Indices 1 2 3 4 5 6 
#
# 1 119.2781 26.1617 42.3828 0.0000 0.0000 0.0000
# 2 26.1617 99.9433 15.1701 0.0000 0.0000 0.0000
# 3 42.3828 15.1701 131.1698 0.0000 0.0000 0.0000
# 4 0.0000 0.0000 0.0000 14.4267 0.0000 0.0000
# 5 0.0000 0.0000 0.0000 0.0000 20.9512 0.0000
# 6 0.0000 0.0000 0.0000 0.0000 0.0000 23.5993
#
#
#
# Elastic Compliance Matrix: (Units=1/GPa)
#
#
# Indices 1 2 3 4 5 6 
#
# 1 0.009903 -0.002144 -0.002952 0.000000 0.000000 0.000000
# 2 -0.002144 0.010649 -0.000539 0.000000 0.000000 0.000000
# 3 -0.002952 -0.000539 0.008640 0.000000 0.000000 0.000000
# 4 0.000000 0.000000 0.000000 0.069316 0.000000 0.000000
# 5 0.000000 0.000000 0.000000 0.000000 0.047730 0.000000
# 6 0.000000 0.000000 0.000000 0.000000 0.000000 0.042374
#
#
# Mechanical properties :
#
#
# Convention : Reuss Voigt Hill
#
# Bulk Modulus (GPa) = 55.79739 57.53559 56.66649
# Shear Modulus (GPa) = 24.28900 29.57390 26.93145
#
# Velocity S-wave (km/s) = 3.33509 3.68008 3.51183
# Velocity P-wave (km/s) = 6.35470 6.66371 6.51104
#
# Compressibility (1/GPa) = 0.01792199
#
# Stress axis : x y z
#
# Youngs Moduli (GPa) = 100.98041 93.90797 115.74381
#
# Poissons Ratio (x) = 0.20136 0.34165
# Poissons Ratio (y) = 0.21652 0.06235
# Poissons Ratio (z) = 0.29807 0.05059
#
# Static dielectric constant tensor:
#      x y z
#    x 3.714330 0.000000 0.000000 
#    y 0.000000 3.877960 0.000000 
#    z 0.000000 0.000000 4.508880 
# 
# 
# High freq. dielectric constant tensor:
#      x y z
#    x 1.829190 0.000000 0.000000 
#    y 0.000000 1.862020 0.000000 
#    z 0.000000 0.000000 1.882400 
# 
# From -- ./inp_files/21609.got.cif
#   From: 2010.03.12/outbox.cif.g09.slc.cpg/sg40_11_cif.got.tgz:21609.got - 2010.04.14 01:38:03.
