data_PCOD8184387
_publ_section_title
;
Structure prediction by ZEFSAII (Michael W. Deem and Ramdas Pophale) SiO2 
 PCOD8184387
Probable space group: A M A 2
;
_chemical_formula_sum "Si O2"
_cell_formula_units_Z 44
_cell_length_a 25.537999
_cell_length_b 14.178207
_cell_length_c 5.001363
_cell_angle_alpha 90.000000
_cell_angle_beta 90.000000
_cell_angle_gamma 90.000000
_cell_volume 1810.908700
_symmetry_space_group_name_H-M "A M A 2"
_symmetry_group_IT_number 40
_symmetry_cell_setting 'orthorhombic'
loop_
_space_group_symop_operation_xyz
x,y,z
-x,-y,z
1/2-x,y,z
1/2+x,-y,z
x,1/2+y,1/2+z
-x,1/2-y,1/2+z
1/2-x,1/2+y,1/2+z
1/2+x,1/2-y,1/2+z
loop_
_atom_site_type_symbol
_atom_site_label
_atom_site_fract_x
_atom_site_fract_y
_atom_site_fract_z
Si Si1 0.143454 0.601825 0.470100
Si Si2 0.500000 0.500000 0.113662
Si Si3 0.637577 0.194619 0.671104
Si Si4 0.477585 0.302731 0.359135
Si Si5 0.750000 0.738867 0.283956
Si Si6 0.250000 0.639258 0.282055
Si Si7 0.109486 0.500040 0.977649
O O1 0.135286 0.714175 0.478084
O O2 0.199723 0.575664 0.344145
O O3 0.140917 0.563255 0.769985
O O4 0.104495 0.549087 0.270811
O O5 0.498546 0.406977 0.298752
O O6 0.451644 0.495298 0.904388
O O7 0.586528 0.198027 0.864640
O O8 0.693697 0.186516 0.831360
O O9 0.635068 0.102964 0.483402
O O10 0.499629 0.272457 0.646492
O O11 0.750000 0.829998 0.473777
O O12 0.750000 0.769159 0.974160
#
# Coordination Sequence:
#
# PCOD8184387 Si02
#       7
#     8   4   8   8   4   4   8
#     4  11  23  42  63  91 126 165 210 263 317 380
#     4  10  24  42  62  96 132 162 214 270 314 382
#     4  10  24  42  65  94 130 169 216 268 326 389
#     4  11  24  41  66  94 127 172 215 265 329 388
#     4  10  22  40  64  92 127 168 211 268 324 384
#     4  10  22  40  66  92 125 166 211 264 320 376
#     4  11  25  40  66  95 126 170 214 261 323 386
#
# _framework density 24.297194999999999
#
# number of rings (size 3 to 8) (size 9 to 14) (size 15 to 20)
#    0.000    1.455    0.000    4.364    0.000   16.000 
#    0.000    0.000    0.000    0.000    0.000    0.000 
#    0.000    0.000    0.000    0.000    0.000    0.000 
#
# Total GULP energy -272698.407858 kJ/mol
# GULP energy per Si atom -12395.382175 kJ/mol
# Density = 2.424189 g / cm^3
# Si number density = 24.297195 Si / 1000 Ang^3
#
#
#
# Elastic Constant Matrix: (Units=GPa)
#
#
# Indices 1 2 3 4 5 6 
#
# 1 176.4449 36.9605 20.5724 0.0000 0.0000 0.0000
# 2 36.9605 157.4926 31.6883 0.0000 0.0000 0.0000
# 3 20.5724 31.6883 71.1598 0.0000 0.0000 0.0000
# 4 0.0000 0.0000 0.0000 15.2797 0.0000 0.0000
# 5 0.0000 0.0000 0.0000 0.0000 14.5747 0.0000
# 6 0.0000 0.0000 0.0000 0.0000 0.0000 27.1476
#
#
#
# Elastic Compliance Matrix: (Units=1/GPa)
#
#
# Indices 1 2 3 4 5 6 
#
# 1 0.006057 -0.001174 -0.001228 0.000000 0.000000 0.000000
# 2 -0.001174 0.007202 -0.002868 0.000000 0.000000 0.000000
# 3 -0.001228 -0.002868 0.015685 0.000000 0.000000 0.000000
# 4 0.000000 0.000000 0.000000 0.065446 0.000000 0.000000
# 5 0.000000 0.000000 0.000000 0.000000 0.068612 0.000000
# 6 0.000000 0.000000 0.000000 0.000000 0.000000 0.036836
#
#
# Mechanical properties :
#
#
# Convention : Reuss Voigt Hill
#
# Bulk Modulus (GPa) = 54.33723 64.83774 59.58748
# Shear Modulus (GPa) = 23.09337 32.45880 27.77609
#
# Velocity S-wave (km/s) = 3.08629 3.65897 3.38476
# Velocity P-wave (km/s) = 5.92557 6.67787 6.31294
#
# Compressibility (1/GPa) = 0.01840359
#
# Stress axis : x y z
#
# Youngs Moduli (GPa) = 165.10750 138.84876 63.75547
#
# Poissons Ratio (x) = 0.16305 0.07830
# Poissons Ratio (y) = 0.19388 0.18283
# Poissons Ratio (z) = 0.20276 0.39817
#
# Static dielectric constant tensor:
#      x y z
#    x 5.165190 0.000000 0.000000 
#    y 0.000000 4.281650 0.000000 
#    z 0.000000 0.000000 3.894300 
# 
# 
# High freq. dielectric constant tensor:
#      x y z
#    x 1.995980 0.000000 0.000000 
#    y 0.000000 1.958930 0.000000 
#    z 0.000000 0.000000 1.940740 
# 
# From -- ./inp_files/3060.got.cif
#   From: 2010.03.12/outbox.cif.g09.slc.cpg/sg40_2_cif.got.tgz:3060.got - 2010.04.14 01:38:03.
