data_PCOD8184465
_publ_section_title
;
Structure prediction by ZEFSAII (Michael W. Deem and Ramdas Pophale) SiO2 
 PCOD8184465
Probable space group: A M A 2
;
_chemical_formula_sum "Si O2"
_cell_formula_units_Z 48
_cell_length_a 15.215592
_cell_length_b 14.206526
_cell_length_c 11.008008
_cell_angle_alpha 90.000000
_cell_angle_beta 90.000000
_cell_angle_gamma 90.000000
_cell_volume 2379.498752
_symmetry_space_group_name_H-M "A M A 2"
_symmetry_group_IT_number 40
_symmetry_cell_setting 'orthorhombic'
loop_
_space_group_symop_operation_xyz
x,y,z
-x,-y,z
1/2-x,y,z
1/2+x,-y,z
x,1/2+y,1/2+z
-x,1/2-y,1/2+z
1/2-x,1/2+y,1/2+z
1/2+x,1/2-y,1/2+z
loop_
_atom_site_type_symbol
_atom_site_label
_atom_site_fract_x
_atom_site_fract_y
_atom_site_fract_z
Si Si1 0.250000 0.762044 0.710830
Si Si2 0.899922 0.344066 0.579748
Si Si3 0.750000 0.472242 0.952074
Si Si4 0.599500 0.009967 0.264578
Si Si5 0.346539 0.137531 0.806487
Si Si6 0.750000 0.767742 0.483725
Si Si7 0.750000 0.526104 0.206545
Si Si8 0.405564 0.795444 0.140587
O O1 0.164282 0.735871 0.632554
O O2 0.250000 0.869157 0.758754
O O3 0.250000 0.709394 0.839877
O O4 0.884822 0.440361 0.652265
O O5 0.883011 0.369239 0.441284
O O6 0.998477 0.306636 0.585400
O O7 0.662358 0.483099 0.874324
O O8 0.750000 0.375175 0.032030
O O9 0.750000 0.546704 0.061584
O O10 0.621298 0.115282 0.222048
O O11 0.500000 0.000000 0.312757
O O12 0.250000 0.186622 0.808144
O O13 0.408516 0.202446 0.724036
O O14 0.337013 0.031015 0.752794
O O15 0.663279 0.714130 0.530020
#
# Coordination Sequence:
#
# PCOD8184465 Si02
#       8
#     4   8   4   8   8   4   4   8
#     4  12  25  42  62 100 125 172 212 261 318 372
#     4  11  24  42  65  95 132 165 215 263 313 384
#     4  12  21  42  68  90 133 162 210 274 308 376
#     4  10  24  41  64  97 125 167 215 256 318 380
#     4  10  22  44  63  88 130 168 208 263 318 380
#     4  12  23  42  66  92 129 164 216 266 310 374
#     4  10  25  42  62  92 127 170 212 255 330 374
#     4  11  24  42  67  94 125 175 212 258 324 376
#
# _framework density 20.172315000000001
#
# number of rings (size 3 to 8) (size 9 to 14) (size 15 to 20)
#    0.500    0.667    5.000    0.500    7.000    0.000 
#    0.000    0.833    0.000    0.000    0.000    0.000 
#    0.000    0.000    0.000    0.000    0.000    0.000 
#
# Total GULP energy -297601.322803 kJ/mol
# GULP energy per Si atom -12400.055117 kJ/mol
# Density = 2.012640 g / cm^3
# Si number density = 20.172315 Si / 1000 Ang^3
#
#
#
# Elastic Constant Matrix: (Units=GPa)
#
#
# Indices 1 2 3 4 5 6 
#
# 1 116.9329 33.6729 51.4035 0.0000 0.0000 0.0000
# 2 33.6729 106.2262 11.5993 0.0000 0.0000 0.0000
# 3 51.4035 11.5993 117.1321 0.0000 0.0000 0.0000
# 4 0.0000 0.0000 0.0000 20.9195 0.0000 0.0000
# 5 0.0000 0.0000 0.0000 0.0000 21.2868 0.0000
# 6 0.0000 0.0000 0.0000 0.0000 0.0000 23.0458
#
#
#
# Elastic Compliance Matrix: (Units=1/GPa)
#
#
# Indices 1 2 3 4 5 6 
#
# 1 0.011547 -0.003141 -0.004757 0.000000 0.000000 0.000000
# 2 -0.003141 0.010371 0.000351 0.000000 0.000000 0.000000
# 3 -0.004757 0.000351 0.010590 0.000000 0.000000 0.000000
# 4 0.000000 0.000000 0.000000 0.047802 0.000000 0.000000
# 5 0.000000 0.000000 0.000000 0.000000 0.046977 0.000000
# 6 0.000000 0.000000 0.000000 0.000000 0.000000 0.043392
#
#
# Mechanical properties :
#
#
# Convention : Reuss Voigt Hill
#
# Bulk Modulus (GPa) = 57.41766 59.29360 58.35563
# Shear Modulus (GPa) = 26.09904 29.29146 27.69525
#
# Velocity S-wave (km/s) = 3.60085 3.81473 3.70933
# Velocity P-wave (km/s) = 6.76857 6.99001 6.88018
#
# Compressibility (1/GPa) = 0.01741624
#
# Stress axis : x y z
#
# Youngs Moduli (GPa) = 86.59961 96.42092 94.42893
#
# Poissons Ratio (x) = 0.30286 0.44915
# Poissons Ratio (y) = 0.27201 -0.03318
# Poissons Ratio (z) = 0.41191 -0.03388
#
# Static dielectric constant tensor:
#      x y z
#    x 3.656170 0.000000 0.000000 
#    y 0.000000 3.635080 0.000000 
#    z 0.000000 0.000000 3.536770 
# 
# 
# High freq. dielectric constant tensor:
#      x y z
#    x 1.782890 0.000000 0.000000 
#    y 0.000000 1.791350 0.000000 
#    z 0.000000 0.000000 1.796700 
# 
# From -- ./inp_files/12197.got.cif
#   From: 2010.03.12/outbox.cif.g09.slc.cpg/sg40_7_cif.got.tgz:12197.got - 2010.04.14 01:38:03.
