data_PCOD8184606
_publ_section_title
;
Structure prediction by ZEFSAII (Michael W. Deem and Ramdas Pophale) SiO2 
 PCOD8184606
Probable space group: A M A 2
;
_chemical_formula_sum "Si O2"
_cell_formula_units_Z 48
_cell_length_a 14.607700
_cell_length_b 8.144457
_cell_length_c 18.155451
_cell_angle_alpha 90.000000
_cell_angle_beta 90.000000
_cell_angle_gamma 90.000000
_cell_volume 2159.986404
_symmetry_space_group_name_H-M "A M A 2"
_symmetry_group_IT_number 40
_symmetry_cell_setting 'orthorhombic'
loop_
_space_group_symop_operation_xyz
x,y,z
-x,-y,z
1/2-x,y,z
1/2+x,-y,z
x,1/2+y,1/2+z
-x,1/2-y,1/2+z
1/2-x,1/2+y,1/2+z
1/2+x,1/2-y,1/2+z
loop_
_atom_site_type_symbol
_atom_site_label
_atom_site_fract_x
_atom_site_fract_y
_atom_site_fract_z
Si Si1 0.750000 0.348966 0.586571
Si Si2 0.442908 0.343610 0.457361
Si Si3 0.585067 0.092474 0.117482
Si Si4 0.080342 0.616666 0.222624
Si Si5 0.250000 0.885814 0.727966
Si Si6 0.750000 0.602426 0.387741
Si Si7 0.443468 0.848722 0.355933
Si Si8 0.250000 0.271783 0.916666
O O1 0.662433 0.463876 0.594579
O O2 0.750000 0.228877 0.656714
O O3 0.750000 0.254451 0.506968
O O4 0.500000 0.500000 0.428646
O O5 0.452211 0.322556 0.544238
O O6 0.337508 0.347034 0.434651
O O7 0.492315 0.185185 0.425662
O O8 0.616888 0.237433 0.170466
O O9 0.500000 0.000000 0.156461
O O10 0.162297 0.495535 0.230938
O O11 0.051728 0.696433 0.299888
O O12 0.000000 0.500000 0.190850
O O13 0.250000 0.799482 0.809157
O O14 0.750000 0.405063 0.377224
O O15 0.339156 0.873314 0.386999
O O16 0.500000 0.000000 0.318579
#
# Coordination Sequence:
#
# PCOD8184606 Si02
#       8
#     4   8   8   8   4   4   8   4
#     4  12  25  44  72 104 136 182 233 289 350 422
#     4  11  21  40  69  96 126 180 231 274 343 421
#     4  11  23  41  66  97 135 176 225 281 342 413
#     4  12  25  44  66  95 139 183 227 281 352 419
#     4  12  25  40  68  97 130 180 228 282 344 423
#     4  12  20  41  71  95 126 179 230 277 336 423
#     4  12  26  43  70 103 139 181 237 296 343 414
#     4  12  22  47  73  98 138 181 229 286 356 420
#
# _framework density 22.222359999999998
#
# number of rings (size 3 to 8) (size 9 to 14) (size 15 to 20)
#    0.000    0.333    5.000    4.500    0.000    4.000 
#    0.000    0.833    0.000    0.000    0.000    0.000 
#    0.000    0.000    0.000    0.000    0.000    0.000 
#
# Total GULP energy -297412.441256 kJ/mol
# GULP energy per Si atom -12392.185052 kJ/mol
# Density = 2.217178 g / cm^3
# Si number density = 22.222360 Si / 1000 Ang^3
#
#
#
# Elastic Constant Matrix: (Units=GPa)
#
#
# Indices 1 2 3 4 5 6 
#
# 1 155.8427 28.8725 9.2365 0.0000 0.0000 0.0000
# 2 28.8725 63.2395 33.3056 0.0000 0.0000 0.0000
# 3 9.2365 33.3056 109.9146 0.0000 0.0000 0.0000
# 4 0.0000 0.0000 0.0000 40.0004 0.0000 0.0000
# 5 0.0000 0.0000 0.0000 0.0000 28.9846 0.0000
# 6 0.0000 0.0000 0.0000 0.0000 0.0000 23.8493
#
#
#
# Elastic Compliance Matrix: (Units=1/GPa)
#
#
# Indices 1 2 3 4 5 6 
#
# 1 0.007029 -0.003448 0.000454 0.000000 0.000000 0.000000
# 2 -0.003448 0.020507 -0.005924 0.000000 0.000000 0.000000
# 3 0.000454 -0.005924 0.010855 0.000000 0.000000 0.000000
# 4 0.000000 0.000000 0.000000 0.025000 0.000000 0.000000
# 5 0.000000 0.000000 0.000000 0.000000 0.034501 0.000000
# 6 0.000000 0.000000 0.000000 0.000000 0.000000 0.041930
#
#
# Mechanical properties :
#
#
# Convention : Reuss Voigt Hill
#
# Bulk Modulus (GPa) = 48.65136 52.42511 50.53823
# Shear Modulus (GPa) = 30.39338 35.73900 33.06619
#
# Velocity S-wave (km/s) = 3.70225 4.01464 3.86161
# Velocity P-wave (km/s) = 6.34161 6.71805 6.53254
#
# Compressibility (1/GPa) = 0.02055441
#
# Stress axis : x y z
#
# Youngs Moduli (GPa) = 142.27492 48.76327 92.12409
#
# Poissons Ratio (x) = 0.16815 -0.04184
# Poissons Ratio (y) = 0.49059 0.54576
# Poissons Ratio (z) = -0.06462 0.28888
#
# Static dielectric constant tensor:
#      x y z
#    x 4.264170 0.000000 0.000000 
#    y 0.000000 4.002220 0.000000 
#    z 0.000000 0.000000 4.239250 
# 
# 
# High freq. dielectric constant tensor:
#      x y z
#    x 1.898050 0.000000 0.000000 
#    y 0.000000 1.854240 0.000000 
#    z 0.000000 0.000000 1.884860 
# 
# From -- ./inp_files/20617.got.cif
#   From: 2010.03.12/outbox.cif.g09.slc.cpg/sg40_11_cif.got.tgz:20617.got - 2010.04.14 01:38:03.
