data_PCOD8184683
_publ_section_title
;
Structure prediction by ZEFSAII (Michael W. Deem and Ramdas Pophale) SiO2 
 PCOD8184683
Probable space group: A M A 2
;
_chemical_formula_sum "Si O2"
_cell_formula_units_Z 28
_cell_length_a 13.479617
_cell_length_b 11.722212
_cell_length_c 8.138699
_cell_angle_alpha 90.000000
_cell_angle_beta 90.000000
_cell_angle_gamma 90.000000
_cell_volume 1286.003383
_symmetry_space_group_name_H-M "A M A 2"
_symmetry_group_IT_number 40
_symmetry_cell_setting 'orthorhombic'
loop_
_space_group_symop_operation_xyz
x,y,z
-x,-y,z
1/2-x,y,z
1/2+x,-y,z
x,1/2+y,1/2+z
-x,1/2-y,1/2+z
1/2-x,1/2+y,1/2+z
1/2+x,1/2-y,1/2+z
loop_
_atom_site_type_symbol
_atom_site_label
_atom_site_fract_x
_atom_site_fract_y
_atom_site_fract_z
Si Si1 0.500000 0.000000 0.821460
Si Si2 0.363548 0.069224 0.536043
Si Si3 0.366567 0.827894 0.380732
Si Si4 0.964580 0.210949 0.030695
O O1 0.416721 0.059388 0.711787
O O2 0.554101 0.094589 0.932919
O O3 0.250000 0.084610 0.577983
O O4 0.404180 0.183422 0.446793
O O5 0.383933 0.960461 0.422271
O O6 0.250000 0.797917 0.369215
O O7 0.424628 0.803956 0.213498
O O8 0.418617 0.749023 0.521511
#
# Coordination Sequence:
#
# PCOD8184683 Si02
#       4
#     4   8   8   8
#     4  12  26  40  74 100 140 182 230 284 348 404
#     4  11  24  46  70  98 138 182 232 288 346 410
#     4  11  24  45  73 102 136 184 233 283 349 412
#     4  12  24  43  72 102 143 178 230 290 341 414
#
# _framework density 21.772881000000002
#
# number of rings (size 3 to 8) (size 9 to 14) (size 15 to 20)
#    0.000    0.571    5.714    0.857    4.000    2.286 
#    0.000    2.857    0.000    0.000    0.000    0.000 
#    0.000    0.000    0.000    0.000    0.000    0.000 
#
# Total GULP energy -173566.694117 kJ/mol
# GULP energy per Si atom -12397.621008 kJ/mol
# Density = 2.172332 g / cm^3
# Si number density = 21.772881 Si / 1000 Ang^3
#
#
#
# Elastic Constant Matrix: (Units=GPa)
#
#
# Indices 1 2 3 4 5 6 
#
# 1 148.2223 58.7591 83.8814 0.0000 0.0000 0.0000
# 2 58.7591 152.0292 55.6934 0.0000 0.0000 0.0000
# 3 83.8814 55.6934 92.5276 0.0000 0.0000 0.0000
# 4 0.0000 0.0000 0.0000 31.3244 0.0000 0.0000
# 5 0.0000 0.0000 0.0000 0.0000 24.1049 0.0000
# 6 0.0000 0.0000 0.0000 0.0000 0.0000 26.9801
#
#
#
# Elastic Compliance Matrix: (Units=1/GPa)
#
#
# Indices 1 2 3 4 5 6 
#
# 1 0.013966 -0.000975 -0.012074 0.000000 0.000000 0.000000
# 2 -0.000975 0.008506 -0.004237 0.000000 0.000000 0.000000
# 3 -0.012074 -0.004237 0.024304 0.000000 0.000000 0.000000
# 4 0.000000 0.000000 0.000000 0.031924 0.000000 0.000000
# 5 0.000000 0.000000 0.000000 0.000000 0.041485 0.000000
# 6 0.000000 0.000000 0.000000 0.000000 0.000000 0.037064
#
#
# Mechanical properties :
#
#
# Convention : Reuss Voigt Hill
#
# Bulk Modulus (GPa) = 81.93318 87.71633 84.82475
# Shear Modulus (GPa) = 25.52463 29.44491 27.48477
#
# Velocity S-wave (km/s) = 3.42762 3.68144 3.55680
# Velocity P-wave (km/s) = 7.30598 7.64494 7.47738
#
# Compressibility (1/GPa) = 0.01220507
#
# Stress axis : x y z
#
# Youngs Moduli (GPa) = 71.60198 117.55925 41.14597
#
# Poissons Ratio (x) = 0.11458 0.49681
# Poissons Ratio (y) = 0.06978 0.17432
# Poissons Ratio (z) = 0.86455 0.49804
#
# Static dielectric constant tensor:
#      x y z
#    x 4.186000 0.000000 0.000000 
#    y 0.000000 4.623310 0.000000 
#    z 0.000000 0.000000 3.722980 
# 
# 
# High freq. dielectric constant tensor:
#      x y z
#    x 1.858760 0.000000 0.000000 
#    y 0.000000 1.884780 0.000000 
#    z 0.000000 0.000000 1.838320 
# 
# From -- ./inp_files/5828.got.cif
#   From: 2010.03.12/outbox.cif.g09.slc.cpg/sg40_3_cif.got.tgz:5828.got - 2010.04.14 01:38:03.
