data_PCOD8184678
_publ_section_title
;
Structure prediction by ZEFSAII (Michael W. Deem and Ramdas Pophale) SiO2 
 PCOD8184678
Probable space group: A M A 2
;
_chemical_formula_sum "Si O2"
_cell_formula_units_Z 64
_cell_length_a 29.785501
_cell_length_b 11.326743
_cell_length_c 8.870978
_cell_angle_alpha 90.000000
_cell_angle_beta 90.000000
_cell_angle_gamma 90.000000
_cell_volume 2992.825932
_symmetry_space_group_name_H-M "A M A 2"
_symmetry_group_IT_number 40
_symmetry_cell_setting 'orthorhombic'
loop_
_space_group_symop_operation_xyz
x,y,z
-x,-y,z
1/2-x,y,z
1/2+x,-y,z
x,1/2+y,1/2+z
-x,1/2-y,1/2+z
1/2-x,1/2+y,1/2+z
1/2+x,1/2-y,1/2+z
loop_
_atom_site_type_symbol
_atom_site_label
_atom_site_fract_x
_atom_site_fract_y
_atom_site_fract_z
Si Si1 0.449354 0.015626 0.745720
Si Si2 0.698178 0.447948 0.472338
Si Si3 0.838725 0.191785 0.484984
Si Si4 0.087095 0.262206 0.232642
Si Si5 0.117101 0.662945 0.038691
Si Si6 0.954208 0.435268 0.582252
Si Si7 0.799813 0.484150 0.138033
Si Si8 0.129478 0.415316 0.677578
O O1 0.429072 0.888547 0.790654
O O2 0.500000 0.000000 0.684391
O O3 0.420626 0.083511 0.620560
O O4 0.447818 0.085302 0.903426
O O5 0.750000 0.451737 0.521737
O O6 0.683344 0.314048 0.436088
O O7 0.688941 0.510882 0.312897
O O8 0.671036 0.515979 0.601156
O O9 0.876415 0.220407 0.605059
O O10 0.800533 0.111385 0.559693
O O11 0.859562 0.114058 0.350210
O O12 0.106379 0.176689 0.362723
O O13 0.044821 0.194687 0.156516
O O14 0.165588 0.604608 0.059659
O O15 0.118029 0.793368 0.100360
O O16 0.913915 0.503958 0.662354
O O17 0.000000 0.500000 0.620538
O O18 0.750000 0.428617 0.122248
#
# Coordination Sequence:
#
# PCOD8184678 Si02
#       8
#     8   8   8   8   8   8   8   8
#     4  11  26  45  69 101 137 178 226 284 341 408
#     4  11  25  45  68  99 135 174 225 280 338 408
#     4  12  24  45  70  96 136 178 226 279 338 401
#     4  12  25  44  70  98 136 180 228 278 341 401
#     4  12  24  45  71  98 138 180 226 278 345 404
#     4  11  25  46  67 102 138 175 230 283 338 409
#     4  11  24  44  69  99 133 175 224 278 338 405
#     4  12  24  44  71  97 135 184 218 280 346 400
#
# _framework density 21.384471000000001
#
# number of rings (size 3 to 8) (size 9 to 14) (size 15 to 20)
#    0.000    0.500    5.000    3.375    1.750    2.000 
#    0.000    0.625    0.000    0.000    0.000    0.000 
#    0.000    0.000    0.000    0.000    0.000    0.000 
#
# Total GULP energy -396833.090186 kJ/mol
# GULP energy per Si atom -12401.034068 kJ/mol
# Density = 2.133580 g / cm^3
# Si number density = 21.384471 Si / 1000 Ang^3
#
#
#
# Elastic Constant Matrix: (Units=GPa)
#
#
# Indices 1 2 3 4 5 6 
#
# 1 131.9327 29.1738 56.8032 0.0000 0.0000 0.0000
# 2 29.1738 72.3486 29.6286 0.0000 0.0000 0.0000
# 3 56.8032 29.6286 131.8519 0.0000 0.0000 0.0000
# 4 0.0000 0.0000 0.0000 40.4887 0.0000 0.0000
# 5 0.0000 0.0000 0.0000 0.0000 16.1027 0.0000
# 6 0.0000 0.0000 0.0000 0.0000 0.0000 30.2789
#
#
#
# Elastic Compliance Matrix: (Units=1/GPa)
#
#
# Indices 1 2 3 4 5 6 
#
# 1 0.009675 -0.002417 -0.003625 0.000000 0.000000 0.000000
# 2 -0.002417 0.015827 -0.002515 0.000000 0.000000 0.000000
# 3 -0.003625 -0.002515 0.009711 0.000000 0.000000 0.000000
# 4 0.000000 0.000000 0.000000 0.024698 0.000000 0.000000
# 5 0.000000 0.000000 0.000000 0.000000 0.062101 0.000000
# 6 0.000000 0.000000 0.000000 0.000000 0.000000 0.033026
#
#
# Mechanical properties :
#
#
# Convention : Reuss Voigt Hill
#
# Bulk Modulus (GPa) = 55.25285 63.03825 59.14555
# Shear Modulus (GPa) = 28.06077 32.07593 30.06835
#
# Velocity S-wave (km/s) = 3.62636 3.87714 3.75385
# Velocity P-wave (km/s) = 6.58999 7.04169 6.81958
#
# Compressibility (1/GPa) = 0.01809861
#
# Stress axis : x y z
#
# Youngs Moduli (GPa) = 103.36227 63.18503 102.97474
#
# Poissons Ratio (x) = 0.15270 0.37327
# Poissons Ratio (y) = 0.24980 0.25901
# Poissons Ratio (z) = 0.37468 0.15893
#
# Static dielectric constant tensor:
#      x y z
#    x 4.016550 0.000000 0.000000 
#    y 0.000000 4.800000 0.000000 
#    z 0.000000 0.000000 4.031580 
# 
# 
# High freq. dielectric constant tensor:
#      x y z
#    x 1.841640 0.000000 0.000000 
#    y 0.000000 1.854310 0.000000 
#    z 0.000000 0.000000 1.850090 
# 
# From -- ./inp_files/9446.got.cif
#   From: 2010.03.12/outbox.cif.g09.slc.cpg/sg40_5_cif.got.tgz:9446.got - 2010.04.14 01:38:03.
