data_PCOD8184918
_publ_section_title
;
Structure prediction by ZEFSAII (Michael W. Deem and Ramdas Pophale) SiO2 
 PCOD8184918
Probable space group: A B A 2
;
_chemical_formula_sum "Si O2"
_cell_formula_units_Z 64
_cell_length_a 20.937456
_cell_length_b 9.804119
_cell_length_c 15.199608
_cell_angle_alpha 90.000000
_cell_angle_beta 90.000000
_cell_angle_gamma 90.000000
_cell_volume 3120.073848
_symmetry_space_group_name_H-M "A B A 2"
_symmetry_group_IT_number 41
_symmetry_cell_setting 'orthorhombic'
loop_
_space_group_symop_operation_xyz
x,y,z
-x,-y,z
1/2-x,y,1/2+z
1/2+x,-y,1/2+z
x,1/2+y,1/2+z
-x,1/2-y,1/2+z
1/2-x,1/2+y,z
1/2+x,1/2-y,z
loop_
_atom_site_type_symbol
_atom_site_label
_atom_site_fract_x
_atom_site_fract_y
_atom_site_fract_z
Si Si1 0.695110 0.479983 0.422660
Si Si2 0.767415 0.918217 0.611057
Si Si3 0.719987 0.686696 0.843064
Si Si4 0.556633 0.606503 0.403179
Si Si5 0.871533 0.041442 0.727008
Si Si6 0.434540 0.233431 0.226729
Si Si7 0.802606 0.151372 0.175921
Si Si8 0.034294 0.855343 0.595841
O O1 0.691529 0.439111 0.523919
O O2 0.752478 0.592133 0.421338
O O3 0.714320 0.345916 0.366291
O O4 0.625661 0.534334 0.394665
O O5 0.757003 0.756469 0.621309
O O6 0.808673 0.965961 0.694132
O O7 0.702395 0.005752 0.624529
O O8 0.650380 0.634527 0.809832
O O9 0.776688 0.655744 0.774445
O O10 0.500000 0.500000 0.398899
O O11 0.545758 0.701786 0.319106
O O12 0.550740 0.692036 0.495473
O O13 0.899895 0.136074 0.650144
O O14 0.922227 0.924712 0.752995
O O15 0.376138 0.307256 0.177899
O O16 0.489503 0.246496 0.152225
O O17 0.000000 0.000000 0.587072
#
# Coordination Sequence:
#
# PCOD8184918 Si02
#       8
#     8   8   8   8   8   8   8   8
#     4  12  23  40  60  94 129 159 207 267 316 382
#     4  10  20  36  58  85 121 159 201 249 308 374
#     4  11  23  37  63  91 127 160 204 255 324 380
#     4  11  24  39  63  93 125 165 216 265 314 380
#     4   9  19  38  61  88 113 164 208 246 311 384
#     4  10  20  38  66  87 127 161 215 260 316 367
#     4  10  20  37  59  88 119 162 200 247 313 376
#     4   9  19  39  63  87 115 167 208 254 307 379
#
# _framework density 20.512333999999999
#
# number of rings (size 3 to 8) (size 9 to 14) (size 15 to 20)
#    0.000    1.750    2.500    3.000    3.500    0.000 
#    0.000    0.000    0.000    3.750    0.000    0.000 
#    0.000    0.000    0.000    0.000    0.000    0.000 
#
# Total GULP energy -396499.404570 kJ/mol
# GULP energy per Si atom -12390.606393 kJ/mol
# Density = 2.046565 g / cm^3
# Si number density = 20.512334 Si / 1000 Ang^3
#
#
#
# Elastic Constant Matrix: (Units=GPa)
#
#
# Indices 1 2 3 4 5 6 
#
# 1 79.6056 23.2534 28.7798 0.0000 0.0000 0.0000
# 2 23.2534 57.0277 38.0661 0.0000 0.0000 0.0000
# 3 28.7798 38.0661 102.8932 0.0000 0.0000 0.0000
# 4 0.0000 0.0000 0.0000 26.1624 0.0000 0.0000
# 5 0.0000 0.0000 0.0000 0.0000 25.1661 0.0000
# 6 0.0000 0.0000 0.0000 0.0000 0.0000 25.3873
#
#
#
# Elastic Compliance Matrix: (Units=1/GPa)
#
#
# Indices 1 2 3 4 5 6 
#
# 1 0.014737 -0.004326 -0.002522 0.000000 0.000000 0.000000
# 2 -0.004326 0.024556 -0.007875 0.000000 0.000000 0.000000
# 3 -0.002522 -0.007875 0.013337 0.000000 0.000000 0.000000
# 4 0.000000 0.000000 0.000000 0.038223 0.000000 0.000000
# 5 0.000000 0.000000 0.000000 0.000000 0.039736 0.000000
# 6 0.000000 0.000000 0.000000 0.000000 0.000000 0.039390
#
#
# Mechanical properties :
#
#
# Convention : Reuss Voigt Hill
#
# Bulk Modulus (GPa) = 43.12979 46.63615 44.88297
# Shear Modulus (GPa) = 24.13692 25.30498 24.72095
#
# Velocity S-wave (km/s) = 3.43403 3.51614 3.47533
# Velocity P-wave (km/s) = 6.06592 6.26653 6.16704
#
# Compressibility (1/GPa) = 0.02318583
#
# Stress axis : x y z
#
# Youngs Moduli (GPa) = 67.85529 40.72401 74.97727
#
# Poissons Ratio (x) = 0.17617 0.18907
# Poissons Ratio (y) = 0.29354 0.59041
# Poissons Ratio (z) = 0.17111 0.32068
#
# Static dielectric constant tensor:
#      x y z
#    x 3.669870 0.000000 0.000000 
#    y 0.000000 3.939880 0.000000 
#    z 0.000000 0.000000 3.880150 
# 
# 
# High freq. dielectric constant tensor:
#      x y z
#    x 1.793990 0.000000 0.000000 
#    y 0.000000 1.785860 0.000000 
#    z 0.000000 0.000000 1.806520 
# 
# From -- ./inp_files/9144.got.cif
#   From: 2010.03.12/outbox.cif.g09.slc.cpg/sg41_5_cif.got.tgz:9144.got - 2010.04.14 01:55:53.
