data_PCOD8184131
_publ_section_title
;
Structure prediction by ZEFSAII (Michael W. Deem and Ramdas Pophale) SiO2 
 PCOD8184131
Probable space group: A M A 2
;
_chemical_formula_sum "Si O2"
_cell_formula_units_Z 48
_cell_length_a 8.890629
_cell_length_b 27.603887
_cell_length_c 9.609075
_cell_angle_alpha 90.000000
_cell_angle_beta 90.000000
_cell_angle_gamma 90.000000
_cell_volume 2358.219965
_symmetry_space_group_name_H-M "A M A 2"
_symmetry_group_IT_number 40
_symmetry_cell_setting 'orthorhombic'
loop_
_space_group_symop_operation_xyz
x,y,z
-x,-y,z
1/2-x,y,z
1/2+x,-y,z
x,1/2+y,1/2+z
-x,1/2-y,1/2+z
1/2-x,1/2+y,1/2+z
1/2+x,1/2-y,1/2+z
loop_
_atom_site_type_symbol
_atom_site_label
_atom_site_fract_x
_atom_site_fract_y
_atom_site_fract_z
Si Si1 0.425237 0.295077 0.644790
Si Si2 0.578033 0.609952 0.025495
Si Si3 0.918366 0.046826 0.266233
Si Si4 0.928343 0.604615 0.507554
Si Si5 0.071693 0.051950 0.760457
Si Si6 0.074028 0.205874 0.444204
O O1 0.250000 0.298139 0.683660
O O2 0.479023 0.343664 0.567374
O O3 0.460799 0.252896 0.535677
O O4 0.513147 0.286640 0.788407
O O5 0.750000 0.612139 0.079909
O O6 0.483841 0.570716 0.111706
O O7 0.570045 0.592739 0.866703
O O8 0.505783 0.662815 0.028960
O O9 0.750000 0.029338 0.248439
O O10 0.980321 0.063674 0.117152
O O11 0.000000 0.000000 0.326634
O O12 0.750000 0.603694 0.479024
O O13 0.018567 0.593140 0.367926
O O14 0.250000 0.046474 0.761457
O O15 0.000000 0.000000 0.795820
O O16 0.250000 0.194651 0.434899
#
# Coordination Sequence:
#
# PCOD8184131 Si02
#       6
#     8   8   8   8   8   8
#     4  10  23  44  66  93 130 168 210 259 320 387
#     4  11  23  43  66  90 126 172 210 261 322 377
#     4  10  21  37  62  90 118 157 203 251 310 371
#     4  10  21  42  65  90 125 168 211 258 317 381
#     4  12  26  43  63  95 130 170 217 265 317 382
#     4  11  24  41  66 100 129 165 214 264 319 383
#
# _framework density 20.354336
#
# number of rings (size 3 to 8) (size 9 to 14) (size 15 to 20)
#    0.000    1.333    1.667    3.500    2.333    6.667 
#    0.000    0.000    0.000    0.000    0.000    0.000 
#    0.000    0.000    0.000    0.000    0.000    0.000 
#
# Total GULP energy -297669.287252 kJ/mol
# GULP energy per Si atom -12402.886969 kJ/mol
# Density = 2.030801 g / cm^3
# Si number density = 20.354336 Si / 1000 Ang^3
#
#
#
# Elastic Constant Matrix: (Units=GPa)
#
#
# Indices 1 2 3 4 5 6 
#
# 1 112.1846 55.8137 40.9170 0.0000 0.0000 0.0000
# 2 55.8137 126.8479 32.7173 0.0000 0.0000 0.0000
# 3 40.9170 32.7173 84.5412 0.0000 0.0000 0.0000
# 4 0.0000 0.0000 0.0000 32.9317 0.0000 0.0000
# 5 0.0000 0.0000 0.0000 0.0000 34.3015 0.0000
# 6 0.0000 0.0000 0.0000 0.0000 0.0000 32.1680
#
#
#
# Elastic Compliance Matrix: (Units=1/GPa)
#
#
# Indices 1 2 3 4 5 6 
#
# 1 0.012758 -0.004467 -0.004446 0.000000 0.000000 0.000000
# 2 -0.004467 0.010322 -0.001833 0.000000 0.000000 0.000000
# 3 -0.004446 -0.001833 0.014690 0.000000 0.000000 0.000000
# 4 0.000000 0.000000 0.000000 0.030366 0.000000 0.000000
# 5 0.000000 0.000000 0.000000 0.000000 0.029153 0.000000
# 6 0.000000 0.000000 0.000000 0.000000 0.000000 0.031087
#
#
# Mechanical properties :
#
#
# Convention : Reuss Voigt Hill
#
# Bulk Modulus (GPa) = 61.43164 64.71883 63.07523
# Shear Modulus (GPa) = 32.19753 32.82194 32.50974
#
# Velocity S-wave (km/s) = 3.98156 4.01999 4.00082
# Velocity P-wave (km/s) = 7.16825 7.30836 7.23864
#
# Compressibility (1/GPa) = 0.01627826
#
# Stress axis : x y z
#
# Youngs Moduli (GPa) = 78.38381 96.88509 68.07556
#
# Poissons Ratio (x) = 0.43276 0.30266
# Poissons Ratio (y) = 0.35012 0.12475
# Poissons Ratio (z) = 0.34849 0.17755
#
# Static dielectric constant tensor:
#      x y z
#    x 3.686400 0.000000 0.000000 
#    y 0.000000 3.758350 0.000000 
#    z 0.000000 0.000000 3.651940 
# 
# 
# High freq. dielectric constant tensor:
#      x y z
#    x 1.792950 0.000000 0.000000 
#    y 0.000000 1.807740 0.000000 
#    z 0.000000 0.000000 1.804510 
# 
# From -- ./inp_files/4588.got.cif
#   From: 2010.03.12/outbox.cif.g09.slc.cpg/sg40_3_cif.got.tgz:4588.got - 2010.04.14 01:38:03.
