data_PCOD8184366
_publ_section_title
;
Structure prediction by ZEFSAII (Michael W. Deem and Ramdas Pophale) SiO2 
 PCOD8184366
Probable space group: A M A 2
;
_chemical_formula_sum "Si O2"
_cell_formula_units_Z 32
_cell_length_a 17.190639
_cell_length_b 10.385820
_cell_length_c 8.504496
_cell_angle_alpha 90.000000
_cell_angle_beta 90.000000
_cell_angle_gamma 90.000000
_cell_volume 1518.383211
_symmetry_space_group_name_H-M "A M A 2"
_symmetry_group_IT_number 40
_symmetry_cell_setting 'orthorhombic'
loop_
_space_group_symop_operation_xyz
x,y,z
-x,-y,z
1/2-x,y,z
1/2+x,-y,z
x,1/2+y,1/2+z
-x,1/2-y,1/2+z
1/2-x,1/2+y,1/2+z
1/2+x,1/2-y,1/2+z
loop_
_atom_site_type_symbol
_atom_site_label
_atom_site_fract_x
_atom_site_fract_y
_atom_site_fract_z
Si Si1 0.909570 0.600332 0.335220
Si Si2 0.576059 0.847101 0.699781
Si Si3 0.079020 0.436998 0.701580
Si Si4 0.662301 0.854524 0.379904
O O1 0.875391 0.460554 0.286133
O O2 0.931165 0.586336 0.517091
O O3 0.847279 0.713016 0.301427
O O4 0.984414 0.630841 0.227165
O O5 0.596282 0.705907 0.771571
O O6 0.598247 0.860779 0.516907
O O7 0.148334 0.532720 0.751831
O O8 0.000000 0.500000 0.768427
O O9 0.750000 0.867608 0.444177
#
# Coordination Sequence:
#
# PCOD8184366 Si02
#       4
#     8   8   8   8
#     4  10  22  41  67  95 123 165 219 264 314 379
#     4  10  22  39  67  94 123 164 220 261 313 383
#     4  11  21  37  66  97 125 165 216 263 316 381
#     4  11  26  42  62  95 135 168 208 272 330 374
#
# _framework density 21.075047000000001
#
# number of rings (size 3 to 8) (size 9 to 14) (size 15 to 20)
#    0.000    1.500    5.000    0.000    3.500    7.000 
#    0.000    0.000    0.000    0.000    0.000    0.000 
#    0.000    0.000    0.000    0.000    0.000    0.000 
#
# Total GULP energy -198244.271294 kJ/mol
# GULP energy per Si atom -12390.266956 kJ/mol
# Density = 2.102708 g / cm^3
# Si number density = 21.075047 Si / 1000 Ang^3
#
#
#
# Elastic Constant Matrix: (Units=GPa)
#
#
# Indices 1 2 3 4 5 6 
#
# 1 88.4612 43.7206 48.9813 0.0000 0.0000 0.0000
# 2 43.7206 233.7051 44.8856 0.0000 0.0000 0.0000
# 3 48.9813 44.8856 62.9280 0.0000 0.0000 0.0000
# 4 0.0000 0.0000 0.0000 33.5249 0.0000 0.0000
# 5 0.0000 0.0000 0.0000 0.0000 15.3041 0.0000
# 6 0.0000 0.0000 0.0000 0.0000 0.0000 21.3975
#
#
#
# Elastic Compliance Matrix: (Units=1/GPa)
#
#
# Indices 1 2 3 4 5 6 
#
# 1 0.020019 -0.000872 -0.014960 0.000000 0.000000 0.000000
# 2 -0.000872 0.004996 -0.002885 0.000000 0.000000 0.000000
# 3 -0.014960 -0.002885 0.029594 0.000000 0.000000 0.000000
# 4 0.000000 0.000000 0.000000 0.029829 0.000000 0.000000
# 5 0.000000 0.000000 0.000000 0.000000 0.065342 0.000000
# 6 0.000000 0.000000 0.000000 0.000000 0.000000 0.046734
#
#
# Mechanical properties :
#
#
# Convention : Reuss Voigt Hill
#
# Bulk Modulus (GPa) = 58.22619 73.36327 65.79473
# Shear Modulus (GPa) = 20.86181 30.54575 25.70378
#
# Velocity S-wave (km/s) = 3.14965 3.81120 3.49611
# Velocity P-wave (km/s) = 6.39649 7.36567 6.89812
#
# Compressibility (1/GPa) = 0.01717440
#
# Stress axis : x y z
#
# Youngs Moduli (GPa) = 49.95310 200.15643 33.79105
#
# Poissons Ratio (x) = 0.17449 0.50552
# Poissons Ratio (y) = 0.04355 0.09749
# Poissons Ratio (z) = 0.74731 0.57747
#
# Static dielectric constant tensor:
#      x y z
#    x 3.314730 0.000000 0.000000 
#    y 0.000000 4.975050 0.000000 
#    z 0.000000 0.000000 3.523450 
# 
# 
# High freq. dielectric constant tensor:
#      x y z
#    x 1.780260 0.000000 0.000000 
#    y 0.000000 1.867240 0.000000 
#    z 0.000000 0.000000 1.804490 
# 
# From -- ./inp_files/5883.got.cif
#   From: 2010.03.12/outbox.cif.g09.slc.cpg/sg40_3_cif.got.tgz:5883.got - 2010.04.14 01:38:03.
