data_PCOD8184808
_publ_section_title
;
Structure prediction by ZEFSAII (Michael W. Deem and Ramdas Pophale) SiO2 
 PCOD8184808
Probable space group: A B A 2
;
_chemical_formula_sum "Si O2"
_cell_formula_units_Z 64
_cell_length_a 15.591682
_cell_length_b 9.714971
_cell_length_c 21.934207
_cell_angle_alpha 90.000000
_cell_angle_beta 90.000000
_cell_angle_gamma 90.000000
_cell_volume 3322.434400
_symmetry_space_group_name_H-M "A B A 2"
_symmetry_group_IT_number 41
_symmetry_cell_setting 'orthorhombic'
loop_
_space_group_symop_operation_xyz
x,y,z
-x,-y,z
1/2-x,y,1/2+z
1/2+x,-y,1/2+z
x,1/2+y,1/2+z
-x,1/2-y,1/2+z
1/2-x,1/2+y,z
1/2+x,1/2-y,z
loop_
_atom_site_type_symbol
_atom_site_label
_atom_site_fract_x
_atom_site_fract_y
_atom_site_fract_z
Si Si1 0.832904 0.426644 0.752620
Si Si2 0.343913 0.300820 0.409827
Si Si3 0.950457 0.861945 0.595974
Si Si4 0.594582 0.206606 0.774740
Si Si5 0.815048 0.884154 0.393758
Si Si6 0.980503 0.339859 0.964190
Si Si7 0.835739 0.931728 0.694412
Si Si8 0.941275 0.695787 0.208659
O O1 0.904256 0.545236 0.757185
O O2 0.806831 0.376947 0.820406
O O3 0.755801 0.493897 0.712397
O O4 0.861751 0.299251 0.710653
O O5 0.375645 0.272713 0.342486
O O6 0.264965 0.197979 0.424012
O O7 0.311583 0.458324 0.417579
O O8 0.428053 0.265392 0.450814
O O9 0.946169 0.786222 0.530530
O O10 0.854676 0.895653 0.622947
O O11 0.003322 0.777165 0.647239
O O12 0.000000 0.000000 0.580354
O O13 0.658962 0.291675 0.732483
O O14 0.498511 0.264725 0.767310
O O15 0.904219 0.811283 0.415303
O O16 0.000000 0.500000 0.960411
O O17 0.910741 0.038310 0.713736
#
# Coordination Sequence:
#
# PCOD8184808 Si02
#       8
#     8   8   8   8   8   8   8   8
#     4  11  20  32  52  82 116 138 174 231 285 332
#     4  10  20  36  56  85 111 145 186 226 282 332
#     4   8  17  35  55  76 103 142 193 219 261 330
#     4  10  19  33  51  78 112 144 176 218 280 340
#     4  10  21  35  58  83 114 144 184 232 278 334
#     4   9  18  37  60  77 107 154 191 226 269 336
#     4  10  19  33  53  80 107 143 180 228 272 325
#     4  10  20  33  55  79 107 146 184 222 273 330
#
# _framework density 19.262982000000001
#
# number of rings (size 3 to 8) (size 9 to 14) (size 15 to 20)
#    0.000    2.250    1.250    3.000    1.750    2.000 
#    2.250    0.625    8.250    3.000    0.000    0.000 
#    0.000    0.000    0.000    0.000    0.000    0.000 
#
# Total GULP energy -396466.414722 kJ/mol
# GULP energy per Si atom -12389.575460 kJ/mol
# Density = 1.921914 g / cm^3
# Si number density = 19.262982 Si / 1000 Ang^3
#
#
#
# Elastic Constant Matrix: (Units=GPa)
#
#
# Indices 1 2 3 4 5 6 
#
# 1 129.3484 25.7882 51.7344 0.0000 0.0000 0.0000
# 2 25.7882 55.4863 23.6594 0.0000 0.0000 0.0000
# 3 51.7344 23.6594 97.4339 0.0000 0.0000 0.0000
# 4 0.0000 0.0000 0.0000 14.2807 0.0000 0.0000
# 5 0.0000 0.0000 0.0000 0.0000 21.5296 0.0000
# 6 0.0000 0.0000 0.0000 0.0000 0.0000 31.9465
#
#
#
# Elastic Compliance Matrix: (Units=1/GPa)
#
#
# Indices 1 2 3 4 5 6 
#
# 1 0.010166 -0.002703 -0.004742 0.000000 0.000000 0.000000
# 2 -0.002703 0.020823 -0.003621 0.000000 0.000000 0.000000
# 3 -0.004742 -0.003621 0.013660 0.000000 0.000000 0.000000
# 4 0.000000 0.000000 0.000000 0.070024 0.000000 0.000000
# 5 0.000000 0.000000 0.000000 0.000000 0.046448 0.000000
# 6 0.000000 0.000000 0.000000 0.000000 0.000000 0.031302
#
#
# Mechanical properties :
#
#
# Convention : Reuss Voigt Hill
#
# Bulk Modulus (GPa) = 44.40913 53.84807 49.12860
# Shear Modulus (GPa) = 22.51625 25.62381 24.07003
#
# Velocity S-wave (km/s) = 3.42261 3.65116 3.53873
# Velocity P-wave (km/s) = 6.22279 6.76679 6.50049
#
# Compressibility (1/GPa) = 0.02251789
#
# Stress axis : x y z
#
# Youngs Moduli (GPa) = 98.36244 48.02424 73.20466
#
# Poissons Ratio (x) = 0.12982 0.34711
# Poissons Ratio (y) = 0.26589 0.26507
# Poissons Ratio (z) = 0.46640 0.17390
#
# Static dielectric constant tensor:
#      x y z
#    x 3.842660 0.000000 0.000000 
#    y 0.000000 3.362030 0.000000 
#    z 0.000000 0.000000 3.562330 
# 
# 
# High freq. dielectric constant tensor:
#      x y z
#    x 1.755610 0.000000 0.000000 
#    y 0.000000 1.725810 0.000000 
#    z 0.000000 0.000000 1.731050 
# 
# From -- ./inp_files/12233.got.cif
#   From: 2010.03.12/outbox.cif.g09.slc.cpg/sg41_7_cif.got.tgz:12233.got - 2010.04.14 01:55:53.
