data_PCOD8184897
_publ_section_title
;
Structure prediction by ZEFSAII (Michael W. Deem and Ramdas Pophale) SiO2 
 PCOD8184897
Probable space group: A B A 2
;
_chemical_formula_sum "Si O2"
_cell_formula_units_Z 64
_cell_length_a 18.292679
_cell_length_b 7.699520
_cell_length_c 24.064068
_cell_angle_alpha 90.000000
_cell_angle_beta 90.000000
_cell_angle_gamma 90.000000
_cell_volume 3389.299995
_symmetry_space_group_name_H-M "A B A 2"
_symmetry_group_IT_number 41
_symmetry_cell_setting 'orthorhombic'
loop_
_space_group_symop_operation_xyz
x,y,z
-x,-y,z
1/2-x,y,1/2+z
1/2+x,-y,1/2+z
x,1/2+y,1/2+z
-x,1/2-y,1/2+z
1/2-x,1/2+y,z
1/2+x,1/2-y,z
loop_
_atom_site_type_symbol
_atom_site_label
_atom_site_fract_x
_atom_site_fract_y
_atom_site_fract_z
Si Si1 0.586664 0.999999 0.755240
Si Si2 0.333750 0.798417 0.447702
Si Si3 0.416490 0.193242 0.053857
Si Si4 0.583508 0.193247 0.053855
Si Si5 0.333751 0.201589 0.447701
Si Si6 0.914243 0.301854 0.335589
Si Si7 0.914243 0.698148 0.335590
Si Si8 0.413201 0.999999 0.631493
O O1 0.613077 0.825873 0.786797
O O2 0.500000 0.000000 0.751393
O O3 0.613076 0.174132 0.786794
O O4 0.620984 0.999991 0.693374
O O5 0.368647 0.694461 0.498426
O O6 0.249999 0.750004 0.441451
O O7 0.373763 0.742996 0.391352
O O8 0.345122 0.000002 0.459979
O O9 0.499999 0.241391 0.038289
O O10 0.385547 0.328509 0.099184
O O11 0.411618 0.999996 0.079738
O O12 0.614454 0.328523 0.099178
O O13 0.631347 0.194456 0.998421
O O14 0.373760 0.257006 0.391349
O O15 0.894585 0.500002 0.318851
O O16 0.999999 0.280684 0.346583
O O17 0.500000 0.000000 0.635884
#
# Coordination Sequence:
#
# PCOD8184897 Si02
#       8
#     8   8   8   8   8   8   8   8
#     4   9  18  32  55  80 106 140 177 220 264 313
#     4  11  22  35  53  81 112 145 177 223 270 323
#     4  10  20  34  55  82 110 142 178 221 269 320
#     4  10  20  34  55  82 110 142 178 221 269 320
#     4  11  22  35  53  81 112 145 177 223 270 323
#     4   9  19  34  53  80 109 139 175 220 269 318
#     4   9  19  34  53  80 109 139 175 220 269 318
#     4   9  18  34  53  80 110 138 177 222 268 313
#
# _framework density 18.882956
#
# number of rings (size 3 to 8) (size 9 to 14) (size 15 to 20)
#    0.000    2.250    1.250    1.500    3.500    2.000 
#    0.000    5.000    0.000    1.500    0.000    0.000 
#    0.000    0.000    0.000    0.000    0.000    0.000 
#
# Total GULP energy -396832.981230 kJ/mol
# GULP energy per Si atom -12401.030663 kJ/mol
# Density = 1.883998 g / cm^3
# Si number density = 18.882956 Si / 1000 Ang^3
#
#
#
# Elastic Constant Matrix: (Units=GPa)
#
#
# Indices 1 2 3 4 5 6 
#
# 1 51.4168 25.4568 41.1153 0.0000 0.0000 0.0000
# 2 25.4568 130.7557 83.5923 0.0000 0.0000 0.0000
# 3 41.1153 83.5923 165.6711 0.0000 0.0000 0.0000
# 4 0.0000 0.0000 0.0000 26.3719 0.0000 0.0000
# 5 0.0000 0.0000 0.0000 0.0000 0.6153 0.0000
# 6 0.0000 0.0000 0.0000 0.0000 0.0000 18.1438
#
#
#
# Elastic Compliance Matrix: (Units=1/GPa)
#
#
# Indices 1 2 3 4 5 6 
#
# 1 0.024413 -0.001298 -0.005403 0.000000 0.000000 0.000000
# 2 -0.001298 0.011359 -0.005409 0.000000 0.000000 0.000000
# 3 -0.005403 -0.005409 0.010106 0.000000 0.000000 0.000000
# 4 0.000000 0.000000 0.000000 0.037919 0.000000 0.000000
# 5 0.000000 0.000000 0.000000 0.000000 1.625207 0.000000
# 6 0.000000 0.000000 0.000000 0.000000 0.000000 0.055115
#
#
# Mechanical properties :
#
#
# Convention : Reuss Voigt Hill
#
# Bulk Modulus (GPa) = 46.17708 72.01914 59.09811
# Shear Modulus (GPa) = 2.78465 22.20483 12.49474
#
# Velocity S-wave (km/s) = 1.21569 3.43289 2.57513
# Velocity P-wave (km/s) = 5.14568 7.34408 6.34088
#
# Compressibility (1/GPa) = 0.02165577
#
# Stress axis : x y z
#
# Youngs Moduli (GPa) = 40.96249 88.03919 98.94903
#
# Poissons Ratio (x) = 0.11432 0.53466
# Poissons Ratio (y) = 0.05319 0.53521
# Poissons Ratio (z) = 0.22134 0.47620
#
# Static dielectric constant tensor:
#      x y z
#    x 3.116340 0.000000 0.000000 
#    y 0.000000 3.694870 0.000000 
#    z 0.000000 0.000000 3.554970 
# 
# 
# High freq. dielectric constant tensor:
#      x y z
#    x 1.697220 0.000000 0.000000 
#    y 0.000000 1.752340 0.000000 
#    z 0.000000 0.000000 1.726540 
# 
# From -- ./inp_files/11721.got.cif
#   From: 2010.03.12/outbox.cif.g09.slc.cpg/sg41_6_cif.got.tgz:11721.got - 2010.04.14 01:55:53.
