data_PCOD8184483
_publ_section_title
;
Structure prediction by ZEFSAII (Michael W. Deem and Ramdas Pophale) SiO2 
 PCOD8184483
Probable space group: A M A 2
;
_chemical_formula_sum "Si O2"
_cell_formula_units_Z 40
_cell_length_a 14.506622
_cell_length_b 14.612165
_cell_length_c 8.625218
_cell_angle_alpha 90.000000
_cell_angle_beta 90.000000
_cell_angle_gamma 90.000000
_cell_volume 1828.314666
_symmetry_space_group_name_H-M "A M A 2"
_symmetry_group_IT_number 40
_symmetry_cell_setting 'orthorhombic'
loop_
_space_group_symop_operation_xyz
x,y,z
-x,-y,z
1/2-x,y,z
1/2+x,-y,z
x,1/2+y,1/2+z
-x,1/2-y,1/2+z
1/2-x,1/2+y,1/2+z
1/2+x,1/2-y,1/2+z
loop_
_atom_site_type_symbol
_atom_site_label
_atom_site_fract_x
_atom_site_fract_y
_atom_site_fract_z
Si Si1 0.250000 0.696285 0.820760
Si Si2 0.902676 0.273220 0.073334
Si Si3 0.750000 0.952880 0.070405
Si Si4 0.750000 0.148457 0.562426
Si Si5 0.075066 0.930024 0.005874
Si Si6 0.444816 0.412014 0.141004
Si Si7 0.750000 0.296797 0.317283
O O1 0.250000 0.597481 0.736953
O O2 0.250000 0.778278 0.699520
O O3 0.156460 0.706796 0.919092
O O4 0.842611 0.307295 0.218144
O O5 0.000461 0.324543 0.074735
O O6 0.928321 0.166903 0.092630
O O7 0.750000 0.878148 0.937501
O O8 0.831567 0.022276 0.048812
O O9 0.658835 0.085644 0.573055
O O10 0.750000 0.198066 0.397378
O O11 0.060315 0.910416 0.825461
O O12 0.000000 0.000000 0.072229
O O13 0.500000 0.500000 0.080271
#
# Coordination Sequence:
#
# PCOD8184483 Si02
#       7
#     4   8   4   4   8   8   4
#     4  10  23  44  73  99 140 182 230 304 346 419
#     4  11  24  46  67 104 142 183 232 300 361 418
#     4  11  23  46  72 101 135 187 240 280 364 430
#     4  11  23  42  70  99 135 181 236 286 352 414
#     4  11  24  42  71  99 136 186 233 285 353 441
#     4  11  25  44  73 100 138 190 237 290 354 431
#     4  10  23  40  71  99 136 184 230 290 356 433
#
# _framework density 21.878073000000001
#
# number of rings (size 3 to 8) (size 9 to 14) (size 15 to 20)
#    0.000    1.200    2.000    4.200    8.400    1.600 
#    7.200    0.000    0.000    0.000    0.000    0.000 
#    0.000    0.000    0.000    0.000    0.000    0.000 
#
# Total GULP energy -248048.954178 kJ/mol
# GULP energy per Si atom -12402.447709 kJ/mol
# Density = 2.182828 g / cm^3
# Si number density = 21.878073 Si / 1000 Ang^3
#
#
#
# Elastic Constant Matrix: (Units=GPa)
#
#
# Indices 1 2 3 4 5 6 
#
# 1 189.1534 76.1269 24.5553 0.0000 0.0000 0.0000
# 2 76.1269 159.0729 21.9768 0.0000 0.0000 0.0000
# 3 24.5553 21.9768 63.8894 0.0000 0.0000 0.0000
# 4 0.0000 0.0000 0.0000 24.8571 0.0000 0.0000
# 5 0.0000 0.0000 0.0000 0.0000 18.5724 0.0000
# 6 0.0000 0.0000 0.0000 0.0000 0.0000 55.2555
#
#
#
# Elastic Compliance Matrix: (Units=1/GPa)
#
#
# Indices 1 2 3 4 5 6 
#
# 1 0.006690 -0.002988 -0.001543 0.000000 0.000000 0.000000
# 2 -0.002988 0.007935 -0.001581 0.000000 0.000000 0.000000
# 3 -0.001543 -0.001581 0.016789 0.000000 0.000000 0.000000
# 4 0.000000 0.000000 0.000000 0.040230 0.000000 0.000000
# 5 0.000000 0.000000 0.000000 0.000000 0.053843 0.000000
# 6 0.000000 0.000000 0.000000 0.000000 0.000000 0.018098
#
#
# Mechanical properties :
#
#
# Convention : Reuss Voigt Hill
#
# Bulk Modulus (GPa) = 52.11388 73.04818 62.58103
# Shear Modulus (GPa) = 30.82506 39.03413 34.92959
#
# Velocity S-wave (km/s) = 3.75767 4.22852 4.00003
# Velocity P-wave (km/s) = 6.53442 7.56979 7.07108
#
# Compressibility (1/GPa) = 0.01918875
#
# Stress axis : x y z
#
# Youngs Moduli (GPa) = 149.48325 126.02507 59.56283
#
# Poissons Ratio (x) = 0.37660 0.09192
# Poissons Ratio (y) = 0.44670 0.09417
# Poissons Ratio (z) = 0.23068 0.19924
#
# Static dielectric constant tensor:
#      x y z
#    x 4.115860 0.000000 0.000000 
#    y 0.000000 4.155850 0.000000 
#    z 0.000000 0.000000 3.939230 
# 
# 
# High freq. dielectric constant tensor:
#      x y z
#    x 1.877000 0.000000 0.000000 
#    y 0.000000 1.871210 0.000000 
#    z 0.000000 0.000000 1.850610 
# 
# From -- ./inp_files/6190.got.cif
#   From: 2010.03.12/outbox.cif.g09.slc.cpg/sg40_4_cif.got.tgz:6190.got - 2010.04.14 01:38:03.
