data_PCOD8184360
_publ_section_title
;
Structure prediction by ZEFSAII (Michael W. Deem and Ramdas Pophale) SiO2 
 PCOD8184360
Probable space group: A M A 2
;
_chemical_formula_sum "Si O2"
_cell_formula_units_Z 64
_cell_length_a 8.795433
_cell_length_b 30.601430
_cell_length_c 11.825000
_cell_angle_alpha 90.000000
_cell_angle_beta 90.000000
_cell_angle_gamma 90.000000
_cell_volume 3182.732182
_symmetry_space_group_name_H-M "A M A 2"
_symmetry_group_IT_number 40
_symmetry_cell_setting 'orthorhombic'
loop_
_space_group_symop_operation_xyz
x,y,z
-x,-y,z
1/2-x,y,z
1/2+x,-y,z
x,1/2+y,1/2+z
-x,1/2-y,1/2+z
1/2-x,1/2+y,1/2+z
1/2+x,1/2-y,1/2+z
loop_
_atom_site_type_symbol
_atom_site_label
_atom_site_fract_x
_atom_site_fract_y
_atom_site_fract_z
Si Si1 0.573610 0.374957 0.687290
Si Si2 0.428946 0.044714 0.786310
Si Si3 0.577009 0.160187 0.546470
Si Si4 0.927475 0.930282 0.536246
Si Si5 0.575315 0.703659 0.812567
Si Si6 0.573091 0.703774 0.283812
Si Si7 0.428463 0.956374 0.310754
Si Si8 0.927630 0.871206 0.923547
O O1 0.750000 0.382255 0.713275
O O2 0.523916 0.328377 0.735509
O O3 0.481636 0.413283 0.746983
O O4 0.538525 0.376606 0.555094
O O5 0.250000 0.041003 0.796559
O O6 0.481508 0.051762 0.657331
O O7 0.487809 0.085221 0.861085
O O8 0.500000 0.000000 0.833837
O O9 0.750000 0.142019 0.548004
O O10 0.459752 0.121089 0.529409
O O11 0.553194 0.193877 0.444779
O O12 0.536451 0.184469 0.661424
O O13 0.750000 0.938271 0.514614
O O14 0.023241 0.955289 0.441769
O O15 0.750000 0.698440 0.775968
O O16 0.523025 0.752629 0.793537
O O17 0.750000 0.714364 0.299765
O O18 0.521415 0.670045 0.379654
O O19 0.250000 0.959600 0.300982
O O20 0.500000 0.000000 0.254685
O O21 0.750000 0.863342 0.898428
#
# Coordination Sequence:
#
# PCOD8184360 Si02
#       8
#     8   8   8   8   8   8   8   8
#     4  11  24  43  66  91 124 163 209 260 311 368
#     4  10  22  39  61  91 123 160 202 249 307 366
#     4  10  22  40  63  91 126 164 203 257 314 365
#     4  11  21  37  64  94 126 162 205 254 311 370
#     4  11  24  42  64  92 127 165 205 254 314 370
#     4  11  24  41  64  95 126 163 211 255 307 369
#     4  12  25  42  64  92 128 164 208 256 310 370
#     4  10  23  44  64  88 125 165 206 257 313 368
#
# _framework density 20.108508
#
# number of rings (size 3 to 8) (size 9 to 14) (size 15 to 20)
#    0.000    1.250    2.500    3.000    1.750    5.000 
#    0.000    1.250    0.000    0.000    0.000    0.000 
#    0.000    0.000    0.000    0.000    0.000    0.000 
#
# Total GULP energy -397002.961713 kJ/mol
# GULP energy per Si atom -12406.342554 kJ/mol
# Density = 2.006274 g / cm^3
# Si number density = 20.108508 Si / 1000 Ang^3
#
#
#
# Elastic Constant Matrix: (Units=GPa)
#
#
# Indices 1 2 3 4 5 6 
#
# 1 88.0133 36.7626 43.8093 0.0000 0.0000 0.0000
# 2 36.7626 130.2766 36.2141 0.0000 0.0000 0.0000
# 3 43.8093 36.2141 96.8891 0.0000 0.0000 0.0000
# 4 0.0000 0.0000 0.0000 76.0947 0.0000 0.0000
# 5 0.0000 0.0000 0.0000 0.0000 17.8003 0.0000
# 6 0.0000 0.0000 0.0000 0.0000 0.0000 41.1726
#
#
#
# Elastic Compliance Matrix: (Units=1/GPa)
#
#
# Indices 1 2 3 4 5 6 
#
# 1 0.015469 -0.002702 -0.005985 0.000000 0.000000 0.000000
# 2 -0.002702 0.009038 -0.002156 0.000000 0.000000 0.000000
# 3 -0.005985 -0.002156 0.013833 0.000000 0.000000 0.000000
# 4 0.000000 0.000000 0.000000 0.013142 0.000000 0.000000
# 5 0.000000 0.000000 0.000000 0.000000 0.056179 0.000000
# 6 0.000000 0.000000 0.000000 0.000000 0.000000 0.024288
#
#
# Mechanical properties :
#
#
# Convention : Reuss Voigt Hill
#
# Bulk Modulus (GPa) = 60.04390 60.97235 60.50812
# Shear Modulus (GPa) = 31.40980 40.23972 35.82476
#
# Velocity S-wave (km/s) = 3.95652 4.47825 4.22545
# Velocity P-wave (km/s) = 7.12719 7.55825 7.34588
#
# Compressibility (1/GPa) = 0.01665448
#
# Stress axis : x y z
#
# Youngs Moduli (GPa) = 64.64383 110.64643 72.28985
#
# Poissons Ratio (x) = 0.29893 0.43264
# Poissons Ratio (y) = 0.17464 0.15589
# Poissons Ratio (z) = 0.38688 0.23861
#
# Static dielectric constant tensor:
#      x y z
#    x 3.694850 0.000000 0.000000 
#    y 0.000000 2.839510 0.000000 
#    z 0.000000 0.000000 3.805780 
# 
# 
# High freq. dielectric constant tensor:
#      x y z
#    x 1.788990 0.000000 0.000000 
#    y 0.000000 1.797970 0.000000 
#    z 0.000000 0.000000 1.789340 
# 
# From -- ./inp_files/10562.got.cif
#   From: 2010.03.12/outbox.cif.g09.slc.cpg/sg40_6_cif.got.tgz:10562.got - 2010.04.14 01:38:03.
