data_PCOD8184421
_publ_section_title
;
Structure prediction by ZEFSAII (Michael W. Deem and Ramdas Pophale) SiO2 
 PCOD8184421
Probable space group: A M A 2
;
_chemical_formula_sum "Si O2"
_cell_formula_units_Z 48
_cell_length_a 14.276779
_cell_length_b 29.367118
_cell_length_c 5.240392
_cell_angle_alpha 90.000000
_cell_angle_beta 90.000000
_cell_angle_gamma 90.000000
_cell_volume 2197.127906
_symmetry_space_group_name_H-M "A M A 2"
_symmetry_group_IT_number 40
_symmetry_cell_setting 'orthorhombic'
loop_
_space_group_symop_operation_xyz
x,y,z
-x,-y,z
1/2-x,y,z
1/2+x,-y,z
x,1/2+y,1/2+z
-x,1/2-y,1/2+z
1/2-x,1/2+y,1/2+z
1/2+x,1/2-y,1/2+z
loop_
_atom_site_type_symbol
_atom_site_label
_atom_site_fract_x
_atom_site_fract_y
_atom_site_fract_z
Si Si1 0.643823 0.082583 0.125000
Si Si2 0.139275 0.571563 0.197396
Si Si3 0.978921 0.223361 0.146197
Si Si4 0.360125 0.518496 0.706101
Si Si5 0.997313 0.641922 0.339160
Si Si6 0.647078 0.169078 0.454855
O O1 0.750000 0.077932 0.010799
O O2 0.645591 0.116909 0.361600
O O3 0.603346 0.033477 0.211006
O O4 0.572538 0.101207 0.915355
O O5 0.250000 0.580303 0.184825
O O6 0.109777 0.542881 0.445687
O O7 0.088711 0.620612 0.207261
O O8 0.099533 0.545644 0.948877
O O9 0.874719 0.205942 0.230354
O O10 0.029417 0.244374 0.396812
O O11 0.032129 0.175980 0.065141
O O12 0.250000 0.517487 0.736372
O O13 0.936496 0.674989 0.156712
O O14 0.750000 0.180211 0.568073
#
# Coordination Sequence:
#
# PCOD8184421 Si02
#       6
#     8   8   8   8   8   8
#     4   9  20  37  59  93 129 171 217 268 329 381
#     4  10  23  41  61  88 128 178 222 265 317 372
#     4  11  23  45  69  93 127 167 206 266 330 400
#     4   9  20  39  60  84 127 174 221 272 312 369
#     4  11  23  39  68  95 132 172 214 276 325 394
#     4  10  22  41  68  99 134 169 211 268 336 394
#
# _framework density 21.846703000000002
#
# number of rings (size 3 to 8) (size 9 to 14) (size 15 to 20)
#    0.000    2.000    1.667    0.500    7.000    1.333 
#    0.000    1.667    0.000    1.000    0.000    0.000 
#    0.000    0.000    0.000    0.000    0.000    0.000 
#
# Total GULP energy -297391.094397 kJ/mol
# GULP energy per Si atom -12391.295600 kJ/mol
# Density = 2.179698 g / cm^3
# Si number density = 21.846703 Si / 1000 Ang^3
#
#
#
# Elastic Constant Matrix: (Units=GPa)
#
#
# Indices 1 2 3 4 5 6 
#
# 1 74.0849 51.4335 39.5293 0.0000 0.0000 0.0000
# 2 51.4335 129.6749 58.6928 0.0000 0.0000 0.0000
# 3 39.5293 58.6928 136.9058 0.0000 0.0000 0.0000
# 4 0.0000 0.0000 0.0000 44.4120 0.0000 0.0000
# 5 0.0000 0.0000 0.0000 0.0000 24.2836 0.0000
# 6 0.0000 0.0000 0.0000 0.0000 0.0000 23.0885
#
#
#
# Elastic Compliance Matrix: (Units=1/GPa)
#
#
# Indices 1 2 3 4 5 6 
#
# 1 0.019496 -0.006433 -0.002871 0.000000 0.000000 0.000000
# 2 -0.006433 0.011691 -0.003155 0.000000 0.000000 0.000000
# 3 -0.002871 -0.003155 0.009486 0.000000 0.000000 0.000000
# 4 0.000000 0.000000 0.000000 0.022516 0.000000 0.000000
# 5 0.000000 0.000000 0.000000 0.000000 0.041180 0.000000
# 6 0.000000 0.000000 0.000000 0.000000 0.000000 0.043312
#
#
# Mechanical properties :
#
#
# Convention : Reuss Voigt Hill
#
# Bulk Modulus (GPa) = 63.47234 71.10852 67.29043
# Shear Modulus (GPa) = 28.11339 31.09082 29.60210
#
# Velocity S-wave (km/s) = 3.59116 3.77654 3.68501
# Velocity P-wave (km/s) = 6.80528 7.18581 6.99813
#
# Compressibility (1/GPa) = 0.01575489
#
# Stress axis : x y z
#
# Youngs Moduli (GPa) = 51.29151 85.53518 105.42196
#
# Poissons Ratio (x) = 0.55028 0.30269
# Poissons Ratio (y) = 0.32998 0.33256
# Poissons Ratio (z) = 0.14727 0.26982
#
# Static dielectric constant tensor:
#      x y z
#    x 3.766460 0.000000 0.000000 
#    y 0.000000 4.089020 0.000000 
#    z 0.000000 0.000000 4.079740 
# 
# 
# High freq. dielectric constant tensor:
#      x y z
#    x 1.834850 0.000000 0.000000 
#    y 0.000000 1.862260 0.000000 
#    z 0.000000 0.000000 1.860970 
# 
# From -- ./inp_files/1350.got.cif
#   From: 2010.03.12/outbox.cif.g09.slc.cpg/sg40_1_cif.got.tgz:1350.got - 2010.04.14 01:38:03.
