data_PCOD8184855
_publ_section_title
;
Structure prediction by ZEFSAII (Michael W. Deem and Ramdas Pophale) SiO2 
 PCOD8184855
Probable space group: A B A 2
;
_chemical_formula_sum "Si O2"
_cell_formula_units_Z 56
_cell_length_a 8.185436
_cell_length_b 15.322181
_cell_length_c 19.338350
_cell_angle_alpha 90.000000
_cell_angle_beta 90.000000
_cell_angle_gamma 90.000000
_cell_volume 2425.391335
_symmetry_space_group_name_H-M "A B A 2"
_symmetry_group_IT_number 41
_symmetry_cell_setting 'orthorhombic'
loop_
_space_group_symop_operation_xyz
x,y,z
-x,-y,z
1/2-x,y,1/2+z
1/2+x,-y,1/2+z
x,1/2+y,1/2+z
-x,1/2-y,1/2+z
1/2-x,1/2+y,z
1/2+x,1/2-y,z
loop_
_atom_site_type_symbol
_atom_site_label
_atom_site_fract_x
_atom_site_fract_y
_atom_site_fract_z
Si Si1 0.050628 0.310898 0.664390
Si Si2 0.323965 0.135635 0.462943
Si Si3 0.166573 0.810999 0.014399
Si Si4 0.813998 0.017326 0.557165
Si Si5 0.664068 0.462612 0.194332
Si Si6 0.840224 0.200169 0.754961
Si Si7 0.848072 0.868380 0.807737
O O1 0.118842 0.280304 0.591176
O O2 0.194977 0.351351 0.714743
O O3 0.894927 0.373787 0.656368
O O4 0.980375 0.223930 0.699101
O O5 0.514546 0.149266 0.474331
O O6 0.235909 0.228351 0.474091
O O7 0.298078 0.102724 0.384621
O O8 0.258281 0.060518 0.512117
O O9 0.297641 0.889753 0.018738
O O10 0.724498 0.024666 0.631803
O O11 0.000000 0.000000 0.573081
O O12 0.500000 0.500000 0.230089
O O13 0.798564 0.444144 0.253135
O O14 0.759459 0.281911 0.793586
O O15 0.952753 0.143063 0.806951
#
# Coordination Sequence:
#
# PCOD8184855 Si02
#       7
#     8   8   8   8   8   8   8
#     4  10  19  36  64  95 130 167 227 280 344 389
#     4  12  25  45  70 105 141 192 230 282 360 420
#     4  12  24  43  73 100 142 181 231 292 345 417
#     4  12  27  46  70 104 139 180 243 297 351 416
#     4  11  22  43  64  94 136 177 226 295 351 400
#     4   9  20  37  62  97 132 171 223 281 330 413
#     4  10  23  40  66  97 140 181 228 278 346 426
#
# _framework density 23.089058000000001
#
# number of rings (size 3 to 8) (size 9 to 14) (size 15 to 20)
#    0.000    1.143    2.857    3.000    6.000    0.571 
#    0.000    8.571    0.000    0.000    0.000    0.000 
#    0.000    0.000    0.000    0.000    0.000    0.000 
#
# Total GULP energy -347109.076727 kJ/mol
# GULP energy per Si atom -12396.752740 kJ/mol
# Density = 2.303651 g / cm^3
# Si number density = 23.089058 Si / 1000 Ang^3
#
#
#
# Elastic Constant Matrix: (Units=GPa)
#
#
# Indices 1 2 3 4 5 6 
#
# 1 95.4158 -4.2880 26.3376 0.0000 0.0000 0.0000
# 2 -4.2880 58.1351 21.9533 0.0000 0.0000 0.0000
# 3 26.3376 21.9533 125.2906 0.0000 0.0000 0.0000
# 4 0.0000 0.0000 0.0000 20.3922 0.0000 0.0000
# 5 0.0000 0.0000 0.0000 0.0000 29.5543 0.0000
# 6 0.0000 0.0000 0.0000 0.0000 0.0000 39.0388
#
#
#
# Elastic Compliance Matrix: (Units=1/GPa)
#
#
# Indices 1 2 3 4 5 6 
#
# 1 0.011310 0.001855 -0.002702 0.000000 0.000000 0.000000
# 2 0.001855 0.018724 -0.003671 0.000000 0.000000 0.000000
# 3 -0.002702 -0.003671 0.009193 0.000000 0.000000 0.000000
# 4 0.000000 0.000000 0.000000 0.049038 0.000000 0.000000
# 5 0.000000 0.000000 0.000000 0.000000 0.033836 0.000000
# 6 0.000000 0.000000 0.000000 0.000000 0.000000 0.025616
#
#
# Mechanical properties :
#
#
# Convention : Reuss Voigt Hill
#
# Bulk Modulus (GPa) = 33.12376 40.76083 36.94229
# Shear Modulus (GPa) = 29.97300 33.45297 31.71298
#
# Velocity S-wave (km/s) = 3.60689 3.81053 3.71011
# Velocity P-wave (km/s) = 5.63236 6.08705 5.86411
#
# Compressibility (1/GPa) = 0.03018981
#
# Stress axis : x y z
#
# Youngs Moduli (GPa) = 88.41936 53.40659 108.78184
#
# Poissons Ratio (x) = -0.09905 0.29397
# Poissons Ratio (y) = -0.16399 0.39931
# Poissons Ratio (z) = 0.23895 0.19604
#
# Static dielectric constant tensor:
#      x y z
#    x 4.402850 0.000000 0.000000 
#    y 0.000000 4.102070 0.000000 
#    z 0.000000 0.000000 4.103460 
# 
# 
# High freq. dielectric constant tensor:
#      x y z
#    x 1.924210 0.000000 0.000000 
#    y 0.000000 1.907990 0.000000 
#    z 0.000000 0.000000 1.901170 
# 
# From -- ./inp_files/11206.got.cif
#   From: 2010.03.12/outbox.cif.g09.slc.cpg/sg41_6_cif.got.tgz:11206.got - 2010.04.14 01:55:53.
