data_PCOD8184317
_publ_section_title
;
Structure prediction by ZEFSAII (Michael W. Deem and Ramdas Pophale) SiO2 
 PCOD8184317
Probable space group: A M A 2
;
_chemical_formula_sum "Si O2"
_cell_formula_units_Z 36
_cell_length_a 23.848240
_cell_length_b 5.395247
_cell_length_c 13.561891
_cell_angle_alpha 90.000000
_cell_angle_beta 90.000000
_cell_angle_gamma 90.000000
_cell_volume 1744.969800
_symmetry_space_group_name_H-M "A M A 2"
_symmetry_group_IT_number 40
_symmetry_cell_setting 'orthorhombic'
loop_
_space_group_symop_operation_xyz
x,y,z
-x,-y,z
1/2-x,y,z
1/2+x,-y,z
x,1/2+y,1/2+z
-x,1/2-y,1/2+z
1/2-x,1/2+y,1/2+z
1/2+x,1/2-y,1/2+z
loop_
_atom_site_type_symbol
_atom_site_label
_atom_site_fract_x
_atom_site_fract_y
_atom_site_fract_z
Si Si1 0.946067 0.167884 0.903760
Si Si2 0.353367 0.472696 0.536223
Si Si3 0.000000 0.500000 0.060860
Si Si4 0.587899 0.264157 0.691283
Si Si5 0.188003 0.465714 0.101815
O O1 0.929499 0.311155 0.803701
O O2 0.000000 0.000000 0.882956
O O3 0.955674 0.364876 0.990193
O O4 0.893558 0.005670 0.940670
O O5 0.389859 0.484391 0.638944
O O6 0.319119 0.215936 0.537172
O O7 0.314752 0.720442 0.531213
O O8 0.033264 0.312371 0.129685
O O9 0.638383 0.058394 0.683609
O O10 0.250000 0.473986 0.151014
#
# Coordination Sequence:
#
# PCOD8184317 Si02
#       5
#     8   8   4   8   8
#     4  12  22  38  66  95 133 175 211 263 330 390
#     4  10  22  42  64  94 131 161 223 262 320 386
#     4  12  22  40  58 100 130 170 214 264 320 396
#     4  10  24  39  64  94 133 169 214 265 323 385
#     4  10  21  44  69  89 130 173 211 275 329 371
#
# _framework density 20.630728000000001
#
# number of rings (size 3 to 8) (size 9 to 14) (size 15 to 20)
#    1.333    0.000    5.556    0.667    0.000    3.556 
#    0.000    2.222    0.000    0.000    0.000    0.000 
#    0.000    0.000    0.000    0.000    0.000    0.000 
#
# Total GULP energy -222997.606366 kJ/mol
# GULP energy per Si atom -12388.755909 kJ/mol
# Density = 2.058377 g / cm^3
# Si number density = 20.630728 Si / 1000 Ang^3
#
#
#
# Elastic Constant Matrix: (Units=GPa)
#
#
# Indices 1 2 3 4 5 6 
#
# 1 100.0917 16.7129 31.9254 0.0000 0.0000 0.0000
# 2 16.7129 108.7570 19.7860 0.0000 0.0000 0.0000
# 3 31.9254 19.7860 118.7487 0.0000 0.0000 0.0000
# 4 0.0000 0.0000 0.0000 15.7245 0.0000 0.0000
# 5 0.0000 0.0000 0.0000 0.0000 13.1510 0.0000
# 6 0.0000 0.0000 0.0000 0.0000 0.0000 22.6733
#
#
#
# Elastic Compliance Matrix: (Units=1/GPa)
#
#
# Indices 1 2 3 4 5 6 
#
# 1 0.011077 -0.001197 -0.002779 0.000000 0.000000 0.000000
# 2 -0.001197 0.009612 -0.001280 0.000000 0.000000 0.000000
# 3 -0.002779 -0.001280 0.009381 0.000000 0.000000 0.000000
# 4 0.000000 0.000000 0.000000 0.063595 0.000000 0.000000
# 5 0.000000 0.000000 0.000000 0.000000 0.076040 0.000000
# 6 0.000000 0.000000 0.000000 0.000000 0.000000 0.044105
#
#
# Mechanical properties :
#
#
# Convention : Reuss Voigt Hill
#
# Bulk Modulus (GPa) = 51.12546 51.60511 51.36529
# Shear Modulus (GPa) = 21.66003 27.58795 24.62399
#
# Velocity S-wave (km/s) = 3.24372 3.66078 3.45854
# Velocity P-wave (km/s) = 6.23410 6.55259 6.39533
#
# Compressibility (1/GPa) = 0.01955972
#
# Stress axis : x y z
#
# Youngs Moduli (GPa) = 90.27768 104.04164 106.59385
#
# Poissons Ratio (x) = 0.12451 0.29618
# Poissons Ratio (y) = 0.10804 0.13641
# Poissons Ratio (z) = 0.25085 0.13315
#
# Static dielectric constant tensor:
#      x y z
#    x 3.783940 0.000000 0.000000 
#    y 0.000000 3.587890 0.000000 
#    z 0.000000 0.000000 3.362280 
# 
# 
# High freq. dielectric constant tensor:
#      x y z
#    x 1.811760 0.000000 0.000000 
#    y 0.000000 1.802380 0.000000 
#    z 0.000000 0.000000 1.769600 
# 
# From -- ./inp_files/18342.got.cif
#   From: 2010.03.12/outbox.cif.g09.slc.cpg/sg40_10_cif.got.tgz:18342.got - 2010.04.14 01:38:03.
