data_PCOD8184538
_publ_section_title
;
Structure prediction by ZEFSAII (Michael W. Deem and Ramdas Pophale) SiO2 
 PCOD8184538
Probable space group: A M A 2
;
_chemical_formula_sum "Si O2"
_cell_formula_units_Z 48
_cell_length_a 15.785125
_cell_length_b 9.763509
_cell_length_c 15.071231
_cell_angle_alpha 90.000000
_cell_angle_beta 90.000000
_cell_angle_gamma 90.000000
_cell_volume 2322.751144
_symmetry_space_group_name_H-M "A M A 2"
_symmetry_group_IT_number 40
_symmetry_cell_setting 'orthorhombic'
loop_
_space_group_symop_operation_xyz
x,y,z
-x,-y,z
1/2-x,y,z
1/2+x,-y,z
x,1/2+y,1/2+z
-x,1/2-y,1/2+z
1/2-x,1/2+y,1/2+z
1/2+x,1/2-y,1/2+z
loop_
_atom_site_type_symbol
_atom_site_label
_atom_site_fract_x
_atom_site_fract_y
_atom_site_fract_z
Si Si1 0.039403 0.854979 0.727030
Si Si2 0.075162 0.397808 0.717675
Si Si3 0.151937 0.788285 0.893705
Si Si4 0.400369 0.488480 0.910238
Si Si5 0.152677 0.486189 0.544765
Si Si6 0.151545 0.292789 0.062930
O O1 0.099707 0.800953 0.804055
O O2 0.094812 0.864014 0.638037
O O3 0.959092 0.755843 0.719464
O O4 0.000000 0.000000 0.750856
O O5 0.118799 0.439267 0.810147
O O6 0.143010 0.411209 0.639212
O O7 0.000000 0.500000 0.693443
O O8 0.250000 0.819258 0.873857
O O9 0.142495 0.634141 0.929863
O O10 0.112630 0.893036 0.966550
O O11 0.500000 0.500000 0.927900
O O12 0.357443 0.377683 0.973230
O O13 0.250000 0.499068 0.521686
O O14 0.114550 0.639739 0.546471
O O15 0.250000 0.288685 0.092742
#
# Coordination Sequence:
#
# PCOD8184538 Si02
#       6
#     8   8   8   8   8   8
#     4  12  26  42  65  96 127 169 214 270 321 376
#     4  11  22  43  64  92 122 164 215 254 319 381
#     4  11  24  44  67  94 131 172 213 262 325 386
#     4  11  23  41  65  98 127 165 215 263 319 381
#     4  10  24  42  65  92 125 169 211 260 317 381
#     4  11  24  43  65  93 128 168 214 263 321 381
#
# _framework density 20.665150000000001
#
# number of rings (size 3 to 8) (size 9 to 14) (size 15 to 20)
#    0.000    1.000    5.000    1.500    7.000    3.333 
#    0.000    0.833    0.000    0.000    0.000    0.000 
#    0.000    0.000    0.000    0.000    0.000    0.000 
#
# Total GULP energy -297699.652379 kJ/mol
# GULP energy per Si atom -12404.152182 kJ/mol
# Density = 2.061811 g / cm^3
# Si number density = 20.665150 Si / 1000 Ang^3
#
#
#
# Elastic Constant Matrix: (Units=GPa)
#
#
# Indices 1 2 3 4 5 6 
#
# 1 39.7715 24.3519 15.8532 0.0000 0.0000 0.0000
# 2 24.3519 140.7918 37.6439 0.0000 0.0000 0.0000
# 3 15.8532 37.6439 108.3631 0.0000 0.0000 0.0000
# 4 0.0000 0.0000 0.0000 37.9641 0.0000 0.0000
# 5 0.0000 0.0000 0.0000 0.0000 30.0842 0.0000
# 6 0.0000 0.0000 0.0000 0.0000 0.0000 31.6829
#
#
#
# Elastic Compliance Matrix: (Units=1/GPa)
#
#
# Indices 1 2 3 4 5 6 
#
# 1 0.028842 -0.004256 -0.002741 0.000000 0.000000 0.000000
# 2 -0.004256 0.008458 -0.002316 0.000000 0.000000 0.000000
# 3 -0.002741 -0.002316 0.010434 0.000000 0.000000 0.000000
# 4 0.000000 0.000000 0.000000 0.026341 0.000000 0.000000
# 5 0.000000 0.000000 0.000000 0.000000 0.033240 0.000000
# 6 0.000000 0.000000 0.000000 0.000000 0.000000 0.031563
#
#
# Mechanical properties :
#
#
# Convention : Reuss Voigt Hill
#
# Bulk Modulus (GPa) = 34.35392 49.40271 41.87832
# Shear Modulus (GPa) = 29.90343 34.01804 31.96074
#
# Velocity S-wave (km/s) = 3.80813 4.06169 3.93695
# Velocity P-wave (km/s) = 5.99967 6.77898 6.40119
#
# Compressibility (1/GPa) = 0.02910876
#
# Stress axis : x y z
#
# Youngs Moduli (GPa) = 34.67160 118.23280 95.84378
#
# Poissons Ratio (x) = 0.50317 0.26272
# Poissons Ratio (y) = 0.14755 0.22193
# Poissons Ratio (z) = 0.09504 0.27377
#
# Static dielectric constant tensor:
#      x y z
#    x 3.694280 0.000000 0.000000 
#    y 0.000000 3.996300 0.000000 
#    z 0.000000 0.000000 3.786030 
# 
# 
# High freq. dielectric constant tensor:
#      x y z
#    x 1.799510 0.000000 0.000000 
#    y 0.000000 1.820330 0.000000 
#    z 0.000000 0.000000 1.816240 
# 
# From -- ./inp_files/17627.got.cif
#   From: 2010.03.12/outbox.cif.g09.slc.cpg/sg40_9_cif.got.tgz:17627.got - 2010.04.14 01:38:03.
