data_PCOD8184397
_publ_section_title
;
Structure prediction by ZEFSAII (Michael W. Deem and Ramdas Pophale) SiO2 
 PCOD8184397
Probable space group: A M A 2
;
_chemical_formula_sum "Si O2"
_cell_formula_units_Z 36
_cell_length_a 17.392279
_cell_length_b 16.380730
_cell_length_c 5.048996
_cell_angle_alpha 90.000000
_cell_angle_beta 90.000000
_cell_angle_gamma 90.000000
_cell_volume 1438.450005
_symmetry_space_group_name_H-M "A M A 2"
_symmetry_group_IT_number 40
_symmetry_cell_setting 'orthorhombic'
loop_
_space_group_symop_operation_xyz
x,y,z
-x,-y,z
1/2-x,y,z
1/2+x,-y,z
x,1/2+y,1/2+z
-x,1/2-y,1/2+z
1/2-x,1/2+y,1/2+z
1/2+x,1/2-y,1/2+z
loop_
_atom_site_type_symbol
_atom_site_label
_atom_site_fract_x
_atom_site_fract_y
_atom_site_fract_z
Si Si1 0.750000 0.899436 0.692171
Si Si2 0.388943 0.875072 0.186673
Si Si3 0.750000 0.007929 0.188970
Si Si4 0.413926 0.146392 0.803321
Si Si5 0.427329 0.280639 0.184188
Si Si6 0.000000 0.000000 0.987221
O O1 0.670497 0.846832 0.664205
O O2 0.750000 0.973335 0.485418
O O3 0.750000 0.931973 0.991566
O O4 0.321071 0.935623 0.127028
O O5 0.381424 0.836241 0.473883
O O6 0.392364 0.802766 0.968626
O O7 0.464850 0.930115 0.170261
O O8 0.480502 0.199385 0.651278
O O9 0.437523 0.050067 0.809907
O O10 0.411642 0.186393 0.101547
#
# Coordination Sequence:
#
# PCOD8184397 Si02
#       6
#     4   8   4   8   8   4
#     4  12  28  44  74 110 150 187 251 322 375 437
#     4  11  25  44  72 100 144 192 238 311 363 447
#     4  12  26  46  68 112 146 187 253 312 379 441
#     4  11  25  48  73 112 146 197 247 311 372 449
#     4  11  26  45  73 105 147 192 250 296 376 456
#     4  10  22  40  74  98 138 190 242 294 364 430
#
# _framework density 25.026937
#
# number of rings (size 3 to 8) (size 9 to 14) (size 15 to 20)
#    0.000    0.889    2.222    4.000    6.222    6.222 
#    0.000    0.000    0.000    1.333    0.000    0.000 
#    0.000    0.000    0.000    0.000    0.000    0.000 
#
# Total GULP energy -223103.923485 kJ/mol
# GULP energy per Si atom -12394.662416 kJ/mol
# Density = 2.496997 g / cm^3
# Si number density = 25.026937 Si / 1000 Ang^3
#
#
#
# Elastic Constant Matrix: (Units=GPa)
#
#
# Indices 1 2 3 4 5 6 
#
# 1 129.8224 27.5334 14.7325 0.0000 0.0000 0.0000
# 2 27.5334 113.7940 20.5850 0.0000 0.0000 0.0000
# 3 14.7325 20.5850 71.8519 0.0000 0.0000 0.0000
# 4 0.0000 0.0000 0.0000 41.8621 0.0000 0.0000
# 5 0.0000 0.0000 0.0000 0.0000 33.9485 0.0000
# 6 0.0000 0.0000 0.0000 0.0000 0.0000 40.7123
#
#
#
# Elastic Compliance Matrix: (Units=1/GPa)
#
#
# Indices 1 2 3 4 5 6 
#
# 1 0.008213 -0.001774 -0.001176 0.000000 0.000000 0.000000
# 2 -0.001774 0.009652 -0.002401 0.000000 0.000000 0.000000
# 3 -0.001176 -0.002401 0.014846 0.000000 0.000000 0.000000
# 4 0.000000 0.000000 0.000000 0.023888 0.000000 0.000000
# 5 0.000000 0.000000 0.000000 0.000000 0.029456 0.000000
# 6 0.000000 0.000000 0.000000 0.000000 0.000000 0.024563
#
#
# Mechanical properties :
#
#
# Convention : Reuss Voigt Hill
#
# Bulk Modulus (GPa) = 45.43779 49.01889 47.22834
# Shear Modulus (GPa) = 38.86332 40.14574 39.50453
#
# Velocity S-wave (km/s) = 3.94491 4.00947 3.97732
# Velocity P-wave (km/s) = 6.24057 6.40807 6.32488
#
# Compressibility (1/GPa) = 0.02200811
#
# Stress axis : x y z
#
# Youngs Moduli (GPa) = 121.76459 103.61051 67.35599
#
# Poissons Ratio (x) = 0.18385 0.07918
# Poissons Ratio (y) = 0.21606 0.16174
# Poissons Ratio (z) = 0.14314 0.24880
#
# Static dielectric constant tensor:
#      x y z
#    x 4.695870 0.000000 0.000000 
#    y 0.000000 4.637670 0.000000 
#    z 0.000000 0.000000 4.266650 
# 
# 
# High freq. dielectric constant tensor:
#      x y z
#    x 1.994790 0.000000 0.000000 
#    y 0.000000 2.012530 0.000000 
#    z 0.000000 0.000000 1.985360 
# 
# From -- ./inp_files/1765.got.cif
#   From: 2010.03.12/outbox.cif.g09.slc.cpg/sg40_1_cif.got.tgz:1765.got - 2010.04.14 01:38:03.
