data_PCOD8184052
_publ_section_title
;
Structure prediction by ZEFSAII (Michael W. Deem and Ramdas Pophale) SiO2 
 PCOD8184052
Probable space group: A M A 2
;
_chemical_formula_sum "Si O2"
_cell_formula_units_Z 64
_cell_length_a 8.814720
_cell_length_b 23.442206
_cell_length_c 18.779469
_cell_angle_alpha 90.000000
_cell_angle_beta 90.000000
_cell_angle_gamma 90.000000
_cell_volume 3880.523409
_symmetry_space_group_name_H-M "A M A 2"
_symmetry_group_IT_number 40
_symmetry_cell_setting 'orthorhombic'
loop_
_space_group_symop_operation_xyz
x,y,z
-x,-y,z
1/2-x,y,z
1/2+x,-y,z
x,1/2+y,1/2+z
-x,1/2-y,1/2+z
1/2-x,1/2+y,1/2+z
1/2+x,1/2-y,1/2+z
loop_
_atom_site_type_symbol
_atom_site_label
_atom_site_fract_x
_atom_site_fract_y
_atom_site_fract_z
Si Si1 0.072536 0.229946 0.797450
Si Si2 0.926571 0.941224 0.296041
Si Si3 0.428882 0.939589 0.012464
Si Si4 0.424436 0.336509 0.417615
Si Si5 0.430242 0.384848 0.659180
Si Si6 0.575299 0.830461 0.379542
Si Si7 0.427604 0.739555 0.657708
Si Si8 0.577588 0.269674 0.018272
O O1 0.250000 0.227913 0.782945
O O2 0.026334 0.178295 0.849452
O O3 0.030006 0.291022 0.830938
O O4 0.984633 0.221929 0.723207
O O5 0.750000 0.950034 0.280381
O O6 0.953942 0.895984 0.359504
O O7 0.004954 0.920788 0.224141
O O8 0.000000 0.000000 0.322332
O O9 0.250000 0.945643 0.015914
O O10 0.488881 0.915572 0.087642
O O11 0.500000 0.000000 0.994491
O O12 0.477442 0.897017 0.949022
O O13 0.250000 0.337402 0.393148
O O14 0.448133 0.290389 0.479526
O O15 0.250000 0.383356 0.663590
O O16 0.488511 0.320679 0.660383
O O17 0.750000 0.812314 0.364825
O O18 0.537985 0.820730 0.462999
O O19 0.250000 0.728832 0.663500
O O20 0.466161 0.773543 0.585393
O O21 0.750000 0.274652 0.045746
#
# Coordination Sequence:
#
# PCOD8184052 Si02
#       8
#     8   8   8   8   8   8   8   8
#     4  11  21  32  51  75  99 129 168 210 252 300
#     4  11  22  35  51  73 101 139 176 211 250 294
#     4  10  21  35  51  71 100 137 174 210 250 293
#     4   9  18  35  52  70 100 134 165 206 257 299
#     4  11  21  35  50  70 100 138 178 214 247 290
#     4   9  19  35  52  71  99 133 167 206 255 299
#     4  12  22  32  49  75 104 135 167 205 255 309
#     4   9  17  33  53  71  97 130 166 207 252 303
#
# _framework density 16.492621
#
# number of rings (size 3 to 8) (size 9 to 14) (size 15 to 20)
#    0.000    1.750    2.500    4.125    0.000    5.000 
#    0.000    0.000    0.000    0.000    0.000    0.875 
#    0.000    4.000    0.000    0.000    0.000    0.000 
#
# Total GULP energy -396873.416007 kJ/mol
# GULP energy per Si atom -12402.294250 kJ/mol
# Density = 1.645508 g / cm^3
# Si number density = 16.492621 Si / 1000 Ang^3
#
#
#
# Elastic Constant Matrix: (Units=GPa)
#
#
# Indices 1 2 3 4 5 6 
#
# 1 77.0924 35.2870 39.2637 0.0000 0.0000 0.0000
# 2 35.2870 98.6640 57.1303 0.0000 0.0000 0.0000
# 3 39.2637 57.1303 99.6231 0.0000 0.0000 0.0000
# 4 0.0000 0.0000 0.0000 23.6331 0.0000 0.0000
# 5 0.0000 0.0000 0.0000 0.0000 26.0225 0.0000
# 6 0.0000 0.0000 0.0000 0.0000 0.0000 23.1552
#
#
#
# Elastic Compliance Matrix: (Units=1/GPa)
#
#
# Indices 1 2 3 4 5 6 
#
# 1 0.016908 -0.003277 -0.004785 0.000000 0.000000 0.000000
# 2 -0.003277 0.015809 -0.007775 0.000000 0.000000 0.000000
# 3 -0.004785 -0.007775 0.016382 0.000000 0.000000 0.000000
# 4 0.000000 0.000000 0.000000 0.042313 0.000000 0.000000
# 5 0.000000 0.000000 0.000000 0.000000 0.038428 0.000000
# 6 0.000000 0.000000 0.000000 0.000000 0.000000 0.043187
#
#
# Mechanical properties :
#
#
# Convention : Reuss Voigt Hill
#
# Bulk Modulus (GPa) = 57.38123 59.86017 58.62070
# Shear Modulus (GPa) = 23.75194 24.14206 23.94700
#
# Velocity S-wave (km/s) = 3.79906 3.83013 3.81462
# Velocity P-wave (km/s) = 7.35604 7.47889 7.41772
#
# Compressibility (1/GPa) = 0.01742730
#
# Stress axis : x y z
#
# Youngs Moduli (GPa) = 59.14294 63.25501 61.04224
#
# Poissons Ratio (x) = 0.20726 0.29208
# Poissons Ratio (y) = 0.19378 0.47458
# Poissons Ratio (z) = 0.28299 0.49178
#
# Static dielectric constant tensor:
#      x y z
#    x 3.105070 0.000000 0.000000 
#    y 0.000000 3.099170 0.000000 
#    z 0.000000 0.000000 3.250850 
# 
# 
# High freq. dielectric constant tensor:
#      x y z
#    x 1.641050 0.000000 0.000000 
#    y 0.000000 1.610120 0.000000 
#    z 0.000000 0.000000 1.631010 
# 
# From -- ./inp_files/19699.got.cif
#   From: 2010.03.12/outbox.cif.g09.slc.cpg/sg40_10_cif.got.tgz:19699.got - 2010.04.14 01:38:03.
