data_PCOD8184095
_publ_section_title
;
Structure prediction by ZEFSAII (Michael W. Deem and Ramdas Pophale) SiO2 
 PCOD8184095
Probable space group: A M A 2
;
_chemical_formula_sum "Si O2"
_cell_formula_units_Z 52
_cell_length_a 12.818983
_cell_length_b 30.630641
_cell_length_c 6.584829
_cell_angle_alpha 90.000000
_cell_angle_beta 90.000000
_cell_angle_gamma 90.000000
_cell_volume 2585.557249
_symmetry_space_group_name_H-M "A M A 2"
_symmetry_group_IT_number 40
_symmetry_cell_setting 'orthorhombic'
loop_
_space_group_symop_operation_xyz
x,y,z
-x,-y,z
1/2-x,y,z
1/2+x,-y,z
x,1/2+y,1/2+z
-x,1/2-y,1/2+z
1/2-x,1/2+y,1/2+z
1/2+x,1/2-y,1/2+z
loop_
_atom_site_type_symbol
_atom_site_label
_atom_site_fract_x
_atom_site_fract_y
_atom_site_fract_z
Si Si1 0.007197 0.574576 0.110360
Si Si2 0.132128 0.269135 0.960329
Si Si3 0.631639 0.949334 0.999948
Si Si4 0.632891 0.872331 0.305423
Si Si5 0.870218 0.150323 0.760825
Si Si6 0.500000 0.500000 0.804758
Si Si7 0.986657 0.193651 0.113743
O O1 0.055792 0.550375 0.305598
O O2 0.909740 0.605314 0.163087
O O3 0.099335 0.602585 0.008672
O O4 0.962994 0.539627 0.948810
O O5 0.250000 0.251392 0.972615
O O6 0.110059 0.284985 0.732005
O O7 0.114825 0.309091 0.111968
O O8 0.053091 0.230237 0.001763
O O9 0.750000 0.960277 0.933405
O O10 0.625768 0.902258 0.105767
O O11 0.596178 0.986154 0.161082
O O12 0.750000 0.855666 0.340599
O O13 0.560359 0.830443 0.275505
O O14 0.750000 0.143842 0.820769
O O15 0.939361 0.158828 0.958856
#
# Coordination Sequence:
#
# PCOD8184095 Si02
#       7
#     8   8   8   8   8   4   8
#     4  11  21  42  65  92 128 164 208 261 316 379
#     4  11  24  40  61  91 128 169 209 257 313 370
#     4  10  21  40  64  91 125 162 203 256 317 378
#     4  10  21  36  62  93 121 159 206 259 312 366
#     4  11  24  41  63  91 126 170 214 259 317 377
#     4  10  24  40  64  94 130 160 206 260 318 384
#     4  12  21  42  61  90 125 164 210 264 306 372
#
# _framework density 20.111716999999999
#
# number of rings (size 3 to 8) (size 9 to 14) (size 15 to 20)
#    0.000    1.231    4.615    1.846    0.000    1.231 
#    0.000    3.846    0.000    0.000    0.000    0.000 
#    0.000    0.000    0.000    0.000    0.000    0.000 
#
# Total GULP energy -322496.613293 kJ/mol
# GULP energy per Si atom -12403.715896 kJ/mol
# Density = 2.006594 g / cm^3
# Si number density = 20.111717 Si / 1000 Ang^3
#
#
#
# Elastic Constant Matrix: (Units=GPa)
#
#
# Indices 1 2 3 4 5 6 
#
# 1 124.0015 47.7050 41.7122 0.0000 0.0000 0.0000
# 2 47.7050 88.0717 35.9118 0.0000 0.0000 0.0000
# 3 41.7122 35.9118 96.2941 0.0000 0.0000 0.0000
# 4 0.0000 0.0000 0.0000 36.1420 0.0000 0.0000
# 5 0.0000 0.0000 0.0000 0.0000 11.9575 0.0000
# 6 0.0000 0.0000 0.0000 0.0000 0.0000 25.7381
#
#
#
# Elastic Compliance Matrix: (Units=1/GPa)
#
#
# Indices 1 2 3 4 5 6 
#
# 1 0.010859 -0.004675 -0.002960 0.000000 0.000000 0.000000
# 2 -0.004675 0.015403 -0.003719 0.000000 0.000000 0.000000
# 3 -0.002960 -0.003719 0.013054 0.000000 0.000000 0.000000
# 4 0.000000 0.000000 0.000000 0.027669 0.000000 0.000000
# 5 0.000000 0.000000 0.000000 0.000000 0.083629 0.000000
# 6 0.000000 0.000000 0.000000 0.000000 0.000000 0.038853
#
#
# Mechanical properties :
#
#
# Convention : Reuss Voigt Hill
#
# Bulk Modulus (GPa) = 60.21489 62.11390 61.16440
# Shear Modulus (GPa) = 22.96617 26.97008 24.96813
#
# Velocity S-wave (km/s) = 3.38291 3.66596 3.52727
# Velocity P-wave (km/s) = 6.72785 6.99074 6.86056
#
# Compressibility (1/GPa) = 0.01660719
#
# Stress axis : x y z
#
# Youngs Moduli (GPa) = 92.09288 64.92215 76.60294
#
# Poissons Ratio (x) = 0.30348 0.22677
# Poissons Ratio (y) = 0.43050 0.28492
# Poissons Ratio (z) = 0.27263 0.24148
#
# Static dielectric constant tensor:
#      x y z
#    x 3.612380 0.000000 0.000000 
#    y 0.000000 3.633670 0.000000 
#    z 0.000000 0.000000 3.691200 
# 
# 
# High freq. dielectric constant tensor:
#      x y z
#    x 1.783920 0.000000 0.000000 
#    y 0.000000 1.783460 0.000000 
#    z 0.000000 0.000000 1.792970 
# 
# From -- ./inp_files/1460.got.cif
#   From: 2010.03.12/outbox.cif.g09.slc.cpg/sg40_1_cif.got.tgz:1460.got - 2010.04.14 01:38:03.
