data_PCOD8184749
_publ_section_title
;
Structure prediction by ZEFSAII (Michael W. Deem and Ramdas Pophale) SiO2 
 PCOD8184749
Probable space group: A B A 2
;
_chemical_formula_sum "Si O2"
_cell_formula_units_Z 60
_cell_length_a 19.610283
_cell_length_b 16.215488
_cell_length_c 9.010283
_cell_angle_alpha 90.000000
_cell_angle_beta 90.000000
_cell_angle_gamma 90.000000
_cell_volume 2865.182672
_symmetry_space_group_name_H-M "A B A 2"
_symmetry_group_IT_number 41
_symmetry_cell_setting 'orthorhombic'
loop_
_space_group_symop_operation_xyz
x,y,z
-x,-y,z
1/2-x,y,1/2+z
1/2+x,-y,1/2+z
x,1/2+y,1/2+z
-x,1/2-y,1/2+z
1/2-x,1/2+y,z
1/2+x,1/2-y,z
loop_
_atom_site_type_symbol
_atom_site_label
_atom_site_fract_x
_atom_site_fract_y
_atom_site_fract_z
Si Si1 0.608648 0.052605 0.518280
Si Si2 0.588966 0.172241 0.072774
Si Si3 0.358868 0.772928 0.379663
Si Si4 0.613146 0.995140 0.198327
Si Si5 0.052740 0.129673 0.482879
Si Si6 0.219200 0.836812 0.430725
Si Si7 0.758185 0.048727 0.174135
Si Si8 0.500000 0.000000 0.749187
O O1 0.621011 0.148135 0.478641
O O2 0.677549 0.011448 0.585947
O O3 0.589565 0.002764 0.369582
O O4 0.551201 0.049068 0.642746
O O5 0.605611 0.223894 0.219401
O O6 0.592048 0.074546 0.102994
O O7 0.512588 0.188350 0.013965
O O8 0.642040 0.199324 0.940753
O O9 0.383265 0.687963 0.449990
O O10 0.275768 0.771373 0.373478
O O11 0.695554 0.984263 0.187239
O O12 0.572889 0.918032 0.132835
O O13 0.039888 0.066524 0.348300
O O14 0.219816 0.922059 0.337843
O O15 0.233422 0.865442 0.599688
#
# Coordination Sequence:
#
# PCOD8184749 Si02
#       8
#     8   8   8   8   8   8   8   4
#     4  10  23  40  66  91 124 167 225 261 323 396
#     4  10  20  40  66  87 126 174 214 253 326 397
#     4  10  23  41  63  95 123 164 215 271 315 392
#     4  10  20  39  65  91 126 172 206 261 330 392
#     4  12  25  41  63  97 136 170 211 271 338 386
#     4  10  17  37  66  90 114 165 224 261 307 381
#     4  10  17  35  66  93 116 163 224 256 312 400
#     4  12  26  38  62  96 126 170 212 278 312 402
#
# _framework density 20.941075000000001
#
# number of rings (size 3 to 8) (size 9 to 14) (size 15 to 20)
#    0.000    1.600    6.667    0.800    7.467    0.000 
#    0.000    2.667    0.000    0.000    0.000    0.000 
#    0.000    0.000    0.000    0.000    0.000    0.000 
#
# Total GULP energy -371856.933437 kJ/mol
# GULP energy per Si atom -12395.231115 kJ/mol
# Density = 2.089341 g / cm^3
# Si number density = 20.941075 Si / 1000 Ang^3
#
#
#
# Elastic Constant Matrix: (Units=GPa)
#
#
# Indices 1 2 3 4 5 6 
#
# 1 115.7895 33.4931 42.9301 0.0000 0.0000 0.0000
# 2 33.4931 59.0259 33.5539 0.0000 0.0000 0.0000
# 3 42.9301 33.5539 96.2605 0.0000 0.0000 0.0000
# 4 0.0000 0.0000 0.0000 17.2097 0.0000 0.0000
# 5 0.0000 0.0000 0.0000 0.0000 39.8301 0.0000
# 6 0.0000 0.0000 0.0000 0.0000 0.0000 23.0217
#
#
#
# Elastic Compliance Matrix: (Units=1/GPa)
#
#
# Indices 1 2 3 4 5 6 
#
# 1 0.011187 -0.004379 -0.003463 0.000000 0.000000 0.000000
# 2 -0.004379 0.022843 -0.006009 0.000000 0.000000 0.000000
# 3 -0.003463 -0.006009 0.014027 0.000000 0.000000 0.000000
# 4 0.000000 0.000000 0.000000 0.058107 0.000000 0.000000
# 5 0.000000 0.000000 0.000000 0.000000 0.025107 0.000000
# 6 0.000000 0.000000 0.000000 0.000000 0.000000 0.043437
#
#
# Mechanical properties :
#
#
# Convention : Reuss Voigt Hill
#
# Bulk Modulus (GPa) = 49.12913 54.55890 51.84401
# Shear Modulus (GPa) = 23.90113 26.75223 25.32668
#
# Velocity S-wave (km/s) = 3.38206 3.57809 3.48145
# Velocity P-wave (km/s) = 6.22597 6.57118 6.40090
#
# Compressibility (1/GPa) = 0.02035452
#
# Stress axis : x y z
#
# Youngs Moduli (GPa) = 89.38992 43.77748 71.28923
#
# Poissons Ratio (x) = 0.19172 0.24684
# Poissons Ratio (y) = 0.39148 0.42839
# Poissons Ratio (z) = 0.30952 0.26307
#
# Static dielectric constant tensor:
#      x y z
#    x 4.194640 0.000000 0.000000 
#    y 0.000000 3.148940 0.000000 
#    z 0.000000 0.000000 3.886950 
# 
# 
# High freq. dielectric constant tensor:
#      x y z
#    x 1.837960 0.000000 0.000000 
#    y 0.000000 1.753700 0.000000 
#    z 0.000000 0.000000 1.834400 
# 
# From -- ./inp_files/3149.got.cif
#   From: 2010.03.12/outbox.cif.g09.slc.cpg/sg41_2_cif.got.tgz:3149.got - 2010.04.14 01:55:53.
