data_PCOD8184284
_publ_section_title
;
Structure prediction by ZEFSAII (Michael W. Deem and Ramdas Pophale) SiO2 
 PCOD8184284
Probable space group: A M A 2
;
_chemical_formula_sum "Si O2"
_cell_formula_units_Z 64
_cell_length_a 19.367217
_cell_length_b 9.175808
_cell_length_c 18.365562
_cell_angle_alpha 90.000000
_cell_angle_beta 90.000000
_cell_angle_gamma 90.000000
_cell_volume 3263.741538
_symmetry_space_group_name_H-M "A M A 2"
_symmetry_group_IT_number 40
_symmetry_cell_setting 'orthorhombic'
loop_
_space_group_symop_operation_xyz
x,y,z
-x,-y,z
1/2-x,y,z
1/2+x,-y,z
x,1/2+y,1/2+z
-x,1/2-y,1/2+z
1/2-x,1/2+y,1/2+z
1/2+x,1/2-y,1/2+z
loop_
_atom_site_type_symbol
_atom_site_label
_atom_site_fract_x
_atom_site_fract_y
_atom_site_fract_z
Si Si1 0.536889 0.648184 0.049540
Si Si2 0.075637 0.939081 0.809788
Si Si3 0.605336 0.597796 0.720567
Si Si4 0.670557 0.795864 0.832362
Si Si5 0.539345 0.790204 0.200149
Si Si6 0.671959 0.552346 0.568419
Si Si7 0.050996 0.863232 0.966801
Si Si8 0.327097 0.258678 0.999840
O O1 0.500000 0.500000 0.075504
O O2 0.543352 0.765306 0.114061
O O3 0.615833 0.620857 0.022632
O O4 0.492883 0.718120 0.983782
O O5 0.083414 0.832002 0.741639
O O6 0.082692 0.852866 0.886033
O O7 0.131722 0.064668 0.799884
O O8 0.000000 0.000000 0.807914
O O9 0.647858 0.646336 0.792139
O O10 0.573178 0.438795 0.727238
O O11 0.542391 0.712903 0.716390
O O12 0.655888 0.596389 0.651338
O O13 0.750000 0.823140 0.816596
O O14 0.655030 0.789774 0.917940
O O15 0.750000 0.604714 0.550264
O O16 0.616556 0.635295 0.519545
O O17 0.666610 0.379577 0.553429
O O18 0.000000 0.000000 0.978301
O O19 0.250000 0.326887 0.004245
#
# Coordination Sequence:
#
# PCOD8184284 Si02
#       8
#     8   8   8   8   8   8   8   8
#     4  12  24  39  63  95 129 167 214 269 322 374
#     4  11  21  38  60  90 125 163 210 259 320 379
#     4  11  22  39  61  92 128 163 213 261 313 383
#     4  11  23  41  66  95 128 165 210 267 324 385
#     4  11  23  38  61  89 128 169 206 263 319 373
#     4  11  20  36  65  91 117 161 214 259 307 377
#     4  11  20  38  62  90 121 161 215 264 307 382
#     4  10  21  41  66  92 125 166 210 259 323 384
#
# _framework density 19.609396
#
# number of rings (size 3 to 8) (size 9 to 14) (size 15 to 20)
#    0.000    1.000    6.250    1.500    0.000    1.000 
#    0.000    2.500    0.000    0.000    0.000    0.000 
#    0.000    0.000    0.000    0.000    0.000    0.000 
#
# Total GULP energy -396722.396603 kJ/mol
# GULP energy per Si atom -12397.574894 kJ/mol
# Density = 1.956476 g / cm^3
# Si number density = 19.609396 Si / 1000 Ang^3
#
#
#
# Elastic Constant Matrix: (Units=GPa)
#
#
# Indices 1 2 3 4 5 6 
#
# 1 142.2978 35.5935 28.2383 0.0000 0.0000 0.0000
# 2 35.5935 65.1475 28.5760 0.0000 0.0000 0.0000
# 3 28.2383 28.5760 69.0641 0.0000 0.0000 0.0000
# 4 0.0000 0.0000 0.0000 28.7794 0.0000 0.0000
# 5 0.0000 0.0000 0.0000 0.0000 31.1953 0.0000
# 6 0.0000 0.0000 0.0000 0.0000 0.0000 26.7385
#
#
#
# Elastic Compliance Matrix: (Units=1/GPa)
#
#
# Indices 1 2 3 4 5 6 
#
# 1 0.008331 -0.003736 -0.001861 0.000000 0.000000 0.000000
# 2 -0.003736 0.020428 -0.006925 0.000000 0.000000 0.000000
# 3 -0.001861 -0.006925 0.018105 0.000000 0.000000 0.000000
# 4 0.000000 0.000000 0.000000 0.034747 0.000000 0.000000
# 5 0.000000 0.000000 0.000000 0.000000 0.032056 0.000000
# 6 0.000000 0.000000 0.000000 0.000000 0.000000 0.037399
#
#
# Mechanical properties :
#
#
# Convention : Reuss Voigt Hill
#
# Bulk Modulus (GPa) = 45.82501 51.25834 48.54168
# Shear Modulus (GPa) = 27.26518 29.61609 28.44064
#
# Velocity S-wave (km/s) = 3.73287 3.89048 3.81249
# Velocity P-wave (km/s) = 6.48064 6.81010 6.64741
#
# Compressibility (1/GPa) = 0.02182214
#
# Stress axis : x y z
#
# Youngs Moduli (GPa) = 120.03132 48.95170 55.23209
#
# Poissons Ratio (x) = 0.18286 0.10277
# Poissons Ratio (y) = 0.44838 0.38249
# Poissons Ratio (z) = 0.22335 0.33899
#
# Static dielectric constant tensor:
#      x y z
#    x 3.621370 0.000000 0.000000 
#    y 0.000000 3.617610 0.000000 
#    z 0.000000 0.000000 4.124210 
# 
# 
# High freq. dielectric constant tensor:
#      x y z
#    x 1.775700 0.000000 0.000000 
#    y 0.000000 1.733500 0.000000 
#    z 0.000000 0.000000 1.769000 
# 
# From -- ./inp_files/21409.got.cif
#   From: 2010.03.12/outbox.cif.g09.slc.cpg/sg40_11_cif.got.tgz:21409.got - 2010.04.14 01:38:03.
