data_PCOD8184357
_publ_section_title
;
Structure prediction by ZEFSAII (Michael W. Deem and Ramdas Pophale) SiO2 
 PCOD8184357
Probable space group: A M A 2
;
_chemical_formula_sum "Si O2"
_cell_formula_units_Z 64
_cell_length_a 31.056298
_cell_length_b 10.858291
_cell_length_c 9.322352
_cell_angle_alpha 90.000000
_cell_angle_beta 90.000000
_cell_angle_gamma 90.000000
_cell_volume 3143.667890
_symmetry_space_group_name_H-M "A M A 2"
_symmetry_group_IT_number 40
_symmetry_cell_setting 'orthorhombic'
loop_
_space_group_symop_operation_xyz
x,y,z
-x,-y,z
1/2-x,y,z
1/2+x,-y,z
x,1/2+y,1/2+z
-x,1/2-y,1/2+z
1/2-x,1/2+y,1/2+z
1/2+x,1/2-y,1/2+z
loop_
_atom_site_type_symbol
_atom_site_label
_atom_site_fract_x
_atom_site_fract_y
_atom_site_fract_z
Si Si1 0.096046 0.651526 0.253110
Si Si2 0.437057 0.250825 0.030445
Si Si3 0.799365 0.486064 0.894375
Si Si4 0.581763 0.410573 0.792147
Si Si5 0.477626 0.115044 0.541404
Si Si6 0.636196 0.084841 0.626563
Si Si7 0.642000 0.612183 0.673992
Si Si8 0.844225 0.247914 0.886348
O O1 0.076895 0.650795 0.412842
O O2 0.057647 0.679829 0.141434
O O3 0.118619 0.522187 0.228009
O O4 0.132535 0.756058 0.244440
O O5 0.435967 0.192609 0.186646
O O6 0.486068 0.287191 0.997543
O O7 0.403636 0.366613 0.028880
O O8 0.750000 0.524603 0.909482
O O9 0.817077 0.545018 0.745750
O O10 0.802308 0.336121 0.898517
O O11 0.825066 0.543134 0.026965
O O12 0.600197 0.525338 0.700523
O O13 0.617220 0.348747 0.898226
O O14 0.542897 0.445813 0.897560
O O15 0.500000 0.000000 0.624497
O O16 0.655367 0.190126 0.728536
O O17 0.652416 0.640494 0.506356
#
# Coordination Sequence:
#
# PCOD8184357 Si02
#       8
#     8   8   8   8   8   8   8   8
#     4  12  21  39  65  90 125 172 216 259 317 380
#     4  11  23  38  60  89 128 168 217 263 315 369
#     4  11  24  43  67  97 127 160 204 258 324 389
#     4  10  22  39  59  90 121 168 212 261 314 372
#     4  12  22  38  57  87 128 168 218 271 312 365
#     4  11  22  42  67  93 124 169 208 258 318 382
#     4  11  20  41  67  92 124 171 210 257 320 387
#     4  10  22  41  68  90 125 160 209 254 313 377
#
# _framework density 20.358383
#
# number of rings (size 3 to 8) (size 9 to 14) (size 15 to 20)
#    0.000    1.000    5.000    3.000    0.000    1.000 
#    0.000    0.625    0.000    0.000    0.000    0.000 
#    0.000    0.000    0.000    0.000    0.000    0.000 
#
# Total GULP energy -396785.801391 kJ/mol
# GULP energy per Si atom -12399.556293 kJ/mol
# Density = 2.031205 g / cm^3
# Si number density = 20.358383 Si / 1000 Ang^3
#
#
#
# Elastic Constant Matrix: (Units=GPa)
#
#
# Indices 1 2 3 4 5 6 
#
# 1 105.9853 35.7982 38.4063 0.0000 0.0000 0.0000
# 2 35.7982 91.3580 25.7613 0.0000 0.0000 0.0000
# 3 38.4063 25.7613 90.0257 0.0000 0.0000 0.0000
# 4 0.0000 0.0000 0.0000 39.4024 0.0000 0.0000
# 5 0.0000 0.0000 0.0000 0.0000 16.5358 0.0000
# 6 0.0000 0.0000 0.0000 0.0000 0.0000 24.8009
#
#
#
# Elastic Compliance Matrix: (Units=1/GPa)
#
#
# Indices 1 2 3 4 5 6 
#
# 1 0.012155 -0.003590 -0.004158 0.000000 0.000000 0.000000
# 2 -0.003590 0.012967 -0.002179 0.000000 0.000000 0.000000
# 3 -0.004158 -0.002179 0.013505 0.000000 0.000000 0.000000
# 4 0.000000 0.000000 0.000000 0.025379 0.000000 0.000000
# 5 0.000000 0.000000 0.000000 0.000000 0.060475 0.000000
# 6 0.000000 0.000000 0.000000 0.000000 0.000000 0.040321
#
#
# Mechanical properties :
#
#
# Convention : Reuss Voigt Hill
#
# Bulk Modulus (GPa) = 53.26872 54.14452 53.70662
# Shear Modulus (GPa) = 26.18977 28.64138 27.41557
#
# Velocity S-wave (km/s) = 3.59058 3.75488 3.67365
# Velocity P-wave (km/s) = 6.58878 6.74183 6.66574
#
# Compressibility (1/GPa) = 0.01877274
#
# Stress axis : x y z
#
# Youngs Moduli (GPa) = 82.27266 77.11758 74.04487
#
# Poissons Ratio (x) = 0.27687 0.30788
# Poissons Ratio (y) = 0.29538 0.16134
# Poissons Ratio (z) = 0.34209 0.16804
#
# Static dielectric constant tensor:
#      x y z
#    x 3.563340 0.000000 0.000000 
#    y 0.000000 3.716410 0.000000 
#    z 0.000000 0.000000 3.662330 
# 
# 
# High freq. dielectric constant tensor:
#      x y z
#    x 1.774850 0.000000 0.000000 
#    y 0.000000 1.800900 0.000000 
#    z 0.000000 0.000000 1.799050 
# 
# From -- ./inp_files/9455.got.cif
#   From: 2010.03.12/outbox.cif.g09.slc.cpg/sg40_5_cif.got.tgz:9455.got - 2010.04.14 01:38:03.
