data_PCOD8184151
_publ_section_title
;
Structure prediction by ZEFSAII (Michael W. Deem and Ramdas Pophale) SiO2 
 PCOD8184151
Probable space group: A M A 2
;
_chemical_formula_sum "Si O2"
_cell_formula_units_Z 40
_cell_length_a 8.901459
_cell_length_b 23.246112
_cell_length_c 10.110568
_cell_angle_alpha 90.000000
_cell_angle_beta 90.000000
_cell_angle_gamma 90.000000
_cell_volume 2092.122336
_symmetry_space_group_name_H-M "A M A 2"
_symmetry_group_IT_number 40
_symmetry_cell_setting 'orthorhombic'
loop_
_space_group_symop_operation_xyz
x,y,z
-x,-y,z
1/2-x,y,z
1/2+x,-y,z
x,1/2+y,1/2+z
-x,1/2-y,1/2+z
1/2-x,1/2+y,1/2+z
1/2+x,1/2-y,1/2+z
loop_
_atom_site_type_symbol
_atom_site_label
_atom_site_fract_x
_atom_site_fract_y
_atom_site_fract_z
Si Si1 0.075341 0.126952 0.491750
Si Si2 0.080073 0.657862 0.275091
Si Si3 0.920642 0.356287 0.562195
Si Si4 0.072963 0.939396 0.266323
Si Si5 0.575397 0.742365 0.437952
O O1 0.250000 0.112056 0.471247
O O2 0.026513 0.122413 0.646293
O O3 0.036728 0.190523 0.438645
O O4 0.978073 0.081125 0.411410
O O5 0.250000 0.679424 0.246621
O O6 0.074432 0.619193 0.409775
O O7 0.978324 0.715045 0.297465
O O8 0.750000 0.355024 0.617232
O O9 0.022487 0.394561 0.655483
O O10 0.986038 0.291055 0.555930
O O11 0.250000 0.946031 0.263454
O O12 0.000000 0.000000 0.231451
O O13 0.750000 0.731226 0.459407
#
# Coordination Sequence:
#
# PCOD8184151 Si02
#       5
#     8   8   8   8   8
#     4  10  21  38  59  88 125 162 200 250 304 362
#     4   8  18  35  56  83 119 157 194 240 297 356
#     4   9  19  37  60  86 118 156 198 247 298 357
#     4  12  26  43  63  87 118 162 210 256 305 364
#     4   9  18  31  55  90 125 157 195 242 297 358
#
# _framework density 19.119340999999999
#
# number of rings (size 3 to 8) (size 9 to 14) (size 15 to 20)
#    1.200    1.200    0.000    2.400    2.800    2.400 
#    0.000    1.000    0.000    0.000    0.000    0.000 
#    0.000    0.000    0.000    0.000    0.000    0.000 
#
# Total GULP energy -247802.708406 kJ/mol
# GULP energy per Si atom -12390.135420 kJ/mol
# Density = 1.907582 g / cm^3
# Si number density = 19.119341 Si / 1000 Ang^3
#
#
#
# Elastic Constant Matrix: (Units=GPa)
#
#
# Indices 1 2 3 4 5 6 
#
# 1 107.2330 27.1514 23.6867 0.0000 0.0000 0.0000
# 2 27.1514 46.6711 -1.5891 0.0000 0.0000 0.0000
# 3 23.6867 -1.5891 77.3570 0.0000 0.0000 0.0000
# 4 0.0000 0.0000 0.0000 11.5573 0.0000 0.0000
# 5 0.0000 0.0000 0.0000 0.0000 28.3093 0.0000
# 6 0.0000 0.0000 0.0000 0.0000 0.0000 28.3271
#
#
#
# Elastic Compliance Matrix: (Units=1/GPa)
#
#
# Indices 1 2 3 4 5 6 
#
# 1 0.011961 -0.007088 -0.003808 0.000000 0.000000 0.000000
# 2 -0.007088 0.025642 0.002697 0.000000 0.000000 0.000000
# 3 -0.003808 0.002697 0.014149 0.000000 0.000000 0.000000
# 4 0.000000 0.000000 0.000000 0.086525 0.000000 0.000000
# 5 0.000000 0.000000 0.000000 0.000000 0.035324 0.000000
# 6 0.000000 0.000000 0.000000 0.000000 0.000000 0.035302
#
#
# Mechanical properties :
#
#
# Convention : Reuss Voigt Hill
#
# Bulk Modulus (GPa) = 28.28584 36.63991 32.46287
# Shear Modulus (GPa) = 21.08934 25.77288 23.43111
#
# Velocity S-wave (km/s) = 3.32480 3.67550 3.50454
# Velocity P-wave (km/s) = 5.43742 6.10064 5.77855
#
# Compressibility (1/GPa) = 0.03535338
#
# Stress axis : x y z
#
# Youngs Moduli (GPa) = 83.60183 38.99837 70.67856
#
# Poissons Ratio (x) = 0.27644 0.26916
# Poissons Ratio (y) = 0.59260 -0.19064
# Poissons Ratio (z) = 0.31837 -0.10519
#
# Static dielectric constant tensor:
#      x y z
#    x 3.466250 0.000000 0.000000 
#    y 0.000000 3.177410 0.000000 
#    z 0.000000 0.000000 3.642970 
# 
# 
# High freq. dielectric constant tensor:
#      x y z
#    x 1.747480 0.000000 0.000000 
#    y 0.000000 1.705510 0.000000 
#    z 0.000000 0.000000 1.752130 
# 
# From -- ./inp_files/4369.got.cif
#   From: 2010.03.12/outbox.cif.g09.slc.cpg/sg40_3_cif.got.tgz:4369.got - 2010.04.14 01:38:03.
