data_PCOD8184723
_publ_section_title
;
Structure prediction by ZEFSAII (Michael W. Deem and Ramdas Pophale) SiO2 
 PCOD8184723
Probable space group: A B A 2
;
_chemical_formula_sum "Si O2"
_cell_formula_units_Z 64
_cell_length_a 12.429962
_cell_length_b 5.366905
_cell_length_c 35.908883
_cell_angle_alpha 90.000000
_cell_angle_beta 90.000000
_cell_angle_gamma 90.000000
_cell_volume 2395.496854
_symmetry_space_group_name_H-M "A B A 2"
_symmetry_group_IT_number 41
_symmetry_cell_setting 'orthorhombic'
loop_
_space_group_symop_operation_xyz
x,y,z
-x,-y,z
1/2-x,y,1/2+z
1/2+x,-y,1/2+z
x,1/2+y,1/2+z
-x,1/2-y,1/2+z
1/2-x,1/2+y,z
1/2+x,1/2-y,z
loop_
_atom_site_type_symbol
_atom_site_label
_atom_site_fract_x
_atom_site_fract_y
_atom_site_fract_z
Si Si1 0.122736 0.855929 0.261870
Si Si2 0.625487 0.736751 0.877794
Si Si3 0.682875 0.172708 0.681924
Si Si4 0.870592 0.640695 0.070063
Si Si5 0.390162 0.263350 0.409045
Si Si6 0.182989 0.331415 0.987170
Si Si7 0.135882 0.356457 0.291751
Si Si8 0.373403 0.858886 0.600326
O O1 0.106873 0.800557 0.218061
O O2 0.075508 0.623825 0.286249
O O3 0.248747 0.900167 0.272106
O O4 0.070028 0.127973 0.271801
O O5 0.500577 0.751301 0.887130
O O6 0.672726 0.494426 0.899713
O O7 0.650548 0.709667 0.834563
O O8 0.676091 0.999336 0.892301
O O9 0.767066 0.397544 0.682813
O O10 0.615411 0.198239 0.644050
O O11 0.927757 0.372681 0.077865
O O12 0.749559 0.601843 0.086023
O O13 0.928753 0.871837 0.091566
O O14 0.876508 0.698652 0.026360
O O15 0.402615 0.295476 0.453620
O O16 0.230333 0.609741 0.984015
#
# Coordination Sequence:
#
# PCOD8184723 Si02
#       8
#     8   8   8   8   8   8   8   8
#     4  10  19  30  43  75 107 131 177 203 268 308
#     4  10  21  42  59  70  98 136 179 225 263 317
#     4  12  16  25  41  61 101 146 173 201 237 310
#     4  10  16  27  41  63  97 135 177 200 243 305
#     4  10  23  40  57  77  96 136 178 221 271 322
#     4  12  21  35  52  77 111 136 168 226 270 319
#     4  10  18  32  50  68  96 135 165 220 255 312
#     4  10  16  25  41  63  94 149 181 188 235 313
#
# _framework density 26.716795000000001
#
# number of rings (size 3 to 8) (size 9 to 14) (size 15 to 20)
#    0.000    1.500    7.500    1.500    0.000    0.000 
#   13.500    0.000    0.000    0.000    0.000    0.000 
#    0.000    0.000    0.000  153.000    0.000    0.000 
#
# Total GULP energy -396667.077331 kJ/mol
# GULP energy per Si atom -12395.846167 kJ/mol
# Density = 2.665599 g / cm^3
# Si number density = 26.716795 Si / 1000 Ang^3
#
#
#
# Elastic Constant Matrix: (Units=GPa)
#
#
# Indices 1 2 3 4 5 6 
#
# 1 55.1782 11.0603 -3.7595 0.0000 0.0000 0.0000
# 2 11.0603 275.3532 57.6702 0.0000 0.0000 0.0000
# 3 -3.7595 57.6702 223.7205 0.0000 0.0000 0.0000
# 4 0.0000 0.0000 0.0000 34.0709 0.0000 0.0000
# 5 0.0000 0.0000 0.0000 0.0000 29.7315 0.0000
# 6 0.0000 0.0000 0.0000 0.0000 0.0000 -90.6599
#
#
#
# Elastic Compliance Matrix: (Units=1/GPa)
#
#
# Indices 1 2 3 4 5 6 
#
# 1 0.018329 -0.000846 0.000526 0.000000 0.000000 0.000000
# 2 -0.000846 0.003878 -0.001014 0.000000 0.000000 0.000000
# 3 0.000526 -0.001014 0.004740 0.000000 0.000000 0.000000
# 4 0.000000 0.000000 0.000000 0.029351 0.000000 0.000000
# 5 0.000000 0.000000 0.000000 0.000000 0.033634 0.000000
# 6 0.000000 0.000000 0.000000 0.000000 0.000000 -0.011030
#
#
# Mechanical properties :
#
#
# Convention : Reuss Voigt Hill
#
# Bulk Modulus (GPa) = 41.18877 76.02158 58.60517
# Shear Modulus (GPa) = 55.76470 27.24724 41.50597
#
# Velocity S-wave (km/s) = 4.57360 3.19698 3.94579
# Velocity P-wave (km/s) = 6.58337 6.49184 6.53776
#
# Compressibility (1/GPa) = 0.02427846
#
# Stress axis : x y z
#
# Youngs Moduli (GPa) = 54.55949 257.86157 210.96754
#
# Poissons Ratio (x) = 0.21826 -0.11101
# Poissons Ratio (y) = 0.04618 0.21390
# Poissons Ratio (z) = -0.02871 0.26145
#
# Static dielectric constant tensor:
#      x y z
#    x 4.491120 0.000000 0.000000 
#    y 0.000000 41.083740 0.000000 
#    z 0.000000 0.000000 4.792990 
# 
# 
# High freq. dielectric constant tensor:
#      x y z
#    x 2.089440 0.000000 0.000000 
#    y 0.000000 2.127960 0.000000 
#    z 0.000000 0.000000 2.063040 
# 
# From -- ./inp_files/12762.got.cif
#   From: 2010.03.12/outbox.cif.g09.slc.cpg/sg41_7_cif.got.tgz:12762.got - 2010.04.14 01:55:53.
