data_PCOD8184624
_publ_section_title
;
Structure prediction by ZEFSAII (Michael W. Deem and Ramdas Pophale) SiO2 
 PCOD8184624
Probable space group: A M A 2
;
_chemical_formula_sum "Si O2"
_cell_formula_units_Z 56
_cell_length_a 14.460859
_cell_length_b 14.949743
_cell_length_c 11.156819
_cell_angle_alpha 90.000000
_cell_angle_beta 90.000000
_cell_angle_gamma 90.000000
_cell_volume 2411.949474
_symmetry_space_group_name_H-M "A M A 2"
_symmetry_group_IT_number 40
_symmetry_cell_setting 'orthorhombic'
loop_
_space_group_symop_operation_xyz
x,y,z
-x,-y,z
1/2-x,y,z
1/2+x,-y,z
x,1/2+y,1/2+z
-x,1/2-y,1/2+z
1/2-x,1/2+y,1/2+z
1/2+x,1/2-y,1/2+z
loop_
_atom_site_type_symbol
_atom_site_label
_atom_site_fract_x
_atom_site_fract_y
_atom_site_fract_z
Si Si1 0.144860 0.834334 0.719930
Si Si2 0.352643 0.648574 0.591095
Si Si3 0.850596 0.200780 0.284180
Si Si4 0.151144 0.683958 0.065804
Si Si5 0.607272 0.014471 0.254701
Si Si6 0.003000 0.792187 0.919203
Si Si7 0.107469 0.487307 0.027462
O O1 0.250000 0.842208 0.771792
O O2 0.126587 0.735418 0.670291
O O3 0.064714 0.847478 0.821968
O O4 0.134961 0.905285 0.612815
O O5 0.250000 0.656075 0.530137
O O6 0.345619 0.563613 0.679183
O O7 0.437082 0.639046 0.494833
O O8 0.750000 0.196090 0.348167
O O9 0.855477 0.287700 0.202700
O O10 0.933901 0.213542 0.376453
O O11 0.867415 0.112179 0.201272
O O12 0.250000 0.714061 0.009640
O O13 0.150537 0.577820 0.076363
O O14 0.070502 0.730500 0.994263
O O15 0.644825 0.023947 0.391452
O O16 0.500000 0.000000 0.250737
O O17 0.000000 0.500000 0.025554
#
# Coordination Sequence:
#
# PCOD8184624 Si02
#       7
#     8   8   8   8   8   8   8
#     4  11  24  41  65 100 137 174 222 280 339 399
#     4  11  24  41  65 100 137 174 222 280 339 399
#     4  11  24  42  64  91 126 169 215 263 321 391
#     4  11  24  42  64  91 126 169 215 263 321 391
#     4  11  22  40  68  98 129 169 217 270 328 392
#     4  12  22  42  68  94 134 176 216 274 340 396
#     4  11  22  40  68  98 129 169 217 270 328 392
#
# _framework density 23.217734
#
# number of rings (size 3 to 8) (size 9 to 14) (size 15 to 20)
#    0.000    0.857    0.000    9.429    0.000    4.571 
#    0.000    6.429    0.000   10.286    0.000    0.000 
#    0.000    0.000    0.000    0.000    0.000    0.000 
#
# Total GULP energy -346971.972226 kJ/mol
# GULP energy per Si atom -12391.856151 kJ/mol
# Density = 2.316489 g / cm^3
# Si number density = 23.217734 Si / 1000 Ang^3
#
#
#
# Elastic Constant Matrix: (Units=GPa)
#
#
# Indices 1 2 3 4 5 6 
#
# 1 186.9111 24.3828 62.3404 0.0000 0.0000 0.0000
# 2 24.3828 99.8303 38.3827 0.0000 0.0000 0.0000
# 3 62.3404 38.3827 86.7887 0.0000 0.0000 0.0000
# 4 0.0000 0.0000 0.0000 38.6830 0.0000 0.0000
# 5 0.0000 0.0000 0.0000 0.0000 10.3008 0.0000
# 6 0.0000 0.0000 0.0000 0.0000 0.0000 11.0542
#
#
#
# Elastic Compliance Matrix: (Units=1/GPa)
#
#
# Indices 1 2 3 4 5 6 
#
# 1 0.007042 0.000271 -0.005178 0.000000 0.000000 0.000000
# 2 0.000271 0.012080 -0.005537 0.000000 0.000000 0.000000
# 3 -0.005178 -0.005537 0.017690 0.000000 0.000000 0.000000
# 4 0.000000 0.000000 0.000000 0.025851 0.000000 0.000000
# 5 0.000000 0.000000 0.000000 0.000000 0.097080 0.000000
# 6 0.000000 0.000000 0.000000 0.000000 0.000000 0.090464
#
#
# Mechanical properties :
#
#
# Convention : Reuss Voigt Hill
#
# Bulk Modulus (GPa) = 62.79869 69.30465 66.05167
# Shear Modulus (GPa) = 18.08957 28.56920 23.32939
#
# Velocity S-wave (km/s) = 2.79431 3.51164 3.17331
# Velocity P-wave (km/s) = 6.12514 6.80859 6.47589
#
# Compressibility (1/GPa) = 0.01592390
#
# Stress axis : x y z
#
# Youngs Moduli (GPa) = 142.00919 82.78382 56.52820
#
# Poissons Ratio (x) = -0.02243 0.29270
# Poissons Ratio (y) = -0.03847 0.31299
# Poissons Ratio (z) = 0.73532 0.45836
#
# Static dielectric constant tensor:
#      x y z
#    x 4.784680 0.000000 0.000000 
#    y 0.000000 4.286140 0.000000 
#    z 0.000000 0.000000 4.148450 
# 
# 
# High freq. dielectric constant tensor:
#      x y z
#    x 1.954730 0.000000 0.000000 
#    y 0.000000 1.917200 0.000000 
#    z 0.000000 0.000000 1.893560 
# 
# From -- ./inp_files/12251.got.cif
#   From: 2010.03.12/outbox.cif.g09.slc.cpg/sg40_7_cif.got.tgz:12251.got - 2010.04.14 01:38:03.
