data_PCOD8184949
_publ_section_title
;
Structure prediction by ZEFSAII (Michael W. Deem and Ramdas Pophale) SiO2 
 PCOD8184949
Probable space group: A B A 2
;
_chemical_formula_sum "Si O2"
_cell_formula_units_Z 48
_cell_length_a 8.786838
_cell_length_b 17.804367
_cell_length_c 15.341393
_cell_angle_alpha 90.000000
_cell_angle_beta 90.000000
_cell_angle_gamma 90.000000
_cell_volume 2400.070245
_symmetry_space_group_name_H-M "A B A 2"
_symmetry_group_IT_number 41
_symmetry_cell_setting 'orthorhombic'
loop_
_space_group_symop_operation_xyz
x,y,z
-x,-y,z
1/2-x,y,1/2+z
1/2+x,-y,1/2+z
x,1/2+y,1/2+z
-x,1/2-y,1/2+z
1/2-x,1/2+y,z
1/2+x,1/2-y,z
loop_
_atom_site_type_symbol
_atom_site_label
_atom_site_fract_x
_atom_site_fract_y
_atom_site_fract_z
Si Si1 0.175681 0.150547 0.003450
Si Si2 0.990635 0.242097 0.263843
Si Si3 0.299633 0.056273 0.858417
Si Si4 0.748203 0.847893 0.192613
Si Si5 0.869140 0.109971 0.365518
Si Si6 0.368404 0.791483 0.445804
O O1 0.231488 0.117467 0.096224
O O2 0.178938 0.084785 0.930366
O O3 0.294515 0.215240 0.978946
O O4 0.001647 0.180062 0.010305
O O5 0.911303 0.306744 0.207758
O O6 0.880008 0.171030 0.286898
O O7 0.125945 0.216174 0.202801
O O8 0.052651 0.277619 0.352981
O O9 0.267151 0.087257 0.762833
O O10 0.461226 0.086708 0.895437
O O11 0.286123 0.967617 0.841009
O O12 0.767725 0.147338 0.441604
#
# Coordination Sequence:
#
# PCOD8184949 Si02
#       6
#     8   8   8   8   8   8
#     4  12  22  37  62  89 121 153 199 249 298 350
#     4  11  18  38  61  85 114 153 203 241 289 346
#     4  10  21  41  60  83 126 160 189 238 301 364
#     4  11  22  37  60  88 119 155 195 246 293 349
#     4  10  20  37  67  82 116 165 191 236 308 345
#     4  12  19  38  63  89 114 155 206 246 291 347
#
# _framework density 19.999414000000002
#
# number of rings (size 3 to 8) (size 9 to 14) (size 15 to 20)
#    0.000    1.000    8.333    1.000    0.000    0.667 
#    0.000    8.333    7.333    0.000    0.000    0.000 
#    0.000    0.000    0.000    0.000    0.000    0.000 
#
# Total GULP energy -297477.683615 kJ/mol
# GULP energy per Si atom -12394.903484 kJ/mol
# Density = 1.995389 g / cm^3
# Si number density = 19.999414 Si / 1000 Ang^3
#
#
#
# Elastic Constant Matrix: (Units=GPa)
#
#
# Indices 1 2 3 4 5 6 
#
# 1 46.2484 5.7030 7.5000 0.0000 0.0000 0.0000
# 2 5.7030 87.0385 15.9653 0.0000 0.0000 0.0000
# 3 7.5000 15.9653 103.7207 0.0000 0.0000 0.0000
# 4 0.0000 0.0000 0.0000 7.4166 0.0000 0.0000
# 5 0.0000 0.0000 0.0000 0.0000 24.0159 0.0000
# 6 0.0000 0.0000 0.0000 0.0000 0.0000 21.2684
#
#
#
# Elastic Compliance Matrix: (Units=1/GPa)
#
#
# Indices 1 2 3 4 5 6 
#
# 1 0.021997 -0.001183 -0.001408 0.000000 0.000000 0.000000
# 2 -0.001183 0.011887 -0.001744 0.000000 0.000000 0.000000
# 3 -0.001408 -0.001744 0.010012 0.000000 0.000000 0.000000
# 4 0.000000 0.000000 0.000000 0.134833 0.000000 0.000000
# 5 0.000000 0.000000 0.000000 0.000000 0.041639 0.000000
# 6 0.000000 0.000000 0.000000 0.000000 0.000000 0.047018
#
#
# Mechanical properties :
#
#
# Convention : Reuss Voigt Hill
#
# Bulk Modulus (GPa) = 28.38991 32.81602 30.60297
# Shear Modulus (GPa) = 17.37333 24.39613 20.88473
#
# Velocity S-wave (km/s) = 2.95056 3.49641 3.23502
# Velocity P-wave (km/s) = 5.08270 5.72224 5.41193
#
# Compressibility (1/GPa) = 0.03522378
#
# Stress axis : x y z
#
# Youngs Moduli (GPa) = 45.46146 84.12841 99.88419
#
# Poissons Ratio (x) = 0.09952 0.14069
# Poissons Ratio (y) = 0.05378 0.17421
# Poissons Ratio (z) = 0.06403 0.14673
#
# Static dielectric constant tensor:
#      x y z
#    x 3.882080 0.000000 0.000000 
#    y 0.000000 3.659640 0.000000 
#    z 0.000000 0.000000 3.480290 
# 
# 
# High freq. dielectric constant tensor:
#      x y z
#    x 1.789450 0.000000 0.000000 
#    y 0.000000 1.771770 0.000000 
#    z 0.000000 0.000000 1.752810 
# 
# From -- ./inp_files/7292.got.cif
#   From: 2010.03.12/outbox.cif.g09.slc.cpg/sg41_4_cif.got.tgz:7292.got - 2010.04.14 01:55:53.
