data_PCOD8184685
_publ_section_title
;
Structure prediction by ZEFSAII (Michael W. Deem and Ramdas Pophale) SiO2 
 PCOD8184685
Probable space group: A M A 2
;
_chemical_formula_sum "Si O2"
_cell_formula_units_Z 40
_cell_length_a 24.234414
_cell_length_b 14.136781
_cell_length_c 4.925947
_cell_angle_alpha 90.000000
_cell_angle_beta 90.000000
_cell_angle_gamma 90.000000
_cell_volume 1687.612711
_symmetry_space_group_name_H-M "A M A 2"
_symmetry_group_IT_number 40
_symmetry_cell_setting 'orthorhombic'
loop_
_space_group_symop_operation_xyz
x,y,z
-x,-y,z
1/2-x,y,z
1/2+x,-y,z
x,1/2+y,1/2+z
-x,1/2-y,1/2+z
1/2-x,1/2+y,1/2+z
1/2+x,1/2-y,1/2+z
loop_
_atom_site_type_symbol
_atom_site_label
_atom_site_fract_x
_atom_site_fract_y
_atom_site_fract_z
Si Si1 0.190152 0.882695 0.916440
Si Si2 0.426186 0.341759 0.521683
Si Si3 0.309454 0.010294 0.416824
Si Si4 0.032256 0.147132 0.695819
Si Si5 0.919745 0.449594 0.703311
O O1 0.250000 0.833442 0.845551
O O2 0.179973 0.972948 0.721432
O O3 0.135175 0.817298 0.899952
O O4 0.193470 0.919000 0.223523
O O5 0.446878 0.255059 0.704764
O O6 0.468056 0.356709 0.272345
O O7 0.425135 0.436858 0.702734
O O8 0.250000 0.064300 0.406377
O O9 0.359000 0.078722 0.318540
O O10 0.035619 0.099498 0.399309
O O11 0.070634 0.089030 0.902557
#
# Coordination Sequence:
#
# PCOD8184685 Si02
#       5
#     8   8   8   8   8
#     4   9  19  37  64  91 120 167 213 256 321 379
#     4  11  26  45  66  94 135 168 211 275 317 379
#     4   9  18  36  63  93 125 166 214 264 318 375
#     4  12  27  42  65  99 129 171 219 258 327 390
#     4  11  25  44  66  95 130 172 216 263 322 387
#
# _framework density 23.702121999999999
#
# number of rings (size 3 to 8) (size 9 to 14) (size 15 to 20)
#    0.000    1.600    0.000    4.200    0.000   19.200 
#    0.000    2.000    0.000    0.000    0.000    1.400 
#    0.000    0.000    0.000    0.000    0.000    0.000 
#
# Total GULP energy -247873.971031 kJ/mol
# GULP energy per Si atom -12393.698552 kJ/mol
# Density = 2.364818 g / cm^3
# Si number density = 23.702122 Si / 1000 Ang^3
#
#
#
# Elastic Constant Matrix: (Units=GPa)
#
#
# Indices 1 2 3 4 5 6 
#
# 1 204.7178 29.5222 -0.3606 0.0000 0.0000 0.0000
# 2 29.5222 100.5394 21.2697 0.0000 0.0000 0.0000
# 3 -0.3606 21.2697 63.7960 0.0000 0.0000 0.0000
# 4 0.0000 0.0000 0.0000 27.8130 0.0000 0.0000
# 5 0.0000 0.0000 0.0000 0.0000 31.1912 0.0000
# 6 0.0000 0.0000 0.0000 0.0000 0.0000 5.4725
#
#
#
# Elastic Compliance Matrix: (Units=1/GPa)
#
#
# Indices 1 2 3 4 5 6 
#
# 1 0.005120 -0.001624 0.000570 0.000000 0.000000 0.000000
# 2 -0.001624 0.011216 -0.003749 0.000000 0.000000 0.000000
# 3 0.000570 -0.003749 0.016928 0.000000 0.000000 0.000000
# 4 0.000000 0.000000 0.000000 0.035954 0.000000 0.000000
# 5 0.000000 0.000000 0.000000 0.000000 0.032060 0.000000
# 6 0.000000 0.000000 0.000000 0.000000 0.000000 0.182733
#
#
# Mechanical properties :
#
#
# Convention : Reuss Voigt Hill
#
# Bulk Modulus (GPa) = 42.26630 52.21287 47.23959
# Shear Modulus (GPa) = 16.58356 34.13681 25.36019
#
# Velocity S-wave (km/s) = 2.64799 3.79917 3.27456
# Velocity P-wave (km/s) = 5.21729 6.42818 5.85413
#
# Compressibility (1/GPa) = 0.02365951
#
# Stress axis : x y z
#
# Youngs Moduli (GPa) = 195.31299 89.15595 59.07371
#
# Poissons Ratio (x) = 0.14480 -0.03370
# Poissons Ratio (y) = 0.31721 0.22145
# Poissons Ratio (z) = -0.11141 0.33422
#
# Static dielectric constant tensor:
#      x y z
#    x 5.272170 0.000000 0.000000 
#    y 0.000000 3.760090 0.000000 
#    z 0.000000 0.000000 4.119480 
# 
# 
# High freq. dielectric constant tensor:
#      x y z
#    x 1.975230 0.000000 0.000000 
#    y 0.000000 1.878710 0.000000 
#    z 0.000000 0.000000 1.947000 
# 
# From -- ./inp_files/2961.got.cif
#   From: 2010.03.12/outbox.cif.g09.slc.cpg/sg40_2_cif.got.tgz:2961.got - 2010.04.14 01:38:03.
