data_PCOD8184427
_publ_section_title
;
Structure prediction by ZEFSAII (Michael W. Deem and Ramdas Pophale) SiO2 
 PCOD8184427
Probable space group: A M A 2
;
_chemical_formula_sum "Si O2"
_cell_formula_units_Z 32
_cell_length_a 13.780961
_cell_length_b 19.207444
_cell_length_c 5.036817
_cell_angle_alpha 90.000000
_cell_angle_beta 90.000000
_cell_angle_gamma 90.000000
_cell_volume 1333.230534
_symmetry_space_group_name_H-M "A M A 2"
_symmetry_group_IT_number 40
_symmetry_cell_setting 'orthorhombic'
loop_
_space_group_symop_operation_xyz
x,y,z
-x,-y,z
1/2-x,y,z
1/2+x,-y,z
x,1/2+y,1/2+z
-x,1/2-y,1/2+z
1/2-x,1/2+y,1/2+z
1/2+x,1/2-y,1/2+z
loop_
_atom_site_type_symbol
_atom_site_label
_atom_site_fract_x
_atom_site_fract_y
_atom_site_fract_z
Si Si1 0.563014 0.744784 0.840140
Si Si2 0.139052 0.977480 0.773288
Si Si3 0.057222 0.405050 0.786531
Si Si4 0.642321 0.881289 0.052703
O O1 0.528885 0.751592 0.536754
O O2 0.610705 0.667596 0.865661
O O3 0.637882 0.806269 0.907816
O O4 0.250000 0.955029 0.738103
O O5 0.081813 0.963704 0.500871
O O6 0.091572 0.931033 0.001460
O O7 0.127833 0.058980 0.832124
O O8 0.941138 0.389817 0.774563
O O9 0.750000 0.888963 0.183307
#
# Coordination Sequence:
#
# PCOD8184427 Si02
#       4
#     8   8   8   8
#     4  10  22  42  64  92 130 174 220 270 328 392
#     4  11  25  44  68  99 134 177 228 277 332 395
#     4  11  23  44  70  99 136 179 222 277 335 398
#     4  10  24  44  69 102 137 176 223 276 335 399
#
# _framework density 24.001849
#
# number of rings (size 3 to 8) (size 9 to 14) (size 15 to 20)
#    0.000    1.500    0.000    4.500    0.000   12.000 
#    0.000   18.750    0.000    3.000    0.000    0.000 
#    0.000    0.000    0.000    0.000    0.000    0.000 
#
# Total GULP energy -198381.069153 kJ/mol
# GULP energy per Si atom -12398.816822 kJ/mol
# Density = 2.394722 g / cm^3
# Si number density = 24.001849 Si / 1000 Ang^3
#
#
#
# Elastic Constant Matrix: (Units=GPa)
#
#
# Indices 1 2 3 4 5 6 
#
# 1 156.4146 59.4796 44.1407 0.0000 0.0000 0.0000
# 2 59.4796 139.8499 4.4773 0.0000 0.0000 0.0000
# 3 44.1407 4.4773 86.3375 0.0000 0.0000 0.0000
# 4 0.0000 0.0000 0.0000 20.7582 0.0000 0.0000
# 5 0.0000 0.0000 0.0000 0.0000 22.0158 0.0000
# 6 0.0000 0.0000 0.0000 0.0000 0.0000 33.2720
#
#
#
# Elastic Compliance Matrix: (Units=1/GPa)
#
#
# Indices 1 2 3 4 5 6 
#
# 1 0.009056 -0.003710 -0.004438 0.000000 0.000000 0.000000
# 2 -0.003710 0.008682 0.001446 0.000000 0.000000 0.000000
# 3 -0.004438 0.001446 0.013776 0.000000 0.000000 0.000000
# 4 0.000000 0.000000 0.000000 0.048174 0.000000 0.000000
# 5 0.000000 0.000000 0.000000 0.000000 0.045422 0.000000
# 6 0.000000 0.000000 0.000000 0.000000 0.000000 0.030055
#
#
# Mechanical properties :
#
#
# Convention : Reuss Voigt Hill
#
# Bulk Modulus (GPa) = 55.21050 66.53301 60.87176
# Shear Modulus (GPa) = 28.63606 33.50949 31.07278
#
# Velocity S-wave (km/s) = 3.45784 3.74052 3.60196
# Velocity P-wave (km/s) = 6.24458 6.81436 6.53568
#
# Compressibility (1/GPa) = 0.01811250
#
# Stress axis : x y z
#
# Youngs Moduli (GPa) = 110.42083 115.18126 72.58863
#
# Poissons Ratio (x) = 0.42728 0.32213
# Poissons Ratio (y) = 0.40962 -0.10499
# Poissons Ratio (z) = 0.49002 -0.16659
#
# Static dielectric constant tensor:
#      x y z
#    x 4.329910 0.000000 0.000000 
#    y 0.000000 4.891260 0.000000 
#    z 0.000000 0.000000 4.062470 
# 
# 
# High freq. dielectric constant tensor:
#      x y z
#    x 1.933390 0.000000 0.000000 
#    y 0.000000 1.982580 0.000000 
#    z 0.000000 0.000000 1.943090 
# 
# From -- ./inp_files/1110.got.cif
#   From: 2010.03.12/outbox.cif.g09.slc.cpg/sg40_1_cif.got.tgz:1110.got - 2010.04.14 01:38:03.
