data_PCOD8184720
_publ_section_title
;
Structure prediction by ZEFSAII (Michael W. Deem and Ramdas Pophale) SiO2 
 PCOD8184720
Probable space group: A M A 2
;
_chemical_formula_sum "Si O2"
_cell_formula_units_Z 32
_cell_length_a 9.000000
_cell_length_b 24.000000
_cell_length_c 15.000000
_cell_angle_alpha 90.000000
_cell_angle_beta 90.000000
_cell_angle_gamma 90.000000
_cell_volume 3240.000000
_symmetry_space_group_name_H-M "A M A 2"
_symmetry_group_IT_number 40
_symmetry_cell_setting 'orthorhombic'
loop_
_space_group_symop_operation_xyz
x,y,z
-x,-y,z
1/2-x,y,z
1/2+x,-y,z
x,1/2+y,1/2+z
-x,1/2-y,1/2+z
1/2-x,1/2+y,1/2+z
1/2+x,1/2-y,1/2+z
loop_
_atom_site_type_symbol
_atom_site_label
_atom_site_fract_x
_atom_site_fract_y
_atom_site_fract_z
Si Si1 0.080775 0.281665 0.752270
Si Si2 0.082770 0.867555 0.956856
Si Si3 0.075479 0.057933 0.092681
Si Si4 0.080670 0.329584 0.270894
Si Si5 0.921251 0.647005 0.072495
Si Si6 0.575868 0.391476 0.776664
Si Si7 0.583542 0.243528 0.052393
Si Si8 0.923204 0.444186 0.959245
O O1 0.250000 0.287564 0.780840
O O2 0.056465 0.286942 0.646431
O O3 0.023247 0.223068 0.788236
O O4 0.994002 0.331847 0.798751
O O5 0.250000 0.886795 0.983312
O O6 0.055809 0.874094 0.850641
O O7 0.062375 0.802016 0.976006
O O8 0.961810 0.902253 0.010247
O O9 0.250000 0.049448 0.098766
O O10 0.011678 0.082706 0.185172
O O11 0.000000 0.000000 0.072063
O O12 0.250000 0.307932 0.269447
O O13 0.042913 0.359165 0.177543
O O14 0.750000 0.635221 0.050379
O O15 0.962408 0.708592 0.038125
O O16 0.025882 0.604502 0.023156
O O17 0.750000 0.382352 0.769006
O O18 0.532194 0.432320 0.856993
O O19 0.750000 0.269350 0.050053
O O20 0.750000 0.451840 0.970065
O O21 0.000000 0.500000 0.992068
#
# Coordination Sequence:
#
# PCOD8184720 Si02
#       8
#     8   8   8   8   8   8   8   8
#     4  10  19  32  54  85 118 152 190 232 278 334
#     4  10  20  37  59  84 117 155 194 235 284 339
#     4  11  23  39  60  85 116 153 193 238 286 341
#     4   9  20  37  58  83 117 157 192 234 285 340
#     4  10  21  38  59  85 116 150 193 241 289 339
#     4  10  22  38  57  83 116 153 189 230 284 347
#     4   9  18  33  54  83 117 153 188 228 281 338
#     4  11  24  42  62  84 112 149 194 242 292 346
#
# _framework density 9.8765429999999999
#
# number of rings (size 3 to 8) (size 9 to 14) (size 15 to 20)
#    0.000    2.000    1.250    1.875    1.750    3.500 
#    0.000    0.625    0.000    0.000    0.000    0.000 
#    0.000    0.000    0.000    0.000    0.000    0.000 
#
# Total GULP energy -396878.193771 kJ/mol
# GULP energy per Si atom -12402.443555 kJ/mol
# Density = 0.985406 g / cm^3
# Si number density = 9.876543 Si / 1000 Ang^3
#
#
#
# Elastic Constant Matrix: (Units=GPa)
#
#
# Indices 1 2 3 4 5 6 
#
# 1 24.7064 33.3440 51.4757 0.0000 0.0000 0.0000
# 2 33.3440 69.5375 42.6245 0.0000 0.0000 0.0000
# 3 51.4757 42.6245 81.4547 0.0000 0.0000 0.0000
# 4 0.0000 0.0000 0.0000 11.2595 0.0000 0.0000
# 5 0.0000 0.0000 0.0000 0.0000 26.6378 0.0000
# 6 0.0000 0.0000 0.0000 0.0000 0.0000 31.0544
#
#
#
# Elastic Compliance Matrix: (Units=1/GPa)
#
#
# Indices 1 2 3 4 5 6 
#
# 1 -0.115034 0.015605 0.064530 0.000000 0.000000 0.000000
# 2 0.015605 0.019055 -0.019833 0.000000 0.000000 0.000000
# 3 0.064530 -0.019833 -0.018125 0.000000 0.000000 0.000000
# 4 0.000000 0.000000 0.000000 0.088814 0.000000 0.000000
# 5 0.000000 0.000000 0.000000 0.000000 0.037541 0.000000
# 6 0.000000 0.000000 0.000000 0.000000 0.000000 0.032202
#
#
# Mechanical properties :
#
#
# Convention : Reuss Voigt Hill
#
# Bulk Modulus (GPa) = 153.83059 47.84300 100.83680
# Shear Modulus (GPa) = -67.58093 17.00730 -25.28681
#
# Velocity S-wave (km/s) = -5.85552 2.93745 -3.58179
# Velocity P-wave (km/s) = 5.68592 5.98147 5.83556
#
# Compressibility (1/GPa) = 0.00650066
#
# Stress axis : x y z
#
# Youngs Moduli (GPa) = -8.69311 52.47952 -55.17168
#
# Poissons Ratio (x) = -0.81892 3.56025
# Poissons Ratio (y) = 0.13565 -1.09421
# Poissons Ratio (z) = 0.56097 1.04081
#
# Static dielectric constant tensor:
#      x y z
#    x 3.537690 0.000000 0.000000 
#    y 0.000000 3.282870 0.000000 
#    z 0.000000 0.000000 3.688990 
# 
# 
# High freq. dielectric constant tensor:
#      x y z
#    x 1.766810 0.000000 0.000000 
#    y 0.000000 1.745140 0.000000 
#    z 0.000000 0.000000 1.770390 
# 
# From -- ./inp_files/15571.got.cif
#   From: 2010.03.12/outbox.ucp.g09.slc.cvg/sg40_8_cif.got.tgz:15571.got - 2010.05.04 21:16:09.
