data_PCOD8184553
_publ_section_title
;
Structure prediction by ZEFSAII (Michael W. Deem and Ramdas Pophale) SiO2 
 PCOD8184553
Probable space group: A M A 2
;
_chemical_formula_sum "Si O2"
_cell_formula_units_Z 64
_cell_length_a 8.541147
_cell_length_b 15.373226
_cell_length_c 23.549833
_cell_angle_alpha 90.000000
_cell_angle_beta 90.000000
_cell_angle_gamma 90.000000
_cell_volume 3092.210425
_symmetry_space_group_name_H-M "A M A 2"
_symmetry_group_IT_number 40
_symmetry_cell_setting 'orthorhombic'
loop_
_space_group_symop_operation_xyz
x,y,z
-x,-y,z
1/2-x,y,z
1/2+x,-y,z
x,1/2+y,1/2+z
-x,1/2-y,1/2+z
1/2-x,1/2+y,1/2+z
1/2+x,1/2-y,1/2+z
loop_
_atom_site_type_symbol
_atom_site_label
_atom_site_fract_x
_atom_site_fract_y
_atom_site_fract_z
Si Si1 0.070247 0.835517 0.299590
Si Si2 0.569119 0.592422 0.921485
Si Si3 0.566157 0.909156 0.186190
Si Si4 0.432931 0.253948 0.618686
Si Si5 0.431485 0.351251 0.304311
Si Si6 0.566598 0.410260 0.422014
Si Si7 0.930808 0.747093 0.487090
Si Si8 0.067516 0.590192 0.189107
O O1 0.250000 0.805026 0.293285
O O2 0.047210 0.896130 0.354173
O O3 0.020151 0.889804 0.245143
O O4 0.963476 0.751094 0.305973
O O5 0.500000 0.500000 0.939935
O O6 0.750000 0.598217 0.939202
O O7 0.473801 0.665915 0.954045
O O8 0.750000 0.914795 0.197001
O O9 0.529308 0.837268 0.139035
O O10 0.500000 0.000000 0.162529
O O11 0.250000 0.269410 0.631534
O O12 0.465941 0.237748 0.552918
O O13 0.499679 0.170731 0.652750
O O14 0.250000 0.367534 0.292572
O O15 0.478817 0.393995 0.363222
O O16 0.527402 0.398114 0.254956
O O17 0.500000 0.500000 0.448180
O O18 0.750000 0.416670 0.410668
O O19 0.534689 0.333092 0.465971
O O20 0.750000 0.724772 0.475693
O O21 0.250000 0.586144 0.180352
O O22 0.000000 0.500000 0.165259
#
# Coordination Sequence:
#
# PCOD8184553 Si02
#       8
#     8   8   8   8   8   8   8   8
#     4  11  22  39  64  95 132 168 207 257 315 378
#     4  11  24  41  65  95 130 170 211 260 316 376
#     4  12  25  41  66  96 129 169 212 261 315 378
#     4  10  24  45  67  91 125 167 213 267 320 373
#     4  12  23  38  64  97 130 167 208 256 315 381
#     4  12  25  43  66  95 129 169 211 261 318 379
#     4  11  24  44  68  94 125 166 215 268 320 377
#     4  11  23  41  65  93 130 168 209 261 314 377
#
# _framework density 20.697168000000001
#
# number of rings (size 3 to 8) (size 9 to 14) (size 15 to 20)
#    0.000    0.750    2.500    5.625    0.000    5.000 
#    0.000    1.250    0.000    0.000    0.000    0.000 
#    0.000    0.000    0.000    0.000    0.000    0.000 
#
# Total GULP energy -397055.583610 kJ/mol
# GULP energy per Si atom -12407.986988 kJ/mol
# Density = 2.065006 g / cm^3
# Si number density = 20.697168 Si / 1000 Ang^3
#
#
#
# Elastic Constant Matrix: (Units=GPa)
#
#
# Indices 1 2 3 4 5 6 
#
# 1 68.7152 26.4008 21.9499 0.0000 0.0000 0.0000
# 2 26.4008 143.2057 23.1707 0.0000 0.0000 0.0000
# 3 21.9499 23.1707 82.6696 0.0000 0.0000 0.0000
# 4 0.0000 0.0000 0.0000 2.4399 0.0000 0.0000
# 5 0.0000 0.0000 0.0000 0.0000 25.6258 0.0000
# 6 0.0000 0.0000 0.0000 0.0000 0.0000 39.0852
#
#
#
# Elastic Compliance Matrix: (Units=1/GPa)
#
#
# Indices 1 2 3 4 5 6 
#
# 1 0.016698 -0.002473 -0.003740 0.000000 0.000000 0.000000
# 2 -0.002473 0.007681 -0.001496 0.000000 0.000000 0.000000
# 3 -0.003740 -0.001496 0.013509 0.000000 0.000000 0.000000
# 4 0.000000 0.000000 0.000000 0.409858 0.000000 0.000000
# 5 0.000000 0.000000 0.000000 0.000000 0.039023 0.000000
# 6 0.000000 0.000000 0.000000 0.000000 0.000000 0.025585
#
#
# Mechanical properties :
#
#
# Convention : Reuss Voigt Hill
#
# Bulk Modulus (GPa) = 44.50718 48.62594 46.56656
# Shear Modulus (GPa) = 9.34121 28.30144 18.82132
#
# Velocity S-wave (km/s) = 2.12675 3.70186 3.01884
# Velocity P-wave (km/s) = 5.25180 6.46658 5.89059
#
# Compressibility (1/GPa) = 0.02246829
#
# Stress axis : x y z
#
# Youngs Moduli (GPa) = 59.88814 130.19168 74.02577
#
# Poissons Ratio (x) = 0.32198 0.27688
# Poissons Ratio (y) = 0.14811 0.11076
# Poissons Ratio (z) = 0.22400 0.19479
#
# Static dielectric constant tensor:
#      x y z
#    x 3.837430 0.000000 0.000000 
#    y 0.000000 4.054540 0.000000 
#    z 0.000000 0.000000 3.676260 
# 
# 
# High freq. dielectric constant tensor:
#      x y z
#    x 1.820130 0.000000 0.000000 
#    y 0.000000 1.826040 0.000000 
#    z 0.000000 0.000000 1.804140 
# 
# From -- ./inp_files/24341.got.cif
#   From: 2010.03.12/outbox.cif.g09.slc.cpg/sg40_13_cif.got.tgz:24341.got - 2010.04.14 01:38:03.
