data_PCOD8184846
_publ_section_title
;
Structure prediction by ZEFSAII (Michael W. Deem and Ramdas Pophale) SiO2 
 PCOD8184846
Probable space group: A B A 2
;
_chemical_formula_sum "Si O2"
_cell_formula_units_Z 56
_cell_length_a 16.251454
_cell_length_b 31.380273
_cell_length_c 5.216205
_cell_angle_alpha 90.000000
_cell_angle_beta 90.000000
_cell_angle_gamma 90.000000
_cell_volume 2660.134474
_symmetry_space_group_name_H-M "A B A 2"
_symmetry_group_IT_number 41
_symmetry_cell_setting 'orthorhombic'
loop_
_space_group_symop_operation_xyz
x,y,z
-x,-y,z
1/2-x,y,1/2+z
1/2+x,-y,1/2+z
x,1/2+y,1/2+z
-x,1/2-y,1/2+z
1/2-x,1/2+y,z
1/2+x,1/2-y,z
loop_
_atom_site_type_symbol
_atom_site_label
_atom_site_fract_x
_atom_site_fract_y
_atom_site_fract_z
Si Si1 0.097170 0.494031 0.750000
Si Si2 0.697143 0.420630 0.252583
Si Si3 0.977321 0.633255 0.235885
Si Si4 0.426281 0.656067 0.234375
Si Si5 0.198256 0.327219 0.196956
Si Si6 0.436370 0.961510 0.250126
Si Si7 0.697915 0.771543 0.698523
O O1 0.139533 0.539033 0.709456
O O2 0.117643 0.462692 0.511473
O O3 0.000000 0.500000 0.792520
O O4 0.125323 0.470112 0.011223
O O5 0.731245 0.421199 0.541208
O O6 0.645368 0.378317 0.208227
O O7 0.882315 0.644251 0.206662
O O8 0.986637 0.582199 0.220729
O O9 0.008182 0.650450 0.508056
O O10 0.029507 0.653691 0.007738
O O11 0.386936 0.702703 0.210432
O O12 0.254835 0.338871 0.437268
O O13 0.172722 0.277781 0.203419
O O14 0.500000 0.000000 0.290385
O O15 0.745671 0.783837 0.439894
#
# Coordination Sequence:
#
# PCOD8184846 Si02
#       7
#     8   8   8   8   8   8   8
#     4  10  20  37  59  79 111 156 199 241 291 353
#     4  12  24  40  61  91 127 161 203 255 313 374
#     4  12  24  39  65  94 121 163 209 259 311 361
#     4  12  23  38  62  95 127 158 204 252 306 379
#     4  10  23  44  65  88 123 163 206 256 310 366
#     4  10  19  36  58  81 112 150 192 237 298 353
#     4  10  21  40  63  88 126 171 201 242 313 372
#
# _framework density 21.051565
#
# number of rings (size 3 to 8) (size 9 to 14) (size 15 to 20)
#    0.000    1.143    0.000    8.571    0.000    1.143 
#    0.000    4.286    0.000    0.000    0.000    0.000 
#    0.000    0.000    0.000    0.000    0.000    0.000 
#
# Total GULP energy -347280.252611 kJ/mol
# GULP energy per Si atom -12402.866165 kJ/mol
# Density = 2.100365 g / cm^3
# Si number density = 21.051565 Si / 1000 Ang^3
#
#
#
# Elastic Constant Matrix: (Units=GPa)
#
#
# Indices 1 2 3 4 5 6 
#
# 1 -592.7857 -339.0606 -775.3773 0.0000 0.0000 0.0000
# 2 -339.0606 -139.9186 -421.5519 0.0000 0.0000 0.0000
# 3 -775.3773 -421.5519 -776.7887 0.0000 0.0000 0.0000
# 4 0.0000 0.0000 0.0000 46.5801 0.0000 0.0000
# 5 0.0000 0.0000 0.0000 0.0000 35.2524 0.0000
# 6 0.0000 0.0000 0.0000 0.0000 0.0000 32.1729
#
#
#
# Elastic Compliance Matrix: (Units=1/GPa)
#
#
# Indices 1 2 3 4 5 6 
#
# 1 0.009433 -0.008676 -0.004707 0.000000 0.000000 0.000000
# 2 -0.008676 0.019235 -0.001778 0.000000 0.000000 0.000000
# 3 -0.004707 -0.001778 0.004376 0.000000 0.000000 0.000000
# 4 0.000000 0.000000 0.000000 0.021468 0.000000 0.000000
# 5 0.000000 0.000000 0.000000 0.000000 0.028367 0.000000
# 6 0.000000 0.000000 0.000000 0.000000 0.000000 0.031082
#
#
# Mechanical properties :
#
#
# Convention : Reuss Voigt Hill
#
# Bulk Modulus (GPa) = 367.50460 -509.05250 -70.77395
# Shear Modulus (GPa) = 34.43713 24.56752 29.50233
#
# Velocity S-wave (km/s) = 4.04895 3.41987 3.74763
# Velocity P-wave (km/s) = 14.02894 15.05799 3.86859
#
# Compressibility (1/GPa) = 0.00272105
#
# Stress axis : x y z
#
# Youngs Moduli (GPa) = 106.01192 51.98792 228.50541
#
# Poissons Ratio (x) = 0.45107 1.07563
# Poissons Ratio (y) = 0.91980 0.40630
# Poissons Ratio (z) = 0.49902 0.09244
#
# Static dielectric constant tensor:
#      x y z
#    x 3.530740 0.000000 0.000000 
#    y 0.000000 3.687250 0.000000 
#    z 0.000000 0.000000 8.173050 
# 
# 
# High freq. dielectric constant tensor:
#      x y z
#    x 1.803220 0.000000 0.000000 
#    y 0.000000 1.824160 0.000000 
#    z 0.000000 0.000000 1.861160 
# 
# From -- ./inp_files/336.got.cif
#   From: 2010.03.12/outbox.cif.g09.slc.cpg/sg41_1_cif.got.tgz:336.got - 2010.04.14 01:55:53.
