data_PCOD8184113
_publ_section_title
;
Structure prediction by ZEFSAII (Michael W. Deem and Ramdas Pophale) SiO2 
 PCOD8184113
Probable space group: A M A 2
;
_chemical_formula_sum "Si O2"
_cell_formula_units_Z 56
_cell_length_a 8.928721
_cell_length_b 18.333260
_cell_length_c 17.263273
_cell_angle_alpha 90.000000
_cell_angle_beta 90.000000
_cell_angle_gamma 90.000000
_cell_volume 2825.869413
_symmetry_space_group_name_H-M "A M A 2"
_symmetry_group_IT_number 40
_symmetry_cell_setting 'orthorhombic'
loop_
_space_group_symop_operation_xyz
x,y,z
-x,-y,z
1/2-x,y,z
1/2+x,-y,z
x,1/2+y,1/2+z
-x,1/2-y,1/2+z
1/2-x,1/2+y,1/2+z
1/2+x,1/2-y,1/2+z
loop_
_atom_site_type_symbol
_atom_site_label
_atom_site_fract_x
_atom_site_fract_y
_atom_site_fract_z
Si Si1 0.078370 0.188708 0.464100
Si Si2 0.076756 0.671988 0.517787
Si Si3 0.928161 0.152093 0.732926
Si Si4 0.922912 0.922225 0.592509
Si Si5 0.928026 0.921024 0.162973
Si Si6 0.075103 0.573358 0.372334
Si Si7 0.572380 0.309150 0.791084
O O1 0.250000 0.212530 0.456227
O O2 0.061541 0.111005 0.506410
O O3 0.006582 0.182058 0.378084
O O4 0.000551 0.249672 0.516859
O O5 0.250000 0.686007 0.533678
O O6 0.013305 0.621529 0.586762
O O7 0.045600 0.635019 0.435588
O O8 0.750000 0.145885 0.731587
O O9 0.983703 0.233028 0.754964
O O10 0.994374 0.133239 0.649667
O O11 0.993398 0.094324 0.793353
O O12 0.750000 0.930540 0.616999
O O13 0.000000 0.000000 0.593998
O O14 0.750000 0.929734 0.160954
O O15 0.984198 0.875794 0.237940
O O16 0.000000 0.000000 0.166008
O O17 0.250000 0.560930 0.357018
O O18 0.000000 0.500000 0.404491
O O19 0.750000 0.310175 0.793164
#
# Coordination Sequence:
#
# PCOD8184113 Si02
#       7
#     8   8   8   8   8   8   8
#     4  10  21  39  62  87 115 152 196 241 287 344
#     4  10  21  37  58  85 118 153 191 239 287 342
#     4  11  21  38  63  85 113 152 194 239 293 353
#     4  11  24  40  59  85 119 154 195 244 292 346
#     4  10  21  38  58  84 117 152 192 235 285 340
#     4  11  22  35  54  84 120 155 192 236 287 345
#     4   9  19  37  61  86 114 150 191 236 288 344
#
# _framework density 19.81691
#
# number of rings (size 3 to 8) (size 9 to 14) (size 15 to 20)
#    0.000    1.714    1.429    3.000    0.000    4.000 
#    0.000    2.143    0.000    0.000    0.000    0.000 
#    0.000    0.000    0.000    0.000    0.000    0.000 
#
# Total GULP energy -347291.885305 kJ/mol
# GULP energy per Si atom -12403.281618 kJ/mol
# Density = 1.977181 g / cm^3
# Si number density = 19.816910 Si / 1000 Ang^3
#
#
#
# Elastic Constant Matrix: (Units=GPa)
#
#
# Indices 1 2 3 4 5 6 
#
# 1 67.2691 35.9722 40.7521 0.0000 0.0000 0.0000
# 2 35.9722 106.6707 66.2550 0.0000 0.0000 0.0000
# 3 40.7521 66.2550 124.6997 0.0000 0.0000 0.0000
# 4 0.0000 0.0000 0.0000 28.4234 0.0000 0.0000
# 5 0.0000 0.0000 0.0000 0.0000 19.6653 0.0000
# 6 0.0000 0.0000 0.0000 0.0000 0.0000 24.5278
#
#
#
# Elastic Compliance Matrix: (Units=1/GPa)
#
#
# Indices 1 2 3 4 5 6 
#
# 1 0.019576 -0.003922 -0.004314 0.000000 0.000000 0.000000
# 2 -0.003922 0.014778 -0.006570 0.000000 0.000000 0.000000
# 3 -0.004314 -0.006570 0.012920 0.000000 0.000000 0.000000
# 4 0.000000 0.000000 0.000000 0.035182 0.000000 0.000000
# 5 0.000000 0.000000 0.000000 0.000000 0.050851 0.000000
# 6 0.000000 0.000000 0.000000 0.000000 0.000000 0.040770
#
#
# Mechanical properties :
#
#
# Convention : Reuss Voigt Hill
#
# Bulk Modulus (GPa) = 56.61804 64.95534 60.78669
# Shear Modulus (GPa) = 23.85759 24.90065 24.37912
#
# Velocity S-wave (km/s) = 3.47349 3.54861 3.51125
# Velocity P-wave (km/s) = 6.68726 7.04550 6.86872
#
# Compressibility (1/GPa) = 0.01766222
#
# Stress axis : x y z
#
# Youngs Moduli (GPa) = 51.08195 67.66749 77.40135
#
# Poissons Ratio (x) = 0.26543 0.33387
# Poissons Ratio (y) = 0.20037 0.50853
# Poissons Ratio (z) = 0.22034 0.44457
#
# Static dielectric constant tensor:
#      x y z
#    x 3.451400 0.000000 0.000000 
#    y 0.000000 3.569700 0.000000 
#    z 0.000000 0.000000 3.840260 
# 
# 
# High freq. dielectric constant tensor:
#      x y z
#    x 1.756800 0.000000 0.000000 
#    y 0.000000 1.779390 0.000000 
#    z 0.000000 0.000000 1.785230 
# 
# From -- ./inp_files/15323.got.cif
#   From: 2010.03.12/outbox.cif.g09.slc.cpg/sg40_8_cif.got.tgz:15323.got - 2010.04.14 01:38:03.
