data_PCOD8184150
_publ_section_title
;
Structure prediction by ZEFSAII (Michael W. Deem and Ramdas Pophale) SiO2 
 PCOD8184150
Probable space group: A M A 2
;
_chemical_formula_sum "Si O2"
_cell_formula_units_Z 48
_cell_length_a 13.566673
_cell_length_b 25.149121
_cell_length_c 6.846190
_cell_angle_alpha 90.000000
_cell_angle_beta 90.000000
_cell_angle_gamma 90.000000
_cell_volume 2335.850887
_symmetry_space_group_name_H-M "A M A 2"
_symmetry_group_IT_number 40
_symmetry_cell_setting 'orthorhombic'
loop_
_space_group_symop_operation_xyz
x,y,z
-x,-y,z
1/2-x,y,z
1/2+x,-y,z
x,1/2+y,1/2+z
-x,1/2-y,1/2+z
1/2-x,1/2+y,1/2+z
1/2+x,1/2-y,1/2+z
loop_
_atom_site_type_symbol
_atom_site_label
_atom_site_fract_x
_atom_site_fract_y
_atom_site_fract_z
Si Si1 0.136158 0.041762 0.364440
Si Si2 0.982599 0.810147 0.627865
Si Si3 0.470376 0.569980 0.248175
Si Si4 0.861830 0.506854 0.470313
Si Si5 0.638038 0.758339 0.950682
Si Si6 0.358426 0.159296 0.272285
O O1 0.250000 0.035863 0.440222
O O2 0.122628 0.096940 0.248946
O O3 0.056895 0.042079 0.540086
O O4 0.114070 0.995062 0.204276
O O5 0.933721 0.813340 0.417764
O O6 0.984385 0.867168 0.733578
O O7 0.092546 0.788338 0.586727
O O8 0.923064 0.766582 0.752538
O O9 0.569849 0.546628 0.345865
O O10 0.379855 0.553154 0.388726
O O11 0.750000 0.524736 0.436471
O O12 0.750000 0.741961 0.901703
O O13 0.631828 0.814618 0.060499
O O14 0.250000 0.169613 0.361048
#
# Coordination Sequence:
#
# PCOD8184150 Si02
#       6
#     8   8   8   8   8   8
#     4   9  18  35  60  87 117 152 196 246 297 352
#     4  11  21  38  58  87 122 157 199 247 296 355
#     4  10  22  36  60  89 117 157 196 246 299 357
#     4  10  21  38  59  86 117 153 199 248 300 362
#     4  11  22  36  59  86 117 159 202 247 297 351
#     4   9  18  34  58  87 116 151 198 246 292 347
#
# _framework density 20.549257999999998
#
# number of rings (size 3 to 8) (size 9 to 14) (size 15 to 20)
#    0.000    2.000    1.667    2.000    0.000    6.667 
#    0.000    0.000    0.000    1.000    0.000    0.000 
#    0.000    0.000    0.000    0.000    0.000    0.000 
#
# Total GULP energy -297345.064632 kJ/mol
# GULP energy per Si atom -12389.377693 kJ/mol
# Density = 2.050249 g / cm^3
# Si number density = 20.549258 Si / 1000 Ang^3
#
#
#
# Elastic Constant Matrix: (Units=GPa)
#
#
# Indices 1 2 3 4 5 6 
#
# 1 125.9877 34.6087 49.3158 0.0000 0.0000 0.0000
# 2 34.6087 60.5217 21.7533 0.0000 0.0000 0.0000
# 3 49.3158 21.7533 86.6490 0.0000 0.0000 0.0000
# 4 0.0000 0.0000 0.0000 28.6786 0.0000 0.0000
# 5 0.0000 0.0000 0.0000 0.0000 27.5507 0.0000
# 6 0.0000 0.0000 0.0000 0.0000 0.0000 30.1333
#
#
#
# Elastic Compliance Matrix: (Units=1/GPa)
#
#
# Indices 1 2 3 4 5 6 
#
# 1 0.011243 -0.004539 -0.005259 0.000000 0.000000 0.000000
# 2 -0.004539 0.019994 -0.002436 0.000000 0.000000 0.000000
# 3 -0.005259 -0.002436 0.015146 0.000000 0.000000 0.000000
# 4 0.000000 0.000000 0.000000 0.034869 0.000000 0.000000
# 5 0.000000 0.000000 0.000000 0.000000 0.036297 0.000000
# 6 0.000000 0.000000 0.000000 0.000000 0.000000 0.033186
#
#
# Mechanical properties :
#
#
# Convention : Reuss Voigt Hill
#
# Bulk Modulus (GPa) = 45.63315 53.83488 49.73401
# Shear Modulus (GPa) = 27.39612 28.43790 27.91701
#
# Velocity S-wave (km/s) = 3.65525 3.72410 3.68984
# Velocity P-wave (km/s) = 6.33004 6.68930 6.51215
#
# Compressibility (1/GPa) = 0.02191389
#
# Stress axis : x y z
#
# Youngs Moduli (GPa) = 88.94651 50.01481 66.02511
#
# Poissons Ratio (x) = 0.22700 0.34724
# Poissons Ratio (y) = 0.40370 0.16086
# Poissons Ratio (z) = 0.46780 0.12185
#
# Static dielectric constant tensor:
#      x y z
#    x 3.710020 0.000000 0.000000 
#    y 0.000000 3.479610 0.000000 
#    z 0.000000 0.000000 3.772850 
# 
# 
# High freq. dielectric constant tensor:
#      x y z
#    x 1.802570 0.000000 0.000000 
#    y 0.000000 1.779020 0.000000 
#    z 0.000000 0.000000 1.813480 
# 
# From -- ./inp_files/1343.got.cif
#   From: 2010.03.12/outbox.cif.g09.slc.cpg/sg40_1_cif.got.tgz:1343.got - 2010.04.14 01:38:03.
