data_PCOD8184501
_publ_section_title
;
Structure prediction by ZEFSAII (Michael W. Deem and Ramdas Pophale) SiO2 
 PCOD8184501
Probable space group: A M A 2
;
_chemical_formula_sum "Si O2"
_cell_formula_units_Z 64
_cell_length_a 30.917771
_cell_length_b 9.191882
_cell_length_c 10.268967
_cell_angle_alpha 90.000000
_cell_angle_beta 90.000000
_cell_angle_gamma 90.000000
_cell_volume 2918.363432
_symmetry_space_group_name_H-M "A M A 2"
_symmetry_group_IT_number 40
_symmetry_cell_setting 'orthorhombic'
loop_
_space_group_symop_operation_xyz
x,y,z
-x,-y,z
1/2-x,y,z
1/2+x,-y,z
x,1/2+y,1/2+z
-x,1/2-y,1/2+z
1/2-x,1/2+y,1/2+z
1/2+x,1/2-y,1/2+z
loop_
_atom_site_type_symbol
_atom_site_label
_atom_site_fract_x
_atom_site_fract_y
_atom_site_fract_z
Si Si1 0.619008 0.462251 0.997920
Si Si2 0.339198 0.979600 0.139992
Si Si3 0.202120 0.147594 0.349098
Si Si4 0.600530 0.288773 0.525696
Si Si5 0.971121 0.862893 0.428757
Si Si6 0.866848 0.321598 0.254775
Si Si7 0.991402 0.830092 0.137652
Si Si8 0.798928 0.030882 0.864260
O O1 0.664183 0.395972 0.948529
O O2 0.578481 0.416990 0.905993
O O3 0.624412 0.633725 0.019670
O O4 0.607991 0.394599 0.137172
O O5 0.359047 0.847552 0.223087
O O6 0.300067 0.046026 0.222886
O O7 0.376012 0.102367 0.125093
O O8 0.320893 0.932858 0.002282
O O9 0.250000 0.128044 0.414113
O O10 0.197485 0.312606 0.295007
O O11 0.602092 0.347027 0.377957
O O12 0.551686 0.273804 0.568750
O O13 0.988922 0.792362 0.292512
O O14 0.971844 0.751814 0.552313
O O15 0.000000 0.000000 0.468082
O O16 0.821601 0.404186 0.282168
O O17 0.000000 0.000000 0.121198
O O18 0.750000 0.978127 0.883307
#
# Coordination Sequence:
#
# PCOD8184501 Si02
#       8
#     8   8   8   8   8   8   8   8
#     4  12  24  44  70  99 140 185 230 289 352 421
#     4  11  22  43  66  96 134 179 226 290 346 418
#     4  11  23  41  68  97 133 183 231 285 351 409
#     4  11  25  44  67 101 139 177 233 287 348 424
#     4  11  26  47  71 103 141 184 230 288 354 423
#     4  11  25  40  70  97 134 181 231 278 357 421
#     4  11  27  44  72 103 141 182 231 289 351 425
#     4  10  23  42  63  96 134 175 233 289 344 416
#
# _framework density 21.930101000000001
#
# number of rings (size 3 to 8) (size 9 to 14) (size 15 to 20)
#    0.000    1.000    3.750    1.875    3.500    3.000 
#    0.000    0.625    0.000    0.000    0.000    0.000 
#    0.000    0.000    0.000    0.000    0.000    0.000 
#
# Total GULP energy -396736.318095 kJ/mol
# GULP energy per Si atom -12398.009940 kJ/mol
# Density = 2.188019 g / cm^3
# Si number density = 21.930101 Si / 1000 Ang^3
#
#
#
# Elastic Constant Matrix: (Units=GPa)
#
#
# Indices 1 2 3 4 5 6 
#
# 1 88.2628 17.5816 20.4586 0.0000 0.0000 0.0000
# 2 17.5816 95.7878 40.1633 0.0000 0.0000 0.0000
# 3 20.4586 40.1633 107.1895 0.0000 0.0000 0.0000
# 4 0.0000 0.0000 0.0000 39.4412 0.0000 0.0000
# 5 0.0000 0.0000 0.0000 0.0000 27.4869 0.0000
# 6 0.0000 0.0000 0.0000 0.0000 0.0000 31.1710
#
#
#
# Elastic Compliance Matrix: (Units=1/GPa)
#
#
# Indices 1 2 3 4 5 6 
#
# 1 0.012028 -0.001477 -0.001742 0.000000 0.000000 0.000000
# 2 -0.001477 0.012567 -0.004427 0.000000 0.000000 0.000000
# 3 -0.001742 -0.004427 0.011321 0.000000 0.000000 0.000000
# 4 0.000000 0.000000 0.000000 0.025354 0.000000 0.000000
# 5 0.000000 0.000000 0.000000 0.000000 0.036381 0.000000
# 6 0.000000 0.000000 0.000000 0.000000 0.000000 0.032081
#
#
# Mechanical properties :
#
#
# Convention : Reuss Voigt Hill
#
# Bulk Modulus (GPa) = 48.48966 49.73855 49.11410
# Shear Modulus (GPa) = 32.91672 33.82225 33.36949
#
# Velocity S-wave (km/s) = 3.87846 3.93144 3.90504
# Velocity P-wave (km/s) = 6.49735 6.58316 6.54040
#
# Compressibility (1/GPa) = 0.02062295
#
# Stress axis : x y z
#
# Youngs Moduli (GPa) = 83.14018 79.57326 88.33525
#
# Poissons Ratio (x) = 0.11755 0.15390
# Poissons Ratio (y) = 0.12281 0.39105
# Poissons Ratio (z) = 0.14485 0.35226
#
# Static dielectric constant tensor:
#      x y z
#    x 3.889300 0.000000 0.000000 
#    y 0.000000 4.002060 0.000000 
#    z 0.000000 0.000000 4.048400 
# 
# 
# High freq. dielectric constant tensor:
#      x y z
#    x 1.860630 0.000000 0.000000 
#    y 0.000000 1.869690 0.000000 
#    z 0.000000 0.000000 1.867440 
# 
# From -- ./inp_files/14424.got.cif
#   From: 2010.03.12/outbox.cif.g09.slc.cpg/sg40_8_cif.got.tgz:14424.got - 2010.04.14 01:38:03.
