data_PCOD8184947
_publ_section_title
;
Structure prediction by ZEFSAII (Michael W. Deem and Ramdas Pophale) SiO2 
 PCOD8184947
Probable space group: A B A 2
;
_chemical_formula_sum "Si O2"
_cell_formula_units_Z 48
_cell_length_a 14.803263
_cell_length_b 9.733770
_cell_length_c 13.649748
_cell_angle_alpha 90.000000
_cell_angle_beta 90.000000
_cell_angle_gamma 90.000000
_cell_volume 1966.813446
_symmetry_space_group_name_H-M "A B A 2"
_symmetry_group_IT_number 41
_symmetry_cell_setting 'orthorhombic'
loop_
_space_group_symop_operation_xyz
x,y,z
-x,-y,z
1/2-x,y,1/2+z
1/2+x,-y,1/2+z
x,1/2+y,1/2+z
-x,1/2-y,1/2+z
1/2-x,1/2+y,z
1/2+x,1/2-y,z
loop_
_atom_site_type_symbol
_atom_site_label
_atom_site_fract_x
_atom_site_fract_y
_atom_site_fract_z
Si Si1 0.782974 0.655066 0.875000
Si Si2 0.022397 0.723200 0.355455
Si Si3 0.650884 0.874086 0.862099
Si Si4 0.000000 0.000000 0.011637
Si Si5 0.500000 0.000000 0.193437
Si Si6 0.684585 0.089961 0.579760
Si Si7 0.831126 0.893930 0.593719
O O1 0.874984 0.742114 0.882055
O O2 0.708694 0.746504 0.816894
O O3 0.811063 0.516498 0.816161
O O4 0.737625 0.617776 0.978442
O O5 0.988436 0.636298 0.447396
O O6 0.956357 0.855093 0.344412
O O7 0.007436 0.636751 0.257590
O O8 0.670569 0.880616 0.977288
O O9 0.090400 0.993704 0.075390
O O10 0.414704 0.009690 0.122728
O O11 0.669410 0.236203 0.636318
O O12 0.745970 0.978776 0.636787
#
# Coordination Sequence:
#
# PCOD8184947 Si02
#       7
#     8   8   8   4   4   8   8
#     4  10  20  37  64 102 125 163 230 284 325 391
#     4  11  22  39  63  97 138 178 219 281 340 414
#     4  10  21  38  71  98 122 176 232 281 326 404
#     4  11  18  36  66 106 131 166 232 297 330 388
#     4  11  28  42  62  98 151 176 218 279 368 400
#     4  10  21  37  71  99 128 174 233 288 329 407
#     4  10  22  43  62  99 130 180 219 281 342 405
#
# _framework density 24.404955999999999
#
# number of rings (size 3 to 8) (size 9 to 14) (size 15 to 20)
#    0.000    1.667    3.333    3.500    7.000    1.333 
#    3.000    0.000    7.333    0.000    0.000    0.000 
#    0.000    0.000    0.000    0.000    0.000    0.000 
#
# Total GULP energy -297334.804393 kJ/mol
# GULP energy per Si atom -12388.950183 kJ/mol
# Density = 2.434941 g / cm^3
# Si number density = 24.404956 Si / 1000 Ang^3
#
#
#
# Elastic Constant Matrix: (Units=GPa)
#
#
# Indices 1 2 3 4 5 6 
#
# 1 202.4890 58.8489 14.5582 0.0000 0.0000 0.0000
# 2 58.8489 130.5492 11.9845 0.0000 0.0000 0.0000
# 3 14.5582 11.9845 10.9606 0.0000 0.0000 0.0000
# 4 0.0000 0.0000 0.0000 1.6682 0.0000 0.0000
# 5 0.0000 0.0000 0.0000 0.0000 -8.2355 0.0000
# 6 0.0000 0.0000 0.0000 0.0000 0.0000 61.8420
#
#
#
# Elastic Compliance Matrix: (Units=1/GPa)
#
#
# Indices 1 2 3 4 5 6 
#
# 1 0.005972 -0.002183 -0.005545 0.000000 0.000000 0.000000
# 2 -0.002183 0.009313 -0.007283 0.000000 0.000000 0.000000
# 3 -0.005545 -0.007283 0.106565 0.000000 0.000000 0.000000
# 4 0.000000 0.000000 0.000000 0.599440 0.000000 0.000000
# 5 0.000000 0.000000 0.000000 0.000000 -0.121426 0.000000
# 6 0.000000 0.000000 0.000000 0.000000 0.000000 0.016170
#
#
# Mechanical properties :
#
#
# Convention : Reuss Voigt Hill
#
# Bulk Modulus (GPa) = 10.89007 57.19799 34.04403
# Shear Modulus (GPa) = 7.38919 28.29541 17.84230
#
# Velocity S-wave (km/s) = 1.74193 3.40871 2.70681
# Velocity P-wave (km/s) = 2.91851 6.24342 4.87329
#
# Compressibility (1/GPa) = 0.09182679
#
# Stress axis : x y z
#
# Youngs Moduli (GPa) = 167.45953 107.38215 9.38398
#
# Poissons Ratio (x) = 0.23440 0.05203
# Poissons Ratio (y) = 0.36554 0.06835
# Poissons Ratio (z) = 0.92854 0.78209
#
# Static dielectric constant tensor:
#      x y z
#    x 4.637250 0.000000 0.000000 
#    y 0.000000 5.666390 0.000000 
#    z 0.000000 0.000000 3.800870 
# 
# 
# High freq. dielectric constant tensor:
#      x y z
#    x 1.986760 0.000000 0.000000 
#    y 0.000000 1.987900 0.000000 
#    z 0.000000 0.000000 1.926420 
# 
# From -- ./inp_files/9990.got.cif
#   From: 2010.03.12/outbox.cif.g09.slc.cpg/sg41_5_cif.got.tgz:9990.got - 2010.04.14 01:55:53.
