data_PCOD8184276
_publ_section_title
;
Structure prediction by ZEFSAII (Michael W. Deem and Ramdas Pophale) SiO2 
 PCOD8184276
Probable space group: A M A 2
;
_chemical_formula_sum "Si O2"
_cell_formula_units_Z 36
_cell_length_a 12.983336
_cell_length_b 22.071967
_cell_length_c 6.118589
_cell_angle_alpha 90.000000
_cell_angle_beta 90.000000
_cell_angle_gamma 90.000000
_cell_volume 1753.390367
_symmetry_space_group_name_H-M "A M A 2"
_symmetry_group_IT_number 40
_symmetry_cell_setting 'orthorhombic'
loop_
_space_group_symop_operation_xyz
x,y,z
-x,-y,z
1/2-x,y,z
1/2+x,-y,z
x,1/2+y,1/2+z
-x,1/2-y,1/2+z
1/2-x,1/2+y,1/2+z
1/2+x,1/2-y,1/2+z
loop_
_atom_site_type_symbol
_atom_site_label
_atom_site_fract_x
_atom_site_fract_y
_atom_site_fract_z
Si Si1 0.632088 0.922109 0.725150
Si Si2 0.630641 0.691117 0.138510
Si Si3 0.000000 0.500000 0.538562
Si Si4 0.952932 0.812724 0.972626
Si Si5 0.986169 0.104637 0.348739
O O1 0.750000 0.936642 0.680702
O O2 0.618993 0.855050 0.824042
O O3 0.574830 0.926131 0.494072
O O4 0.589818 0.972532 0.890531
O O5 0.750000 0.690952 0.203435
O O6 0.565266 0.693384 0.361596
O O7 0.603182 0.748375 0.986974
O O8 0.605133 0.629909 0.002407
O O9 0.053538 0.447305 0.683706
O O10 0.965149 0.839663 0.214495
#
# Coordination Sequence:
#
# PCOD8184276 Si02
#       5
#     8   8   4   8   8
#     4  10  22  40  65  91 120 166 213 257 310 366
#     4  11  22  38  63  93 130 171 203 254 319 368
#     4  10  22  42  64  90 126 160 208 266 304 364
#     4  10  21  41  58  93 130 159 210 259 299 383
#     4  10  22  41  62  89 129 162 204 261 304 374
#
# _framework density 20.531652999999999
#
# number of rings (size 3 to 8) (size 9 to 14) (size 15 to 20)
#    0.000    1.778    2.222    1.333    0.000    6.222 
#    0.000   15.556    0.000    0.000    0.000    0.000 
#    0.000    0.000    0.000    0.000    0.000    0.000 
#
# Total GULP energy -223253.410047 kJ/mol
# GULP energy per Si atom -12402.967225 kJ/mol
# Density = 2.048492 g / cm^3
# Si number density = 20.531653 Si / 1000 Ang^3
#
#
#
# Elastic Constant Matrix: (Units=GPa)
#
#
# Indices 1 2 3 4 5 6 
#
# 1 146.0602 51.1477 48.1779 0.0000 0.0000 0.0000
# 2 51.1477 108.5349 41.1095 0.0000 0.0000 0.0000
# 3 48.1779 41.1095 108.2826 0.0000 0.0000 0.0000
# 4 0.0000 0.0000 0.0000 36.9130 0.0000 0.0000
# 5 0.0000 0.0000 0.0000 0.0000 16.9428 0.0000
# 6 0.0000 0.0000 0.0000 0.0000 0.0000 20.5664
#
#
#
# Elastic Compliance Matrix: (Units=1/GPa)
#
#
# Indices 1 2 3 4 5 6 
#
# 1 0.008849 -0.003129 -0.002749 0.000000 0.000000 0.000000
# 2 -0.003129 0.011867 -0.003113 0.000000 0.000000 0.000000
# 3 -0.002749 -0.003113 0.011640 0.000000 0.000000 0.000000
# 4 0.000000 0.000000 0.000000 0.027091 0.000000 0.000000
# 5 0.000000 0.000000 0.000000 0.000000 0.059022 0.000000
# 6 0.000000 0.000000 0.000000 0.000000 0.000000 0.048623
#
#
# Mechanical properties :
#
#
# Convention : Reuss Voigt Hill
#
# Bulk Modulus (GPa) = 69.57133 71.52755 70.54944
# Shear Modulus (GPa) = 26.33427 29.71394 28.02410
#
# Velocity S-wave (km/s) = 3.58525 3.80837 3.69849
# Velocity P-wave (km/s) = 7.14823 7.36557 7.25771
#
# Compressibility (1/GPa) = 0.01437374
#
# Stress axis : x y z
#
# Youngs Moduli (GPa) = 113.00708 84.26496 85.90822
#
# Poissons Ratio (x) = 0.26365 0.23619
# Poissons Ratio (y) = 0.35358 0.26746
# Poissons Ratio (z) = 0.31069 0.26235
#
# Static dielectric constant tensor:
#      x y z
#    x 3.321890 0.000000 0.000000 
#    y 0.000000 3.918070 0.000000 
#    z 0.000000 0.000000 3.828860 
# 
# 
# High freq. dielectric constant tensor:
#      x y z
#    x 1.770940 0.000000 0.000000 
#    y 0.000000 1.817460 0.000000 
#    z 0.000000 0.000000 1.815690 
# 
# From -- ./inp_files/749.got.cif
#   From: 2010.03.12/outbox.cif.g09.slc.cpg/sg40_1_cif.got.tgz:749.got - 2010.04.14 01:38:03.
