data_PCOD8184655
_publ_section_title
;
Structure prediction by ZEFSAII (Michael W. Deem and Ramdas Pophale) SiO2 
 PCOD8184655
Probable space group: A M A 2
;
_chemical_formula_sum "Si O2"
_cell_formula_units_Z 40
_cell_length_a 20.391484
_cell_length_b 8.216690
_cell_length_c 9.946348
_cell_angle_alpha 90.000000
_cell_angle_beta 90.000000
_cell_angle_gamma 90.000000
_cell_volume 1666.515607
_symmetry_space_group_name_H-M "A M A 2"
_symmetry_group_IT_number 40
_symmetry_cell_setting 'orthorhombic'
loop_
_space_group_symop_operation_xyz
x,y,z
-x,-y,z
1/2-x,y,z
1/2+x,-y,z
x,1/2+y,1/2+z
-x,1/2-y,1/2+z
1/2-x,1/2+y,1/2+z
1/2+x,1/2-y,1/2+z
loop_
_atom_site_type_symbol
_atom_site_label
_atom_site_fract_x
_atom_site_fract_y
_atom_site_fract_z
Si Si1 0.250000 0.026545 0.668100
Si Si2 0.750000 0.117137 0.095700
Si Si3 0.500000 0.000000 0.484730
Si Si4 0.643084 0.511948 0.394805
Si Si5 0.611582 0.849660 0.327301
Si Si6 0.750000 0.989018 0.383538
Si Si7 0.546708 0.344262 0.553801
O O1 0.250000 0.189700 0.576891
O O2 0.250000 0.913441 0.530488
O O3 0.315012 0.010197 0.757829
O O4 0.750000 0.113742 0.258984
O O5 0.687305 0.034546 0.027373
O O6 0.565173 0.982274 0.396814
O O7 0.490317 0.830396 0.565999
O O8 0.595584 0.667880 0.378976
O O9 0.592342 0.362081 0.418925
O O10 0.687011 0.875544 0.363293
O O11 0.600077 0.856304 0.170102
O O12 0.500000 0.500000 0.567702
#
# Coordination Sequence:
#
# PCOD8184655 Si02
#       7
#     4   4   4   8   8   4   8
#     4  11  26  43  73 116 156 202 259 321 408 470
#     4  11  23  45  74 107 161 201 252 323 397 468
#     4  12  30  48  76 116 150 220 258 322 396 476
#     4  11  25  47  74 111 156 208 254 327 396 471
#     4  12  26  50  77 111 157 203 269 326 391 472
#     4  12  25  46  77 113 157 197 263 336 385 476
#     4  12  27  50  77 109 157 207 268 323 391 473
#
# _framework density 24.002177
#
# number of rings (size 3 to 8) (size 9 to 14) (size 15 to 20)
#    0.000    0.400    7.000    0.600    5.600    1.600 
#    0.000    0.000    0.000    0.000    0.000    0.000 
#    0.000    0.000    0.000    0.000    0.000    0.000 
#
# Total GULP energy -247794.180548 kJ/mol
# GULP energy per Si atom -12389.709027 kJ/mol
# Density = 2.394755 g / cm^3
# Si number density = 24.002177 Si / 1000 Ang^3
#
#
#
# Elastic Constant Matrix: (Units=GPa)
#
#
# Indices 1 2 3 4 5 6 
#
# 1 123.9985 54.1562 53.2866 0.0000 0.0000 0.0000
# 2 54.1562 130.6596 30.4483 0.0000 0.0000 0.0000
# 3 53.2866 30.4483 163.2095 0.0000 0.0000 0.0000
# 4 0.0000 0.0000 0.0000 27.0112 0.0000 0.0000
# 5 0.0000 0.0000 0.0000 0.0000 30.6392 0.0000
# 6 0.0000 0.0000 0.0000 0.0000 0.0000 36.0762
#
#
#
# Elastic Compliance Matrix: (Units=1/GPa)
#
#
# Indices 1 2 3 4 5 6 
#
# 1 0.010994 -0.003889 -0.002864 0.000000 0.000000 0.000000
# 2 -0.003889 0.009377 -0.000480 0.000000 0.000000 0.000000
# 3 -0.002864 -0.000480 0.007152 0.000000 0.000000 0.000000
# 4 0.000000 0.000000 0.000000 0.037022 0.000000 0.000000
# 5 0.000000 0.000000 0.000000 0.000000 0.032638 0.000000
# 6 0.000000 0.000000 0.000000 0.000000 0.000000 0.027719
#
#
# Mechanical properties :
#
#
# Convention : Reuss Voigt Hill
#
# Bulk Modulus (GPa) = 76.58593 77.07221 76.82907
# Shear Modulus (GPa) = 34.78993 37.41043 36.10018
#
# Velocity S-wave (km/s) = 3.81129 3.95223 3.88240
# Velocity P-wave (km/s) = 7.16555 7.28059 7.22330
#
# Compressibility (1/GPa) = 0.01305723
#
# Stress axis : x y z
#
# Youngs Moduli (GPa) = 90.95850 106.64004 139.82919
#
# Poissons Ratio (x) = 0.41477 0.40045
# Poissons Ratio (y) = 0.35378 0.06706
# Poissons Ratio (z) = 0.26049 0.05114
#
# Static dielectric constant tensor:
#      x y z
#    x 4.239670 0.000000 0.000000 
#    y 0.000000 4.251440 0.000000 
#    z 0.000000 0.000000 4.367250 
# 
# 
# High freq. dielectric constant tensor:
#      x y z
#    x 1.960120 0.000000 0.000000 
#    y 0.000000 1.947370 0.000000 
#    z 0.000000 0.000000 1.958660 
# 
# From -- ./inp_files/8636.got.cif
#   From: 2010.03.12/outbox.cif.g09.slc.cpg/sg40_5_cif.got.tgz:8636.got - 2010.04.14 01:38:03.
