data_PCOD8184739
_publ_section_title
;
Structure prediction by ZEFSAII (Michael W. Deem and Ramdas Pophale) SiO2 
 PCOD8184739
Probable space group: A B A 2
;
_chemical_formula_sum "Si O2"
_cell_formula_units_Z 52
_cell_length_a 16.634158
_cell_length_b 10.487483
_cell_length_c 15.777909
_cell_angle_alpha 90.000000
_cell_angle_beta 90.000000
_cell_angle_gamma 90.000000
_cell_volume 2752.463313
_symmetry_space_group_name_H-M "A B A 2"
_symmetry_group_IT_number 41
_symmetry_cell_setting 'orthorhombic'
loop_
_space_group_symop_operation_xyz
x,y,z
-x,-y,z
1/2-x,y,1/2+z
1/2+x,-y,1/2+z
x,1/2+y,1/2+z
-x,1/2-y,1/2+z
1/2-x,1/2+y,z
1/2+x,1/2-y,z
loop_
_atom_site_type_symbol
_atom_site_label
_atom_site_fract_x
_atom_site_fract_y
_atom_site_fract_z
Si Si1 0.875944 0.145948 0.637320
Si Si2 0.067641 0.255230 0.810306
Si Si3 0.740833 0.182598 0.766892
Si Si4 0.000000 0.500000 0.254285
Si Si5 0.817117 0.932120 0.322730
Si Si6 0.085286 0.941436 0.459133
Si Si7 0.053472 0.107847 0.191536
O O1 0.787939 0.169775 0.677847
O O2 0.865286 0.086750 0.544716
O O3 0.921795 0.281675 0.626277
O O4 0.928859 0.055132 0.696584
O O5 0.148561 0.272877 0.753955
O O6 0.039972 0.107933 0.813872
O O7 0.080678 0.310825 0.904679
O O8 0.997249 0.336812 0.769362
O O9 0.780768 0.291100 0.826059
O O10 0.747839 0.047374 0.816514
O O11 0.868990 0.953071 0.236891
O O12 0.868088 0.948817 0.408030
O O13 0.000000 0.000000 0.485067
O O14 0.000000 0.000000 0.143860
#
# Coordination Sequence:
#
# PCOD8184739 Si02
#       7
#     8   8   8   4   8   8   8
#     4  10  22  33  58  85 118 143 194 243 299 335
#     4  10  19  35  63  82 114 152 198 233 286 354
#     4  10  20  35  55  86 115 158 190 237 286 356
#     4  10  20  36  56  88 112 148 200 240 278 346
#     4  10  19  35  61  82 116 153 201 228 286 353
#     4  11  19  38  59  85 111 153 194 245 289 342
#     4  10  16  35  60  85 100 157 197 232 267 360
#
# _framework density 18.892168999999999
#
# number of rings (size 3 to 8) (size 9 to 14) (size 15 to 20)
#    0.000    1.846    5.385    0.923    0.000    0.000 
#    1.385    9.231    0.000    0.000    0.000    0.000 
#    0.000    0.000    0.000    0.000    0.000    0.000 
#
# Total GULP energy -322260.091706 kJ/mol
# GULP energy per Si atom -12394.618912 kJ/mol
# Density = 1.884917 g / cm^3
# Si number density = 18.892169 Si / 1000 Ang^3
#
#
#
# Elastic Constant Matrix: (Units=GPa)
#
#
# Indices 1 2 3 4 5 6 
#
# 1 77.9284 42.7554 27.2511 0.0000 0.0000 0.0000
# 2 42.7554 121.1199 35.0638 0.0000 0.0000 0.0000
# 3 27.2511 35.0638 79.8817 0.0000 0.0000 0.0000
# 4 0.0000 0.0000 0.0000 23.2431 0.0000 0.0000
# 5 0.0000 0.0000 0.0000 0.0000 20.2100 0.0000
# 6 0.0000 0.0000 0.0000 0.0000 0.0000 38.7014
#
#
#
# Elastic Compliance Matrix: (Units=1/GPa)
#
#
# Indices 1 2 3 4 5 6 
#
# 1 0.016761 -0.004882 -0.003575 0.000000 0.000000 0.000000
# 2 -0.004882 0.010880 -0.003110 0.000000 0.000000 0.000000
# 3 -0.003575 -0.003110 0.015103 0.000000 0.000000 0.000000
# 4 0.000000 0.000000 0.000000 0.043024 0.000000 0.000000
# 5 0.000000 0.000000 0.000000 0.000000 0.049480 0.000000
# 6 0.000000 0.000000 0.000000 0.000000 0.000000 0.025839
#
#
# Mechanical properties :
#
#
# Convention : Reuss Voigt Hill
#
# Bulk Modulus (GPa) = 50.99435 54.34119 52.66777
# Shear Modulus (GPa) = 26.21126 28.02154 27.11640
#
# Velocity S-wave (km/s) = 3.72884 3.85546 3.79268
# Velocity P-wave (km/s) = 6.75203 6.97465 6.86424
#
# Compressibility (1/GPa) = 0.01961002
#
# Stress axis : x y z
#
# Youngs Moduli (GPa) = 59.66323 91.91233 66.21016
#
# Poissons Ratio (x) = 0.44868 0.23671
# Poissons Ratio (y) = 0.29125 0.20594
# Poissons Ratio (z) = 0.21330 0.28588
#
# Static dielectric constant tensor:
#      x y z
#    x 3.623490 0.000000 0.000000 
#    y 0.000000 3.824320 0.000000 
#    z 0.000000 0.000000 2.964410 
# 
# 
# High freq. dielectric constant tensor:
#      x y z
#    x 1.739970 0.000000 0.000000 
#    y 0.000000 1.753460 0.000000 
#    z 0.000000 0.000000 1.682330 
# 
# From -- ./inp_files/8767.got.cif
#   From: 2010.03.12/outbox.cif.g09.slc.cpg/sg41_5_cif.got.tgz:8767.got - 2010.04.14 01:55:53.
