data_PCOD8184984
_publ_section_title
;
Structure prediction by ZEFSAII (Michael W. Deem and Ramdas Pophale) SiO2 
 PCOD8184984
Probable space group: A B A 2
;
_chemical_formula_sum "Si O2"
_cell_formula_units_Z 60
_cell_length_a 25.526652
_cell_length_b 11.535163
_cell_length_c 8.689350
_cell_angle_alpha 90.000000
_cell_angle_beta 90.000000
_cell_angle_gamma 90.000000
_cell_volume 2558.614661
_symmetry_space_group_name_H-M "A B A 2"
_symmetry_group_IT_number 41
_symmetry_cell_setting 'orthorhombic'
loop_
_space_group_symop_operation_xyz
x,y,z
-x,-y,z
1/2-x,y,1/2+z
1/2+x,-y,1/2+z
x,1/2+y,1/2+z
-x,1/2-y,1/2+z
1/2-x,1/2+y,z
1/2+x,1/2-y,z
loop_
_atom_site_type_symbol
_atom_site_label
_atom_site_fract_x
_atom_site_fract_y
_atom_site_fract_z
Si Si1 0.687332 0.592050 0.653890
Si Si2 0.977679 0.298334 0.636122
Si Si3 0.938439 0.833630 0.481159
Si Si4 0.316598 0.219988 0.989826
Si Si5 0.771982 0.341730 0.691742
Si Si6 0.931799 0.563929 0.147681
Si Si7 0.775038 0.030135 0.956332
Si Si8 0.000000 0.500000 0.424653
O O1 0.689856 0.728363 0.685646
O O2 0.629622 0.543177 0.658270
O O3 0.715386 0.568265 0.491947
O O4 0.721303 0.505952 0.771690
O O5 0.038099 0.259625 0.603244
O O6 0.967397 0.411241 0.532059
O O7 0.965043 0.323332 0.813696
O O8 0.942855 0.190044 0.573504
O O9 0.876205 0.819226 0.477389
O O10 0.954802 0.960101 0.544786
O O11 0.288427 0.192500 0.152557
O O12 0.280024 0.136249 0.875747
O O13 0.313720 0.357582 0.962561
O O14 0.797765 0.434442 0.574191
O O15 0.957353 0.564858 0.318202
#
# Coordination Sequence:
#
# PCOD8184984 Si02
#       8
#     8   8   8   8   8   8   8   4
#     4  10  23  39  66  98 139 181 235 278 349 420
#     4  12  26  48  75 106 139 187 247 300 360 434
#     4  12  25  49  74 104 146 189 241 300 359 424
#     4  10  23  41  65 101 140 180 236 285 345 431
#     4  10  20  39  64  97 139 183 230 284 342 420
#     4  12  25  50  72 104 145 190 233 307 358 424
#     4  10  20  39  63  95 141 185 226 287 338 420
#     4  12  28  46  78 100 142 188 238 310 364 422
#
# _framework density 23.450189999999999
#
# number of rings (size 3 to 8) (size 9 to 14) (size 15 to 20)
#    0.000    1.067    2.667    3.200    1.867    2.133 
#    0.000   10.667    0.000    0.000    0.000    0.000 
#    0.000    0.000    0.000    0.000    0.000    0.000 
#
# Total GULP energy -371862.382302 kJ/mol
# GULP energy per Si atom -12395.412743 kJ/mol
# Density = 2.339682 g / cm^3
# Si number density = 23.450190 Si / 1000 Ang^3
#
#
#
# Elastic Constant Matrix: (Units=GPa)
#
#
# Indices 1 2 3 4 5 6 
#
# 1 124.2678 18.4604 58.7191 0.0000 0.0000 0.0000
# 2 18.4604 118.8426 62.8861 0.0000 0.0000 0.0000
# 3 58.7191 62.8861 119.0912 0.0000 0.0000 0.0000
# 4 0.0000 0.0000 0.0000 43.6624 0.0000 0.0000
# 5 0.0000 0.0000 0.0000 0.0000 30.4183 0.0000
# 6 0.0000 0.0000 0.0000 0.0000 0.0000 27.6905
#
#
#
# Elastic Compliance Matrix: (Units=1/GPa)
#
#
# Indices 1 2 3 4 5 6 
#
# 1 0.010698 0.001567 -0.006102 0.000000 0.000000 0.000000
# 2 0.001567 0.011907 -0.007060 0.000000 0.000000 0.000000
# 3 -0.006102 -0.007060 0.015134 0.000000 0.000000 0.000000
# 4 0.000000 0.000000 0.000000 0.022903 0.000000 0.000000
# 5 0.000000 0.000000 0.000000 0.000000 0.032875 0.000000
# 6 0.000000 0.000000 0.000000 0.000000 0.000000 0.036113
#
#
# Mechanical properties :
#
#
# Convention : Reuss Voigt Hill
#
# Bulk Modulus (GPa) = 68.73704 71.37032 70.05368
# Shear Modulus (GPa) = 31.71185 35.16331 33.43758
#
# Velocity S-wave (km/s) = 3.68136 3.87652 3.78020
# Velocity P-wave (km/s) = 6.88807 7.10897 6.99939
#
# Compressibility (1/GPa) = 0.01454820
#
# Stress axis : x y z
#
# Youngs Moduli (GPa) = 93.47773 83.98418 66.07702
#
# Poissons Ratio (x) = -0.13163 0.40322
# Poissons Ratio (y) = -0.14651 0.46652
# Poissons Ratio (z) = 0.57042 0.59295
#
# Static dielectric constant tensor:
#      x y z
#    x 3.879650 0.000000 0.000000 
#    y 0.000000 4.780140 0.000000 
#    z 0.000000 0.000000 4.487740 
# 
# 
# High freq. dielectric constant tensor:
#      x y z
#    x 1.908090 0.000000 0.000000 
#    y 0.000000 1.967320 0.000000 
#    z 0.000000 0.000000 1.931780 
# 
# From -- ./inp_files/3829.got.cif
#   From: 2010.03.12/outbox.cif.g09.slc.cpg/sg41_2_cif.got.tgz:3829.got - 2010.04.14 01:55:53.
