data_PCOD8184560
_publ_section_title
;
Structure prediction by ZEFSAII (Michael W. Deem and Ramdas Pophale) SiO2 
 PCOD8184560
Probable space group: A M A 2
;
_chemical_formula_sum "Si O2"
_cell_formula_units_Z 24
_cell_length_a 7.882808
_cell_length_b 24.454486
_cell_length_c 4.926828
_cell_angle_alpha 90.000000
_cell_angle_beta 90.000000
_cell_angle_gamma 90.000000
_cell_volume 949.744722
_symmetry_space_group_name_H-M "A M A 2"
_symmetry_group_IT_number 40
_symmetry_cell_setting 'orthorhombic'
loop_
_space_group_symop_operation_xyz
x,y,z
-x,-y,z
1/2-x,y,z
1/2+x,-y,z
x,1/2+y,1/2+z
-x,1/2-y,1/2+z
1/2-x,1/2+y,1/2+z
1/2+x,1/2-y,1/2+z
loop_
_atom_site_type_symbol
_atom_site_label
_atom_site_fract_x
_atom_site_fract_y
_atom_site_fract_z
Si Si1 0.942574 0.217612 0.072280
Si Si2 0.935627 0.895267 0.286938
Si Si3 0.250000 0.516704 0.505715
Si Si4 0.750000 0.556557 0.999615
O O1 0.750000 0.212678 0.971397
O O2 0.946585 0.252865 0.345443
O O3 0.016999 0.157690 0.116295
O O4 0.750000 0.886572 0.430645
O O5 0.077664 0.907200 0.520180
O O6 0.917230 0.946284 0.073586
O O7 0.250000 0.462887 0.688986
O O8 0.250000 0.496322 0.194048
#
# Coordination Sequence:
#
# PCOD8184560 Si02
#       4
#     8   8   4   4
#     4  12  26  49  80 117 157 201 258 322 390 467
#     4  10  25  50  74 115 149 204 254 318 379 459
#     4  10  28  44  76 106 152 200 256 312 369 462
#     4  12  24  52  68 110 152 202 252 314 379 442
#
# _framework density 25.269952
#
# number of rings (size 3 to 8) (size 9 to 14) (size 15 to 20)
#    1.000    0.000    1.667    4.000    0.000   10.667 
#    3.000    0.000    0.000    0.000    0.000    0.000 
#    0.000    0.000    0.000    0.000    0.000    0.000 
#
# Total GULP energy -148774.431557 kJ/mol
# GULP energy per Si atom -12397.869296 kJ/mol
# Density = 2.521244 g / cm^3
# Si number density = 25.269952 Si / 1000 Ang^3
#
#
#
# Elastic Constant Matrix: (Units=GPa)
#
#
# Indices 1 2 3 4 5 6 
#
# 1 181.7073 11.3156 18.7847 0.0000 0.0000 0.0000
# 2 11.3156 102.6153 27.5848 0.0000 0.0000 0.0000
# 3 18.7847 27.5848 88.4580 0.0000 0.0000 0.0000
# 4 0.0000 0.0000 0.0000 41.6124 0.0000 0.0000
# 5 0.0000 0.0000 0.0000 0.0000 23.5455 0.0000
# 6 0.0000 0.0000 0.0000 0.0000 0.0000 88.4837
#
#
#
# Elastic Compliance Matrix: (Units=1/GPa)
#
#
# Indices 1 2 3 4 5 6 
#
# 1 0.005637 -0.000327 -0.001095 0.000000 0.000000 0.000000
# 2 -0.000327 0.010656 -0.003253 0.000000 0.000000 0.000000
# 3 -0.001095 -0.003253 0.012552 0.000000 0.000000 0.000000
# 4 0.000000 0.000000 0.000000 0.024031 0.000000 0.000000
# 5 0.000000 0.000000 0.000000 0.000000 0.042471 0.000000
# 6 0.000000 0.000000 0.000000 0.000000 0.000000 0.011302
#
#
# Mechanical properties :
#
#
# Convention : Reuss Voigt Hill
#
# Bulk Modulus (GPa) = 51.29968 54.23897 52.76933
# Shear Modulus (GPa) = 40.81718 51.73469 46.27594
#
# Velocity S-wave (km/s) = 4.02337 4.52960 4.28397
# Velocity P-wave (km/s) = 6.47519 6.99048 6.73776
#
# Compressibility (1/GPa) = 0.01949330
#
# Stress axis : x y z
#
# Youngs Moduli (GPa) = 177.40133 93.84569 79.66934
#
# Poissons Ratio (x) = 0.03071 0.08724
# Poissons Ratio (y) = 0.05805 0.25920
# Poissons Ratio (z) = 0.19425 0.30532
#
# Static dielectric constant tensor:
#      x y z
#    x 4.852830 0.000000 0.000000 
#    y 0.000000 4.520110 0.000000 
#    z 0.000000 0.000000 3.881270 
# 
# 
# High freq. dielectric constant tensor:
#      x y z
#    x 2.032280 0.000000 0.000000 
#    y 0.000000 2.017030 0.000000 
#    z 0.000000 0.000000 1.970730 
# 
# From -- ./inp_files/230.got.cif
#   From: 2010.03.12/outbox.cif.g09.slc.cpg/sg40_1_cif.got.tgz:230.got - 2010.04.14 01:38:03.
