data_PCOD8184025
_publ_section_title
;
Structure prediction by ZEFSAII (Michael W. Deem and Ramdas Pophale) SiO2 
 PCOD8184025
Probable space group: A M A 2
;
_chemical_formula_sum "Si O2"
_cell_formula_units_Z 40
_cell_length_a 10.073862
_cell_length_b 8.714435
_cell_length_c 22.325549
_cell_angle_alpha 90.000000
_cell_angle_beta 90.000000
_cell_angle_gamma 90.000000
_cell_volume 1959.915644
_symmetry_space_group_name_H-M "A M A 2"
_symmetry_group_IT_number 40
_symmetry_cell_setting 'orthorhombic'
loop_
_space_group_symop_operation_xyz
x,y,z
-x,-y,z
1/2-x,y,z
1/2+x,-y,z
x,1/2+y,1/2+z
-x,1/2-y,1/2+z
1/2-x,1/2+y,1/2+z
1/2+x,1/2-y,1/2+z
loop_
_atom_site_type_symbol
_atom_site_label
_atom_site_fract_x
_atom_site_fract_y
_atom_site_fract_z
Si Si1 0.482061 0.679901 0.539680
Si Si2 0.750000 0.164014 0.610542
Si Si3 0.250000 0.193977 0.583541
Si Si4 0.482218 0.322556 0.796428
Si Si5 0.250000 0.213684 0.237540
Si Si6 0.599269 0.363095 0.408689
Si Si7 0.250000 0.855544 0.210482
O O1 0.500000 0.500000 0.553154
O O2 0.380891 0.751120 0.587071
O O3 0.622356 0.764137 0.544421
O O4 0.427576 0.711397 0.473301
O O5 0.750000 0.170663 0.682161
O O6 0.750000 0.986461 0.594212
O O7 0.250000 0.295810 0.643228
O O8 0.500000 0.500000 0.807756
O O9 0.622638 0.248166 0.778473
O O10 0.423618 0.262204 0.858168
O O11 0.380299 0.289321 0.742659
O O12 0.250000 0.040273 0.212142
O O13 0.500000 0.500000 0.395558
O O14 0.750000 0.424266 0.406651
#
# Coordination Sequence:
#
# PCOD8184025 Si02
#       7
#     8   4   4   8   4   8   4
#     4  11  24  44  68  92 129 180 218 259 324 403
#     4  12  24  43  64 101 137 162 222 276 331 372
#     4  12  26  39  68 101 131 168 214 282 329 378
#     4  10  22  40  66  95 129 170 216 261 319 386
#     4  10  22  37  64  95 129 176 218 256 315 406
#     4  11  25  44  68  95 128 168 218 269 322 384
#     4  10  20  41  62  93 131 178 218 254 321 396
#
# _framework density 20.409040999999998
#
# number of rings (size 3 to 8) (size 9 to 14) (size 15 to 20)
#    0.000    1.200    2.000    3.600    5.600    4.800 
#    0.000    0.000    0.000    0.000    0.000    0.000 
#    0.000    0.000    0.000    0.000    0.000    0.000 
#
# Total GULP energy -248104.944708 kJ/mol
# GULP energy per Si atom -12405.247235 kJ/mol
# Density = 2.036259 g / cm^3
# Si number density = 20.409041 Si / 1000 Ang^3
#
#
#
# Elastic Constant Matrix: (Units=GPa)
#
#
# Indices 1 2 3 4 5 6 
#
# 1 187.1231 39.6341 44.1065 0.0000 0.0000 0.0000
# 2 39.6341 78.3755 31.8225 0.0000 0.0000 0.0000
# 3 44.1065 31.8225 93.1464 0.0000 0.0000 0.0000
# 4 0.0000 0.0000 0.0000 24.5670 0.0000 0.0000
# 5 0.0000 0.0000 0.0000 0.0000 19.5506 0.0000
# 6 0.0000 0.0000 0.0000 0.0000 0.0000 21.3416
#
#
#
# Elastic Compliance Matrix: (Units=1/GPa)
#
#
# Indices 1 2 3 4 5 6 
#
# 1 0.006357 -0.002314 -0.002220 0.000000 0.000000 0.000000
# 2 -0.002314 0.015656 -0.004253 0.000000 0.000000 0.000000
# 3 -0.002220 -0.004253 0.013240 0.000000 0.000000 0.000000
# 4 0.000000 0.000000 0.000000 0.040705 0.000000 0.000000
# 5 0.000000 0.000000 0.000000 0.000000 0.051149 0.000000
# 6 0.000000 0.000000 0.000000 0.000000 0.000000 0.046857
#
#
# Mechanical properties :
#
#
# Convention : Reuss Voigt Hill
#
# Bulk Modulus (GPa) = 56.56102 65.53012 61.04557
# Shear Modulus (GPa) = 25.32529 29.29730 27.31129
#
# Velocity S-wave (km/s) = 3.52644 3.79292 3.66210
# Velocity P-wave (km/s) = 6.65995 7.16657 6.91790
#
# Compressibility (1/GPa) = 0.01768002
#
# Stress axis : x y z
#
# Youngs Moduli (GPa) = 157.29808 63.87349 75.52860
#
# Poissons Ratio (x) = 0.14777 0.16767
# Poissons Ratio (y) = 0.36392 0.32124
# Poissons Ratio (z) = 0.34919 0.27167
#
# Static dielectric constant tensor:
#      x y z
#    x 4.189360 0.000000 0.000000 
#    y 0.000000 3.534600 0.000000 
#    z 0.000000 0.000000 3.728530 
# 
# 
# High freq. dielectric constant tensor:
#      x y z
#    x 1.823770 0.000000 0.000000 
#    y 0.000000 1.785630 0.000000 
#    z 0.000000 0.000000 1.805970 
# 
# From -- ./inp_files/19911.got.cif
#   From: 2010.03.12/outbox.cif.g09.slc.cpg/sg40_10_cif.got.tgz:19911.got - 2010.04.14 01:38:03.
