data_PCOD8184644
_publ_section_title
;
Structure prediction by ZEFSAII (Michael W. Deem and Ramdas Pophale) SiO2 
 PCOD8184644
Probable space group: A M A 2
;
_chemical_formula_sum "Si O2"
_cell_formula_units_Z 40
_cell_length_a 28.226736
_cell_length_b 4.929268
_cell_length_c 12.851661
_cell_angle_alpha 90.000000
_cell_angle_beta 90.000000
_cell_angle_gamma 90.000000
_cell_volume 1788.143439
_symmetry_space_group_name_H-M "A M A 2"
_symmetry_group_IT_number 40
_symmetry_cell_setting 'orthorhombic'
loop_
_space_group_symop_operation_xyz
x,y,z
-x,-y,z
1/2-x,y,z
1/2+x,-y,z
x,1/2+y,1/2+z
-x,1/2-y,1/2+z
1/2-x,1/2+y,1/2+z
1/2+x,1/2-y,1/2+z
loop_
_atom_site_type_symbol
_atom_site_label
_atom_site_fract_x
_atom_site_fract_y
_atom_site_fract_z
Si Si1 0.032676 0.758275 0.654750
Si Si2 0.750000 0.508561 0.662046
Si Si3 0.947488 0.582494 0.384546
Si Si4 0.700160 0.769150 0.983976
Si Si5 0.250000 0.991293 0.805943
Si Si6 0.097446 0.898132 0.475626
O O1 0.051910 0.793992 0.770549
O O2 0.077612 0.748292 0.578622
O O3 0.000000 0.500000 0.648477
O O4 0.000000 0.000000 0.616712
O O5 0.703117 0.455304 0.589321
O O6 0.750000 0.313691 0.763389
O O7 0.750000 0.813488 0.704668
O O8 0.916367 0.307448 0.382092
O O9 0.000000 0.500000 0.424953
O O10 0.924320 0.804537 0.460833
O O11 0.750000 0.591029 0.983822
O O12 0.654205 0.579131 0.983975
O O13 0.703125 0.956080 0.878743
#
# Coordination Sequence:
#
# PCOD8184644 Si02
#       6
#     8   4   8   8   4   8
#     4  11  23  40  62  91 124 161 206 253 308 371
#     4   9  20  41  62  82 122 163 198 255 308 352
#     4  11  24  41  64  92 127 163 210 258 315 374
#     4   8  24  41  61  98 124 162 216 254 304 381
#     4   9  20  39  62  82 120 165 198 251 312 348
#     4  12  23  41  64  95 125 167 208 257 314 372
#
# _framework density 22.369571000000001
#
# number of rings (size 3 to 8) (size 9 to 14) (size 15 to 20)
#    1.200    0.400    0.000    6.000    0.000    9.600 
#    0.000    0.000    0.000    0.000    0.000    0.000 
#    0.000    0.000    0.000    0.000    0.000    0.000 
#
# Total GULP energy -247802.030422 kJ/mol
# GULP energy per Si atom -12390.101521 kJ/mol
# Density = 2.231866 g / cm^3
# Si number density = 22.369571 Si / 1000 Ang^3
#
#
#
# Elastic Constant Matrix: (Units=GPa)
#
#
# Indices 1 2 3 4 5 6 
#
# 1 152.6835 33.4138 30.0919 0.0000 0.0000 0.0000
# 2 33.4138 97.3242 11.5237 0.0000 0.0000 0.0000
# 3 30.0919 11.5237 91.0027 0.0000 0.0000 0.0000
# 4 0.0000 0.0000 0.0000 25.3705 0.0000 0.0000
# 5 0.0000 0.0000 0.0000 0.0000 18.9436 0.0000
# 6 0.0000 0.0000 0.0000 0.0000 0.0000 17.3734
#
#
#
# Elastic Compliance Matrix: (Units=1/GPa)
#
#
# Indices 1 2 3 4 5 6 
#
# 1 0.007486 -0.002312 -0.002183 0.000000 0.000000 0.000000
# 2 -0.002312 0.011145 -0.000647 0.000000 0.000000 0.000000
# 3 -0.002183 -0.000647 0.011792 0.000000 0.000000 0.000000
# 4 0.000000 0.000000 0.000000 0.039416 0.000000 0.000000
# 5 0.000000 0.000000 0.000000 0.000000 0.052788 0.000000
# 6 0.000000 0.000000 0.000000 0.000000 0.000000 0.057559
#
#
# Mechanical properties :
#
#
# Convention : Reuss Voigt Hill
#
# Bulk Modulus (GPa) = 49.65014 54.56322 52.10668
# Shear Modulus (GPa) = 25.35730 30.06958 27.71344
#
# Velocity S-wave (km/s) = 3.37049 3.67034 3.52361
# Velocity P-wave (km/s) = 6.11478 6.51203 6.31653
#
# Compressibility (1/GPa) = 0.02014093
#
# Stress axis : x y z
#
# Youngs Moduli (GPa) = 133.59146 89.72516 84.80112
#
# Poissons Ratio (x) = 0.20740 0.18508
# Poissons Ratio (y) = 0.30880 0.05486
# Poissons Ratio (z) = 0.29157 0.05805
#
# Static dielectric constant tensor:
#      x y z
#    x 3.754890 0.000000 0.000000 
#    y 0.000000 3.709080 0.000000 
#    z 0.000000 0.000000 4.104420 
# 
# 
# High freq. dielectric constant tensor:
#      x y z
#    x 1.856100 0.000000 0.000000 
#    y 0.000000 1.872480 0.000000 
#    z 0.000000 0.000000 1.893740 
# 
# From -- ./inp_files/18601.got.cif
#   From: 2010.03.12/outbox.cif.g09.slc.cpg/sg40_10_cif.got.tgz:18601.got - 2010.04.14 01:38:03.
