data_PCOD8184143
_publ_section_title
;
Structure prediction by ZEFSAII (Michael W. Deem and Ramdas Pophale) SiO2 
 PCOD8184143
Probable space group: A M A 2
;
_chemical_formula_sum "Si O2"
_cell_formula_units_Z 56
_cell_length_a 8.625225
_cell_length_b 23.986499
_cell_length_c 13.775522
_cell_angle_alpha 90.000000
_cell_angle_beta 90.000000
_cell_angle_gamma 90.000000
_cell_volume 2850.003294
_symmetry_space_group_name_H-M "A M A 2"
_symmetry_group_IT_number 40
_symmetry_cell_setting 'orthorhombic'
loop_
_space_group_symop_operation_xyz
x,y,z
-x,-y,z
1/2-x,y,z
1/2+x,-y,z
x,1/2+y,1/2+z
-x,1/2-y,1/2+z
1/2-x,1/2+y,1/2+z
1/2+x,1/2-y,1/2+z
loop_
_atom_site_type_symbol
_atom_site_label
_atom_site_fract_x
_atom_site_fract_y
_atom_site_fract_z
Si Si1 0.933613 0.940210 0.417390
Si Si2 0.066855 0.440829 0.331534
Si Si3 0.066832 0.664569 0.231873
Si Si4 0.933622 0.164327 0.525284
Si Si5 0.433258 0.882902 0.238086
Si Si6 0.932689 0.227511 0.337057
Si Si7 0.568394 0.558046 0.548131
O O1 0.750000 0.939152 0.430308
O O2 0.010662 0.895853 0.489665
O O3 0.979262 0.926982 0.306433
O O4 0.000000 0.000000 0.447465
O O5 0.250000 0.443771 0.326636
O O6 0.005957 0.426489 0.440662
O O7 0.000000 0.500000 0.297010
O O8 0.008568 0.393996 0.258611
O O9 0.250000 0.659122 0.239731
O O10 0.999841 0.712748 0.303798
O O11 0.019284 0.681297 0.123483
O O12 0.750000 0.162694 0.540916
O O13 0.982478 0.211538 0.446424
O O14 0.250000 0.889885 0.257220
O O15 0.491226 0.820705 0.263443
O O16 0.477889 0.894579 0.125963
O O17 0.750000 0.230533 0.328867
O O18 0.500000 0.500000 0.585067
O O19 0.750000 0.550206 0.542788
#
# Coordination Sequence:
#
# PCOD8184143 Si02
#       7
#     8   8   8   8   8   8   8
#     4  11  21  34  53  81 113 148 187 231 279 332
#     4  10  21  38  57  81 111 146 186 231 276 327
#     4  11  22  38  60  86 112 144 181 224 276 330
#     4  10  21  40  60  81 110 146 185 229 273 322
#     4   9  17  33  54  79 112 151 187 225 272 325
#     4   8  18  36  57  79 110 145 178 217 267 321
#     4   9  18  31  51  77 108 144 184 225 270 319
#
# _framework density 19.649101999999999
#
# number of rings (size 3 to 8) (size 9 to 14) (size 15 to 20)
#    0.000    2.286    0.000    3.857    0.000    4.000 
#    0.000   11.429    0.000    0.000    0.000    0.000 
#    0.000    0.000    0.000    0.000    0.000    0.000 
#
# Total GULP energy -347181.564879 kJ/mol
# GULP energy per Si atom -12399.341603 kJ/mol
# Density = 1.960438 g / cm^3
# Si number density = 19.649102 Si / 1000 Ang^3
#
#
#
# Elastic Constant Matrix: (Units=GPa)
#
#
# Indices 1 2 3 4 5 6 
#
# 1 49.0167 25.0526 16.1041 0.0000 0.0000 0.0000
# 2 25.0526 128.2411 59.8096 0.0000 0.0000 0.0000
# 3 16.1041 59.8096 103.3723 0.0000 0.0000 0.0000
# 4 0.0000 0.0000 0.0000 31.8423 0.0000 0.0000
# 5 0.0000 0.0000 0.0000 0.0000 29.9101 0.0000
# 6 0.0000 0.0000 0.0000 0.0000 0.0000 21.9280
#
#
#
# Elastic Compliance Matrix: (Units=1/GPa)
#
#
# Indices 1 2 3 4 5 6 
#
# 1 0.022798 -0.003831 -0.001335 0.000000 0.000000 0.000000
# 2 -0.003831 0.011323 -0.005955 0.000000 0.000000 0.000000
# 3 -0.001335 -0.005955 0.013327 0.000000 0.000000 0.000000
# 4 0.000000 0.000000 0.000000 0.031405 0.000000 0.000000
# 5 0.000000 0.000000 0.000000 0.000000 0.033434 0.000000
# 6 0.000000 0.000000 0.000000 0.000000 0.000000 0.045604
#
#
# Mechanical properties :
#
#
# Convention : Reuss Voigt Hill
#
# Bulk Modulus (GPa) = 39.67191 53.61808 46.64500
# Shear Modulus (GPa) = 26.52037 28.71366 27.61702
#
# Velocity S-wave (km/s) = 3.67781 3.82687 3.75308
# Velocity P-wave (km/s) = 6.18620 6.84643 6.52467
#
# Compressibility (1/GPa) = 0.02520675
#
# Stress axis : x y z
#
# Youngs Moduli (GPa) = 43.86368 88.31258 75.03526
#
# Poissons Ratio (x) = 0.33833 0.10018
# Poissons Ratio (y) = 0.16804 0.44681
# Poissons Ratio (z) = 0.05856 0.52588
#
# Static dielectric constant tensor:
#      x y z
#    x 3.437390 0.000000 0.000000 
#    y 0.000000 3.539230 0.000000 
#    z 0.000000 0.000000 3.748890 
# 
# 
# High freq. dielectric constant tensor:
#      x y z
#    x 1.755960 0.000000 0.000000 
#    y 0.000000 1.763450 0.000000 
#    z 0.000000 0.000000 1.767670 
# 
# From -- ./inp_files/15351.got.cif
#   From: 2010.03.12/outbox.cif.g09.slc.cpg/sg40_8_cif.got.tgz:15351.got - 2010.04.14 01:38:03.
