data_PCOD8184874
_publ_section_title
;
Structure prediction by ZEFSAII (Michael W. Deem and Ramdas Pophale) SiO2 
 PCOD8184874
Probable space group: A B A 2
;
_chemical_formula_sum "Si O2"
_cell_formula_units_Z 52
_cell_length_a 26.032605
_cell_length_b 11.839256
_cell_length_c 8.204641
_cell_angle_alpha 90.000000
_cell_angle_beta 90.000000
_cell_angle_gamma 90.000000
_cell_volume 2528.725122
_symmetry_space_group_name_H-M "A B A 2"
_symmetry_group_IT_number 41
_symmetry_cell_setting 'orthorhombic'
loop_
_space_group_symop_operation_xyz
x,y,z
-x,-y,z
1/2-x,y,1/2+z
1/2+x,-y,1/2+z
x,1/2+y,1/2+z
-x,1/2-y,1/2+z
1/2-x,1/2+y,z
1/2+x,1/2-y,z
loop_
_atom_site_type_symbol
_atom_site_label
_atom_site_fract_x
_atom_site_fract_y
_atom_site_fract_z
Si Si1 0.263574 0.317797 0.318590
Si Si2 0.816099 0.303485 0.024561
Si Si3 0.432356 0.175018 0.038833
Si Si4 0.190739 0.941806 0.610360
Si Si5 0.530265 0.269397 0.901289
Si Si6 0.923820 0.078579 0.620467
Si Si7 0.000000 0.500000 0.380338
O O1 0.217668 0.234634 0.371639
O O2 0.300309 0.259604 0.188999
O O3 0.234776 0.427753 0.246195
O O4 0.299623 0.351695 0.467352
O O5 0.876152 0.277934 0.993499
O O6 0.805381 0.434567 0.040220
O O7 0.448680 0.220770 0.217473
O O8 0.433071 0.039161 0.025549
O O9 0.472499 0.219368 0.904908
O O10 0.134598 0.916878 0.684500
O O11 0.529706 0.399637 0.978103
O O12 0.566520 0.187042 0.005806
O O13 0.961906 0.078506 0.773287
#
# Coordination Sequence:
#
# PCOD8184874 Si02
#       7
#     8   8   8   8   8   8   4
#     4  10  21  37  59  85 114 148 188 236 283 334
#     4  10  21  38  57  87 112 146 193 233 284 339
#     4  10  22  36  62  83 116 155 189 237 286 340
#     4  10  21  36  62  82 115 152 184 235 284 337
#     4  11  19  39  57  81 119 147 192 234 279 344
#     4  10  19  39  60  82 114 156 185 230 293 334
#     4  10  22  36  56  84 114 154 188 238 288 334
#
# _framework density 20.56372
#
# number of rings (size 3 to 8) (size 9 to 14) (size 15 to 20)
#    0.000    1.846    3.077    1.846    2.154    0.000 
#    2.769    0.000    3.385    0.000    0.000    0.000 
#    0.000    0.000    0.000    0.000    0.000    0.000 
#
# Total GULP energy -322247.296352 kJ/mol
# GULP energy per Si atom -12394.126783 kJ/mol
# Density = 2.051692 g / cm^3
# Si number density = 20.563720 Si / 1000 Ang^3
#
#
#
# Elastic Constant Matrix: (Units=GPa)
#
#
# Indices 1 2 3 4 5 6 
#
# 1 97.0388 21.3896 3.4345 0.0000 0.0000 0.0000
# 2 21.3896 99.0618 10.8835 0.0000 0.0000 0.0000
# 3 3.4345 10.8835 26.1570 0.0000 0.0000 0.0000
# 4 0.0000 0.0000 0.0000 -3.0597 0.0000 0.0000
# 5 0.0000 0.0000 0.0000 0.0000 24.9966 0.0000
# 6 0.0000 0.0000 0.0000 0.0000 0.0000 90.0700
#
#
#
# Elastic Compliance Matrix: (Units=1/GPa)
#
#
# Indices 1 2 3 4 5 6 
#
# 1 0.010826 -0.002286 -0.000470 0.000000 0.000000 0.000000
# 2 -0.002286 0.011061 -0.004302 0.000000 0.000000 0.000000
# 3 -0.000470 -0.004302 0.040083 0.000000 0.000000 0.000000
# 4 0.000000 0.000000 0.000000 -0.326828 0.000000 0.000000
# 5 0.000000 0.000000 0.000000 0.000000 0.040005 0.000000
# 6 0.000000 0.000000 0.000000 0.000000 0.000000 0.011102
#
#
# Mechanical properties :
#
#
# Convention : Reuss Voigt Hill
#
# Bulk Modulus (GPa) = 20.89757 32.63032 26.76394
# Shear Modulus (GPa) = -27.22068 34.83804 3.80868
#
# Velocity S-wave (km/s) = -3.64225 4.12047 1.36241
# Velocity P-wave (km/s) = 2.73926 6.20806 3.93932
#
# Compressibility (1/GPa) = 0.04785246
#
# Stress axis : x y z
#
# Youngs Moduli (GPa) = 92.37324 90.40832 24.94852
#
# Poissons Ratio (x) = 0.20666 0.01174
# Poissons Ratio (y) = 0.21115 0.10733
# Poissons Ratio (z) = 0.04345 0.38895
#
# Static dielectric constant tensor:
#      x y z
#    x 3.969440 0.000000 0.000000 
#    y 0.000000 3.897390 0.000000 
#    z 0.000000 0.000000 3.369890 
# 
# 
# High freq. dielectric constant tensor:
#      x y z
#    x 1.818840 0.000000 0.000000 
#    y 0.000000 1.818120 0.000000 
#    z 0.000000 0.000000 1.773370 
# 
# From -- ./inp_files/3778.got.cif
#   From: 2010.03.12/outbox.cif.g09.slc.cpg/sg41_2_cif.got.tgz:3778.got - 2010.04.14 01:55:53.
