data_PCOD8184253
_publ_section_title
;
Structure prediction by ZEFSAII (Michael W. Deem and Ramdas Pophale) SiO2 
 PCOD8184253
Probable space group: A M A 2
;
_chemical_formula_sum "Si O2"
_cell_formula_units_Z 64
_cell_length_a 18.271748
_cell_length_b 16.021773
_cell_length_c 10.916607
_cell_angle_alpha 90.000000
_cell_angle_beta 90.000000
_cell_angle_gamma 90.000000
_cell_volume 3195.790836
_symmetry_space_group_name_H-M "A M A 2"
_symmetry_group_IT_number 40
_symmetry_cell_setting 'orthorhombic'
loop_
_space_group_symop_operation_xyz
x,y,z
-x,-y,z
1/2-x,y,z
1/2+x,-y,z
x,1/2+y,1/2+z
-x,1/2-y,1/2+z
1/2-x,1/2+y,1/2+z
1/2+x,1/2-y,1/2+z
loop_
_atom_site_type_symbol
_atom_site_label
_atom_site_fract_x
_atom_site_fract_y
_atom_site_fract_z
Si Si1 0.833683 0.791919 0.171910
Si Si2 0.572700 0.885164 0.988676
Si Si3 0.668859 0.841796 0.450413
Si Si4 0.447186 0.764716 0.310943
Si Si5 0.937872 0.653512 0.189794
Si Si6 0.668140 0.685285 0.622618
Si Si7 0.482549 0.588932 0.965648
Si Si8 0.412709 0.427810 0.448088
O O1 0.750000 0.796438 0.126294
O O2 0.840325 0.801627 0.317160
O O3 0.866820 0.701234 0.135008
O O4 0.880940 0.865857 0.110315
O O5 0.585979 0.810205 0.892797
O O6 0.486697 0.897503 0.017490
O O7 0.599902 0.973394 0.935335
O O8 0.750000 0.883049 0.462132
O O9 0.658526 0.770560 0.550007
O O10 0.605671 0.908765 0.478935
O O11 0.503452 0.726654 0.213824
O O12 0.382625 0.813139 0.242062
O O13 0.491154 0.831427 0.390481
O O14 0.913864 0.604553 0.310012
O O15 0.974208 0.589255 0.094901
O O16 0.750000 0.672724 0.671164
O O17 0.651953 0.609479 0.529781
O O18 0.500000 0.500000 0.901897
#
# Coordination Sequence:
#
# PCOD8184253 Si02
#       8
#     8   8   8   8   8   8   8   8
#     4  11  21  37  63  89 121 168 212 254 311 375
#     4  10  22  39  62  93 121 159 203 268 313 366
#     4  10  21  40  64  93 127 169 213 256 319 386
#     4  11  22  40  62  90 125 164 211 254 310 380
#     4  11  21  40  64  90 122 157 212 262 310 382
#     4  11  22  39  64  92 127 168 207 259 322 378
#     4  12  25  40  66  97 126 167 214 265 318 373
#     4  10  22  38  63  94 121 156 207 265 319 371
#
# _framework density 20.026343000000001
#
# number of rings (size 3 to 8) (size 9 to 14) (size 15 to 20)
#    0.000    1.250    5.000    1.500    3.500    2.000 
#    0.000    2.500    0.000    0.000    0.000    0.000 
#    0.000    0.000    0.000    0.000    0.000    0.000 
#
# Total GULP energy -396794.460689 kJ/mol
# GULP energy per Si atom -12399.826897 kJ/mol
# Density = 1.998076 g / cm^3
# Si number density = 20.026343 Si / 1000 Ang^3
#
#
#
# Elastic Constant Matrix: (Units=GPa)
#
#
# Indices 1 2 3 4 5 6 
#
# 1 109.4127 49.3893 37.0197 0.0000 0.0000 0.0000
# 2 49.3893 92.6890 5.9452 0.0000 0.0000 0.0000
# 3 37.0197 5.9452 52.8015 0.0000 0.0000 0.0000
# 4 0.0000 0.0000 0.0000 18.2101 0.0000 0.0000
# 5 0.0000 0.0000 0.0000 0.0000 26.0313 0.0000
# 6 0.0000 0.0000 0.0000 0.0000 0.0000 22.0811
#
#
#
# Elastic Compliance Matrix: (Units=1/GPa)
#
#
# Indices 1 2 3 4 5 6 
#
# 1 0.016331 -0.008025 -0.010546 0.000000 0.000000 0.000000
# 2 -0.008025 0.014811 0.003959 0.000000 0.000000 0.000000
# 3 -0.010546 0.003959 0.025887 0.000000 0.000000 0.000000
# 4 0.000000 0.000000 0.000000 0.054915 0.000000 0.000000
# 5 0.000000 0.000000 0.000000 0.000000 0.038415 0.000000
# 6 0.000000 0.000000 0.000000 0.000000 0.000000 0.045288
#
#
# Mechanical properties :
#
#
# Convention : Reuss Voigt Hill
#
# Bulk Modulus (GPa) = 35.96590 48.84571 42.40580
# Shear Modulus (GPa) = 21.35488 24.10111 22.72799
#
# Velocity S-wave (km/s) = 3.26903 3.47287 3.37249
# Velocity P-wave (km/s) = 5.67864 6.36591 6.03207
#
# Compressibility (1/GPa) = 0.02780412
#
# Stress axis : x y z
#
# Youngs Moduli (GPa) = 61.23491 67.51690 38.62950
#
# Poissons Ratio (x) = 0.54184 0.40738
# Poissons Ratio (y) = 0.49143 -0.15293
# Poissons Ratio (z) = 0.64578 -0.26730
#
# Static dielectric constant tensor:
#      x y z
#    x 3.890980 0.000000 0.000000 
#    y 0.000000 3.494820 0.000000 
#    z 0.000000 0.000000 3.536970 
# 
# 
# High freq. dielectric constant tensor:
#      x y z
#    x 1.782260 0.000000 0.000000 
#    y 0.000000 1.771770 0.000000 
#    z 0.000000 0.000000 1.775590 
# 
# From -- ./inp_files/13105.got.cif
#   From: 2010.03.12/outbox.cif.g09.slc.cpg/sg40_7_cif.got.tgz:13105.got - 2010.04.14 01:38:03.
