data_PCOD8184429
_publ_section_title
;
Structure prediction by ZEFSAII (Michael W. Deem and Ramdas Pophale) SiO2 
 PCOD8184429
Probable space group: A M A 2
;
_chemical_formula_sum "Si O2"
_cell_formula_units_Z 48
_cell_length_a 8.985247
_cell_length_b 27.322143
_cell_length_c 9.587618
_cell_angle_alpha 90.000000
_cell_angle_beta 90.000000
_cell_angle_gamma 90.000000
_cell_volume 2353.723819
_symmetry_space_group_name_H-M "A M A 2"
_symmetry_group_IT_number 40
_symmetry_cell_setting 'orthorhombic'
loop_
_space_group_symop_operation_xyz
x,y,z
-x,-y,z
1/2-x,y,z
1/2+x,-y,z
x,1/2+y,1/2+z
-x,1/2-y,1/2+z
1/2-x,1/2+y,1/2+z
1/2+x,1/2-y,1/2+z
loop_
_atom_site_type_symbol
_atom_site_label
_atom_site_fract_x
_atom_site_fract_y
_atom_site_fract_z
Si Si1 0.583542 0.905121 0.798810
Si Si2 0.080918 0.549106 0.012271
Si Si3 0.074391 0.216535 0.382979
Si Si4 0.076109 0.447829 0.556465
Si Si5 0.574293 0.619518 0.813988
Si Si6 0.923208 0.296534 0.203666
O O1 0.750000 0.903848 0.862703
O O2 0.576153 0.946091 0.678705
O O3 0.541864 0.853072 0.732746
O O4 0.467197 0.920218 0.915528
O O5 0.250000 0.547877 0.956771
O O6 0.000000 0.500000 0.962539
O O7 0.996288 0.595624 0.950756
O O8 0.250000 0.209879 0.366608
O O9 0.028324 0.216217 0.545721
O O10 0.993144 0.173455 0.297767
O O11 0.022089 0.266852 0.313647
O O12 0.250000 0.457446 0.554939
O O13 0.026963 0.412799 0.681926
O O14 0.000000 0.500000 0.573500
O O15 0.750000 0.623332 0.830991
O O16 0.750000 0.284085 0.226422
#
# Coordination Sequence:
#
# PCOD8184429 Si02
#       6
#     8   8   8   8   8   8
#     4  10  22  42  65  90 125 164 206 258 309 367
#     4  11  22  39  63  93 124 161 206 256 311 372
#     4  11  24  43  67  95 127 165 208 258 313 376
#     4  11  25  42  62  92 127 166 211 258 308 370
#     4  11  24  42  64  92 126 164 209 262 311 369
#     4  10  23  44  65  94 129 162 207 258 310 374
#
# _framework density 20.393218000000001
#
# number of rings (size 3 to 8) (size 9 to 14) (size 15 to 20)
#    0.000    1.333    1.667    3.000    2.333    8.667 
#    0.000    0.000    0.000    0.000    0.000    0.000 
#    0.000    0.000    0.000    0.000    0.000    0.000 
#
# Total GULP energy -297743.334618 kJ/mol
# GULP energy per Si atom -12405.972276 kJ/mol
# Density = 2.034680 g / cm^3
# Si number density = 20.393218 Si / 1000 Ang^3
#
#
#
# Elastic Constant Matrix: (Units=GPa)
#
#
# Indices 1 2 3 4 5 6 
#
# 1 67.7424 19.1528 21.3982 0.0000 0.0000 0.0000
# 2 19.1528 62.1285 -9.3672 0.0000 0.0000 0.0000
# 3 21.3982 -9.3672 49.4722 0.0000 0.0000 0.0000
# 4 0.0000 0.0000 0.0000 31.3829 0.0000 0.0000
# 5 0.0000 0.0000 0.0000 0.0000 29.8960 0.0000
# 6 0.0000 0.0000 0.0000 0.0000 0.0000 39.2382
#
#
#
# Elastic Compliance Matrix: (Units=1/GPa)
#
#
# Indices 1 2 3 4 5 6 
#
# 1 0.020175 -0.007757 -0.010195 0.000000 0.000000 0.000000
# 2 -0.007757 0.019551 0.007057 0.000000 0.000000 0.000000
# 3 -0.010195 0.007057 0.025959 0.000000 0.000000 0.000000
# 4 0.000000 0.000000 0.000000 0.031864 0.000000 0.000000
# 5 0.000000 0.000000 0.000000 0.000000 0.033449 0.000000
# 6 0.000000 0.000000 0.000000 0.000000 0.000000 0.025485
#
#
# Mechanical properties :
#
#
# Convention : Reuss Voigt Hill
#
# Bulk Modulus (GPa) = 22.78145 26.85675 24.81910
# Shear Modulus (GPa) = 25.91938 29.98073 27.95005
#
# Velocity S-wave (km/s) = 3.56895 3.83839 3.70612
# Velocity P-wave (km/s) = 5.30835 5.73082 5.52363
#
# Compressibility (1/GPa) = 0.04389536
#
# Stress axis : x y z
#
# Youngs Moduli (GPa) = 49.56586 51.14875 38.52208
#
# Poissons Ratio (x) = 0.39674 0.39273
# Poissons Ratio (y) = 0.38446 -0.27184
# Poissons Ratio (z) = 0.50532 -0.36095
#
# Static dielectric constant tensor:
#      x y z
#    x 3.699690 0.000000 0.000000 
#    y 0.000000 3.844990 0.000000 
#    z 0.000000 0.000000 3.673870 
# 
# 
# High freq. dielectric constant tensor:
#      x y z
#    x 1.802220 0.000000 0.000000 
#    y 0.000000 1.808490 0.000000 
#    z 0.000000 0.000000 1.800030 
# 
# From -- ./inp_files/4580.got.cif
#   From: 2010.03.12/outbox.cif.g09.slc.cpg/sg40_3_cif.got.tgz:4580.got - 2010.04.14 01:38:03.
