data_PCOD8184386
_publ_section_title
;
Structure prediction by ZEFSAII (Michael W. Deem and Ramdas Pophale) SiO2 
 PCOD8184386
Probable space group: A M A 2
;
_chemical_formula_sum "Si O2"
_cell_formula_units_Z 48
_cell_length_a 14.834704
_cell_length_b 10.431532
_cell_length_c 15.222641
_cell_angle_alpha 90.000000
_cell_angle_beta 90.000000
_cell_angle_gamma 90.000000
_cell_volume 2355.683745
_symmetry_space_group_name_H-M "A M A 2"
_symmetry_group_IT_number 40
_symmetry_cell_setting 'orthorhombic'
loop_
_space_group_symop_operation_xyz
x,y,z
-x,-y,z
1/2-x,y,z
1/2+x,-y,z
x,1/2+y,1/2+z
-x,1/2-y,1/2+z
1/2-x,1/2+y,1/2+z
1/2+x,1/2-y,1/2+z
loop_
_atom_site_type_symbol
_atom_site_label
_atom_site_fract_x
_atom_site_fract_y
_atom_site_fract_z
Si Si1 0.348283 0.736275 0.346550
Si Si2 0.352401 0.673789 0.682252
Si Si3 0.051280 0.133163 0.514666
Si Si4 0.565839 0.882536 0.002356
Si Si5 0.105127 0.019392 0.352312
Si Si6 0.018032 0.643247 0.205415
O O1 0.250000 0.706021 0.306073
O O2 0.360411 0.634349 0.425822
O O3 0.426571 0.722214 0.275594
O O4 0.349415 0.884247 0.376969
O O5 0.250000 0.724517 0.668356
O O6 0.384927 0.596606 0.595589
O O7 0.351471 0.578708 0.764880
O O8 0.419791 0.793412 0.693367
O O9 0.124705 0.117033 0.435840
O O10 0.080093 0.145091 0.616604
O O11 0.990095 0.252961 0.492706
O O12 0.000000 0.000000 0.505400
O O13 0.500000 0.000000 0.983216
O O14 0.000000 0.000000 0.332250
O O15 0.000000 0.500000 0.238605
#
# Coordination Sequence:
#
# PCOD8184386 Si02
#       6
#     8   8   8   8   8   8
#     4  12  24  40  64  95 131 171 218 268 321 387
#     4  11  23  39  64  97 129 169 219 270 324 389
#     4   9  18  38  66  88 120 165 213 252 317 382
#     4  11  22  38  64  97 127 168 211 267 327 389
#     4  11  19  40  66  91 122 169 221 265 316 386
#     4  10  22  40  64  92 126 171 212 267 330 388
#
# _framework density 20.376249999999999
#
# number of rings (size 3 to 8) (size 9 to 14) (size 15 to 20)
#    0.000    1.333    5.000    2.000    2.333    0.667 
#    0.000    1.667    0.000    3.000    0.000    0.000 
#    0.000    0.000    0.000    0.000    0.000    0.000 
#
# Total GULP energy -297369.755834 kJ/mol
# GULP energy per Si atom -12390.406493 kJ/mol
# Density = 2.032987 g / cm^3
# Si number density = 20.376250 Si / 1000 Ang^3
#
#
#
# Elastic Constant Matrix: (Units=GPa)
#
#
# Indices 1 2 3 4 5 6 
#
# 1 110.7180 40.6379 37.6947 0.0000 0.0000 0.0000
# 2 40.6379 99.4707 38.6123 0.0000 0.0000 0.0000
# 3 37.6947 38.6123 142.5858 0.0000 0.0000 0.0000
# 4 0.0000 0.0000 0.0000 32.2697 0.0000 0.0000
# 5 0.0000 0.0000 0.0000 0.0000 13.0594 0.0000
# 6 0.0000 0.0000 0.0000 0.0000 0.0000 10.3026
#
#
#
# Elastic Compliance Matrix: (Units=1/GPa)
#
#
# Indices 1 2 3 4 5 6 
#
# 1 0.011068 -0.003784 -0.001901 0.000000 0.000000 0.000000
# 2 -0.003784 0.012528 -0.002392 0.000000 0.000000 0.000000
# 3 -0.001901 -0.002392 0.008164 0.000000 0.000000 0.000000
# 4 0.000000 0.000000 0.000000 0.030989 0.000000 0.000000
# 5 0.000000 0.000000 0.000000 0.000000 0.076573 0.000000
# 6 0.000000 0.000000 0.000000 0.000000 0.000000 0.097063
#
#
# Mechanical properties :
#
#
# Convention : Reuss Voigt Hill
#
# Bulk Modulus (GPa) = 64.08244 65.18494 64.63369
# Shear Modulus (GPa) = 19.39936 26.84831 23.12384
#
# Velocity S-wave (km/s) = 3.08889 3.63385 3.37240
# Velocity P-wave (km/s) = 6.65128 7.04745 6.85223
#
# Compressibility (1/GPa) = 0.01560490
#
# Stress axis : x y z
#
# Youngs Moduli (GPa) = 90.35006 79.82369 122.49210
#
# Poissons Ratio (x) = 0.30203 0.23290
# Poissons Ratio (y) = 0.34186 0.29303
# Poissons Ratio (z) = 0.17179 0.19096
#
# Static dielectric constant tensor:
#      x y z
#    x 3.441240 0.000000 0.000000 
#    y 0.000000 3.505220 0.000000 
#    z 0.000000 0.000000 4.720460 
# 
# 
# High freq. dielectric constant tensor:
#      x y z
#    x 1.765340 0.000000 0.000000 
#    y 0.000000 1.792790 0.000000 
#    z 0.000000 0.000000 1.817710 
# 
# From -- ./inp_files/17005.got.cif
#   From: 2010.03.12/outbox.cif.g09.slc.cpg/sg40_9_cif.got.tgz:17005.got - 2010.04.14 01:38:03.
