data_PCOD8184439
_publ_section_title
;
Structure prediction by ZEFSAII (Michael W. Deem and Ramdas Pophale) SiO2 
 PCOD8184439
Probable space group: A M A 2
;
_chemical_formula_sum "Si O2"
_cell_formula_units_Z 64
_cell_length_a 17.649952
_cell_length_b 13.910800
_cell_length_c 11.958880
_cell_angle_alpha 90.000000
_cell_angle_beta 90.000000
_cell_angle_gamma 90.000000
_cell_volume 2936.203441
_symmetry_space_group_name_H-M "A M A 2"
_symmetry_group_IT_number 40
_symmetry_cell_setting 'orthorhombic'
loop_
_space_group_symop_operation_xyz
x,y,z
-x,-y,z
1/2-x,y,z
1/2+x,-y,z
x,1/2+y,1/2+z
-x,1/2-y,1/2+z
1/2-x,1/2+y,1/2+z
1/2+x,1/2-y,1/2+z
loop_
_atom_site_type_symbol
_atom_site_label
_atom_site_fract_x
_atom_site_fract_y
_atom_site_fract_z
Si Si1 0.582564 0.538739 0.042450
Si Si2 0.436984 0.083304 0.160280
Si Si3 0.664698 0.681846 0.418324
Si Si4 0.104956 0.607882 0.231616
Si Si5 0.553707 0.199871 0.709976
Si Si6 0.163914 0.795926 0.154711
Si Si7 0.834636 0.462670 0.457173
Si Si8 0.340019 0.467429 0.809295
O O1 0.500000 0.500000 0.005401
O O2 0.618048 0.459870 0.124937
O O3 0.584381 0.643489 0.101333
O O4 0.635308 0.552520 0.935413
O O5 0.470505 0.190891 0.178152
O O6 0.500000 0.000000 0.151941
O O7 0.380745 0.063782 0.264884
O O8 0.387677 0.087169 0.048135
O O9 0.750000 0.717349 0.387548
O O10 0.613648 0.699490 0.310681
O O11 0.628893 0.730702 0.531147
O O12 0.668230 0.575846 0.470552
O O13 0.158282 0.700254 0.227229
O O14 0.129199 0.547766 0.336760
O O15 0.018737 0.640242 0.249617
O O16 0.250000 0.824401 0.133485
O O17 0.128544 0.883501 0.226590
O O18 0.750000 0.418301 0.466594
O O19 0.250000 0.479324 0.804891
#
# Coordination Sequence:
#
# PCOD8184439 Si02
#       8
#     8   8   8   8   8   8   8   8
#     4  10  24  45  64  93 134 173 217 275 333 401
#     4  12  27  45  69 100 137 179 225 279 339 398
#     4  10  22  43  70  97 132 172 221 279 333 402
#     4  11  24  42  69  97 133 172 223 274 337 400
#     4  11  26  44  67  99 133 176 224 278 335 404
#     4  10  22  42  66  96 131 170 218 269 331 397
#     4  11  24  44  72 101 133 174 226 286 339 400
#     4  11  24  44  67  94 134 179 224 274 331 402
#
# _framework density 21.796854
#
# number of rings (size 3 to 8) (size 9 to 14) (size 15 to 20)
#    0.000    1.250    2.500    1.875    5.250    2.500 
#    0.000    0.000    0.000    0.000    0.000    0.000 
#    0.000    0.000    0.000    0.000    0.000    0.000 
#
# Total GULP energy -396666.815784 kJ/mol
# GULP energy per Si atom -12395.837993 kJ/mol
# Density = 2.174724 g / cm^3
# Si number density = 21.796854 Si / 1000 Ang^3
#
#
#
# Elastic Constant Matrix: (Units=GPa)
#
#
# Indices 1 2 3 4 5 6 
#
# 1 80.3161 17.0918 47.7119 0.0000 0.0000 0.0000
# 2 17.0918 85.6898 10.9074 0.0000 0.0000 0.0000
# 3 47.7119 10.9074 124.5649 0.0000 0.0000 0.0000
# 4 0.0000 0.0000 0.0000 20.2199 0.0000 0.0000
# 5 0.0000 0.0000 0.0000 0.0000 42.1576 0.0000
# 6 0.0000 0.0000 0.0000 0.0000 0.0000 29.5207
#
#
#
# Elastic Compliance Matrix: (Units=1/GPa)
#
#
# Indices 1 2 3 4 5 6 
#
# 1 0.016646 -0.002537 -0.006154 0.000000 0.000000 0.000000
# 2 -0.002537 0.012188 -0.000096 0.000000 0.000000 0.000000
# 3 -0.006154 -0.000096 0.010393 0.000000 0.000000 0.000000
# 4 0.000000 0.000000 0.000000 0.049456 0.000000 0.000000
# 5 0.000000 0.000000 0.000000 0.000000 0.023721 0.000000
# 6 0.000000 0.000000 0.000000 0.000000 0.000000 0.033875
#
#
# Mechanical properties :
#
#
# Convention : Reuss Voigt Hill
#
# Bulk Modulus (GPa) = 46.17822 49.11035 47.64429
# Shear Modulus (GPa) = 29.22768 32.70360 30.96564
#
# Velocity S-wave (km/s) = 3.66582 3.87768 3.77324
# Velocity P-wave (km/s) = 6.25695 6.52904 6.39444
#
# Compressibility (1/GPa) = 0.02165523
#
# Stress axis : x y z
#
# Youngs Moduli (GPa) = 60.07292 82.04658 96.21466
#
# Poissons Ratio (x) = 0.20815 0.59210
# Poissons Ratio (y) = 0.15240 0.00919
# Poissons Ratio (z) = 0.36968 0.00784
#
# Static dielectric constant tensor:
#      x y z
#    x 3.923250 0.000000 0.000000 
#    y 0.000000 3.961760 0.000000 
#    z 0.000000 0.000000 3.920460 
# 
# 
# High freq. dielectric constant tensor:
#      x y z
#    x 1.857390 0.000000 0.000000 
#    y 0.000000 1.855270 0.000000 
#    z 0.000000 0.000000 1.869130 
# 
# From -- ./inp_files/13121.got.cif
#   From: 2010.03.12/outbox.cif.g09.slc.cpg/sg40_7_cif.got.tgz:13121.got - 2010.04.14 01:38:03.
