data_PCOD8184542
_publ_section_title
;
Structure prediction by ZEFSAII (Michael W. Deem and Ramdas Pophale) SiO2 
 PCOD8184542
Probable space group: A M A 2
;
_chemical_formula_sum "Si O2"
_cell_formula_units_Z 56
_cell_length_a 32.851705
_cell_length_b 5.500521
_cell_length_c 13.494094
_cell_angle_alpha 90.000000
_cell_angle_beta 90.000000
_cell_angle_gamma 90.000000
_cell_volume 2438.402936
_symmetry_space_group_name_H-M "A M A 2"
_symmetry_group_IT_number 40
_symmetry_cell_setting 'orthorhombic'
loop_
_space_group_symop_operation_xyz
x,y,z
-x,-y,z
1/2-x,y,z
1/2+x,-y,z
x,1/2+y,1/2+z
-x,1/2-y,1/2+z
1/2-x,1/2+y,1/2+z
1/2+x,1/2-y,1/2+z
loop_
_atom_site_type_symbol
_atom_site_label
_atom_site_fract_x
_atom_site_fract_y
_atom_site_fract_z
Si Si1 0.666684 0.617807 0.380790
Si Si2 0.084357 0.602515 0.877990
Si Si3 0.092472 0.426447 0.088543
Si Si4 0.250000 0.751306 0.538522
Si Si5 0.475178 0.248667 0.221117
Si Si6 0.666203 0.404270 0.589372
Si Si7 0.630072 0.732599 0.751051
Si Si8 0.750000 0.751852 0.416198
O O1 0.626366 0.762072 0.354419
O O2 0.669613 0.595865 0.500102
O O3 0.663842 0.369139 0.317879
O O4 0.708449 0.758621 0.350445
O O5 0.046349 0.741774 0.829024
O O6 0.092458 0.349688 0.820972
O O7 0.074402 0.568289 0.993519
O O8 0.058244 0.248869 0.133412
O O9 0.131354 0.277675 0.051694
O O10 0.106748 0.610426 0.171102
O O11 0.291033 0.737303 0.604771
O O12 0.250000 0.518060 0.466163
O O13 0.250000 0.013850 0.486768
O O14 0.500000 0.500000 0.214987
O O15 0.500000 0.000000 0.204704
O O16 0.654356 0.519762 0.694434
#
# Coordination Sequence:
#
# PCOD8184542 Si02
#       8
#     8   8   8   4   8   8   8   4
#     4  11  23  42  75 106 152 200 255 304 373 435
#     4  12  25  47  77 107 147 199 244 300 374 452
#     4  12  25  47  77 107 147 199 244 300 374 452
#     4  10  24  43  69 109 157 201 256 318 365 431
#     4  12  29  52  78 112 150 185 241 314 376 453
#     4  11  23  42  75 106 152 200 255 304 373 435
#     4  12  23  43  72 113 144 194 253 306 358 448
#     4  10  24  43  69 109 157 201 256 318 365 431
#
# _framework density 22.965852000000002
#
# number of rings (size 3 to 8) (size 9 to 14) (size 15 to 20)
#    0.000    0.571    5.714    1.714    4.000    1.143 
#    0.000    7.143    0.000    0.000    0.000    0.000 
#    0.000    0.000    0.000    0.000    0.000    0.000 
#
# Total GULP energy -347092.406043 kJ/mol
# GULP energy per Si atom -12396.157359 kJ/mol
# Density = 2.291358 g / cm^3
# Si number density = 22.965852 Si / 1000 Ang^3
#
#
#
# Elastic Constant Matrix: (Units=GPa)
#
#
# Indices 1 2 3 4 5 6 
#
# 1 144.8373 44.5166 29.5547 0.0000 0.0000 0.0000
# 2 44.5166 104.0828 22.3082 0.0000 0.0000 0.0000
# 3 29.5547 22.3082 106.6821 0.0000 0.0000 0.0000
# 4 0.0000 0.0000 0.0000 38.2388 0.0000 0.0000
# 5 0.0000 0.0000 0.0000 0.0000 -1.2415 0.0000
# 6 0.0000 0.0000 0.0000 0.0000 0.0000 45.0330
#
#
#
# Elastic Compliance Matrix: (Units=1/GPa)
#
#
# Indices 1 2 3 4 5 6 
#
# 1 0.008206 -0.003164 -0.001612 0.000000 0.000000 0.000000
# 2 -0.003164 0.011279 -0.001482 0.000000 0.000000 0.000000
# 3 -0.001612 -0.001482 0.010130 0.000000 0.000000 0.000000
# 4 0.000000 0.000000 0.000000 0.026151 0.000000 0.000000
# 5 0.000000 0.000000 0.000000 0.000000 -0.805460 0.000000
# 6 0.000000 0.000000 0.000000 0.000000 0.000000 0.022206
#
#
# Mechanical properties :
#
#
# Convention : Reuss Voigt Hill
#
# Bulk Modulus (GPa) = 58.48291 60.92902 59.70597
# Shear Modulus (GPa) = -7.04947 33.68756 13.31904
#
# Velocity S-wave (km/s) = -1.75391 3.83411 2.41083
# Velocity P-wave (km/s) = 4.62805 6.79620 5.81409
#
# Compressibility (1/GPa) = 0.01709901
#
# Stress axis : x y z
#
# Youngs Moduli (GPa) = 121.86670 88.66278 98.71679
#
# Poissons Ratio (x) = 0.28055 0.15909
# Poissons Ratio (y) = 0.38561 0.14629
# Poissons Ratio (z) = 0.19640 0.13139
#
# Static dielectric constant tensor:
#      x y z
#    x 9.186120 0.000000 0.000000 
#    y 0.000000 4.246800 0.000000 
#    z 0.000000 0.000000 4.001390 
# 
# 
# High freq. dielectric constant tensor:
#      x y z
#    x 1.916700 0.000000 0.000000 
#    y 0.000000 1.909180 0.000000 
#    z 0.000000 0.000000 1.903090 
# 
# From -- ./inp_files/18755.got.cif
#   From: 2010.03.12/outbox.cif.g09.slc.cpg/sg40_10_cif.got.tgz:18755.got - 2010.04.14 01:38:03.
