data_PCOD8184522
_publ_section_title
;
Structure prediction by ZEFSAII (Michael W. Deem and Ramdas Pophale) SiO2 
 PCOD8184522
Probable space group: A M A 2
;
_chemical_formula_sum "Si O2"
_cell_formula_units_Z 64
_cell_length_a 17.625805
_cell_length_b 15.036168
_cell_length_c 11.730898
_cell_angle_alpha 90.000000
_cell_angle_beta 90.000000
_cell_angle_gamma 90.000000
_cell_volume 3108.976141
_symmetry_space_group_name_H-M "A M A 2"
_symmetry_group_IT_number 40
_symmetry_cell_setting 'orthorhombic'
loop_
_space_group_symop_operation_xyz
x,y,z
-x,-y,z
1/2-x,y,z
1/2+x,-y,z
x,1/2+y,1/2+z
-x,1/2-y,1/2+z
1/2-x,1/2+y,1/2+z
1/2+x,1/2-y,1/2+z
loop_
_atom_site_type_symbol
_atom_site_label
_atom_site_fract_x
_atom_site_fract_y
_atom_site_fract_z
Si Si1 0.589711 0.494768 0.039410
Si Si2 0.336346 0.147926 0.109341
Si Si3 0.662204 0.618427 0.402585
Si Si4 0.070239 0.660686 0.191425
Si Si5 0.600423 0.169081 0.669829
Si Si6 0.161214 0.831510 0.155715
Si Si7 0.924478 0.447040 0.420927
Si Si8 0.337510 0.504439 0.795449
O O1 0.500000 0.500000 0.050591
O O2 0.614150 0.402760 0.100935
O O3 0.626406 0.578841 0.105330
O O4 0.613373 0.492922 0.908872
O O5 0.250000 0.128704 0.068092
O O6 0.346116 0.252645 0.125730
O O7 0.351864 0.095224 0.226617
O O8 0.399393 0.120582 0.018301
O O9 0.750000 0.633414 0.375186
O O10 0.611592 0.662995 0.305522
O O11 0.639223 0.662360 0.522897
O O12 0.645816 0.513601 0.404691
O O13 0.119229 0.748563 0.213251
O O14 0.058152 0.606603 0.307017
O O15 0.987708 0.689873 0.145304
O O16 0.250000 0.816842 0.171649
O O17 0.135350 0.921765 0.218187
O O18 0.000000 0.500000 0.458075
O O19 0.250000 0.494330 0.830097
#
# Coordination Sequence:
#
# PCOD8184522 Si02
#       8
#     8   8   8   8   8   8   8   8
#     4  10  23  44  62  89 130 169 210 261 320 385
#     4  11  26  44  66  99 134 172 220 271 327 393
#     4  11  22  43  70  92 126 172 216 267 327 388
#     4  11  24  43  66  96 131 169 217 269 330 390
#     4  11  24  43  66  96 132 171 214 273 325 392
#     4  10  24  43  65  95 130 169 218 270 325 392
#     4  12  23  44  70  98 130 168 220 277 328 386
#     4  10  23  44  63  89 130 168 210 263 317 382
#
# _framework density 20.585554999999999
#
# number of rings (size 3 to 8) (size 9 to 14) (size 15 to 20)
#    0.000    1.250    3.750    1.125    5.250    4.000 
#    0.000    0.000    0.000    0.000    0.000    0.000 
#    0.000    0.000    0.000    0.000    0.000    0.000 
#
# Total GULP energy -396929.174837 kJ/mol
# GULP energy per Si atom -12404.036714 kJ/mol
# Density = 2.053870 g / cm^3
# Si number density = 20.585555 Si / 1000 Ang^3
#
#
#
# Elastic Constant Matrix: (Units=GPa)
#
#
# Indices 1 2 3 4 5 6 
#
# 1 55.5777 39.8337 35.4616 0.0000 0.0000 0.0000
# 2 39.8337 115.9483 26.8143 0.0000 0.0000 0.0000
# 3 35.4616 26.8143 98.8683 0.0000 0.0000 0.0000
# 4 0.0000 0.0000 0.0000 28.2334 0.0000 0.0000
# 5 0.0000 0.0000 0.0000 0.0000 31.2179 0.0000
# 6 0.0000 0.0000 0.0000 0.0000 0.0000 37.8160
#
#
#
# Elastic Compliance Matrix: (Units=1/GPa)
#
#
# Indices 1 2 3 4 5 6 
#
# 1 0.029021 -0.008069 -0.008221 0.000000 0.000000 0.000000
# 2 -0.008069 0.011445 -0.000210 0.000000 0.000000 0.000000
# 3 -0.008221 -0.000210 0.013120 0.000000 0.000000 0.000000
# 4 0.000000 0.000000 0.000000 0.035419 0.000000 0.000000
# 5 0.000000 0.000000 0.000000 0.000000 0.032033 0.000000
# 6 0.000000 0.000000 0.000000 0.000000 0.000000 0.026444
#
#
# Mechanical properties :
#
#
# Convention : Reuss Voigt Hill
#
# Bulk Modulus (GPa) = 48.57430 52.73482 50.65456
# Shear Modulus (GPa) = 26.68883 30.67245 28.68064
#
# Velocity S-wave (km/s) = 3.60458 3.86424 3.73666
# Velocity P-wave (km/s) = 6.40090 6.75150 6.57854
#
# Compressibility (1/GPa) = 0.02058702
#
# Stress axis : x y z
#
# Youngs Moduli (GPa) = 34.45726 87.37299 76.21952
#
# Poissons Ratio (x) = 0.70502 0.62659
# Poissons Ratio (y) = 0.27804 0.01600
# Poissons Ratio (z) = 0.28327 0.01834
#
# Static dielectric constant tensor:
#      x y z
#    x 3.593780 0.000000 0.000000 
#    y 0.000000 3.835410 0.000000 
#    z 0.000000 0.000000 3.730150 
# 
# 
# High freq. dielectric constant tensor:
#      x y z
#    x 1.801540 0.000000 0.000000 
#    y 0.000000 1.812190 0.000000 
#    z 0.000000 0.000000 1.807020 
# 
# From -- ./inp_files/13122.got.cif
#   From: 2010.03.12/outbox.cif.g09.slc.cpg/sg40_7_cif.got.tgz:13122.got - 2010.04.14 01:38:03.
