data_PCOD8184259
_publ_section_title
;
Structure prediction by ZEFSAII (Michael W. Deem and Ramdas Pophale) SiO2 
 PCOD8184259
Probable space group: A M A 2
;
_chemical_formula_sum "Si O2"
_cell_formula_units_Z 64
_cell_length_a 17.406608
_cell_length_b 12.053696
_cell_length_c 15.077345
_cell_angle_alpha 90.000000
_cell_angle_beta 90.000000
_cell_angle_gamma 90.000000
_cell_volume 3163.437479
_symmetry_space_group_name_H-M "A M A 2"
_symmetry_group_IT_number 40
_symmetry_cell_setting 'orthorhombic'
loop_
_space_group_symop_operation_xyz
x,y,z
-x,-y,z
1/2-x,y,z
1/2+x,-y,z
x,1/2+y,1/2+z
-x,1/2-y,1/2+z
1/2-x,1/2+y,1/2+z
1/2+x,1/2-y,1/2+z
loop_
_atom_site_type_symbol
_atom_site_label
_atom_site_fract_x
_atom_site_fract_y
_atom_site_fract_z
Si Si1 0.095527 0.877434 0.224630
Si Si2 0.085497 0.488075 0.108828
Si Si3 0.583665 0.239722 0.546236
Si Si4 0.400895 0.727298 0.060794
Si Si5 0.838527 0.220968 0.872973
Si Si6 0.340451 0.215388 0.863742
Si Si7 0.585414 0.367446 0.722724
Si Si8 0.586294 0.006877 0.810719
O O1 0.123671 0.817495 0.134515
O O2 0.138086 0.825937 0.309796
O O3 0.005309 0.860584 0.236154
O O4 0.116664 0.006932 0.221175
O O5 0.121196 0.383704 0.055738
O O6 0.126667 0.605730 0.094947
O O7 0.083313 0.449200 0.210542
O O8 0.000000 0.500000 0.071669
O O9 0.491402 0.235670 0.540956
O O10 0.617374 0.292317 0.457913
O O11 0.610209 0.313395 0.629679
O O12 0.351758 0.743313 0.973273
O O13 0.750000 0.224791 0.848273
O O14 0.880749 0.303146 0.806148
O O15 0.867696 0.095097 0.868231
O O16 0.250000 0.208994 0.878354
O O17 0.370835 0.110340 0.809156
O O18 0.500000 0.000000 0.849560
#
# Coordination Sequence:
#
# PCOD8184259 Si02
#       8
#     8   8   8   8   8   8   8   8
#     4  10  22  42  67  93 121 164 219 264 304 363
#     4   9  18  37  67  92 113 150 215 273 308 348
#     4  10  21  40  65  93 120 162 217 266 307 364
#     4  10  21  40  65  93 120 162 217 266 307 364
#     4  12  26  41  60  95 133 168 202 252 325 384
#     4  12  26  41  60  95 133 168 202 252 325 384
#     4  10  22  42  67  93 121 164 219 264 304 363
#     4  11  21  43  71  92 117 160 215 267 306 364
#
# _framework density 20.231157
#
# number of rings (size 3 to 8) (size 9 to 14) (size 15 to 20)
#    0.000    1.500    2.500    2.625    3.500    1.500 
#    0.000    0.000    0.000    0.000    0.000    0.000 
#    0.000    0.000    0.000    0.000    0.000    0.000 
#
# Total GULP energy -396844.234717 kJ/mol
# GULP energy per Si atom -12401.382335 kJ/mol
# Density = 2.018511 g / cm^3
# Si number density = 20.231157 Si / 1000 Ang^3
#
#
#
# Elastic Constant Matrix: (Units=GPa)
#
#
# Indices 1 2 3 4 5 6 
#
# 1 49.9463 25.1437 22.0511 0.0000 0.0000 0.0000
# 2 25.1437 131.0232 31.7132 0.0000 0.0000 0.0000
# 3 22.0511 31.7132 99.8771 0.0000 0.0000 0.0000
# 4 0.0000 0.0000 0.0000 50.2172 0.0000 0.0000
# 5 0.0000 0.0000 0.0000 0.0000 0.7110 0.0000
# 6 0.0000 0.0000 0.0000 0.0000 0.0000 18.7967
#
#
#
# Elastic Compliance Matrix: (Units=1/GPa)
#
#
# Indices 1 2 3 4 5 6 
#
# 1 0.023609 -0.003541 -0.004088 0.000000 0.000000 0.000000
# 2 -0.003541 0.008799 -0.002012 0.000000 0.000000 0.000000
# 3 -0.004088 -0.002012 0.011554 0.000000 0.000000 0.000000
# 4 0.000000 0.000000 0.000000 0.019914 0.000000 0.000000
# 5 0.000000 0.000000 0.000000 0.000000 1.406504 0.000000
# 6 0.000000 0.000000 0.000000 0.000000 0.000000 0.053201
#
#
# Mechanical properties :
#
#
# Convention : Reuss Voigt Hill
#
# Bulk Modulus (GPa) = 40.52007 48.74031 44.63019
# Shear Modulus (GPa) = 3.22354 27.40752 15.31553
#
# Velocity S-wave (km/s) = 1.26365 3.68464 2.75440
# Velocity P-wave (km/s) = 4.71181 6.49970 5.67659
#
# Compressibility (1/GPa) = 0.02467913
#
# Stress axis : x y z
#
# Youngs Moduli (GPa) = 42.35666 113.65206 86.55210
#
# Poissons Ratio (x) = 0.40246 0.35383
# Poissons Ratio (y) = 0.14999 0.17414
# Poissons Ratio (z) = 0.17316 0.22867
#
# Static dielectric constant tensor:
#      x y z
#    x 3.406280 0.000000 0.000000 
#    y 0.000000 3.922830 0.000000 
#    z 0.000000 0.000000 3.593940 
# 
# 
# High freq. dielectric constant tensor:
#      x y z
#    x 1.761960 0.000000 0.000000 
#    y 0.000000 1.808330 0.000000 
#    z 0.000000 0.000000 1.795360 
# 
# From -- ./inp_files/17883.got.cif
#   From: 2010.03.12/outbox.cif.g09.slc.cpg/sg40_9_cif.got.tgz:17883.got - 2010.04.14 01:38:03.
