data_PCOD8184024
_publ_section_title
;
Structure prediction by ZEFSAII (Michael W. Deem and Ramdas Pophale) SiO2 
 PCOD8184024
Probable space group: A M A 2
;
_chemical_formula_sum "Si O2"
_cell_formula_units_Z 56
_cell_length_a 29.203243
_cell_length_b 13.617662
_cell_length_c 6.551799
_cell_angle_alpha 90.000000
_cell_angle_beta 90.000000
_cell_angle_gamma 90.000000
_cell_volume 2605.518722
_symmetry_space_group_name_H-M "A M A 2"
_symmetry_group_IT_number 40
_symmetry_cell_setting 'orthorhombic'
loop_
_space_group_symop_operation_xyz
x,y,z
-x,-y,z
1/2-x,y,z
1/2+x,-y,z
x,1/2+y,1/2+z
-x,1/2-y,1/2+z
1/2-x,1/2+y,1/2+z
1/2+x,1/2-y,1/2+z
loop_
_atom_site_type_symbol
_atom_site_label
_atom_site_fract_x
_atom_site_fract_y
_atom_site_fract_z
Si Si1 0.880197 0.109921 0.640750
Si Si2 0.491387 0.113765 0.069243
Si Si3 0.802648 0.636507 0.462509
Si Si4 0.150171 0.498187 0.767050
Si Si5 0.060005 0.748050 0.854050
Si Si6 0.401178 0.571055 0.390080
Si Si7 0.148188 0.670445 0.061881
O O1 0.911032 0.207332 0.662788
O O2 0.871708 0.089370 0.402547
O O3 0.908443 0.021906 0.743449
O O4 0.831725 0.120701 0.757911
O O5 0.477565 0.170709 0.276770
O O6 0.500000 0.000000 0.123194
O O7 0.536556 0.163444 0.977829
O O8 0.450230 0.124573 0.904325
O O9 0.750000 0.638668 0.398775
O O10 0.810297 0.549010 0.626088
O O11 0.816840 0.739746 0.564123
O O12 0.110977 0.541990 0.622122
O O13 0.168836 0.583805 0.917299
O O14 0.096491 0.695511 0.997808
O O15 0.359219 0.635000 0.295541
#
# Coordination Sequence:
#
# PCOD8184024 Si02
#       7
#     8   8   8   8   8   8   8
#     4   9  21  41  66  88 125 169 213 260 328 398
#     4  12  24  39  60  93 135 167 226 281 312 380
#     4  10  23  40  64  97 125 157 212 272 326 396
#     4  10  21  40  66  91 119 174 208 257 328 393
#     4  11  23  40  59  93 127 178 220 268 331 384
#     4  10  20  41  62  87 127 166 218 261 319 385
#     4  10  22  40  64  90 126 170 211 264 329 400
#
# _framework density 21.492842
#
# number of rings (size 3 to 8) (size 9 to 14) (size 15 to 20)
#    0.000    1.714    2.857    0.857    2.000    2.286 
#    0.000    5.714    0.000    0.000    0.000    0.000 
#    0.000    0.000    0.000    0.000    0.000    0.000 
#
# Total GULP energy -347170.202803 kJ/mol
# GULP energy per Si atom -12398.935814 kJ/mol
# Density = 2.144392 g / cm^3
# Si number density = 21.492842 Si / 1000 Ang^3
#
#
#
# Elastic Constant Matrix: (Units=GPa)
#
#
# Indices 1 2 3 4 5 6 
#
# 1 93.7933 39.5882 29.3883 0.0000 0.0000 0.0000
# 2 39.5882 108.0683 26.5565 0.0000 0.0000 0.0000
# 3 29.3883 26.5565 95.7889 0.0000 0.0000 0.0000
# 4 0.0000 0.0000 0.0000 29.7836 0.0000 0.0000
# 5 0.0000 0.0000 0.0000 0.0000 16.5285 0.0000
# 6 0.0000 0.0000 0.0000 0.0000 0.0000 27.1080
#
#
#
# Elastic Compliance Matrix: (Units=1/GPa)
#
#
# Indices 1 2 3 4 5 6 
#
# 1 0.013340 -0.004165 -0.002938 0.000000 0.000000 0.000000
# 2 -0.004165 0.011230 -0.001836 0.000000 0.000000 0.000000
# 3 -0.002938 -0.001836 0.011850 0.000000 0.000000 0.000000
# 4 0.000000 0.000000 0.000000 0.033576 0.000000 0.000000
# 5 0.000000 0.000000 0.000000 0.000000 0.060501 0.000000
# 6 0.000000 0.000000 0.000000 0.000000 0.000000 0.036890
#
#
# Mechanical properties :
#
#
# Convention : Reuss Voigt Hill
#
# Bulk Modulus (GPa) = 53.92854 54.30182 54.11518
# Shear Modulus (GPa) = 26.11711 28.15852 27.13781
#
# Velocity S-wave (km/s) = 3.48969 3.62350 3.55723
# Velocity P-wave (km/s) = 6.43297 6.54418 6.48881
#
# Compressibility (1/GPa) = 0.01854306
#
# Stress axis : x y z
#
# Youngs Moduli (GPa) = 74.96104 89.04559 84.38837
#
# Poissons Ratio (x) = 0.37086 0.24795
# Poissons Ratio (y) = 0.31220 0.15491
# Poissons Ratio (z) = 0.22025 0.16346
#
# Static dielectric constant tensor:
#      x y z
#    x 3.531310 0.000000 0.000000 
#    y 0.000000 4.108520 0.000000 
#    z 0.000000 0.000000 3.785140 
# 
# 
# High freq. dielectric constant tensor:
#      x y z
#    x 1.814150 0.000000 0.000000 
#    y 0.000000 1.861250 0.000000 
#    z 0.000000 0.000000 1.837540 
# 
# From -- ./inp_files/3409.got.cif
#   From: 2010.03.12/outbox.cif.g09.slc.cpg/sg40_2_cif.got.tgz:3409.got - 2010.04.14 01:38:03.
