data_PCOD8184055
_publ_section_title
;
Structure prediction by ZEFSAII (Michael W. Deem and Ramdas Pophale) SiO2 
 PCOD8184055
Probable space group: A M A 2
;
_chemical_formula_sum "Si O2"
_cell_formula_units_Z 64
_cell_length_a 13.470843
_cell_length_b 14.227650
_cell_length_c 18.665987
_cell_angle_alpha 90.000000
_cell_angle_beta 90.000000
_cell_angle_gamma 90.000000
_cell_volume 3577.493938
_symmetry_space_group_name_H-M "A M A 2"
_symmetry_group_IT_number 40
_symmetry_cell_setting 'orthorhombic'
loop_
_space_group_symop_operation_xyz
x,y,z
-x,-y,z
1/2-x,y,z
1/2+x,-y,z
x,1/2+y,1/2+z
-x,1/2-y,1/2+z
1/2-x,1/2+y,1/2+z
1/2+x,1/2-y,1/2+z
loop_
_atom_site_type_symbol
_atom_site_label
_atom_site_fract_x
_atom_site_fract_y
_atom_site_fract_z
Si Si1 0.132759 0.590333 0.647750
Si Si2 0.138481 0.081783 0.995327
Si Si3 0.133768 0.803756 0.651855
Si Si4 0.361458 0.304457 0.989940
Si Si5 0.634899 0.488238 0.796483
Si Si6 0.019465 0.849811 0.353727
Si Si7 0.366166 0.513114 0.347236
Si Si8 0.019992 0.354095 0.286866
O O1 0.250000 0.590155 0.637334
O O2 0.087230 0.553394 0.571621
O O3 0.099954 0.696458 0.662082
O O4 0.099486 0.527056 0.714430
O O5 0.250000 0.042967 0.994965
O O6 0.136678 0.193096 0.987662
O O7 0.087909 0.036226 0.925801
O O8 0.250000 0.818126 0.672169
O O9 0.114278 0.839152 0.570681
O O10 0.060328 0.857744 0.705562
O O11 0.250000 0.338913 0.968094
O O12 0.445694 0.342448 0.936215
O O13 0.750000 0.467866 0.806969
O O14 0.578461 0.415201 0.849003
O O15 0.608459 0.596205 0.812572
O O16 0.999333 0.749585 0.317693
O O17 0.250000 0.532140 0.340218
O O18 0.393373 0.404745 0.333021
O O19 0.419858 0.583599 0.290954
#
# Coordination Sequence:
#
# PCOD8184055 Si02
#       8
#     8   8   8   8   8   8   8   8
#     4   8  14  28  51  77 106 140 177 216 262 321
#     4   8  14  28  51  77 106 140 177 216 262 321
#     4   9  17  32  56  82 109 145 185 223 264 316
#     4   9  17  32  56  82 109 145 185 223 264 316
#     4  10  21  35  52  79 111 145 182 224 278 329
#     4  11  21  34  54  81 110 138 181 227 271 319
#     4  10  21  35  52  79 111 145 182 224 278 329
#     4  11  21  34  54  81 110 138 181 227 271 319
#
# _framework density 17.889617000000001
#
# number of rings (size 3 to 8) (size 9 to 14) (size 15 to 20)
#    0.000    2.500    2.500    2.250    0.000    1.000 
#    0.000    6.250    0.000    2.250    0.000    0.000 
#    0.000    0.000    0.000    0.000    0.000    0.000 
#
# Total GULP energy -396436.933774 kJ/mol
# GULP energy per Si atom -12388.654180 kJ/mol
# Density = 1.784890 g / cm^3
# Si number density = 17.889617 Si / 1000 Ang^3
#
#
#
# Elastic Constant Matrix: (Units=GPa)
#
#
# Indices 1 2 3 4 5 6 
#
# 1 94.8992 31.7794 56.2662 0.0000 0.0000 0.0000
# 2 31.7794 81.4540 49.7999 0.0000 0.0000 0.0000
# 3 56.2662 49.7999 155.9439 0.0000 0.0000 0.0000
# 4 0.0000 0.0000 0.0000 21.7942 0.0000 0.0000
# 5 0.0000 0.0000 0.0000 0.0000 24.0419 0.0000
# 6 0.0000 0.0000 0.0000 0.0000 0.0000 25.4439
#
#
#
# Elastic Compliance Matrix: (Units=1/GPa)
#
#
# Indices 1 2 3 4 5 6 
#
# 1 0.013949 -0.002939 -0.004095 0.000000 0.000000 0.000000
# 2 -0.002939 0.015875 -0.004009 0.000000 0.000000 0.000000
# 3 -0.004095 -0.004009 0.009170 0.000000 0.000000 0.000000
# 4 0.000000 0.000000 0.000000 0.045884 0.000000 0.000000
# 5 0.000000 0.000000 0.000000 0.000000 0.041594 0.000000
# 6 0.000000 0.000000 0.000000 0.000000 0.000000 0.039302
#
#
# Mechanical properties :
#
#
# Convention : Reuss Voigt Hill
#
# Bulk Modulus (GPa) = 59.14023 67.55424 63.34724
# Shear Modulus (GPa) = 25.84038 27.21944 26.52991
#
# Velocity S-wave (km/s) = 3.80469 3.90490 3.85512
# Velocity P-wave (km/s) = 7.24093 7.62723 7.43659
#
# Compressibility (1/GPa) = 0.01690896
#
# Stress axis : x y z
#
# Youngs Moduli (GPa) = 71.68791 62.99367 109.04922
#
# Poissons Ratio (x) = 0.18514 0.44650
# Poissons Ratio (y) = 0.21069 0.43718
# Poissons Ratio (z) = 0.29353 0.25254
#
# Static dielectric constant tensor:
#      x y z
#    x 3.207000 0.000000 0.000000 
#    y 0.000000 3.169720 0.000000 
#    z 0.000000 0.000000 3.658580 
# 
# 
# High freq. dielectric constant tensor:
#      x y z
#    x 1.680870 0.000000 0.000000 
#    y 0.000000 1.673440 0.000000 
#    z 0.000000 0.000000 1.700250 
# 
# From -- ./inp_files/20867.got.cif
#   From: 2010.03.12/outbox.cif.g09.slc.cpg/sg40_11_cif.got.tgz:20867.got - 2010.04.14 01:38:03.
