data_PCOD8184537
_publ_section_title
;
Structure prediction by ZEFSAII (Michael W. Deem and Ramdas Pophale) SiO2 
 PCOD8184537
Probable space group: A M A 2
;
_chemical_formula_sum "Si O2"
_cell_formula_units_Z 24
_cell_length_a 20.594592
_cell_length_b 6.931688
_cell_length_c 7.910695
_cell_angle_alpha 90.000000
_cell_angle_beta 90.000000
_cell_angle_gamma 90.000000
_cell_volume 1129.293529
_symmetry_space_group_name_H-M "A M A 2"
_symmetry_group_IT_number 40
_symmetry_cell_setting 'orthorhombic'
loop_
_space_group_symop_operation_xyz
x,y,z
-x,-y,z
1/2-x,y,z
1/2+x,-y,z
x,1/2+y,1/2+z
-x,1/2-y,1/2+z
1/2-x,1/2+y,1/2+z
1/2+x,1/2-y,1/2+z
loop_
_atom_site_type_symbol
_atom_site_label
_atom_site_fract_x
_atom_site_fract_y
_atom_site_fract_z
Si Si1 0.119920 0.059955 0.550660
Si Si2 0.676650 0.294652 0.730246
Si Si3 0.930936 0.577907 0.721627
O O1 0.169148 0.185959 0.433927
O O2 0.076376 0.201618 0.664258
O O3 0.160157 0.922415 0.674627
O O4 0.073268 0.934807 0.426594
O O5 0.750000 0.344639 0.675487
O O6 0.626918 0.445933 0.641701
O O7 0.000000 0.500000 0.657136
#
# Coordination Sequence:
#
# PCOD8184537 Si02
#       3
#     8   8   8
#     4  10  25  41  63  95 125 168 213 262 317 380
#     4  10  24  42  64  94 130 170 214 264 318 378
#     4  10  26  42  69  94 131 166 216 262 320 376
#
# _framework density 21.252224999999999
#
# number of rings (size 3 to 8) (size 9 to 14) (size 15 to 20)
#    2.000    0.000    0.000    1.000    9.333    2.667 
#    0.000    0.000    0.000    0.000    0.000    0.000 
#    0.000    0.000    0.000    0.000    0.000    0.000 
#
# Total GULP energy -148675.681887 kJ/mol
# GULP energy per Si atom -12389.640157 kJ/mol
# Density = 2.120385 g / cm^3
# Si number density = 21.252225 Si / 1000 Ang^3
#
#
#
# Elastic Constant Matrix: (Units=GPa)
#
#
# Indices 1 2 3 4 5 6 
#
# 1 139.4409 34.4096 20.4654 0.0000 0.0000 0.0000
# 2 34.4096 101.2129 65.4135 0.0000 0.0000 0.0000
# 3 20.4654 65.4135 84.4720 0.0000 0.0000 0.0000
# 4 0.0000 0.0000 0.0000 56.3716 0.0000 0.0000
# 5 0.0000 0.0000 0.0000 0.0000 12.0142 0.0000
# 6 0.0000 0.0000 0.0000 0.0000 0.0000 37.7565
#
#
#
# Elastic Compliance Matrix: (Units=1/GPa)
#
#
# Indices 1 2 3 4 5 6 
#
# 1 0.007833 -0.002876 0.000329 0.000000 0.000000 0.000000
# 2 -0.002876 0.020835 -0.015438 0.000000 0.000000 0.000000
# 3 0.000329 -0.015438 0.023713 0.000000 0.000000 0.000000
# 4 0.000000 0.000000 0.000000 0.017739 0.000000 0.000000
# 5 0.000000 0.000000 0.000000 0.000000 0.083235 0.000000
# 6 0.000000 0.000000 0.000000 0.000000 0.000000 0.026486
#
#
# Mechanical properties :
#
#
# Convention : Reuss Voigt Hill
#
# Bulk Modulus (GPa) = 60.92811 62.85585 61.89198
# Shear Modulus (GPa) = 22.59582 34.88427 28.74004
#
# Velocity S-wave (km/s) = 3.26425 4.05587 3.68140
# Velocity P-wave (km/s) = 6.55274 7.18148 6.87430
#
# Compressibility (1/GPa) = 0.01641278
#
# Stress axis : x y z
#
# Youngs Moduli (GPa) = 127.66809 47.99607 42.17091
#
# Poissons Ratio (x) = 0.13802 -0.01388
# Poissons Ratio (y) = 0.36713 0.65102
# Poissons Ratio (z) = -0.04203 0.74094
#
# Static dielectric constant tensor:
#      x y z
#    x 3.634920 0.000000 0.000000 
#    y 0.000000 3.590030 0.000000 
#    z 0.000000 0.000000 3.519270 
# 
# 
# High freq. dielectric constant tensor:
#      x y z
#    x 1.825600 0.000000 0.000000 
#    y 0.000000 1.828220 0.000000 
#    z 0.000000 0.000000 1.811850 
# 
# From -- ./inp_files/7008.got.cif
#   From: 2010.03.12/outbox.cif.g09.slc.cpg/sg40_4_cif.got.tgz:7008.got - 2010.04.14 01:38:03.
