data_PCOD8184712
_publ_section_title
;
Structure prediction by ZEFSAII (Michael W. Deem and Ramdas Pophale) SiO2 
 PCOD8184712
Probable space group: A M A 2
;
_chemical_formula_sum "Si O2"
_cell_formula_units_Z 24
_cell_length_a 17.531550
_cell_length_b 7.390757
_cell_length_c 7.296527
_cell_angle_alpha 90.000000
_cell_angle_beta 90.000000
_cell_angle_gamma 90.000000
_cell_volume 945.421407
_symmetry_space_group_name_H-M "A M A 2"
_symmetry_group_IT_number 40
_symmetry_cell_setting 'orthorhombic'
loop_
_space_group_symop_operation_xyz
x,y,z
-x,-y,z
1/2-x,y,z
1/2+x,-y,z
x,1/2+y,1/2+z
-x,1/2-y,1/2+z
1/2-x,1/2+y,1/2+z
1/2+x,1/2-y,1/2+z
loop_
_atom_site_type_symbol
_atom_site_label
_atom_site_fract_x
_atom_site_fract_y
_atom_site_fract_z
Si Si1 0.399392 0.336234 0.794430
Si Si2 0.953770 0.682873 0.417831
Si Si3 0.662740 0.785535 0.159114
O O1 0.404979 0.245828 0.592653
O O2 0.486873 0.341419 0.866688
O O3 0.361117 0.530436 0.762633
O O4 0.349403 0.217666 0.938699
O O5 0.893972 0.639235 0.252917
O O6 0.000000 0.500000 0.466367
O O7 0.750000 0.741824 0.204721
#
# Coordination Sequence:
#
# PCOD8184712 Si02
#       3
#     8   8   8
#     4  12  25  50  77 113 155 214 270 329 399 483
#     4  12  25  47  82 115 152 217 277 332 397 487
#     4  12  29  49  76 118 167 211 267 341 413 478
#
# _framework density 25.385504999999998
#
# number of rings (size 3 to 8) (size 9 to 14) (size 15 to 20)
#    0.000    0.000    6.667    2.000    4.667    4.000 
#    0.000    0.000    0.000    0.000    0.000    0.000 
#    0.000    0.000    0.000    0.000    0.000    0.000 
#
# Total GULP energy -148659.460133 kJ/mol
# GULP energy per Si atom -12388.288344 kJ/mol
# Density = 2.532773 g / cm^3
# Si number density = 25.385505 Si / 1000 Ang^3
#
#
#
# Elastic Constant Matrix: (Units=GPa)
#
#
# Indices 1 2 3 4 5 6 
#
# 1 185.5902 25.0456 63.1757 0.0000 0.0000 0.0000
# 2 25.0456 74.7288 40.0119 0.0000 0.0000 0.0000
# 3 63.1757 40.0119 150.6001 0.0000 0.0000 0.0000
# 4 0.0000 0.0000 0.0000 38.5589 0.0000 0.0000
# 5 0.0000 0.0000 0.0000 0.0000 42.0239 0.0000
# 6 0.0000 0.0000 0.0000 0.0000 0.0000 25.2565
#
#
#
# Elastic Compliance Matrix: (Units=1/GPa)
#
#
# Indices 1 2 3 4 5 6 
#
# 1 0.006328 -0.000816 -0.002438 0.000000 0.000000 0.000000
# 2 -0.000816 0.015706 -0.003831 0.000000 0.000000 0.000000
# 3 -0.002438 -0.003831 0.008681 0.000000 0.000000 0.000000
# 4 0.000000 0.000000 0.000000 0.025934 0.000000 0.000000
# 5 0.000000 0.000000 0.000000 0.000000 0.023796 0.000000
# 6 0.000000 0.000000 0.000000 0.000000 0.000000 0.039594
#
#
# Mechanical properties :
#
#
# Convention : Reuss Voigt Hill
#
# Bulk Modulus (GPa) = 60.43615 74.15395 67.29505
# Shear Modulus (GPa) = 35.78513 40.01359 37.89936
#
# Velocity S-wave (km/s) = 3.75863 3.97449 3.86807
# Velocity P-wave (km/s) = 6.53417 7.09483 6.82027
#
# Compressibility (1/GPa) = 0.01654639
#
# Stress axis : x y z
#
# Youngs Moduli (GPa) = 158.02385 63.66941 115.19999
#
# Poissons Ratio (x) = 0.05193 0.28085
# Poissons Ratio (y) = 0.12888 0.44130
# Poissons Ratio (z) = 0.38525 0.24390
#
# Static dielectric constant tensor:
#      x y z
#    x 4.720590 0.000000 0.000000 
#    y 0.000000 4.219810 0.000000 
#    z 0.000000 0.000000 5.095730 
# 
# 
# High freq. dielectric constant tensor:
#      x y z
#    x 2.001010 0.000000 0.000000 
#    y 0.000000 1.990890 0.000000 
#    z 0.000000 0.000000 2.037680 
# 
# From -- ./inp_files/5787.got.cif
#   From: 2010.03.12/outbox.cif.g09.slc.cpg/sg40_3_cif.got.tgz:5787.got - 2010.04.14 01:38:03.
