data_PCOD8184592
_publ_section_title
;
Structure prediction by ZEFSAII (Michael W. Deem and Ramdas Pophale) SiO2 
 PCOD8184592
Probable space group: A M A 2
;
_chemical_formula_sum "Si O2"
_cell_formula_units_Z 64
_cell_length_a 8.487196
_cell_length_b 30.171060
_cell_length_c 14.301380
_cell_angle_alpha 90.000000
_cell_angle_beta 90.000000
_cell_angle_gamma 90.000000
_cell_volume 3662.121480
_symmetry_space_group_name_H-M "A M A 2"
_symmetry_group_IT_number 40
_symmetry_cell_setting 'orthorhombic'
loop_
_space_group_symop_operation_xyz
x,y,z
-x,-y,z
1/2-x,y,z
1/2+x,-y,z
x,1/2+y,1/2+z
-x,1/2-y,1/2+z
1/2-x,1/2+y,1/2+z
1/2+x,1/2-y,1/2+z
loop_
_atom_site_type_symbol
_atom_site_label
_atom_site_fract_x
_atom_site_fract_y
_atom_site_fract_z
Si Si1 0.071072 0.175673 0.829470
Si Si2 0.936268 0.547516 0.428453
Si Si3 0.431704 0.631429 0.524169
Si Si4 0.434711 0.799013 0.156034
Si Si5 0.433884 0.046463 0.723640
Si Si6 0.930642 0.631427 0.161126
Si Si7 0.434821 0.229768 0.341133
Si Si8 0.437865 0.285015 0.041897
O O1 0.250000 0.166144 0.796742
O O2 0.046101 0.163704 0.936530
O O3 0.952452 0.146967 0.767700
O O4 0.032164 0.226656 0.816247
O O5 0.750000 0.547447 0.429583
O O6 0.000000 0.500000 0.461112
O O7 0.000706 0.583054 0.502266
O O8 0.993644 0.558866 0.324135
O O9 0.250000 0.627194 0.553242
O O10 0.529710 0.654169 0.606838
O O11 0.250000 0.793632 0.172387
O O12 0.525130 0.802653 0.255206
O O13 0.495617 0.757953 0.093997
O O14 0.250000 0.041808 0.737558
O O15 0.475329 0.085100 0.648960
O O16 0.500000 0.000000 0.685189
O O17 0.750000 0.621395 0.140210
O O18 0.994521 0.670132 0.093634
O O19 0.250000 0.240039 0.346585
O O20 0.493850 0.209694 0.438332
O O21 0.250000 0.280808 0.040171
#
# Coordination Sequence:
#
# PCOD8184592 Si02
#       8
#     8   8   8   8   8   8   8   8
#     4  11  21  32  52  76 107 144 183 224 266 314
#     4  11  21  34  53  77 108 142 180 220 270 322
#     4  11  22  36  54  78 109 144 184 224 268 319
#     4  12  24  37  56  79 107 143 184 225 271 322
#     4  11  21  34  52  76 108 142 180 221 269 321
#     4  11  22  35  54  78 108 143 182 222 270 322
#     4  12  24  38  55  76 107 144 184 228 272 316
#     4  11  23  38  55  78 108 142 183 226 269 320
#
# _framework density 17.476209000000001
#
# number of rings (size 3 to 8) (size 9 to 14) (size 15 to 20)
#    0.000    0.750    3.750    6.750    0.000    2.500 
#    0.000    0.000    0.000    0.000    0.000    0.875 
#    0.000    4.000    0.000    0.000    0.000    0.000 
#
# Total GULP energy -396894.309699 kJ/mol
# GULP energy per Si atom -12402.947178 kJ/mol
# Density = 1.743643 g / cm^3
# Si number density = 17.476209 Si / 1000 Ang^3
#
#
#
# Elastic Constant Matrix: (Units=GPa)
#
#
# Indices 1 2 3 4 5 6 
#
# 1 72.2168 29.3497 39.5717 0.0000 0.0000 0.0000
# 2 29.3497 114.6728 33.6593 0.0000 0.0000 0.0000
# 3 39.5717 33.6593 55.8406 0.0000 0.0000 0.0000
# 4 0.0000 0.0000 0.0000 70.5475 0.0000 0.0000
# 5 0.0000 0.0000 0.0000 0.0000 20.3823 0.0000
# 6 0.0000 0.0000 0.0000 0.0000 0.0000 30.3409
#
#
#
# Elastic Compliance Matrix: (Units=1/GPa)
#
#
# Indices 1 2 3 4 5 6 
#
# 1 0.022803 -0.001328 -0.015359 0.000000 0.000000 0.000000
# 2 -0.001328 0.010672 -0.005492 0.000000 0.000000 0.000000
# 3 -0.015359 -0.005492 0.032103 0.000000 0.000000 0.000000
# 4 0.000000 0.000000 0.000000 0.014175 0.000000 0.000000
# 5 0.000000 0.000000 0.000000 0.000000 0.049062 0.000000
# 6 0.000000 0.000000 0.000000 0.000000 0.000000 0.032959
#
#
# Mechanical properties :
#
#
# Convention : Reuss Voigt Hill
#
# Bulk Modulus (GPa) = 47.12476 49.76573 48.44525
# Shear Modulus (GPa) = 23.45165 33.59746 28.52456
#
# Velocity S-wave (km/s) = 3.66719 4.38935 4.04442
# Velocity P-wave (km/s) = 6.70483 7.36387 7.04207
#
# Compressibility (1/GPa) = 0.02122027
#
# Stress axis : x y z
#
# Youngs Moduli (GPa) = 43.85410 93.69976 31.15010
#
# Poissons Ratio (x) = 0.12444 0.47843
# Poissons Ratio (y) = 0.05824 0.17107
# Poissons Ratio (z) = 0.67355 0.51459
#
# Static dielectric constant tensor:
#      x y z
#    x 3.569850 0.000000 0.000000 
#    y 0.000000 1.212400 0.000000 
#    z 0.000000 0.000000 3.172050 
# 
# 
# High freq. dielectric constant tensor:
#      x y z
#    x 1.696180 0.000000 0.000000 
#    y 0.000000 1.673220 0.000000 
#    z 0.000000 0.000000 1.643710 
# 
# From -- ./inp_files/15877.got.cif
#   From: 2010.03.12/outbox.cif.g09.slc.cpg/sg40_8_cif.got.tgz:15877.got - 2010.04.14 01:38:03.
