data_PCOD8184103
_publ_section_title
;
Structure prediction by ZEFSAII (Michael W. Deem and Ramdas Pophale) SiO2 
 PCOD8184103
Probable space group: A M A 2
;
_chemical_formula_sum "Si O2"
_cell_formula_units_Z 40
_cell_length_a 8.805791
_cell_length_b 13.477172
_cell_length_c 18.517302
_cell_angle_alpha 90.000000
_cell_angle_beta 90.000000
_cell_angle_gamma 90.000000
_cell_volume 2197.580810
_symmetry_space_group_name_H-M "A M A 2"
_symmetry_group_IT_number 40
_symmetry_cell_setting 'orthorhombic'
loop_
_space_group_symop_operation_xyz
x,y,z
-x,-y,z
1/2-x,y,z
1/2+x,-y,z
x,1/2+y,1/2+z
-x,1/2-y,1/2+z
1/2-x,1/2+y,1/2+z
1/2+x,1/2-y,1/2+z
loop_
_atom_site_type_symbol
_atom_site_label
_atom_site_fract_x
_atom_site_fract_y
_atom_site_fract_z
Si Si1 0.428069 0.892316 0.481140
Si Si2 0.429813 0.603889 0.689640
Si Si3 0.929953 0.790180 0.617437
Si Si4 0.573995 0.898048 0.760821
Si Si5 0.073324 0.305747 0.825793
O O1 0.250000 0.901897 0.496489
O O2 0.505985 0.827680 0.542330
O O3 0.463397 0.836423 0.406844
O O4 0.500000 0.000000 0.478496
O O5 0.500000 0.500000 0.665059
O O6 0.250000 0.600238 0.683507
O O7 0.495055 0.685028 0.634801
O O8 0.476211 0.626159 0.772220
O O9 0.750000 0.776689 0.613531
O O10 0.976263 0.868567 0.679696
O O11 0.750000 0.917928 0.763605
O O12 0.527352 0.809574 0.815390
O O13 0.500000 0.000000 0.786432
O O14 0.250000 0.320977 0.805632
#
# Coordination Sequence:
#
# PCOD8184103 Si02
#       5
#     8   8   8   8   8
#     4  11  22  36  55  79 109 143 179 222 273 324
#     4  11  21  35  57  82 108 140 180 223 270 321
#     4  10  21  37  55  78 109 141 178 223 270 321
#     4   9  18  33  53  76 103 136 173 216 263 312
#     4   9  20  37  54  77 110 144 181 224 268 318
#
# _framework density 18.201833000000001
#
# number of rings (size 3 to 8) (size 9 to 14) (size 15 to 20)
#    0.000    2.000    0.000    5.400    0.000    8.800 
#    0.000    1.000    0.000    2.400    0.000    0.000 
#    0.000    0.000    0.000    0.000    0.000    0.000 
#
# Total GULP energy -248049.109398 kJ/mol
# GULP energy per Si atom -12402.455470 kJ/mol
# Density = 1.816040 g / cm^3
# Si number density = 18.201833 Si / 1000 Ang^3
#
#
#
# Elastic Constant Matrix: (Units=GPa)
#
#
# Indices 1 2 3 4 5 6 
#
# 1 102.8826 69.4530 60.2662 0.0000 0.0000 0.0000
# 2 69.4530 158.1302 69.2080 0.0000 0.0000 0.0000
# 3 60.2662 69.2080 120.0001 0.0000 0.0000 0.0000
# 4 0.0000 0.0000 0.0000 13.2936 0.0000 0.0000
# 5 0.0000 0.0000 0.0000 0.0000 55.5597 0.0000
# 6 0.0000 0.0000 0.0000 0.0000 0.0000 36.3259
#
#
#
# Elastic Compliance Matrix: (Units=1/GPa)
#
#
# Indices 1 2 3 4 5 6 
#
# 1 0.016017 -0.004701 -0.005333 0.000000 0.000000 0.000000
# 2 -0.004701 0.009839 -0.003313 0.000000 0.000000 0.000000
# 3 -0.005333 -0.003313 0.012923 0.000000 0.000000 0.000000
# 4 0.000000 0.000000 0.000000 0.075224 0.000000 0.000000
# 5 0.000000 0.000000 0.000000 0.000000 0.017999 0.000000
# 6 0.000000 0.000000 0.000000 0.000000 0.000000 0.027529
#
#
# Mechanical properties :
#
#
# Convention : Reuss Voigt Hill
#
# Bulk Modulus (GPa) = 82.75457 86.54079 84.64768
# Shear Modulus (GPa) = 26.28083 33.17488 29.72785
#
# Velocity S-wave (km/s) = 3.80393 4.27384 4.04571
# Velocity P-wave (km/s) = 8.05338 8.48543 8.27223
#
# Compressibility (1/GPa) = 0.01208393
#
# Stress axis : x y z
#
# Youngs Moduli (GPa) = 62.43296 101.63833 77.38377
#
# Poissons Ratio (x) = 0.47780 0.41268
# Poissons Ratio (y) = 0.29349 0.25641
# Poissons Ratio (z) = 0.33295 0.33678
#
# Static dielectric constant tensor:
#      x y z
#    x 3.419530 0.000000 0.000000 
#    y 0.000000 3.562060 0.000000 
#    z 0.000000 0.000000 3.320820 
# 
# 
# High freq. dielectric constant tensor:
#      x y z
#    x 1.714560 0.000000 0.000000 
#    y 0.000000 1.716830 0.000000 
#    z 0.000000 0.000000 1.694410 
# 
# From -- ./inp_files/14802.got.cif
#   From: 2010.03.12/outbox.cif.g09.slc.cpg/sg40_8_cif.got.tgz:14802.got - 2010.04.14 01:38:03.
