data_PCOD8184491
_publ_section_title
;
Structure prediction by ZEFSAII (Michael W. Deem and Ramdas Pophale) SiO2 
 PCOD8184491
Probable space group: A M A 2
;
_chemical_formula_sum "Si O2"
_cell_formula_units_Z 56
_cell_length_a 26.939960
_cell_length_b 18.383097
_cell_length_c 5.077148
_cell_angle_alpha 90.000000
_cell_angle_beta 90.000000
_cell_angle_gamma 90.000000
_cell_volume 2514.406257
_symmetry_space_group_name_H-M "A M A 2"
_symmetry_group_IT_number 40
_symmetry_cell_setting 'orthorhombic'
loop_
_space_group_symop_operation_xyz
x,y,z
-x,-y,z
1/2-x,y,z
1/2+x,-y,z
x,1/2+y,1/2+z
-x,1/2-y,1/2+z
1/2-x,1/2+y,1/2+z
1/2+x,1/2-y,1/2+z
loop_
_atom_site_type_symbol
_atom_site_label
_atom_site_fract_x
_atom_site_fract_y
_atom_site_fract_z
Si Si1 0.106672 0.300200 0.978790
Si Si2 0.048831 0.030448 0.744221
Si Si3 0.356062 0.445165 0.136549
Si Si4 0.877832 0.861405 0.044993
Si Si5 0.308613 0.013225 0.131135
Si Si6 0.466518 0.144448 0.354352
Si Si7 0.041783 0.798745 0.988783
O O1 0.132104 0.220712 0.946061
O O2 0.084957 0.319871 0.694172
O O3 0.148026 0.360230 0.055504
O O4 0.062254 0.306117 0.193016
O O5 0.082337 0.090581 0.884817
O O6 0.021330 0.068927 0.495792
O O7 0.085557 0.965109 0.659146
O O8 0.000000 0.000000 0.903285
O O9 0.328324 0.456833 0.413351
O O10 0.329751 0.493811 0.916244
O O11 0.906292 0.852608 0.322412
O O12 0.826183 0.904421 0.064934
O O13 0.250000 0.012000 0.137863
O O14 0.495374 0.149203 0.070184
O O15 0.478597 0.215893 0.532478
#
# Coordination Sequence:
#
# PCOD8184491 Si02
#       7
#     8   8   8   8   8   8   8
#     4  11  23  42  65  94 135 172 222 271 323 388
#     4  11  23  37  61  92 136 179 219 265 313 393
#     4  11  24  44  67 101 131 171 217 272 337 396
#     4  10  23  41  64  94 130 171 223 271 320 389
#     4  11  24  47  72  96 129 171 217 278 349 407
#     4  11  21  37  54  90 129 177 224 264 306 381
#     4  11  23  34  61  87 131 184 219 260 315 374
#
# _framework density 22.271659
#
# number of rings (size 3 to 8) (size 9 to 14) (size 15 to 20)
#    0.000    1.143    2.857    3.857    4.000    0.571 
#    0.000    1.429    0.000    0.000    0.000    0.000 
#    0.000    0.000    0.000    0.000    0.000    0.000 
#
# Total GULP energy -346959.457513 kJ/mol
# GULP energy per Si atom -12391.409197 kJ/mol
# Density = 2.222097 g / cm^3
# Si number density = 22.271659 Si / 1000 Ang^3
#
#
#
# Elastic Constant Matrix: (Units=GPa)
#
#
# Indices 1 2 3 4 5 6 
#
# 1 126.9529 34.8817 14.8033 0.0000 0.0000 0.0000
# 2 34.8817 120.3207 -1.3008 0.0000 0.0000 0.0000
# 3 14.8033 -1.3008 57.9210 0.0000 0.0000 0.0000
# 4 0.0000 0.0000 0.0000 27.7808 0.0000 0.0000
# 5 0.0000 0.0000 0.0000 0.0000 12.9731 0.0000
# 6 0.0000 0.0000 0.0000 0.0000 0.0000 23.2949
#
#
#
# Elastic Compliance Matrix: (Units=1/GPa)
#
#
# Indices 1 2 3 4 5 6 
#
# 1 0.008860 -0.002594 -0.002323 0.000000 0.000000 0.000000
# 2 -0.002594 0.009072 0.000867 0.000000 0.000000 0.000000
# 3 -0.002323 0.000867 0.017878 0.000000 0.000000 0.000000
# 4 0.000000 0.000000 0.000000 0.035996 0.000000 0.000000
# 5 0.000000 0.000000 0.000000 0.000000 0.077083 0.000000
# 6 0.000000 0.000000 0.000000 0.000000 0.000000 0.042928
#
#
# Mechanical properties :
#
#
# Convention : Reuss Voigt Hill
#
# Bulk Modulus (GPa) = 36.08665 44.66255 40.37460
# Shear Modulus (GPa) = 23.90577 29.93045 26.91811
#
# Velocity S-wave (km/s) = 3.27979 3.66987 3.48030
# Velocity P-wave (km/s) = 5.52999 6.16882 5.85812
#
# Compressibility (1/GPa) = 0.02771108
#
# Stress axis : x y z
#
# Youngs Moduli (GPa) = 112.86085 110.22370 55.93463
#
# Poissons Ratio (x) = 0.28590 0.12992
# Poissons Ratio (y) = 0.29274 -0.04848
# Poissons Ratio (z) = 0.26215 -0.09553
#
# Static dielectric constant tensor:
#      x y z
#    x 3.665550 0.000000 0.000000 
#    y 0.000000 4.413150 0.000000 
#    z 0.000000 0.000000 4.014870 
# 
# 
# High freq. dielectric constant tensor:
#      x y z
#    x 1.832110 0.000000 0.000000 
#    y 0.000000 1.891860 0.000000 
#    z 0.000000 0.000000 1.882300 
# 
# From -- ./inp_files/2786.got.cif
#   From: 2010.03.12/outbox.cif.g09.slc.cpg/sg40_2_cif.got.tgz:2786.got - 2010.04.14 01:38:03.
