data_PCOD8184039
_publ_section_title
;
Structure prediction by ZEFSAII (Michael W. Deem and Ramdas Pophale) SiO2 
 PCOD8184039
Probable space group: A M A 2
;
_chemical_formula_sum "Si O2"
_cell_formula_units_Z 48
_cell_length_a 26.827364
_cell_length_b 9.234693
_cell_length_c 9.651482
_cell_angle_alpha 90.000000
_cell_angle_beta 90.000000
_cell_angle_gamma 90.000000
_cell_volume 2391.081995
_symmetry_space_group_name_H-M "A M A 2"
_symmetry_group_IT_number 40
_symmetry_cell_setting 'orthorhombic'
loop_
_space_group_symop_operation_xyz
x,y,z
-x,-y,z
1/2-x,y,z
1/2+x,-y,z
x,1/2+y,1/2+z
-x,1/2-y,1/2+z
1/2-x,1/2+y,1/2+z
1/2+x,1/2-y,1/2+z
loop_
_atom_site_type_symbol
_atom_site_label
_atom_site_fract_x
_atom_site_fract_y
_atom_site_fract_z
Si Si1 0.984372 0.333131 0.977910
Si Si2 0.307757 0.219271 0.664301
Si Si3 0.865982 0.097348 0.361327
Si Si4 0.126430 0.459787 0.178049
Si Si5 0.629380 0.782131 0.399379
Si Si6 0.550551 0.292379 0.259127
O O1 0.926312 0.316991 0.945780
O O2 0.000000 0.500000 0.950351
O O3 0.017048 0.214302 0.896746
O O4 0.990116 0.281708 0.136581
O O5 0.250000 0.232132 0.629392
O O6 0.319369 0.307177 0.806523
O O7 0.339437 0.275314 0.531475
O O8 0.322776 0.051762 0.683590
O O9 0.880606 0.109830 0.524810
O O10 0.912206 0.155259 0.268491
O O11 0.850437 0.931832 0.333333
O O12 0.133912 0.330479 0.279891
O O13 0.080155 0.557182 0.233079
#
# Coordination Sequence:
#
# PCOD8184039 Si02
#       6
#     8   8   8   8   8   8
#     4  12  24  42  62  95 133 173 221 259 317 380
#     4  10  23  45  69  93 128 169 213 270 335 389
#     4  10  20  44  63  91 130 167 214 267 321 377
#     4  10  23  43  66  93 134 168 212 272 325 381
#     4  11  23  42  66  95 133 166 212 269 318 385
#     4  11  23  42  60  90 132 176 213 264 310 376
#
# _framework density 20.074594999999999
#
# number of rings (size 3 to 8) (size 9 to 14) (size 15 to 20)
#    0.000    1.333    6.667    0.000    4.667    6.000 
#    3.000    0.000    0.000    0.000    0.000    0.000 
#    0.000    0.000    0.000    0.000    0.000    0.000 
#
# Total GULP energy -297342.060270 kJ/mol
# GULP energy per Si atom -12389.252511 kJ/mol
# Density = 2.002890 g / cm^3
# Si number density = 20.074595 Si / 1000 Ang^3
#
#
#
# Elastic Constant Matrix: (Units=GPa)
#
#
# Indices 1 2 3 4 5 6 
#
# 1 121.7033 22.9395 53.9335 0.0000 0.0000 0.0000
# 2 22.9395 85.9927 87.5740 0.0000 0.0000 0.0000
# 3 53.9335 87.5740 145.3999 0.0000 0.0000 0.0000
# 4 0.0000 0.0000 0.0000 46.8810 0.0000 0.0000
# 5 0.0000 0.0000 0.0000 0.0000 23.3241 0.0000
# 6 0.0000 0.0000 0.0000 0.0000 0.0000 6.2768
#
#
#
# Elastic Compliance Matrix: (Units=1/GPa)
#
#
# Indices 1 2 3 4 5 6 
#
# 1 0.010105 0.002901 -0.005496 0.000000 0.000000 0.000000
# 2 0.002901 0.030911 -0.019693 0.000000 0.000000 0.000000
# 3 -0.005496 -0.019693 0.020777 0.000000 0.000000 0.000000
# 4 0.000000 0.000000 0.000000 0.021331 0.000000 0.000000
# 5 0.000000 0.000000 0.000000 0.000000 0.042874 0.000000
# 6 0.000000 0.000000 0.000000 0.000000 0.000000 0.159318
#
#
# Mechanical properties :
#
#
# Convention : Reuss Voigt Hill
#
# Bulk Modulus (GPa) = 58.08167 75.77665 66.92916
# Shear Modulus (GPa) = 14.89730 27.87295 21.38513
#
# Velocity S-wave (km/s) = 2.72710 3.73026 3.26741
# Velocity P-wave (km/s) = 6.23794 7.50883 6.90270
#
# Compressibility (1/GPa) = 0.01721714
#
# Stress axis : x y z
#
# Youngs Moduli (GPa) = 98.95772 32.35136 48.12922
#
# Poissons Ratio (x) = -0.09385 0.26450
# Poissons Ratio (y) = -0.28708 0.94783
# Poissons Ratio (z) = 0.54384 0.63711
#
# Static dielectric constant tensor:
#      x y z
#    x 3.684040 0.000000 0.000000 
#    y 0.000000 3.752700 0.000000 
#    z 0.000000 0.000000 4.051110 
# 
# 
# High freq. dielectric constant tensor:
#      x y z
#    x 1.773910 0.000000 0.000000 
#    y 0.000000 1.775760 0.000000 
#    z 0.000000 0.000000 1.791500 
# 
# From -- ./inp_files/9328.got.cif
#   From: 2010.03.12/outbox.cif.g09.slc.cpg/sg40_5_cif.got.tgz:9328.got - 2010.04.14 01:38:03.
