data_PCOD8184515
_publ_section_title
;
Structure prediction by ZEFSAII (Michael W. Deem and Ramdas Pophale) SiO2 
 PCOD8184515
Probable space group: A M A 2
;
_chemical_formula_sum "Si O2"
_cell_formula_units_Z 52
_cell_length_a 16.346029
_cell_length_b 7.676081
_cell_length_c 19.333267
_cell_angle_alpha 90.000000
_cell_angle_beta 90.000000
_cell_angle_gamma 90.000000
_cell_volume 2425.811568
_symmetry_space_group_name_H-M "A M A 2"
_symmetry_group_IT_number 40
_symmetry_cell_setting 'orthorhombic'
loop_
_space_group_symop_operation_xyz
x,y,z
-x,-y,z
1/2-x,y,z
1/2+x,-y,z
x,1/2+y,1/2+z
-x,1/2-y,1/2+z
1/2-x,1/2+y,1/2+z
1/2+x,1/2-y,1/2+z
loop_
_atom_site_type_symbol
_atom_site_label
_atom_site_fract_x
_atom_site_fract_y
_atom_site_fract_z
Si Si1 0.000000 0.500000 0.527360
Si Si2 0.344986 0.946725 0.834485
Si Si3 0.342770 0.108360 0.248627
Si Si4 0.086490 0.808156 0.338783
Si Si5 0.158553 0.915865 0.477260
Si Si6 0.058045 0.733809 0.932143
Si Si7 0.842401 0.380851 0.587500
O O1 0.992023 0.326330 0.481293
O O2 0.085372 0.482985 0.568923
O O3 0.250000 0.995894 0.836953
O O4 0.365292 0.791644 0.782247
O O5 0.373273 0.875268 0.909938
O O6 0.397712 0.113485 0.809507
O O7 0.250000 0.055282 0.265907
O O8 0.355534 0.146919 0.168343
O O9 0.397346 0.950852 0.279091
O O10 0.148559 0.818853 0.403854
O O11 0.992423 0.831468 0.364709
O O12 0.250000 0.991652 0.480506
O O13 0.143802 0.797097 0.544837
O O14 0.095256 0.075530 0.475602
O O15 0.750000 0.453195 0.572520
#
# Coordination Sequence:
#
# PCOD8184515 Si02
#       7
#     4   8   8   8   8   8   8
#     4  12  24  42  66  94 136 180 216 284 346 406
#     4  11  22  38  64  95 130 170 220 277 339 409
#     4  10  23  43  66  96 134 178 228 284 338 409
#     4  12  22  39  68  97 131 169 217 280 345 398
#     4  11  22  40  68  92 125 177 222 279 346 403
#     4  12  23  39  62 100 134 165 225 285 340 406
#     4  10  24  45  65  93 135 181 233 284 344 416
#
# _framework density 21.436126000000002
#
# number of rings (size 3 to 8) (size 9 to 14) (size 15 to 20)
#    0.000    0.923    4.615    2.308    0.000    3.692 
#    2.769    0.000    0.000    0.000    0.000    0.000 
#    0.000    0.000    0.000    0.000    0.000    0.000 
#
# Total GULP energy -322245.935763 kJ/mol
# GULP energy per Si atom -12394.074452 kJ/mol
# Density = 2.138734 g / cm^3
# Si number density = 21.436126 Si / 1000 Ang^3
#
#
#
# Elastic Constant Matrix: (Units=GPa)
#
#
# Indices 1 2 3 4 5 6 
#
# 1 124.0727 43.1902 42.1847 0.0000 0.0000 0.0000
# 2 43.1902 119.4880 45.5682 0.0000 0.0000 0.0000
# 3 42.1847 45.5682 108.4854 0.0000 0.0000 0.0000
# 4 0.0000 0.0000 0.0000 27.5158 0.0000 0.0000
# 5 0.0000 0.0000 0.0000 0.0000 31.4097 0.0000
# 6 0.0000 0.0000 0.0000 0.0000 0.0000 36.0432
#
#
#
# Elastic Compliance Matrix: (Units=1/GPa)
#
#
# Indices 1 2 3 4 5 6 
#
# 1 0.009881 -0.002508 -0.002789 0.000000 0.000000 0.000000
# 2 -0.002508 0.010602 -0.003478 0.000000 0.000000 0.000000
# 3 -0.002789 -0.003478 0.011763 0.000000 0.000000 0.000000
# 4 0.000000 0.000000 0.000000 0.036343 0.000000 0.000000
# 5 0.000000 0.000000 0.000000 0.000000 0.031837 0.000000
# 6 0.000000 0.000000 0.000000 0.000000 0.000000 0.027744
#
#
# Mechanical properties :
#
#
# Convention : Reuss Voigt Hill
#
# Bulk Modulus (GPa) = 68.04338 68.21470 68.12904
# Shear Modulus (GPa) = 33.19630 33.73394 33.46512
#
# Velocity S-wave (km/s) = 3.93951 3.97129 3.95543
# Velocity P-wave (km/s) = 7.24599 7.27458 7.26030
#
# Compressibility (1/GPa) = 0.01469651
#
# Stress axis : x y z
#
# Youngs Moduli (GPa) = 101.20390 94.32198 85.01130
#
# Poissons Ratio (x) = 0.23657 0.23708
# Poissons Ratio (y) = 0.25383 0.29567
# Poissons Ratio (z) = 0.28223 0.32805
#
# Static dielectric constant tensor:
#      x y z
#    x 4.111040 0.000000 0.000000 
#    y 0.000000 3.796440 0.000000 
#    z 0.000000 0.000000 3.761920 
# 
# 
# High freq. dielectric constant tensor:
#      x y z
#    x 1.864260 0.000000 0.000000 
#    y 0.000000 1.839900 0.000000 
#    z 0.000000 0.000000 1.816540 
# 
# From -- ./inp_files/21092.got.cif
#   From: 2010.03.12/outbox.cif.g09.slc.cpg/sg40_11_cif.got.tgz:21092.got - 2010.04.14 01:38:03.
