data_PCOD8184054
_publ_section_title
;
Structure prediction by ZEFSAII (Michael W. Deem and Ramdas Pophale) SiO2 
 PCOD8184054
Probable space group: A M A 2
;
_chemical_formula_sum "Si O2"
_cell_formula_units_Z 64
_cell_length_a 13.272839
_cell_length_b 13.295751
_cell_length_c 20.168148
_cell_angle_alpha 90.000000
_cell_angle_beta 90.000000
_cell_angle_gamma 90.000000
_cell_volume 3559.120723
_symmetry_space_group_name_H-M "A M A 2"
_symmetry_group_IT_number 40
_symmetry_cell_setting 'orthorhombic'
loop_
_space_group_symop_operation_xyz
x,y,z
-x,-y,z
1/2-x,y,z
1/2+x,-y,z
x,1/2+y,1/2+z
-x,1/2-y,1/2+z
1/2-x,1/2+y,1/2+z
1/2+x,1/2-y,1/2+z
loop_
_atom_site_type_symbol
_atom_site_label
_atom_site_fract_x
_atom_site_fract_y
_atom_site_fract_z
Si Si1 0.133102 0.784069 0.091330
Si Si2 0.633102 0.215932 0.470489
Si Si3 0.027688 0.384921 0.471530
Si Si4 0.522479 0.613104 0.856900
Si Si5 0.634337 0.217513 0.705384
Si Si6 0.022479 0.386896 0.704920
Si Si7 0.972313 0.115079 0.590290
Si Si8 0.634337 0.217513 0.856436
O O1 0.250000 0.758403 0.087091
O O2 0.110824 0.840979 0.160216
O O3 0.074767 0.678767 0.086984
O O4 0.101783 0.855552 0.030977
O O5 0.750000 0.241598 0.474729
O O6 0.574767 0.321233 0.474835
O O7 0.610825 0.159020 0.401604
O O8 0.601784 0.144449 0.530843
O O9 0.084942 0.367679 0.402139
O O10 0.000000 0.500000 0.478481
O O11 0.500000 0.500000 0.879631
O O12 0.559421 0.617251 0.780910
O O13 0.419993 0.675735 0.867863
O O14 0.750000 0.234201 0.685848
O O15 0.580008 0.324265 0.693957
O O16 0.584940 0.132321 0.659681
O O17 0.622472 0.180352 0.780910
O O18 0.000000 0.500000 0.682189
O O19 0.000000 0.000000 0.583337
O O20 0.750000 0.234203 0.875971
#
# Coordination Sequence:
#
# PCOD8184054 Si02
#       8
#     8   8   8   8   8   8   8   8
#     4  10  21  35  52  77 105 133 169 211 253 300
#     4  10  21  35  52  77 105 133 169 211 253 300
#     4  10  21  37  55  75 102 135 169 209 255 302
#     4   9  18  33  52  76 107 139 170 207 252 301
#     4   9  18  33  53  77 104 135 172 211 250 296
#     4   9  18  33  52  76 107 139 170 207 252 301
#     4  10  21  37  55  75 102 135 169 209 255 302
#     4   9  18  33  53  77 104 135 172 211 250 296
#
# _framework density 17.98197
#
# number of rings (size 3 to 8) (size 9 to 14) (size 15 to 20)
#    0.000    2.500    0.000    1.500    0.000    4.000 
#    0.000    2.500    0.000    0.000    0.000    0.000 
#    0.000    0.000    0.000    0.000    0.000    0.000 
#
# Total GULP energy -396897.890376 kJ/mol
# GULP energy per Si atom -12403.059074 kJ/mol
# Density = 1.794104 g / cm^3
# Si number density = 17.981970 Si / 1000 Ang^3
#
#
#
# Elastic Constant Matrix: (Units=GPa)
#
#
# Indices 1 2 3 4 5 6 
#
# 1 138.4097 43.7829 57.8159 0.0000 0.0000 0.0000
# 2 43.7829 118.0074 50.0876 0.0000 0.0000 0.0000
# 3 57.8159 50.0876 99.2720 0.0000 0.0000 0.0000
# 4 0.0000 0.0000 0.0000 18.8368 0.0000 0.0000
# 5 0.0000 0.0000 0.0000 0.0000 24.5158 0.0000
# 6 0.0000 0.0000 0.0000 0.0000 0.0000 12.7044
#
#
#
# Elastic Compliance Matrix: (Units=1/GPa)
#
#
# Indices 1 2 3 4 5 6 
#
# 1 0.009762 -0.001538 -0.004909 0.000000 0.000000 0.000000
# 2 -0.001538 0.011026 -0.004667 0.000000 0.000000 0.000000
# 3 -0.004909 -0.004667 0.015287 0.000000 0.000000 0.000000
# 4 0.000000 0.000000 0.000000 0.053088 0.000000 0.000000
# 5 0.000000 0.000000 0.000000 0.000000 0.040790 0.000000
# 6 0.000000 0.000000 0.000000 0.000000 0.000000 0.078713
#
#
# Mechanical properties :
#
#
# Convention : Reuss Voigt Hill
#
# Bulk Modulus (GPa) = 72.22426 73.22912 72.72669
# Shear Modulus (GPa) = 21.23045 24.81157 23.02101
#
# Velocity S-wave (km/s) = 3.43979 3.71860 3.58191
# Velocity P-wave (km/s) = 7.48520 7.69736 7.59202
#
# Compressibility (1/GPa) = 0.01384576
#
# Stress axis : x y z
#
# Youngs Moduli (GPa) = 102.43542 90.69716 65.41330
#
# Poissons Ratio (x) = 0.13951 0.32114
# Poissons Ratio (y) = 0.15756 0.30530
# Poissons Ratio (z) = 0.50290 0.42330
#
# Static dielectric constant tensor:
#      x y z
#    x 3.226200 0.000000 0.000000 
#    y 0.000000 3.149480 0.000000 
#    z 0.000000 0.000000 3.597500 
# 
# 
# High freq. dielectric constant tensor:
#      x y z
#    x 1.690840 0.000000 0.000000 
#    y 0.000000 1.686240 0.000000 
#    z 0.000000 0.000000 1.715080 
# 
# From -- ./inp_files/24622.got.cif
#   From: 2010.03.12/outbox.cif.g09.slc.cpg/sg40_13_cif.got.tgz:24622.got - 2010.04.14 01:38:03.
