data_PCOD8184649
_publ_section_title
;
Structure prediction by ZEFSAII (Michael W. Deem and Ramdas Pophale) SiO2 
 PCOD8184649
Probable space group: A M A 2
;
_chemical_formula_sum "Si O2"
_cell_formula_units_Z 40
_cell_length_a 14.002220
_cell_length_b 13.059807
_cell_length_c 8.443071
_cell_angle_alpha 90.000000
_cell_angle_beta 90.000000
_cell_angle_gamma 90.000000
_cell_volume 1543.953076
_symmetry_space_group_name_H-M "A M A 2"
_symmetry_group_IT_number 40
_symmetry_cell_setting 'orthorhombic'
loop_
_space_group_symop_operation_xyz
x,y,z
-x,-y,z
1/2-x,y,z
1/2+x,-y,z
x,1/2+y,1/2+z
-x,1/2-y,1/2+z
1/2-x,1/2+y,1/2+z
1/2+x,1/2-y,1/2+z
loop_
_atom_site_type_symbol
_atom_site_label
_atom_site_fract_x
_atom_site_fract_y
_atom_site_fract_z
Si Si1 0.499104 0.158204 0.696970
Si Si2 0.647027 0.151121 0.929876
Si Si3 0.362666 0.217247 0.961416
Si Si4 0.609482 0.982457 0.149296
Si Si5 0.854042 0.386870 0.975687
O O1 0.565054 0.097492 0.823190
O O2 0.418664 0.226740 0.792443
O O3 0.576580 0.222473 0.594713
O O4 0.438700 0.075519 0.592367
O O5 0.750000 0.149405 0.844448
O O6 0.614943 0.268628 0.950145
O O7 0.653685 0.090946 0.095644
O O8 0.250000 0.252953 0.948997
O O9 0.364075 0.099008 0.014600
O O10 0.654417 0.950835 0.316188
O O11 0.500000 0.000000 0.179625
O O12 0.750000 0.392250 0.058732
#
# Coordination Sequence:
#
# PCOD8184649 Si02
#       5
#     8   8   8   8   8
#     4  12  22  44  71 110 148 199 257 306 384 470
#     4  11  23  41  73 107 142 199 257 312 384 463
#     4  12  24  42  73 109 154 207 255 321 393 457
#     4  12  23  45  72 105 149 198 253 323 387 455
#     4  11  24  45  75 109 149 197 252 319 392 463
#
# _framework density 25.907523000000001
#
# number of rings (size 3 to 8) (size 9 to 14) (size 15 to 20)
#    0.000    0.400    6.000    3.000    0.000    0.000 
#    3.600    0.000    0.000    4.800    0.000    0.000 
#    0.000    0.000    0.000    0.000    0.000    0.000 
#
# Total GULP energy -247784.414756 kJ/mol
# GULP energy per Si atom -12389.220738 kJ/mol
# Density = 2.584856 g / cm^3
# Si number density = 25.907523 Si / 1000 Ang^3
#
#
#
# Elastic Constant Matrix: (Units=GPa)
#
#
# Indices 1 2 3 4 5 6 
#
# 1 229.6074 17.0777 57.9908 0.0000 0.0000 0.0000
# 2 17.0777 50.6414 30.3284 0.0000 0.0000 0.0000
# 3 57.9908 30.3284 126.0032 0.0000 0.0000 0.0000
# 4 0.0000 0.0000 0.0000 39.5275 0.0000 0.0000
# 5 0.0000 0.0000 0.0000 0.0000 59.5772 0.0000
# 6 0.0000 0.0000 0.0000 0.0000 0.0000 19.3426
#
#
#
# Elastic Compliance Matrix: (Units=1/GPa)
#
#
# Indices 1 2 3 4 5 6 
#
# 1 0.004934 -0.000355 -0.002185 0.000000 0.000000 0.000000
# 2 -0.000355 0.023098 -0.005396 0.000000 0.000000 0.000000
# 3 -0.002185 -0.005396 0.010241 0.000000 0.000000 0.000000
# 4 0.000000 0.000000 0.000000 0.025299 0.000000 0.000000
# 5 0.000000 0.000000 0.000000 0.000000 0.016785 0.000000
# 6 0.000000 0.000000 0.000000 0.000000 0.000000 0.051699
#
#
# Mechanical properties :
#
#
# Convention : Reuss Voigt Hill
#
# Bulk Modulus (GPa) = 44.64348 68.56063 56.60206
# Shear Modulus (GPa) = 32.17605 43.74646 37.96126
#
# Velocity S-wave (km/s) = 3.52797 4.11367 3.83202
# Velocity P-wave (km/s) = 5.81933 7.00600 6.44006
#
# Compressibility (1/GPa) = 0.02239969
#
# Stress axis : x y z
#
# Youngs Moduli (GPa) = 202.69361 43.29360 97.64866
#
# Poissons Ratio (x) = 0.01537 0.21337
# Poissons Ratio (y) = 0.07198 0.52693
# Poissons Ratio (z) = 0.44291 0.23362
#
# Static dielectric constant tensor:
#      x y z
#    x 5.175830 0.000000 0.000000 
#    y 0.000000 4.314120 0.000000 
#    z 0.000000 0.000000 4.915510 
# 
# 
# High freq. dielectric constant tensor:
#      x y z
#    x 2.077770 0.000000 0.000000 
#    y 0.000000 1.997880 0.000000 
#    z 0.000000 0.000000 2.034360 
# 
# From -- ./inp_files/6137.got.cif
#   From: 2010.03.12/outbox.cif.g09.slc.cpg/sg40_4_cif.got.tgz:6137.got - 2010.04.14 01:38:03.
