data_PCOD8184772
_publ_section_title
;
Structure prediction by ZEFSAII (Michael W. Deem and Ramdas Pophale) SiO2 
 PCOD8184772
Probable space group: A B A 2
;
_chemical_formula_sum "Si O2"
_cell_formula_units_Z 56
_cell_length_a 16.024965
_cell_length_b 18.726553
_cell_length_c 8.496663
_cell_angle_alpha 90.000000
_cell_angle_beta 90.000000
_cell_angle_gamma 90.000000
_cell_volume 2549.783621
_symmetry_space_group_name_H-M "A B A 2"
_symmetry_group_IT_number 41
_symmetry_cell_setting 'orthorhombic'
loop_
_space_group_symop_operation_xyz
x,y,z
-x,-y,z
1/2-x,y,1/2+z
1/2+x,-y,1/2+z
x,1/2+y,1/2+z
-x,1/2-y,1/2+z
1/2-x,1/2+y,z
1/2+x,1/2-y,z
loop_
_atom_site_type_symbol
_atom_site_label
_atom_site_fract_x
_atom_site_fract_y
_atom_site_fract_z
Si Si1 0.291851 0.986579 0.371280
Si Si2 0.507111 0.416381 0.558115
Si Si3 0.179660 0.616869 0.903063
Si Si4 0.780848 0.614569 0.637981
Si Si5 0.642281 0.176338 0.929484
Si Si6 0.050522 0.564728 0.392126
Si Si7 0.155002 0.672266 0.565171
O O1 0.207217 0.034619 0.369597
O O2 0.366167 0.034960 0.306474
O O3 0.283498 0.919027 0.260345
O O4 0.318713 0.953498 0.542199
O O5 0.500000 0.500000 0.518287
O O6 0.594182 0.383373 0.499508
O O7 0.430745 0.376829 0.476556
O O8 0.498831 0.401866 0.746540
O O9 0.164105 0.668377 0.752840
O O10 0.254553 0.652260 0.999824
O O11 0.729525 0.662552 0.517357
O O12 0.845333 0.663874 0.739600
O O13 0.620317 0.255960 0.983996
O O14 0.079012 0.618634 0.526217
O O15 0.000000 0.500000 0.473705
#
# Coordination Sequence:
#
# PCOD8184772 Si02
#       7
#     8   8   8   8   8   8   8
#     4  10  18  35  61  88 115 157 208 262 316 377
#     4  11  23  40  64  94 127 162 210 275 332 379
#     4  11  22  39  64  91 125 166 216 268 321 389
#     4  10  20  36  60  87 121 160 207 255 313 385
#     4  11  24  41  62  91 129 171 212 263 325 396
#     4  10  21  38  60  86 120 158 205 266 323 378
#     4  11  24  41  62  89 127 176 218 257 325 402
#
# _framework density 21.96265
#
# number of rings (size 3 to 8) (size 9 to 14) (size 15 to 20)
#    0.000    1.429    0.000    8.571    0.000    2.857 
#    0.000    2.857    0.000    0.000    0.000    0.000 
#    0.000    0.000    0.000    0.000    0.000    0.000 
#
# Total GULP energy -346946.511482 kJ/mol
# GULP energy per Si atom -12390.946839 kJ/mol
# Density = 2.191266 g / cm^3
# Si number density = 21.962650 Si / 1000 Ang^3
#
#
#
# Elastic Constant Matrix: (Units=GPa)
#
#
# Indices 1 2 3 4 5 6 
#
# 1 77.7441 20.5282 13.4760 0.0000 0.0000 0.0000
# 2 20.5282 90.1534 18.0251 0.0000 0.0000 0.0000
# 3 13.4760 18.0251 88.7123 0.0000 0.0000 0.0000
# 4 0.0000 0.0000 0.0000 36.2785 0.0000 0.0000
# 5 0.0000 0.0000 0.0000 0.0000 32.2655 0.0000
# 6 0.0000 0.0000 0.0000 0.0000 0.0000 26.4637
#
#
#
# Elastic Compliance Matrix: (Units=1/GPa)
#
#
# Indices 1 2 3 4 5 6 
#
# 1 0.013882 -0.002855 -0.001529 0.000000 0.000000 0.000000
# 2 -0.002855 0.012149 -0.002035 0.000000 0.000000 0.000000
# 3 -0.001529 -0.002035 0.011918 0.000000 0.000000 0.000000
# 4 0.000000 0.000000 0.000000 0.027565 0.000000 0.000000
# 5 0.000000 0.000000 0.000000 0.000000 0.030993 0.000000
# 6 0.000000 0.000000 0.000000 0.000000 0.000000 0.037788
#
#
# Mechanical properties :
#
#
# Convention : Reuss Voigt Hill
#
# Bulk Modulus (GPa) = 39.82232 40.07428 39.94830
# Shear Modulus (GPa) = 32.15400 32.64024 32.39712
#
# Velocity S-wave (km/s) = 3.83042 3.85927 3.84487
# Velocity P-wave (km/s) = 6.14280 6.17615 6.15950
#
# Compressibility (1/GPa) = 0.02511154
#
# Stress axis : x y z
#
# Youngs Moduli (GPa) = 72.03784 82.30992 83.90640
#
# Poissons Ratio (x) = 0.23502 0.12826
# Poissons Ratio (y) = 0.20569 0.17073
# Poissons Ratio (z) = 0.11011 0.16749
#
# Static dielectric constant tensor:
#      x y z
#    x 3.922130 0.000000 0.000000 
#    y 0.000000 4.030460 0.000000 
#    z 0.000000 0.000000 4.263740 
# 
# 
# High freq. dielectric constant tensor:
#      x y z
#    x 1.857210 0.000000 0.000000 
#    y 0.000000 1.853290 0.000000 
#    z 0.000000 0.000000 1.867170 
# 
# From -- ./inp_files/2686.got.cif
#   From: 2010.03.12/outbox.cif.g09.slc.cpg/sg41_2_cif.got.tgz:2686.got - 2010.04.14 01:55:53.
