data_PCOD8184297
_publ_section_title
;
Structure prediction by ZEFSAII (Michael W. Deem and Ramdas Pophale) SiO2 
 PCOD8184297
Probable space group: A M A 2
;
_chemical_formula_sum "Si O2"
_cell_formula_units_Z 56
_cell_length_a 14.377633
_cell_length_b 13.377661
_cell_length_c 12.961300
_cell_angle_alpha 90.000000
_cell_angle_beta 90.000000
_cell_angle_gamma 90.000000
_cell_volume 2492.964780
_symmetry_space_group_name_H-M "A M A 2"
_symmetry_group_IT_number 40
_symmetry_cell_setting 'orthorhombic'
loop_
_space_group_symop_operation_xyz
x,y,z
-x,-y,z
1/2-x,y,z
1/2+x,-y,z
x,1/2+y,1/2+z
-x,1/2-y,1/2+z
1/2-x,1/2+y,1/2+z
1/2+x,1/2-y,1/2+z
loop_
_atom_site_type_symbol
_atom_site_label
_atom_site_fract_x
_atom_site_fract_y
_atom_site_fract_z
Si Si1 0.642936 0.454501 0.035740
Si Si2 0.857370 0.610380 0.851085
Si Si3 0.499801 0.215965 0.468775
Si Si4 0.856848 0.564973 0.239538
Si Si5 0.358496 0.234684 0.140888
Si Si6 0.147496 0.514131 0.662544
Si Si7 0.918200 0.567828 0.463154
O O1 0.750000 0.416479 0.046939
O O2 0.602284 0.501502 0.143014
O O3 0.638275 0.538641 0.949258
O O4 0.576566 0.365385 0.000407
O O5 0.750000 0.651120 0.837348
O O6 0.897363 0.556626 0.748612
O O7 0.938359 0.693776 0.866201
O O8 0.581466 0.220002 0.550719
O O9 0.442280 0.316749 0.455741
O O10 0.750000 0.539579 0.236729
O O11 0.871731 0.685645 0.233823
O O12 0.893700 0.526389 0.349618
O O13 0.250000 0.230424 0.106070
O O14 0.399625 0.124321 0.163786
O O15 0.250000 0.535988 0.704358
O O16 0.156838 0.456992 0.551980
O O17 0.000000 0.500000 0.508017
#
# Coordination Sequence:
#
# PCOD8184297 Si02
#       7
#     8   8   8   8   8   8   8
#     4  10  23  43  68 100 132 172 226 277 337 392
#     4  10  22  43  71 101 131 173 224 280 333 393
#     4  12  24  41  69 103 134 171 219 290 333 400
#     4  10  23  44  67  92 132 177 224 274 327 402
#     4  10  21  41  70  99 130 179 225 266 329 403
#     4  10  23  46  68  92 135 179 224 275 331 400
#     4  12  27  42  60  97 135 177 222 272 341 404
#
# _framework density 22.463215000000002
#
# number of rings (size 3 to 8) (size 9 to 14) (size 15 to 20)
#    0.000    1.429    2.857    1.286    4.000    3.429 
#    0.000    0.000    0.000    0.000    0.000    0.000 
#    0.000    0.000    0.000    0.000    0.000    0.000 
#
# Total GULP energy -346873.922278 kJ/mol
# GULP energy per Si atom -12388.354367 kJ/mol
# Density = 2.241209 g / cm^3
# Si number density = 22.463215 Si / 1000 Ang^3
#
#
#
# Elastic Constant Matrix: (Units=GPa)
#
#
# Indices 1 2 3 4 5 6 
#
# 1 59.9003 39.0221 14.0160 0.0000 0.0000 0.0000
# 2 39.0221 93.9794 0.6515 0.0000 0.0000 0.0000
# 3 14.0160 0.6515 101.0238 0.0000 0.0000 0.0000
# 4 0.0000 0.0000 0.0000 42.7035 0.0000 0.0000
# 5 0.0000 0.0000 0.0000 0.0000 -19.3424 0.0000
# 6 0.0000 0.0000 0.0000 0.0000 0.0000 27.6516
#
#
#
# Elastic Compliance Matrix: (Units=1/GPa)
#
#
# Indices 1 2 3 4 5 6 
#
# 1 0.023908 -0.009904 -0.003253 0.000000 0.000000 0.000000
# 2 -0.009904 0.014744 0.001279 0.000000 0.000000 0.000000
# 3 -0.003253 0.001279 0.010342 0.000000 0.000000 0.000000
# 4 0.000000 0.000000 0.000000 0.023417 0.000000 0.000000
# 5 0.000000 0.000000 0.000000 0.000000 -0.051700 0.000000
# 6 0.000000 0.000000 0.000000 0.000000 0.000000 0.036164
#
#
# Mechanical properties :
#
#
# Convention : Reuss Voigt Hill
#
# Bulk Modulus (GPa) = 39.62451 40.25362 39.93907
# Shear Modulus (GPa) = 56.15144 23.61680 39.88412
#
# Velocity S-wave (km/s) = 5.00513 3.24598 4.21828
# Velocity P-wave (km/s) = 7.14701 5.65749 6.44542
#
# Compressibility (1/GPa) = 0.02523690
#
# Stress axis : x y z
#
# Youngs Moduli (GPa) = 41.82722 67.82283 96.69548
#
# Poissons Ratio (x) = 0.67175 0.31456
# Poissons Ratio (y) = 0.41428 -0.12368
# Poissons Ratio (z) = 0.13607 -0.08675
#
# Static dielectric constant tensor:
#      x y z
#    x 4.185860 0.000000 0.000000 
#    y 0.000000 3.913310 0.000000 
#    z 0.000000 0.000000 4.477640 
# 
# 
# High freq. dielectric constant tensor:
#      x y z
#    x 1.892700 0.000000 0.000000 
#    y 0.000000 1.875300 0.000000 
#    z 0.000000 0.000000 1.885820 
# 
# From -- ./inp_files/12237.got.cif
#   From: 2010.03.12/outbox.cif.g09.slc.cpg/sg40_7_cif.got.tgz:12237.got - 2010.04.14 01:38:03.
