data_PCOD8184838
_publ_section_title
;
Structure prediction by ZEFSAII (Michael W. Deem and Ramdas Pophale) SiO2 
 PCOD8184838
Probable space group: A B A 2
;
_chemical_formula_sum "Si O2"
_cell_formula_units_Z 60
_cell_length_a 32.577296
_cell_length_b 14.098887
_cell_length_c 5.224627
_cell_angle_alpha 90.000000
_cell_angle_beta 90.000000
_cell_angle_gamma 90.000000
_cell_volume 2399.690068
_symmetry_space_group_name_H-M "A B A 2"
_symmetry_group_IT_number 41
_symmetry_cell_setting 'orthorhombic'
loop_
_space_group_symop_operation_xyz
x,y,z
-x,-y,z
1/2-x,y,1/2+z
1/2+x,-y,1/2+z
x,1/2+y,1/2+z
-x,1/2-y,1/2+z
1/2-x,1/2+y,z
1/2+x,1/2-y,z
loop_
_atom_site_type_symbol
_atom_site_label
_atom_site_fract_x
_atom_site_fract_y
_atom_site_fract_z
Si Si1 0.736786 0.800138 0.075350
Si Si2 0.601493 0.797951 0.556430
Si Si3 0.409750 0.982145 0.523474
Si Si4 0.728414 0.594733 0.517744
Si Si5 0.135612 0.471304 0.026345
Si Si6 0.500000 0.000000 0.660893
Si Si7 0.484987 0.207251 0.778780
Si Si8 0.143962 0.196547 0.555817
O O1 0.756050 0.859794 0.312785
O O2 0.764539 0.707811 0.011888
O O3 0.689939 0.772279 0.117178
O O4 0.604134 0.910011 0.534717
O O5 0.556200 0.764371 0.628440
O O6 0.615898 0.757744 0.281265
O O7 0.631127 0.760391 0.782439
O O8 0.388974 0.933170 0.276233
O O9 0.459453 0.974712 0.494950
O O10 0.391896 0.936417 0.784972
O O11 0.750563 0.549425 0.269130
O O12 0.680210 0.574836 0.512480
O O13 0.140049 0.583716 0.043449
O O14 0.510517 0.906155 0.828829
O O15 0.517035 0.245378 0.561975
#
# Coordination Sequence:
#
# PCOD8184838 Si02
#       8
#     8   8   8   8   8   4   8   8
#     4  10  21  36  52  76 107 144 188 236 300 367
#     4   9  19  37  59  85 121 154 197 262 311 377
#     4   9  20  37  62  90 120 163 203 256 332 391
#     4  10  21  37  53  74 111 152 186 244 307 359
#     4  10  20  36  58  87 117 153 210 260 309 385
#     4  10  24  46  72 100 144 182 224 288 346 410
#     4  11  24  43  67 101 137 177 227 274 338 408
#     4  10  19  35  59  82 109 154 201 248 312 375
#
# _framework density 25.003229999999999
#
# number of rings (size 3 to 8) (size 9 to 14) (size 15 to 20)
#    0.000    2.133    0.000    2.400    0.000    6.400 
#    0.000   16.000    0.000    0.000    0.000    0.000 
#    0.000    0.000    0.000    0.000    0.000    0.000 
#
# Total GULP energy -371744.861246 kJ/mol
# GULP energy per Si atom -12391.495375 kJ/mol
# Density = 2.494632 g / cm^3
# Si number density = 25.003230 Si / 1000 Ang^3
#
#
#
# Elastic Constant Matrix: (Units=GPa)
#
#
# Indices 1 2 3 4 5 6 
#
# 1 179.9442 1.7747 69.7668 0.0000 0.0000 0.0000
# 2 1.7747 62.1719 0.3269 0.0000 0.0000 0.0000
# 3 69.7668 0.3269 199.0972 0.0000 0.0000 0.0000
# 4 0.0000 0.0000 0.0000 -3.3192 0.0000 0.0000
# 5 0.0000 0.0000 0.0000 0.0000 156.6942 0.0000
# 6 0.0000 0.0000 0.0000 0.0000 0.0000 32.0306
#
#
#
# Elastic Compliance Matrix: (Units=1/GPa)
#
#
# Indices 1 2 3 4 5 6 
#
# 1 0.006433 -0.000172 -0.002254 0.000000 0.000000 0.000000
# 2 -0.000172 0.016089 0.000034 0.000000 0.000000 0.000000
# 3 -0.002254 0.000034 0.005812 0.000000 0.000000 0.000000
# 4 0.000000 0.000000 0.000000 -0.301278 0.000000 0.000000
# 5 0.000000 0.000000 0.000000 0.000000 0.006382 0.000000
# 6 0.000000 0.000000 0.000000 0.000000 0.000000 0.031220
#
#
# Mechanical properties :
#
#
# Convention : Reuss Voigt Hill
#
# Bulk Modulus (GPa) = 42.46167 64.99445 53.72806
# Shear Modulus (GPa) = -22.45095 61.70410 19.62658
#
# Velocity S-wave (km/s) = -2.99979 4.97313 2.80476
# Velocity P-wave (km/s) = 2.24077 7.68290 5.65897
#
# Compressibility (1/GPa) = 0.02355065
#
# Stress axis : x y z
#
# Youngs Moduli (GPa) = 155.45244 62.15360 172.04551
#
# Poissons Ratio (x) = 0.01068 0.38777
# Poissons Ratio (y) = 0.02670 -0.00581
# Poissons Ratio (z) = 0.35037 -0.00210
#
# Static dielectric constant tensor:
#      x y z
#    x 4.441790 0.000000 0.000000 
#    y 0.000000 4.139280 0.000000 
#    z 0.000000 0.000000 5.546600 
# 
# 
# High freq. dielectric constant tensor:
#      x y z
#    x 1.999920 0.000000 0.000000 
#    y 0.000000 1.975630 0.000000 
#    z 0.000000 0.000000 2.011470 
# 
# From -- ./inp_files/1181.got.cif
#   From: 2010.03.12/outbox.cif.g09.slc.cpg/sg41_1_cif.got.tgz:1181.got - 2010.04.14 01:55:53.
