data_PCOD8184813
_publ_section_title
;
Structure prediction by ZEFSAII (Michael W. Deem and Ramdas Pophale) SiO2 
 PCOD8184813
Probable space group: A B A 2
;
_chemical_formula_sum "Si O2"
_cell_formula_units_Z 44
_cell_length_a 21.030987
_cell_length_b 17.458852
_cell_length_c 5.575056
_cell_angle_alpha 90.000000
_cell_angle_beta 90.000000
_cell_angle_gamma 90.000000
_cell_volume 2047.031721
_symmetry_space_group_name_H-M "A B A 2"
_symmetry_group_IT_number 41
_symmetry_cell_setting 'orthorhombic'
loop_
_space_group_symop_operation_xyz
x,y,z
-x,-y,z
1/2-x,y,1/2+z
1/2+x,-y,1/2+z
x,1/2+y,1/2+z
-x,1/2-y,1/2+z
1/2-x,1/2+y,z
1/2+x,1/2-y,z
loop_
_atom_site_type_symbol
_atom_site_label
_atom_site_fract_x
_atom_site_fract_y
_atom_site_fract_z
Si Si1 0.769563 0.949744 0.403060
Si Si2 0.412630 0.235203 0.283555
Si Si3 0.909084 0.403742 0.951833
Si Si4 0.221615 0.720474 0.447424
Si Si5 0.500000 0.500000 0.770035
Si Si6 0.009957 0.858686 0.064650
O O1 0.757668 0.992646 0.662135
O O2 0.844070 0.939064 0.355165
O O3 0.731367 0.870506 0.441328
O O4 0.391832 0.177100 0.074147
O O5 0.353557 0.240075 0.466118
O O6 0.478201 0.206219 0.399534
O O7 0.428735 0.320654 0.189853
O O8 0.941623 0.464790 0.125491
O O9 0.956190 0.390436 0.736456
O O10 0.251450 0.755595 0.694312
O O11 0.465975 0.432460 0.919763
#
# Coordination Sequence:
#
# PCOD8184813 Si02
#       6
#     8   8   8   8   4   8
#     4  10  19  33  58  91 121 158 208 270 314 372
#     4  11  21  33  63  93 124 155 214 267 322 379
#     4  11  21  39  59  90 126 164 212 263 320 389
#     4  10  19  33  54  91 125 162 199 266 323 377
#     4  10  26  40  58  86 128 178 210 254 336 382
#     4  11  22  39  59  93 126 166 207 270 325 385
#
# _framework density 21.494539
#
# number of rings (size 3 to 8) (size 9 to 14) (size 15 to 20)
#    0.000    1.455    5.455    2.727    2.545    0.000 
#    0.000    0.000    0.000    2.182    0.000    0.000 
#    0.000    0.000    0.000    0.000    0.000    0.000 
#
# Total GULP energy -272687.121599 kJ/mol
# GULP energy per Si atom -12394.869164 kJ/mol
# Density = 2.144562 g / cm^3
# Si number density = 21.494539 Si / 1000 Ang^3
#
#
#
# Elastic Constant Matrix: (Units=GPa)
#
#
# Indices 1 2 3 4 5 6 
#
# 1 69.4447 24.7622 4.3576 0.0000 0.0000 0.0000
# 2 24.7622 76.4633 18.4109 0.0000 0.0000 0.0000
# 3 4.3576 18.4109 125.9804 0.0000 0.0000 0.0000
# 4 0.0000 0.0000 0.0000 21.5912 0.0000 0.0000
# 5 0.0000 0.0000 0.0000 0.0000 40.9724 0.0000
# 6 0.0000 0.0000 0.0000 0.0000 0.0000 10.7622
#
#
#
# Elastic Compliance Matrix: (Units=1/GPa)
#
#
# Indices 1 2 3 4 5 6 
#
# 1 0.016285 -0.005326 0.000215 0.000000 0.000000 0.000000
# 2 -0.005326 0.015297 -0.002051 0.000000 0.000000 0.000000
# 3 0.000215 -0.002051 0.008230 0.000000 0.000000 0.000000
# 4 0.000000 0.000000 0.000000 0.046315 0.000000 0.000000
# 5 0.000000 0.000000 0.000000 0.000000 0.024407 0.000000
# 6 0.000000 0.000000 0.000000 0.000000 0.000000 0.092918
#
#
# Mechanical properties :
#
#
# Convention : Reuss Voigt Hill
#
# Bulk Modulus (GPa) = 39.23361 40.77220 40.00291
# Shear Modulus (GPa) = 22.09729 29.62233 25.85981
#
# Velocity S-wave (km/s) = 3.20979 3.71635 3.47232
# Velocity P-wave (km/s) = 5.65946 6.11758 5.89297
#
# Compressibility (1/GPa) = 0.02548835
#
# Stress axis : x y z
#
# Youngs Moduli (GPa) = 61.40443 65.37326 121.50548
#
# Poissons Ratio (x) = 0.34816 -0.02612
# Poissons Ratio (y) = 0.32702 0.24924
# Poissons Ratio (z) = -0.01320 0.13410
#
# Static dielectric constant tensor:
#      x y z
#    x 3.698170 0.000000 0.000000 
#    y 0.000000 3.462670 0.000000 
#    z 0.000000 0.000000 4.736000 
# 
# 
# High freq. dielectric constant tensor:
#      x y z
#    x 1.843120 0.000000 0.000000 
#    y 0.000000 1.782690 0.000000 
#    z 0.000000 0.000000 1.865850 
# 
# From -- ./inp_files/480.got.cif
#   From: 2010.03.12/outbox.cif.g09.slc.cpg/sg41_1_cif.got.tgz:480.got - 2010.04.14 01:55:53.
