data_PCOD8184616
_publ_section_title
;
Structure prediction by ZEFSAII (Michael W. Deem and Ramdas Pophale) SiO2 
 PCOD8184616
Probable space group: A M A 2
;
_chemical_formula_sum "Si O2"
_cell_formula_units_Z 48
_cell_length_a 8.461511
_cell_length_b 20.305685
_cell_length_c 14.237775
_cell_angle_alpha 90.000000
_cell_angle_beta 90.000000
_cell_angle_gamma 90.000000
_cell_volume 2446.288612
_symmetry_space_group_name_H-M "A M A 2"
_symmetry_group_IT_number 40
_symmetry_cell_setting 'orthorhombic'
loop_
_space_group_symop_operation_xyz
x,y,z
-x,-y,z
1/2-x,y,z
1/2+x,-y,z
x,1/2+y,1/2+z
-x,1/2-y,1/2+z
1/2-x,1/2+y,1/2+z
1/2+x,1/2-y,1/2+z
loop_
_atom_site_type_symbol
_atom_site_label
_atom_site_fract_x
_atom_site_fract_y
_atom_site_fract_z
Si Si1 0.432471 0.371596 0.228150
Si Si2 0.067099 0.188586 0.408890
Si Si3 0.568748 0.729382 0.718643
Si Si4 0.431497 0.694941 0.525998
Si Si5 0.436532 0.569537 0.042077
Si Si6 0.933978 0.071047 0.928792
O O1 0.250000 0.350291 0.222080
O O2 0.537624 0.306506 0.233201
O O3 0.478007 0.415856 0.139881
O O4 0.467425 0.414630 0.319785
O O5 0.250000 0.186284 0.381293
O O6 0.014507 0.124358 0.466422
O O7 0.966174 0.190191 0.314086
O O8 0.039830 0.253005 0.471598
O O9 0.750000 0.719402 0.690311
O O10 0.460262 0.700135 0.636895
O O11 0.250000 0.710944 0.503428
O O12 0.472934 0.621903 0.493727
O O13 0.500000 0.500000 0.003696
O O14 0.250000 0.568213 0.058432
O O15 0.750000 0.075306 0.952907
O O16 0.000000 0.000000 0.954773
#
# Coordination Sequence:
#
# PCOD8184616 Si02
#       6
#     8   8   8   8   8   8
#     4  11  22  37  62  92 128 164 204 255 310 370
#     4  11  23  41  63  91 125 163 209 258 308 368
#     4  12  24  39  63  94 126 161 208 260 312 366
#     4  12  24  40  65  92 124 165 209 257 311 369
#     4  11  24  40  62  90 128 166 207 256 310 372
#     4  11  24  41  62  91 129 167 209 258 311 373
#
# _framework density 19.621559999999999
#
# number of rings (size 3 to 8) (size 9 to 14) (size 15 to 20)
#    0.000    0.667    3.333    5.500    0.000    5.333 
#    0.000    0.833    0.000    2.000    0.000    0.000 
#    0.000    0.000    0.000    0.000    0.000    0.000 
#
# Total GULP energy -297814.902910 kJ/mol
# GULP energy per Si atom -12408.954288 kJ/mol
# Density = 1.957690 g / cm^3
# Si number density = 19.621560 Si / 1000 Ang^3
#
#
#
# Elastic Constant Matrix: (Units=GPa)
#
#
# Indices 1 2 3 4 5 6 
#
# 1 68.7574 16.6634 10.8230 0.0000 0.0000 0.0000
# 2 16.6634 122.9810 33.7891 0.0000 0.0000 0.0000
# 3 10.8230 33.7891 88.1969 0.0000 0.0000 0.0000
# 4 0.0000 0.0000 0.0000 26.2312 0.0000 0.0000
# 5 0.0000 0.0000 0.0000 0.0000 30.5828 0.0000
# 6 0.0000 0.0000 0.0000 0.0000 0.0000 32.6230
#
#
#
# Elastic Compliance Matrix: (Units=1/GPa)
#
#
# Indices 1 2 3 4 5 6 
#
# 1 0.015150 -0.001723 -0.001199 0.000000 0.000000 0.000000
# 2 -0.001723 0.009284 -0.003345 0.000000 0.000000 0.000000
# 3 -0.001199 -0.003345 0.012767 0.000000 0.000000 0.000000
# 4 0.000000 0.000000 0.000000 0.038123 0.000000 0.000000
# 5 0.000000 0.000000 0.000000 0.000000 0.032698 0.000000
# 6 0.000000 0.000000 0.000000 0.000000 0.000000 0.030653
#
#
# Mechanical properties :
#
#
# Convention : Reuss Voigt Hill
#
# Bulk Modulus (GPa) = 40.54155 44.72072 42.63113
# Shear Modulus (GPa) = 31.36124 32.46470 31.91297
#
# Velocity S-wave (km/s) = 4.00222 4.07202 4.03727
# Velocity P-wave (km/s) = 6.48565 6.70444 6.59595
#
# Compressibility (1/GPa) = 0.02466605
#
# Stress axis : x y z
#
# Youngs Moduli (GPa) = 66.00546 107.71247 78.32692
#
# Poissons Ratio (x) = 0.18563 0.09391
# Poissons Ratio (y) = 0.11375 0.26203
# Poissons Ratio (z) = 0.07913 0.36033
#
# Static dielectric constant tensor:
#      x y z
#    x 3.723790 0.000000 0.000000 
#    y 0.000000 3.610490 0.000000 
#    z 0.000000 0.000000 3.628200 
# 
# 
# High freq. dielectric constant tensor:
#      x y z
#    x 1.779850 0.000000 0.000000 
#    y 0.000000 1.762780 0.000000 
#    z 0.000000 0.000000 1.765350 
# 
# From -- ./inp_files/15048.got.cif
#   From: 2010.03.12/outbox.cif.g09.slc.cpg/sg40_8_cif.got.tgz:15048.got - 2010.04.14 01:38:03.
