data_PCOD8184988
_publ_section_title
;
Structure prediction by ZEFSAII (Michael W. Deem and Ramdas Pophale) SiO2 
 PCOD8184988
Probable space group: A B A 2
;
_chemical_formula_sum "Si O2"
_cell_formula_units_Z 48
_cell_length_a 9.346269
_cell_length_b 16.232898
_cell_length_c 14.552839
_cell_angle_alpha 90.000000
_cell_angle_beta 90.000000
_cell_angle_gamma 90.000000
_cell_volume 2207.913531
_symmetry_space_group_name_H-M "A B A 2"
_symmetry_group_IT_number 41
_symmetry_cell_setting 'orthorhombic'
loop_
_space_group_symop_operation_xyz
x,y,z
-x,-y,z
1/2-x,y,1/2+z
1/2+x,-y,1/2+z
x,1/2+y,1/2+z
-x,1/2-y,1/2+z
1/2-x,1/2+y,z
1/2+x,1/2-y,z
loop_
_atom_site_type_symbol
_atom_site_label
_atom_site_fract_x
_atom_site_fract_y
_atom_site_fract_z
Si Si1 0.033610 0.698351 0.650180
Si Si2 0.673639 0.907312 0.797766
Si Si3 0.550703 0.310772 0.816416
Si Si4 0.730920 0.667370 0.584310
Si Si5 0.700224 0.585917 0.771857
Si Si6 0.424633 0.349580 0.401599
O O1 0.092180 0.617067 0.703073
O O2 0.163188 0.741147 0.594459
O O3 0.976697 0.767054 0.719647
O O4 0.903964 0.673618 0.581258
O O5 0.785036 0.836409 0.822605
O O6 0.559621 0.910529 0.882522
O O7 0.757749 0.991954 0.788218
O O8 0.448009 0.390956 0.823522
O O9 0.520716 0.245622 0.899187
O O10 0.685968 0.604137 0.664125
O O11 0.663651 0.626814 0.492331
O O12 0.822257 0.644813 0.812447
#
# Coordination Sequence:
#
# PCOD8184988 Si02
#       6
#     8   8   8   8   8   8
#     4  10  20  39  65  95 128 171 227 277 327 397
#     4  11  21  41  67  94 134 180 217 281 344 401
#     4  10  20  40  63  94 128 177 226 273 328 404
#     4  11  23  39  65  98 128 176 230 273 335 406
#     4  11  23  42  66  96 140 175 221 280 348 406
#     4  11  23  39  67  98 134 175 230 278 335 405
#
# _framework density 21.739982000000001
#
# number of rings (size 3 to 8) (size 9 to 14) (size 15 to 20)
#    0.000    1.333    5.000    3.000    4.667    0.000 
#    0.000    8.333    3.667    0.000    0.000    0.000 
#    0.000    0.000    0.000    0.000    0.000    0.000 
#
# Total GULP energy -297485.494416 kJ/mol
# GULP energy per Si atom -12395.228934 kJ/mol
# Density = 2.169050 g / cm^3
# Si number density = 21.739982 Si / 1000 Ang^3
#
#
#
# Elastic Constant Matrix: (Units=GPa)
#
#
# Indices 1 2 3 4 5 6 
#
# 1 113.9629 26.3088 26.2133 0.0000 0.0000 0.0000
# 2 26.3088 88.5957 34.8513 0.0000 0.0000 0.0000
# 3 26.2133 34.8513 82.5540 0.0000 0.0000 0.0000
# 4 0.0000 0.0000 0.0000 15.5283 0.0000 0.0000
# 5 0.0000 0.0000 0.0000 0.0000 27.3774 0.0000
# 6 0.0000 0.0000 0.0000 0.0000 0.0000 41.3022
#
#
#
# Elastic Compliance Matrix: (Units=1/GPa)
#
#
# Indices 1 2 3 4 5 6 
#
# 1 0.009757 -0.002013 -0.002248 0.000000 0.000000 0.000000
# 2 -0.002013 0.013950 -0.005250 0.000000 0.000000 0.000000
# 3 -0.002248 -0.005250 0.015044 0.000000 0.000000 0.000000
# 4 0.000000 0.000000 0.000000 0.064399 0.000000 0.000000
# 5 0.000000 0.000000 0.000000 0.000000 0.036526 0.000000
# 6 0.000000 0.000000 0.000000 0.000000 0.000000 0.024212
#
#
# Mechanical properties :
#
#
# Convention : Reuss Voigt Hill
#
# Bulk Modulus (GPa) = 50.68959 51.09551 50.89255
# Shear Modulus (GPa) = 26.38721 30.02419 28.20570
#
# Velocity S-wave (km/s) = 3.48769 3.72029 3.60587
# Velocity P-wave (km/s) = 6.29171 6.48137 6.38724
#
# Compressibility (1/GPa) = 0.01972792
#
# Stress axis : x y z
#
# Youngs Moduli (GPa) = 102.49472 71.68342 66.47346
#
# Poissons Ratio (x) = 0.14429 0.14945
# Poissons Ratio (y) = 0.20631 0.34900
# Poissons Ratio (z) = 0.23043 0.37635
#
# Static dielectric constant tensor:
#      x y z
#    x 4.309720 0.000000 0.000000 
#    y 0.000000 3.657040 0.000000 
#    z 0.000000 0.000000 3.624260 
# 
# 
# High freq. dielectric constant tensor:
#      x y z
#    x 1.877070 0.000000 0.000000 
#    y 0.000000 1.835540 0.000000 
#    z 0.000000 0.000000 1.822120 
# 
# From -- ./inp_files/7331.got.cif
#   From: 2010.03.12/outbox.cif.g09.slc.cpg/sg41_4_cif.got.tgz:7331.got - 2010.04.14 01:55:53.
