data_PCOD8184920
_publ_section_title
;
Structure prediction by ZEFSAII (Michael W. Deem and Ramdas Pophale) SiO2 
 PCOD8184920
Probable space group: A B A 2
;
_chemical_formula_sum "Si O2"
_cell_formula_units_Z 64
_cell_length_a 33.370785
_cell_length_b 17.758538
_cell_length_c 5.141209
_cell_angle_alpha 90.000000
_cell_angle_beta 90.000000
_cell_angle_gamma 90.000000
_cell_volume 3046.764530
_symmetry_space_group_name_H-M "A B A 2"
_symmetry_group_IT_number 41
_symmetry_cell_setting 'orthorhombic'
loop_
_space_group_symop_operation_xyz
x,y,z
-x,-y,z
1/2-x,y,1/2+z
1/2+x,-y,1/2+z
x,1/2+y,1/2+z
-x,1/2-y,1/2+z
1/2-x,1/2+y,z
1/2+x,1/2-y,z
loop_
_atom_site_type_symbol
_atom_site_label
_atom_site_fract_x
_atom_site_fract_y
_atom_site_fract_z
Si Si1 0.226417 0.530671 0.480400
Si Si2 0.636278 0.942796 0.464786
Si Si3 0.906496 0.788661 0.908476
Si Si4 0.881602 0.535460 0.947088
Si Si5 0.006922 0.705588 0.259424
Si Si6 0.359754 0.834755 0.630974
Si Si7 0.773704 0.147870 0.970007
Si Si8 0.573401 0.645873 0.737536
O O1 0.255565 0.559345 0.708798
O O2 0.182914 0.565133 0.533211
O O3 0.222349 0.441320 0.479961
O O4 0.618654 0.860073 0.491350
O O5 0.612237 0.986752 0.689151
O O6 0.633574 0.983141 0.183067
O O7 0.947317 0.822168 0.779787
O O8 0.878629 0.744815 0.706057
O O9 0.917393 0.731246 0.140565
O O10 0.851367 0.605870 0.870699
O O11 0.922680 0.580014 0.020372
O O12 0.001324 0.774919 0.458272
O O13 0.972726 0.643982 0.339316
O O14 0.318362 0.817761 0.484057
O O15 0.393135 0.875579 0.450640
O O16 0.753352 0.177631 0.707567
#
# Coordination Sequence:
#
# PCOD8184920 Si02
#       8
#     8   8   8   8   8   8   8   8
#     4  10  20  36  59  86 119 163 212 256 304 375
#     4  12  24  41  62  96 129 167 208 257 325 384
#     4  10  25  39  67  95 131 167 207 263 317 385
#     4  11  23  38  67  90 126 167 208 260 310 379
#     4  10  20  39  65  96 122 163 216 261 303 375
#     4  11  21  42  65  95 121 168 213 257 318 369
#     4  10  22  34  59  90 120 153 212 269 304 359
#     4  10  21  41  71  93 122 166 221 261 304 377
#
# _framework density 21.005890000000001
#
# number of rings (size 3 to 8) (size 9 to 14) (size 15 to 20)
#    0.000    1.500    3.750    0.750    8.750    0.000 
#    0.000    1.875    2.750    0.000    0.000    0.000 
#    0.000    0.000    0.000    0.000    0.000    0.000 
#
# Total GULP energy -396532.806371 kJ/mol
# GULP energy per Si atom -12391.650199 kJ/mol
# Density = 2.095808 g / cm^3
# Si number density = 21.005890 Si / 1000 Ang^3
#
#
#
# Elastic Constant Matrix: (Units=GPa)
#
#
# Indices 1 2 3 4 5 6 
#
# 1 109.6693 35.6062 29.6878 0.0000 0.0000 0.0000
# 2 35.6062 72.8963 36.1268 0.0000 0.0000 0.0000
# 3 29.6878 36.1268 96.9473 0.0000 0.0000 0.0000
# 4 0.0000 0.0000 0.0000 19.9356 0.0000 0.0000
# 5 0.0000 0.0000 0.0000 0.0000 31.2813 0.0000
# 6 0.0000 0.0000 0.0000 0.0000 0.0000 21.7276
#
#
#
# Elastic Compliance Matrix: (Units=1/GPa)
#
#
# Indices 1 2 3 4 5 6 
#
# 1 0.011057 -0.004566 -0.001684 0.000000 0.000000 0.000000
# 2 -0.004566 0.018711 -0.005574 0.000000 0.000000 0.000000
# 3 -0.001684 -0.005574 0.012908 0.000000 0.000000 0.000000
# 4 0.000000 0.000000 0.000000 0.050161 0.000000 0.000000
# 5 0.000000 0.000000 0.000000 0.000000 0.031968 0.000000
# 6 0.000000 0.000000 0.000000 0.000000 0.000000 0.046024
#
#
# Mechanical properties :
#
#
# Convention : Reuss Voigt Hill
#
# Bulk Modulus (GPa) = 52.55870 53.59495 53.07683
# Shear Modulus (GPa) = 24.89784 26.46172 25.67978
#
# Velocity S-wave (km/s) = 3.44652 3.55312 3.50023
# Velocity P-wave (km/s) = 6.39635 6.51172 6.45429
#
# Compressibility (1/GPa) = 0.01902635
#
# Stress axis : x y z
#
# Youngs Moduli (GPa) = 90.44302 53.44477 77.47179
#
# Poissons Ratio (x) = 0.24402 0.13049
# Poissons Ratio (y) = 0.41295 0.43185
# Poissons Ratio (z) = 0.15234 0.29792
#
# Static dielectric constant tensor:
#      x y z
#    x 4.035310 0.000000 0.000000 
#    y 0.000000 3.448320 0.000000 
#    z 0.000000 0.000000 4.047960 
# 
# 
# High freq. dielectric constant tensor:
#      x y z
#    x 1.825180 0.000000 0.000000 
#    y 0.000000 1.779910 0.000000 
#    z 0.000000 0.000000 1.834620 
# 
# From -- ./inp_files/1406.got.cif
#   From: 2010.03.12/outbox.cif.g09.slc.cpg/sg41_1_cif.got.tgz:1406.got - 2010.04.14 01:55:53.
