data_PCOD8184913
_publ_section_title
;
Structure prediction by ZEFSAII (Michael W. Deem and Ramdas Pophale) SiO2 
 PCOD8184913
Probable space group: A B A 2
;
_chemical_formula_sum "Si O2"
_cell_formula_units_Z 56
_cell_length_a 17.245416
_cell_length_b 14.061940
_cell_length_c 13.098895
_cell_angle_alpha 90.000000
_cell_angle_beta 90.000000
_cell_angle_gamma 90.000000
_cell_volume 3176.534499
_symmetry_space_group_name_H-M "A B A 2"
_symmetry_group_IT_number 41
_symmetry_cell_setting 'orthorhombic'
loop_
_space_group_symop_operation_xyz
x,y,z
-x,-y,z
1/2-x,y,1/2+z
1/2+x,-y,1/2+z
x,1/2+y,1/2+z
-x,1/2-y,1/2+z
1/2-x,1/2+y,z
1/2+x,1/2-y,z
loop_
_atom_site_type_symbol
_atom_site_label
_atom_site_fract_x
_atom_site_fract_y
_atom_site_fract_z
Si Si1 0.683754 0.237454 0.503670
Si Si2 0.463469 0.750000 0.613689
Si Si3 0.535481 0.103595 0.968795
Si Si4 0.203102 0.394340 0.886776
Si Si5 0.535481 0.896405 0.758583
Si Si6 0.683753 0.762546 0.223708
Si Si7 0.296898 0.105660 0.840602
O O1 0.593597 0.208208 0.524787
O O2 0.724999 0.154798 0.442059
O O3 0.726263 0.250001 0.613689
O O4 0.684300 0.337757 0.444265
O O5 0.517408 0.668764 0.566211
O O6 0.517408 0.831236 0.661167
O O7 0.406403 0.708208 0.702591
O O8 0.628122 0.099524 0.959308
O O9 0.500000 0.145531 0.863689
O O10 0.500000 0.000000 0.989088
O O11 0.184301 0.337757 0.783113
O O12 0.231792 0.500000 0.863689
O O13 0.628122 0.900476 0.768070
O O14 0.500000 0.000000 0.738290
O O15 0.724999 0.845202 0.285320
#
# Coordination Sequence:
#
# PCOD8184913 Si02
#       7
#     8   8   8   8   8   8   8
#     4   9  21  37  51  80 110 139 174 218 272 307
#     4  10  20  36  54  78 114 132 178 230 258 314
#     4  11  19  36  58  80 104 141 184 217 263 311
#     4  11  20  36  58  79 106 143 180 218 260 322
#     4  11  19  36  58  80 104 141 184 217 263 311
#     4   9  21  37  51  80 110 139 174 218 272 307
#     4  11  20  36  58  79 106 143 180 218 260 322
#
# _framework density 17.629275
#
# number of rings (size 3 to 8) (size 9 to 14) (size 15 to 20)
#    0.857    0.857    5.714    0.000    2.000    1.143 
#    0.000    0.000    0.000    0.000    0.000    0.000 
#    0.000    0.000    0.000    0.000    0.000    0.000 
#
# Total GULP energy -347008.634816 kJ/mol
# GULP energy per Si atom -12393.165529 kJ/mol
# Density = 1.758915 g / cm^3
# Si number density = 17.629275 Si / 1000 Ang^3
#
#
#
# Elastic Constant Matrix: (Units=GPa)
#
#
# Indices 1 2 3 4 5 6 
#
# 1 64.9368 48.1984 25.3195 0.0000 0.0000 0.0000
# 2 48.1984 140.4883 70.0572 0.0000 0.0000 0.0000
# 3 25.3195 70.0572 99.5775 0.0000 0.0000 0.0000
# 4 0.0000 0.0000 0.0000 28.4726 0.0000 0.0000
# 5 0.0000 0.0000 0.0000 0.0000 20.8565 0.0000
# 6 0.0000 0.0000 0.0000 0.0000 0.0000 20.0744
#
#
#
# Elastic Compliance Matrix: (Units=1/GPa)
#
#
# Indices 1 2 3 4 5 6 
#
# 1 0.020672 -0.006887 -0.000411 0.000000 0.000000 0.000000
# 2 -0.006887 0.013259 -0.007577 0.000000 0.000000 0.000000
# 3 -0.000411 -0.007577 0.015478 0.000000 0.000000 0.000000
# 4 0.000000 0.000000 0.000000 0.035121 0.000000 0.000000
# 5 0.000000 0.000000 0.000000 0.000000 0.047947 0.000000
# 6 0.000000 0.000000 0.000000 0.000000 0.000000 0.049815
#
#
# Mechanical properties :
#
#
# Convention : Reuss Voigt Hill
#
# Bulk Modulus (GPa) = 50.86889 65.79474 58.33182
# Shear Modulus (GPa) = 22.87332 24.64255 23.75794
#
# Velocity S-wave (km/s) = 3.60594 3.74280 3.67501
# Velocity P-wave (km/s) = 6.80106 7.48868 7.15314
#
# Compressibility (1/GPa) = 0.01965838
#
# Stress axis : x y z
#
# Youngs Moduli (GPa) = 48.37547 75.41763 64.60809
#
# Poissons Ratio (x) = 0.51941 0.02654
# Poissons Ratio (y) = 0.33317 0.48956
# Poissons Ratio (z) = 0.01987 0.57147
#
# Static dielectric constant tensor:
#      x y z
#    x 3.214740 0.000000 0.000000 
#    y 0.000000 3.200640 0.000000 
#    z 0.000000 0.000000 3.352840 
# 
# 
# High freq. dielectric constant tensor:
#      x y z
#    x 1.680130 0.000000 0.000000 
#    y 0.000000 1.670260 0.000000 
#    z 0.000000 0.000000 1.676220 
# 
# From -- ./inp_files/8478.got.cif
#   From: 2010.03.12/outbox.cif.g09.slc.cpg/sg41_5_cif.got.tgz:8478.got - 2010.04.14 01:55:53.
