data_PCOD8184034
_publ_section_title
;
Structure prediction by ZEFSAII (Michael W. Deem and Ramdas Pophale) SiO2 
 PCOD8184034
Probable space group: A M A 2
;
_chemical_formula_sum "Si O2"
_cell_formula_units_Z 48
_cell_length_a 15.233960
_cell_length_b 15.709699
_cell_length_c 9.902808
_cell_angle_alpha 90.000000
_cell_angle_beta 90.000000
_cell_angle_gamma 90.000000
_cell_volume 2369.949182
_symmetry_space_group_name_H-M "A M A 2"
_symmetry_group_IT_number 40
_symmetry_cell_setting 'orthorhombic'
loop_
_space_group_symop_operation_xyz
x,y,z
-x,-y,z
1/2-x,y,z
1/2+x,-y,z
x,1/2+y,1/2+z
-x,1/2-y,1/2+z
1/2-x,1/2+y,1/2+z
1/2+x,1/2-y,1/2+z
loop_
_atom_site_type_symbol
_atom_site_label
_atom_site_fract_x
_atom_site_fract_y
_atom_site_fract_z
Si Si1 0.250000 0.231444 0.647740
Si Si2 0.929382 0.066801 0.026515
Si Si3 0.750000 0.966697 0.650197
Si Si4 0.068106 0.809696 0.780086
Si Si5 0.750000 0.034308 0.942617
Si Si6 0.580760 0.062193 0.538466
Si Si7 0.916329 0.673059 0.775176
Si Si8 0.250000 0.775056 0.849348
O O1 0.250000 0.132938 0.676399
O O2 0.167428 0.280668 0.710522
O O3 0.250000 0.221957 0.486003
O O4 0.928171 0.144865 0.924010
O O5 0.836315 0.016758 0.031875
O O6 0.952032 0.100969 0.174437
O O7 0.000000 0.000000 0.975695
O O8 0.750000 0.984093 0.806527
O O9 0.664618 0.004059 0.574982
O O10 0.052134 0.878527 0.663271
O O11 0.161724 0.760160 0.759496
O O12 0.991154 0.742524 0.792068
O O13 0.750000 0.129979 0.897885
O O14 0.604908 0.125584 0.415626
O O15 0.500000 0.000000 0.501473
#
# Coordination Sequence:
#
# PCOD8184034 Si02
#       8
#     4   8   4   8   4   8   8   4
#     4  12  25  44  70  96 129 180 227 266 334 404
#     4  11  22  42  67  90 128 172 212 263 323 388
#     4  12  25  42  70  98 125 178 225 272 322 396
#     4  11  22  42  69  93 130 177 221 264 322 402
#     4  10  20  42  66  90 121 169 220 258 317 383
#     4  12  25  42  65 101 137 166 218 278 334 391
#     4  12  25  42  65 100 135 168 214 273 338 387
#     4  10  20  44  68  90 129 177 218 272 325 375
#
# _framework density 20.253599999999999
#
# number of rings (size 3 to 8) (size 9 to 14) (size 15 to 20)
#    0.000    0.667    6.667    3.500    4.667    0.000 
#    0.000    0.833    0.000    0.000    0.000    0.000 
#    0.000    0.000    0.000    0.000    0.000    0.000 
#
# Total GULP energy -297452.818765 kJ/mol
# GULP energy per Si atom -12393.867449 kJ/mol
# Density = 2.020750 g / cm^3
# Si number density = 20.253600 Si / 1000 Ang^3
#
#
#
# Elastic Constant Matrix: (Units=GPa)
#
#
# Indices 1 2 3 4 5 6 
#
# 1 144.9740 38.9856 11.6793 0.0000 0.0000 0.0000
# 2 38.9856 83.5424 30.0526 0.0000 0.0000 0.0000
# 3 11.6793 30.0526 86.0125 0.0000 0.0000 0.0000
# 4 0.0000 0.0000 0.0000 33.7186 0.0000 0.0000
# 5 0.0000 0.0000 0.0000 0.0000 44.6764 0.0000
# 6 0.0000 0.0000 0.0000 0.0000 0.0000 27.7972
#
#
#
# Elastic Compliance Matrix: (Units=1/GPa)
#
#
# Indices 1 2 3 4 5 6 
#
# 1 0.007892 -0.003771 0.000246 0.000000 0.000000 0.000000
# 2 -0.003771 0.015493 -0.004901 0.000000 0.000000 0.000000
# 3 0.000246 -0.004901 0.013305 0.000000 0.000000 0.000000
# 4 0.000000 0.000000 0.000000 0.029657 0.000000 0.000000
# 5 0.000000 0.000000 0.000000 0.000000 0.022383 0.000000
# 6 0.000000 0.000000 0.000000 0.000000 0.000000 0.035975
#
#
# Mechanical properties :
#
#
# Convention : Reuss Voigt Hill
#
# Bulk Modulus (GPa) = 50.40966 52.88486 51.64726
# Shear Modulus (GPa) = 33.74477 36.82587 35.28532
#
# Velocity S-wave (km/s) = 4.08623 4.26871 4.17847
# Velocity P-wave (km/s) = 6.87069 7.10379 6.98821
#
# Compressibility (1/GPa) = 0.01983747
#
# Stress axis : x y z
#
# Youngs Moduli (GPa) = 126.70805 64.54528 75.15838
#
# Poissons Ratio (x) = 0.24343 -0.01850
# Poissons Ratio (y) = 0.47787 0.36836
# Poissons Ratio (z) = -0.03118 0.31634
#
# Static dielectric constant tensor:
#      x y z
#    x 3.446690 0.000000 0.000000 
#    y 0.000000 3.559100 0.000000 
#    z 0.000000 0.000000 3.650990 
# 
# 
# High freq. dielectric constant tensor:
#      x y z
#    x 1.812020 0.000000 0.000000 
#    y 0.000000 1.786750 0.000000 
#    z 0.000000 0.000000 1.791860 
# 
# From -- ./inp_files/7502.got.cif
#   From: 2010.03.12/outbox.cif.g09.slc.cpg/sg40_4_cif.got.tgz:7502.got - 2010.04.14 01:38:03.
