data_PCOD8184118
_publ_section_title
;
Structure prediction by ZEFSAII (Michael W. Deem and Ramdas Pophale) SiO2 
 PCOD8184118
Probable space group: A M A 2
;
_chemical_formula_sum "Si O2"
_cell_formula_units_Z 48
_cell_length_a 8.919557
_cell_length_b 30.606211
_cell_length_c 8.948841
_cell_angle_alpha 90.000000
_cell_angle_beta 90.000000
_cell_angle_gamma 90.000000
_cell_volume 2442.978500
_symmetry_space_group_name_H-M "A M A 2"
_symmetry_group_IT_number 40
_symmetry_cell_setting 'orthorhombic'
loop_
_space_group_symop_operation_xyz
x,y,z
-x,-y,z
1/2-x,y,z
1/2+x,-y,z
x,1/2+y,1/2+z
-x,1/2-y,1/2+z
1/2-x,1/2+y,1/2+z
1/2+x,1/2-y,1/2+z
loop_
_atom_site_type_symbol
_atom_site_label
_atom_site_fract_x
_atom_site_fract_y
_atom_site_fract_z
Si Si1 0.577350 0.623805 0.045220
Si Si2 0.424009 0.374807 0.390577
Si Si3 0.076920 0.790745 0.360725
Si Si4 0.576532 0.795075 0.050117
Si Si5 0.926469 0.454987 0.545790
Si Si6 0.574348 0.455193 0.887084
O O1 0.750000 0.611322 0.019345
O O2 0.543903 0.634036 0.217341
O O3 0.531797 0.666485 0.953215
O O4 0.477106 0.583674 0.993026
O O5 0.250000 0.382948 0.423831
O O6 0.476276 0.333076 0.482370
O O7 0.515231 0.417034 0.440011
O O8 0.250000 0.792360 0.309658
O O9 0.044510 0.749340 0.463460
O O10 0.968466 0.787421 0.220438
O O11 0.750000 0.808882 0.041878
O O12 0.750000 0.459325 0.527914
O O13 0.973088 0.444628 0.716663
O O14 0.000000 0.500000 0.491561
O O15 0.500000 0.500000 0.942605
O O16 0.750000 0.461156 0.902260
#
# Coordination Sequence:
#
# PCOD8184118 Si02
#       6
#     8   8   8   8   8   8
#     4  10  22  39  58  82 114 152 193 234 281 339
#     4  11  23  39  59  84 117 156 194 236 287 341
#     4  10  22  40  61  85 116 153 190 233 286 341
#     4  11  23  39  61  89 118 150 192 238 284 340
#     4  10  21  38  60  87 116 150 194 240 289 345
#     4  10  21  37  59  85 113 147 188 235 286 340
#
# _framework density 19.648147000000002
#
# number of rings (size 3 to 8) (size 9 to 14) (size 15 to 20)
#    0.000    1.667    0.000    4.000    0.000   10.000 
#    0.000    0.000    0.000    0.000    0.000    0.000 
#    0.000    0.000    0.000    0.000    0.000    0.000 
#
# Total GULP energy -297763.254720 kJ/mol
# GULP energy per Si atom -12406.802280 kJ/mol
# Density = 1.960343 g / cm^3
# Si number density = 19.648147 Si / 1000 Ang^3
#
#
#
# Elastic Constant Matrix: (Units=GPa)
#
#
# Indices 1 2 3 4 5 6 
#
# 1 71.9952 43.7124 39.6466 0.0000 0.0000 0.0000
# 2 43.7124 126.3479 46.0293 0.0000 0.0000 0.0000
# 3 39.6466 46.0293 101.7873 0.0000 0.0000 0.0000
# 4 0.0000 0.0000 0.0000 35.4467 0.0000 0.0000
# 5 0.0000 0.0000 0.0000 0.0000 33.0522 0.0000
# 6 0.0000 0.0000 0.0000 0.0000 0.0000 37.4457
#
#
#
# Elastic Compliance Matrix: (Units=1/GPa)
#
#
# Indices 1 2 3 4 5 6 
#
# 1 0.019899 -0.004862 -0.005552 0.000000 0.000000 0.000000
# 2 -0.004862 0.010664 -0.002928 0.000000 0.000000 0.000000
# 3 -0.005552 -0.002928 0.013311 0.000000 0.000000 0.000000
# 4 0.000000 0.000000 0.000000 0.028211 0.000000 0.000000
# 5 0.000000 0.000000 0.000000 0.000000 0.030255 0.000000
# 6 0.000000 0.000000 0.000000 0.000000 0.000000 0.026705
#
#
# Mechanical properties :
#
#
# Convention : Reuss Voigt Hill
#
# Bulk Modulus (GPa) = 58.17671 62.10080 60.13876
# Shear Modulus (GPa) = 30.96727 32.57173 31.76950
#
# Velocity S-wave (km/s) = 3.97431 4.07597 4.02546
# Velocity P-wave (km/s) = 7.12276 7.33665 7.23049
#
# Compressibility (1/GPa) = 0.01718901
#
# Stress axis : x y z
#
# Youngs Moduli (GPa) = 50.25314 93.77749 75.12391
#
# Poissons Ratio (x) = 0.45593 0.41711
# Poissons Ratio (y) = 0.24432 0.22000
# Poissons Ratio (z) = 0.27902 0.27463
#
# Static dielectric constant tensor:
#      x y z
#    x 3.644140 0.000000 0.000000 
#    y 0.000000 3.939130 0.000000 
#    z 0.000000 0.000000 3.617900 
# 
# 
# High freq. dielectric constant tensor:
#      x y z
#    x 1.773060 0.000000 0.000000 
#    y 0.000000 1.780660 0.000000 
#    z 0.000000 0.000000 1.769880 
# 
# From -- ./inp_files/4566.got.cif
#   From: 2010.03.12/outbox.cif.g09.slc.cpg/sg40_3_cif.got.tgz:4566.got - 2010.04.14 01:38:03.
