data_PCOD8184942
_publ_section_title
;
Structure prediction by ZEFSAII (Michael W. Deem and Ramdas Pophale) SiO2 
 PCOD8184942
Probable space group: A B A 2
;
_chemical_formula_sum "Si O2"
_cell_formula_units_Z 64
_cell_length_a 8.812811
_cell_length_b 16.647228
_cell_length_c 21.149066
_cell_angle_alpha 90.000000
_cell_angle_beta 90.000000
_cell_angle_gamma 90.000000
_cell_volume 3102.755660
_symmetry_space_group_name_H-M "A B A 2"
_symmetry_group_IT_number 41
_symmetry_cell_setting 'orthorhombic'
loop_
_space_group_symop_operation_xyz
x,y,z
-x,-y,z
1/2-x,y,1/2+z
1/2+x,-y,1/2+z
x,1/2+y,1/2+z
-x,1/2-y,1/2+z
1/2-x,1/2+y,z
1/2+x,1/2-y,z
loop_
_atom_site_type_symbol
_atom_site_label
_atom_site_fract_x
_atom_site_fract_y
_atom_site_fract_z
Si Si1 0.719719 0.862044 0.676480
Si Si2 0.034398 0.754971 0.134692
Si Si3 0.534398 0.745029 0.852115
Si Si4 0.174157 0.517511 0.420969
Si Si5 0.174157 0.017511 0.065838
Si Si6 0.716549 0.157576 0.922177
Si Si7 0.283451 0.842424 0.064629
Si Si8 0.719719 0.362044 0.810326
O O1 0.552689 0.822277 0.675879
O O2 0.844352 0.791449 0.677103
O O3 0.741193 0.918090 0.615105
O O4 0.750000 0.908330 0.743403
O O5 0.121631 0.801367 0.078749
O O6 0.916084 0.690864 0.108025
O O7 0.416083 0.809136 0.878780
O O8 0.621630 0.698633 0.908057
O O9 0.447312 0.677722 0.810927
O O10 0.655648 0.791448 0.809703
O O11 0.188617 0.549923 0.493403
O O12 0.272738 0.437725 0.411903
O O13 0.241194 0.581910 0.371701
O O14 0.000000 0.500000 0.404413
O O15 0.272738 0.937725 0.074903
O O16 0.000000 0.000000 0.082393
O O17 0.673423 0.178356 0.993403
#
# Coordination Sequence:
#
# PCOD8184942 Si02
#       8
#     8   8   8   8   8   8   8   8
#     4  11  23  42  62  89 120 162 203 250 303 362
#     4  10  22  38  60  89 119 157 202 252 300 358
#     4  10  22  38  60  89 119 157 202 252 300 358
#     4  10  21  40  62  88 122 160 198 250 306 359
#     4  10  21  40  62  88 122 160 198 250 306 359
#     4  10  20  37  61  89 121 156 199 247 302 360
#     4  10  20  37  61  89 121 156 199 247 302 360
#     4  11  23  42  62  89 120 162 203 250 303 362
#
# _framework density 20.626826999999999
#
# number of rings (size 3 to 8) (size 9 to 14) (size 15 to 20)
#    0.000    1.750    2.500    1.500    0.000    6.000 
#    4.500    3.750    0.000    0.000    0.000    0.000 
#    0.000    0.000    0.000    0.000    0.000    0.000 
#
# Total GULP energy -396741.080817 kJ/mol
# GULP energy per Si atom -12398.158776 kJ/mol
# Density = 2.057988 g / cm^3
# Si number density = 20.626827 Si / 1000 Ang^3
#
#
#
# Elastic Constant Matrix: (Units=GPa)
#
#
# Indices 1 2 3 4 5 6 
#
# 1 77.4910 15.4583 16.3601 0.0000 0.0000 0.0000
# 2 15.4583 71.9277 40.0080 0.0000 0.0000 0.0000
# 3 16.3601 40.0080 117.9533 0.0000 0.0000 0.0000
# 4 0.0000 0.0000 0.0000 25.1127 0.0000 0.0000
# 5 0.0000 0.0000 0.0000 0.0000 20.1035 0.0000
# 6 0.0000 0.0000 0.0000 0.0000 0.0000 27.6918
#
#
#
# Elastic Compliance Matrix: (Units=1/GPa)
#
#
# Indices 1 2 3 4 5 6 
#
# 1 0.013598 -0.002309 -0.001103 0.000000 0.000000 0.000000
# 2 -0.002309 0.017528 -0.005625 0.000000 0.000000 0.000000
# 3 -0.001103 -0.005625 0.010539 0.000000 0.000000 0.000000
# 4 0.000000 0.000000 0.000000 0.039820 0.000000 0.000000
# 5 0.000000 0.000000 0.000000 0.000000 0.049743 0.000000
# 6 0.000000 0.000000 0.000000 0.000000 0.000000 0.036112
#
#
# Mechanical properties :
#
#
# Convention : Reuss Voigt Hill
#
# Bulk Modulus (GPa) = 42.38870 45.66942 44.02906
# Shear Modulus (GPa) = 25.86963 27.61798 26.74380
#
# Velocity S-wave (km/s) = 3.54527 3.66312 3.60468
# Velocity P-wave (km/s) = 6.11175 6.33088 6.22228
#
# Compressibility (1/GPa) = 0.02359119
#
# Stress axis : x y z
#
# Youngs Moduli (GPa) = 73.53926 57.05222 94.88759
#
# Poissons Ratio (x) = 0.13173 0.10465
# Poissons Ratio (y) = 0.16980 0.53373
# Poissons Ratio (z) = 0.08111 0.32091
#
# Static dielectric constant tensor:
#      x y z
#    x 3.775340 0.000000 0.000000 
#    y 0.000000 3.674200 0.000000 
#    z 0.000000 0.000000 3.640270 
# 
# 
# High freq. dielectric constant tensor:
#      x y z
#    x 1.811890 0.000000 0.000000 
#    y 0.000000 1.799300 0.000000 
#    z 0.000000 0.000000 1.802570 
# 
# From -- ./inp_files/11300.got.cif
#   From: 2010.03.12/outbox.cif.g09.slc.cpg/sg41_6_cif.got.tgz:11300.got - 2010.04.14 01:55:53.
