data_PCOD8184872
_publ_section_title
;
Structure prediction by ZEFSAII (Michael W. Deem and Ramdas Pophale) SiO2 
 PCOD8184872
Probable space group: A B A 2
;
_chemical_formula_sum "Si O2"
_cell_formula_units_Z 52
_cell_length_a 27.199827
_cell_length_b 5.118471
_cell_length_c 17.685984
_cell_angle_alpha 90.000000
_cell_angle_beta 90.000000
_cell_angle_gamma 90.000000
_cell_volume 2462.269676
_symmetry_space_group_name_H-M "A B A 2"
_symmetry_group_IT_number 41
_symmetry_cell_setting 'orthorhombic'
loop_
_space_group_symop_operation_xyz
x,y,z
-x,-y,z
1/2-x,y,1/2+z
1/2+x,-y,1/2+z
x,1/2+y,1/2+z
-x,1/2-y,1/2+z
1/2-x,1/2+y,z
1/2+x,1/2-y,z
loop_
_atom_site_type_symbol
_atom_site_label
_atom_site_fract_x
_atom_site_fract_y
_atom_site_fract_z
Si Si1 0.500000 0.500000 0.050560
Si Si2 0.218180 0.821137 0.249127
Si Si3 0.093358 0.788056 0.754675
Si Si4 0.855156 0.514339 0.639600
Si Si5 0.559331 0.903751 0.129505
Si Si6 0.901875 0.773289 0.006775
Si Si7 0.619972 0.697278 0.336905
O O1 0.508834 0.756242 0.104016
O O2 0.548352 0.450228 0.999806
O O3 0.239803 0.534857 0.261394
O O4 0.175080 0.868596 0.310096
O O5 0.195917 0.846881 0.163135
O O6 0.138806 0.737707 0.695619
O O7 0.082726 0.524048 0.803028
O O8 0.049584 0.887751 0.698091
O O9 0.105593 0.011465 0.814556
O O10 0.902066 0.692580 0.662735
O O11 0.858832 0.433926 0.551409
O O12 0.584882 0.020412 0.055158
O O13 0.881514 0.681798 0.927212
#
# Coordination Sequence:
#
# PCOD8184872 Si02
#       7
#     4   8   8   8   8   8   8
#     4  10  22  40  66  96 124 166 226 268 326 372
#     4  11  22  39  65  96 128 166 219 272 315 385
#     4  10  19  38  66  91 122 167 217 254 310 396
#     4   9  20  39  65  95 120 170 214 254 327 378
#     4  10  19  40  68  93 124 168 219 261 320 394
#     4  10  23  39  69  90 133 173 213 267 325 406
#     4  11  23  40  66  96 131 174 213 257 340 389
#
# _framework density 21.118727
#
# number of rings (size 3 to 8) (size 9 to 14) (size 15 to 20)
#    0.000    1.846    3.077    2.308    6.462    0.000 
#    0.000    1.538   13.538    0.000    0.000    0.000 
#    0.000    0.000    0.000    0.000    0.000    0.000 
#
# Total GULP energy -322138.523531 kJ/mol
# GULP energy per Si atom -12389.943213 kJ/mol
# Density = 2.107066 g / cm^3
# Si number density = 21.118727 Si / 1000 Ang^3
#
#
#
# Elastic Constant Matrix: (Units=GPa)
#
#
# Indices 1 2 3 4 5 6 
#
# 1 74.0716 13.5085 35.1093 0.0000 0.0000 0.0000
# 2 13.5085 96.8024 41.3973 0.0000 0.0000 0.0000
# 3 35.1093 41.3973 153.8664 0.0000 0.0000 0.0000
# 4 0.0000 0.0000 0.0000 35.3167 0.0000 0.0000
# 5 0.0000 0.0000 0.0000 0.0000 27.9300 0.0000
# 6 0.0000 0.0000 0.0000 0.0000 0.0000 26.5181
#
#
#
# Elastic Compliance Matrix: (Units=1/GPa)
#
#
# Indices 1 2 3 4 5 6 
#
# 1 0.015182 -0.000720 -0.003271 0.000000 0.000000 0.000000
# 2 -0.000720 0.011708 -0.002986 0.000000 0.000000 0.000000
# 3 -0.003271 -0.002986 0.008049 0.000000 0.000000 0.000000
# 4 0.000000 0.000000 0.000000 0.028315 0.000000 0.000000
# 5 0.000000 0.000000 0.000000 0.000000 0.035804 0.000000
# 6 0.000000 0.000000 0.000000 0.000000 0.000000 0.037710
#
#
# Mechanical properties :
#
#
# Convention : Reuss Voigt Hill
#
# Bulk Modulus (GPa) = 47.65078 56.08562 51.86820
# Shear Modulus (GPa) = 31.70280 33.60133 32.65206
#
# Velocity S-wave (km/s) = 3.87870 3.99315 3.93634
# Velocity P-wave (km/s) = 6.53233 6.91919 6.72854
#
# Compressibility (1/GPa) = 0.02098601
#
# Stress axis : x y z
#
# Youngs Moduli (GPa) = 65.86773 85.41478 124.24400
#
# Poissons Ratio (x) = 0.06150 0.40634
# Poissons Ratio (y) = 0.04742 0.37094
# Poissons Ratio (z) = 0.21542 0.25501
#
# Static dielectric constant tensor:
#      x y z
#    x 3.620830 0.000000 0.000000 
#    y 0.000000 4.195380 0.000000 
#    z 0.000000 0.000000 3.626000 
# 
# 
# High freq. dielectric constant tensor:
#      x y z
#    x 1.791910 0.000000 0.000000 
#    y 0.000000 1.856860 0.000000 
#    z 0.000000 0.000000 1.808990 
# 
# From -- ./inp_files/10780.got.cif
#   From: 2010.03.12/outbox.cif.g09.slc.cpg/sg41_6_cif.got.tgz:10780.got - 2010.04.14 01:55:53.
