data_PCOD8184831
_publ_section_title
;
Structure prediction by ZEFSAII (Michael W. Deem and Ramdas Pophale) SiO2 
 PCOD8184831
Probable space group: A B A 2
;
_chemical_formula_sum "Si O2"
_cell_formula_units_Z 64
_cell_length_a 28.658060
_cell_length_b 17.397795
_cell_length_c 5.623415
_cell_angle_alpha 90.000000
_cell_angle_beta 90.000000
_cell_angle_gamma 90.000000
_cell_volume 2803.761913
_symmetry_space_group_name_H-M "A B A 2"
_symmetry_group_IT_number 41
_symmetry_cell_setting 'orthorhombic'
loop_
_space_group_symop_operation_xyz
x,y,z
-x,-y,z
1/2-x,y,1/2+z
1/2+x,-y,1/2+z
x,1/2+y,1/2+z
-x,1/2-y,1/2+z
1/2-x,1/2+y,z
1/2+x,1/2-y,z
loop_
_atom_site_type_symbol
_atom_site_label
_atom_site_fract_x
_atom_site_fract_y
_atom_site_fract_z
Si Si1 0.000100 0.653975 0.731800
Si Si2 0.573203 0.230832 0.416309
Si Si3 0.935879 0.587279 0.108095
Si Si4 0.235708 0.461569 0.748702
Si Si5 0.560029 0.944112 0.409606
Si Si6 0.770482 0.367007 0.288613
Si Si7 0.131054 0.646645 0.126250
Si Si8 0.132914 0.005272 0.294670
O O1 0.045410 0.706099 0.764139
O O2 0.014609 0.587780 0.545594
O O3 0.957780 0.705339 0.639315
O O4 0.982604 0.614296 0.972346
O O5 0.585767 0.156801 0.260323
O O6 0.621025 0.270541 0.505140
O O7 0.956008 0.517442 0.260707
O O8 0.893647 0.559530 0.944648
O O9 0.255418 0.419210 0.507279
O O10 0.262972 0.541779 0.783822
O O11 0.180815 0.469724 0.701912
O O12 0.582169 0.877106 0.247731
O O13 0.601164 0.973108 0.576009
O O14 0.749037 0.332252 0.535745
O O15 0.825514 0.346337 0.305973
O O16 0.145727 0.582158 0.936860
#
# Coordination Sequence:
#
# PCOD8184831 Si02
#       8
#     8   8   8   8   8   8   8   8
#     4  12  25  46  68  94 130 187 238 281 348 421
#     4  12  25  45  66  92 136 183 233 281 344 425
#     4  11  28  45  65  97 135 182 227 293 355 416
#     4  10  19  34  64 101 139 177 223 290 352 429
#     4  11  25  44  69  99 137 171 236 297 346 416
#     4  10  19  35  64 105 141 176 229 293 351 419
#     4  11  23  39  68 105 134 180 230 288 349 416
#     4  11  22  41  66 102 136 173 228 289 358 414
#
# _framework density 22.826474999999999
#
# number of rings (size 3 to 8) (size 9 to 14) (size 15 to 20)
#    0.000    1.000    5.000    3.000    1.750    3.000 
#    0.000    0.000    0.000    1.500    0.000    0.000 
#    0.000    0.000    0.000    0.000    0.000    0.000 
#
# Total GULP energy -396785.735105 kJ/mol
# GULP energy per Si atom -12399.554222 kJ/mol
# Density = 2.277452 g / cm^3
# Si number density = 22.826475 Si / 1000 Ang^3
#
#
#
# Elastic Constant Matrix: (Units=GPa)
#
#
# Indices 1 2 3 4 5 6 
#
# 1 65.3889 22.4399 -0.7264 0.0000 0.0000 0.0000
# 2 22.4399 83.6440 15.2836 0.0000 0.0000 0.0000
# 3 -0.7264 15.2836 106.3873 0.0000 0.0000 0.0000
# 4 0.0000 0.0000 0.0000 18.6489 0.0000 0.0000
# 5 0.0000 0.0000 0.0000 0.0000 26.3095 0.0000
# 6 0.0000 0.0000 0.0000 0.0000 0.0000 5.0166
#
#
#
# Elastic Compliance Matrix: (Units=1/GPa)
#
#
# Indices 1 2 3 4 5 6 
#
# 1 0.016908 -0.004680 0.000788 0.000000 0.000000 0.000000
# 2 -0.004680 0.013573 -0.001982 0.000000 0.000000 0.000000
# 3 0.000788 -0.001982 0.009690 0.000000 0.000000 0.000000
# 4 0.000000 0.000000 0.000000 0.053623 0.000000 0.000000
# 5 0.000000 0.000000 0.000000 0.000000 0.038009 0.000000
# 6 0.000000 0.000000 0.000000 0.000000 0.000000 0.199340
#
#
# Mechanical properties :
#
#
# Convention : Reuss Voigt Hill
#
# Bulk Modulus (GPa) = 35.18329 36.60161 35.89245
# Shear Modulus (GPa) = 14.18985 24.55652 19.37318
#
# Velocity S-wave (km/s) = 2.49598 3.28348 2.91643
# Velocity P-wave (km/s) = 4.87374 5.51766 5.20567
#
# Compressibility (1/GPa) = 0.02842258
#
# Stress axis : x y z
#
# Youngs Moduli (GPa) = 59.14386 73.67519 103.20229
#
# Poissons Ratio (x) = 0.34480 -0.08130
# Poissons Ratio (y) = 0.27679 0.20453
# Poissons Ratio (z) = -0.04659 0.14601
#
# Static dielectric constant tensor:
#      x y z
#    x 4.086260 0.000000 0.000000 
#    y 0.000000 3.901930 0.000000 
#    z 0.000000 0.000000 4.931380 
# 
# 
# High freq. dielectric constant tensor:
#      x y z
#    x 1.900740 0.000000 0.000000 
#    y 0.000000 1.861900 0.000000 
#    z 0.000000 0.000000 1.921210 
# 
# From -- ./inp_files/1403.got.cif
#   From: 2010.03.12/outbox.cif.g09.slc.cpg/sg41_1_cif.got.tgz:1403.got - 2010.04.14 01:55:53.
