data_PCOD8184434
_publ_section_title
;
Structure prediction by ZEFSAII (Michael W. Deem and Ramdas Pophale) SiO2 
 PCOD8184434
Probable space group: A M A 2
;
_chemical_formula_sum "Si O2"
_cell_formula_units_Z 52
_cell_length_a 27.231881
_cell_length_b 12.107004
_cell_length_c 7.430863
_cell_angle_alpha 90.000000
_cell_angle_beta 90.000000
_cell_angle_gamma 90.000000
_cell_volume 2449.929465
_symmetry_space_group_name_H-M "A M A 2"
_symmetry_group_IT_number 40
_symmetry_cell_setting 'orthorhombic'
loop_
_space_group_symop_operation_xyz
x,y,z
-x,-y,z
1/2-x,y,z
1/2+x,-y,z
x,1/2+y,1/2+z
-x,1/2-y,1/2+z
1/2-x,1/2+y,1/2+z
1/2+x,1/2-y,1/2+z
loop_
_atom_site_type_symbol
_atom_site_label
_atom_site_fract_x
_atom_site_fract_y
_atom_site_fract_z
Si Si1 0.143601 0.371481 0.948700
Si Si2 0.905156 0.893852 0.448832
Si Si3 0.250000 0.619935 0.222941
Si Si4 0.516174 0.377775 0.259499
Si Si5 0.168426 0.773653 0.099061
Si Si6 0.934057 0.279617 0.611081
Si Si7 0.750000 0.557772 0.935317
Si Si8 0.250000 0.430141 0.515866
O O1 0.119743 0.489769 0.985151
O O2 0.135258 0.343750 0.737832
O O3 0.201720 0.374123 0.994749
O O4 0.117596 0.280263 0.071596
O O5 0.949086 0.879404 0.587313
O O6 0.865677 0.796202 0.468812
O O7 0.925249 0.882841 0.245289
O O8 0.201996 0.696536 0.228598
O O9 0.250000 0.536304 0.389576
O O10 0.250000 0.559731 0.031326
O O11 0.500000 0.500000 0.314864
O O12 0.543377 0.323837 0.427513
O O13 0.468720 0.307217 0.210769
O O14 0.201711 0.855689 0.977628
O O15 0.750000 0.531576 0.723209
#
# Coordination Sequence:
#
# PCOD8184434 Si02
#       8
#     8   8   4   8   8   8   4   4
#     4  11  24  46  69 104 144 179 235 288 339 412
#     4  12  25  43  70 101 139 175 229 286 343 415
#     4  11  21  43  69  92 141 188 229 289 343 390
#     4  12  26  47  71 101 137 175 233 286 352 415
#     4  10  23  43  65 101 138 178 234 284 337 419
#     4  12  27  44  74 105 134 188 223 288 358 415
#     4  10  22  42  66 102 140 182 232 282 332 414
#     4   9  23  41  65  96 137 182 233 283 335 406
#
# _framework density 21.225100999999999
#
# number of rings (size 3 to 8) (size 9 to 14) (size 15 to 20)
#    0.000    0.923    6.154    0.462    2.154    5.538 
#    0.000    2.308    0.000    0.000    0.000    0.000 
#    0.000    0.000    0.000    0.000    0.000    0.000 
#
# Total GULP energy -322462.658948 kJ/mol
# GULP energy per Si atom -12402.409960 kJ/mol
# Density = 2.117679 g / cm^3
# Si number density = 21.225101 Si / 1000 Ang^3
#
#
#
# Elastic Constant Matrix: (Units=GPa)
#
#
# Indices 1 2 3 4 5 6 
#
# 1 98.5588 23.2958 26.9079 0.0000 0.0000 0.0000
# 2 23.2958 75.7219 19.2715 0.0000 0.0000 0.0000
# 3 26.9079 19.2715 76.4878 0.0000 0.0000 0.0000
# 4 0.0000 0.0000 0.0000 40.5334 0.0000 0.0000
# 5 0.0000 0.0000 0.0000 0.0000 29.6306 0.0000
# 6 0.0000 0.0000 0.0000 0.0000 0.0000 22.2031
#
#
#
# Elastic Compliance Matrix: (Units=1/GPa)
#
#
# Indices 1 2 3 4 5 6 
#
# 1 0.011731 -0.002734 -0.003438 0.000000 0.000000 0.000000
# 2 -0.002734 0.014748 -0.002754 0.000000 0.000000 0.000000
# 3 -0.003438 -0.002754 0.014977 0.000000 0.000000 0.000000
# 4 0.000000 0.000000 0.000000 0.024671 0.000000 0.000000
# 5 0.000000 0.000000 0.000000 0.000000 0.033749 0.000000
# 6 0.000000 0.000000 0.000000 0.000000 0.000000 0.045039
#
#
# Mechanical properties :
#
#
# Convention : Reuss Voigt Hill
#
# Bulk Modulus (GPa) = 42.36508 43.30208 42.83358
# Shear Modulus (GPa) = 29.30216 30.55965 29.93091
#
# Velocity S-wave (km/s) = 3.71960 3.79857 3.75929
# Velocity P-wave (km/s) = 6.20084 6.29956 6.25040
#
# Compressibility (1/GPa) = 0.02360435
#
# Stress axis : x y z
#
# Youngs Moduli (GPa) = 85.24347 67.80453 66.76742
#
# Poissons Ratio (x) = 0.18538 0.22955
# Poissons Ratio (y) = 0.23306 0.18388
# Poissons Ratio (z) = 0.29307 0.18674
#
# Static dielectric constant tensor:
#      x y z
#    x 4.030530 0.000000 0.000000 
#    y 0.000000 3.917600 0.000000 
#    z 0.000000 0.000000 3.721180 
# 
# 
# High freq. dielectric constant tensor:
#      x y z
#    x 1.843740 0.000000 0.000000 
#    y 0.000000 1.838100 0.000000 
#    z 0.000000 0.000000 1.829110 
# 
# From -- ./inp_files/9145.got.cif
#   From: 2010.03.12/outbox.cif.g09.slc.cpg/sg40_5_cif.got.tgz:9145.got - 2010.04.14 01:38:03.
