data_PCOD8184861
_publ_section_title
;
Structure prediction by ZEFSAII (Michael W. Deem and Ramdas Pophale) SiO2 
 PCOD8184861
Probable space group: A B A 2
;
_chemical_formula_sum "Si O2"
_cell_formula_units_Z 52
_cell_length_a 23.293069
_cell_length_b 5.292085
_cell_length_c 18.653155
_cell_angle_alpha 90.000000
_cell_angle_beta 90.000000
_cell_angle_gamma 90.000000
_cell_volume 2299.353918
_symmetry_space_group_name_H-M "A B A 2"
_symmetry_group_IT_number 41
_symmetry_cell_setting 'orthorhombic'
loop_
_space_group_symop_operation_xyz
x,y,z
-x,-y,z
1/2-x,y,1/2+z
1/2+x,-y,1/2+z
x,1/2+y,1/2+z
-x,1/2-y,1/2+z
1/2-x,1/2+y,z
1/2+x,1/2-y,z
loop_
_atom_site_type_symbol
_atom_site_label
_atom_site_fract_x
_atom_site_fract_y
_atom_site_fract_z
Si Si1 0.562526 0.383049 0.438220
Si Si2 0.779615 0.875183 0.780023
Si Si3 0.395604 0.585736 0.166355
Si Si4 0.901105 0.171196 0.309220
Si Si5 0.936354 0.906970 0.596761
Si Si6 0.500000 0.000000 0.351120
Si Si7 0.767985 0.930230 0.123149
O O1 0.500000 0.500000 0.442581
O O2 0.604157 0.549945 0.388167
O O3 0.591096 0.371156 0.517172
O O4 0.550844 0.111874 0.401661
O O5 0.746148 0.632994 0.813749
O O6 0.847633 0.859182 0.796104
O O7 0.770131 0.877673 0.694591
O O8 0.399786 0.560781 0.252279
O O9 0.436717 0.368285 0.133615
O O10 0.332979 0.509064 0.140569
O O11 0.405732 0.875328 0.143473
O O12 0.963812 0.307428 0.300801
O O13 0.000000 0.000000 0.586320
O O14 0.759203 0.667571 0.079405
#
# Coordination Sequence:
#
# PCOD8184861 Si02
#       7
#     8   8   8   8   8   4   8
#     4   9  23  44  66  91 131 187 223 263 338 419
#     4  10  21  37  63  95 128 174 219 271 333 407
#     4  12  25  39  68 103 130 169 225 285 330 388
#     4  11  24  40  70 102 135 170 233 286 340 403
#     4  11  27  44  64  94 140 182 220 267 342 413
#     4  10  24  40  74  98 144 178 236 276 358 406
#     4  10  19  37  62  93 125 169 215 265 336 402
#
# _framework density 22.615047000000001
#
# number of rings (size 3 to 8) (size 9 to 14) (size 15 to 20)
#    0.000    1.538    3.077    1.385   14.000    2.462 
#    0.000    0.000    0.000    5.538    0.000    0.000 
#    0.000    0.000    0.000    0.000    0.000    0.000 
#
# Total GULP energy -322161.236808 kJ/mol
# GULP energy per Si atom -12390.816800 kJ/mol
# Density = 2.256357 g / cm^3
# Si number density = 22.615047 Si / 1000 Ang^3
#
#
#
# Elastic Constant Matrix: (Units=GPa)
#
#
# Indices 1 2 3 4 5 6 
#
# 1 72.5187 21.4414 12.3135 0.0000 0.0000 0.0000
# 2 21.4414 140.1273 12.1887 0.0000 0.0000 0.0000
# 3 12.3135 12.1887 69.7871 0.0000 0.0000 0.0000
# 4 0.0000 0.0000 0.0000 23.8742 0.0000 0.0000
# 5 0.0000 0.0000 0.0000 0.0000 8.4184 0.0000
# 6 0.0000 0.0000 0.0000 0.0000 0.0000 31.0679
#
#
#
# Elastic Compliance Matrix: (Units=1/GPa)
#
#
# Indices 1 2 3 4 5 6 
#
# 1 0.014782 -0.002066 -0.002247 0.000000 0.000000 0.000000
# 2 -0.002066 0.007535 -0.000951 0.000000 0.000000 0.000000
# 3 -0.002247 -0.000951 0.014892 0.000000 0.000000 0.000000
# 4 0.000000 0.000000 0.000000 0.041886 0.000000 0.000000
# 5 0.000000 0.000000 0.000000 0.000000 0.118787 0.000000
# 6 0.000000 0.000000 0.000000 0.000000 0.000000 0.032188
#
#
# Mechanical properties :
#
#
# Convention : Reuss Voigt Hill
#
# Bulk Modulus (GPa) = 37.48258 41.59115 39.53687
# Shear Modulus (GPa) = 20.04059 28.43806 24.23933
#
# Velocity S-wave (km/s) = 2.98008 3.54995 3.27742
# Velocity P-wave (km/s) = 5.33398 5.93580 5.64292
#
# Compressibility (1/GPa) = 0.02667906
#
# Stress axis : x y z
#
# Youngs Moduli (GPa) = 67.64941 132.70842 67.15014
#
# Poissons Ratio (x) = 0.27423 0.15091
# Poissons Ratio (y) = 0.13979 0.06389
# Poissons Ratio (z) = 0.15203 0.12627
#
# Static dielectric constant tensor:
#      x y z
#    x 3.943400 0.000000 0.000000 
#    y 0.000000 4.967230 0.000000 
#    z 0.000000 0.000000 4.105060 
# 
# 
# High freq. dielectric constant tensor:
#      x y z
#    x 1.882300 0.000000 0.000000 
#    y 0.000000 1.915810 0.000000 
#    z 0.000000 0.000000 1.844820 
# 
# From -- ./inp_files/11700.got.cif
#   From: 2010.03.12/outbox.cif.g09.slc.cpg/sg41_6_cif.got.tgz:11700.got - 2010.04.14 01:55:53.
