data_PCOD8184132
_publ_section_title
;
Structure prediction by ZEFSAII (Michael W. Deem and Ramdas Pophale) SiO2 
 PCOD8184132
Probable space group: A M A 2
;
_chemical_formula_sum "Si O2"
_cell_formula_units_Z 40
_cell_length_a 20.317691
_cell_length_b 10.333450
_cell_length_c 9.431001
_cell_angle_alpha 90.000000
_cell_angle_beta 90.000000
_cell_angle_gamma 90.000000
_cell_volume 1980.056051
_symmetry_space_group_name_H-M "A M A 2"
_symmetry_group_IT_number 40
_symmetry_cell_setting 'orthorhombic'
loop_
_space_group_symop_operation_xyz
x,y,z
-x,-y,z
1/2-x,y,z
1/2+x,-y,z
x,1/2+y,1/2+z
-x,1/2-y,1/2+z
1/2-x,1/2+y,1/2+z
1/2+x,1/2-y,1/2+z
loop_
_atom_site_type_symbol
_atom_site_label
_atom_site_fract_x
_atom_site_fract_y
_atom_site_fract_z
Si Si1 0.407017 0.134034 0.423990
Si Si2 0.591862 0.516393 0.634216
Si Si3 0.011880 0.706704 0.553646
Si Si4 0.069235 0.951778 0.690077
Si Si5 0.325284 0.375841 0.413512
O O1 0.402570 0.042357 0.289239
O O2 0.473637 0.225002 0.420846
O O3 0.342446 0.223764 0.423351
O O4 0.409657 0.046882 0.563618
O O5 0.546753 0.644821 0.649754
O O6 0.560315 0.413623 0.520715
O O7 0.661898 0.558325 0.567549
O O8 0.058223 0.806825 0.635268
O O9 0.128362 0.949049 0.801192
O O10 0.000000 0.000000 0.758044
O O11 0.250000 0.393373 0.368634
#
# Coordination Sequence:
#
# PCOD8184132 Si02
#       5
#     8   8   8   8   8
#     4  10  22  40  63  90 125 163 205 264 317 378
#     4  10  21  37  62  91 127 162 204 256 317 372
#     4   9  20  33  61  97 123 150 200 255 318 372
#     4  10  22  39  65  97 126 159 207 264 323 377
#     4  11  25  43  60  87 126 172 215 260 315 383
#
# _framework density 20.201449
#
# number of rings (size 3 to 8) (size 9 to 14) (size 15 to 20)
#    0.000    2.000    2.000    0.000   14.000    1.600 
#    3.600    0.000    0.000    0.000    0.000    0.000 
#    0.000    0.000    0.000    0.000    0.000    0.000 
#
# Total GULP energy -247766.037249 kJ/mol
# GULP energy per Si atom -12388.301862 kJ/mol
# Density = 2.015547 g / cm^3
# Si number density = 20.201449 Si / 1000 Ang^3
#
#
#
# Elastic Constant Matrix: (Units=GPa)
#
#
# Indices 1 2 3 4 5 6 
#
# 1 144.4818 43.7436 60.3970 0.0000 0.0000 0.0000
# 2 43.7436 97.3119 45.5026 0.0000 0.0000 0.0000
# 3 60.3970 45.5026 104.3557 0.0000 0.0000 0.0000
# 4 0.0000 0.0000 0.0000 30.7894 0.0000 0.0000
# 5 0.0000 0.0000 0.0000 0.0000 21.1656 0.0000
# 6 0.0000 0.0000 0.0000 0.0000 0.0000 19.6613
#
#
#
# Elastic Compliance Matrix: (Units=1/GPa)
#
#
# Indices 1 2 3 4 5 6 
#
# 1 0.009468 -0.002128 -0.004552 0.000000 0.000000 0.000000
# 2 -0.002128 0.013386 -0.004605 0.000000 0.000000 0.000000
# 3 -0.004552 -0.004605 0.014225 0.000000 0.000000 0.000000
# 4 0.000000 0.000000 0.000000 0.032479 0.000000 0.000000
# 5 0.000000 0.000000 0.000000 0.000000 0.047246 0.000000
# 6 0.000000 0.000000 0.000000 0.000000 0.000000 0.050861
#
#
# Mechanical properties :
#
#
# Convention : Reuss Voigt Hill
#
# Bulk Modulus (GPa) = 68.92100 71.71508 70.31804
# Shear Modulus (GPa) = 25.63140 27.42368 26.52754
#
# Velocity S-wave (km/s) = 3.56587 3.68844 3.62767
# Velocity P-wave (km/s) = 7.15156 7.32915 7.24090
#
# Compressibility (1/GPa) = 0.01450937
#
# Stress axis : x y z
#
# Youngs Moduli (GPa) = 105.61458 74.70430 70.29696
#
# Poissons Ratio (x) = 0.15894 0.32001
# Poissons Ratio (y) = 0.22471 0.32375
# Poissons Ratio (z) = 0.48078 0.34404
#
# Static dielectric constant tensor:
#      x y z
#    x 3.342890 0.000000 0.000000 
#    y 0.000000 4.081390 0.000000 
#    z 0.000000 0.000000 3.535860 
# 
# 
# High freq. dielectric constant tensor:
#      x y z
#    x 1.747230 0.000000 0.000000 
#    y 0.000000 1.815590 0.000000 
#    z 0.000000 0.000000 1.780900 
# 
# From -- ./inp_files/8081.got.cif
#   From: 2010.03.12/outbox.cif.g09.slc.cpg/sg40_5_cif.got.tgz:8081.got - 2010.04.14 01:38:03.
