data_PCOD8184235
_publ_section_title
;
Structure prediction by ZEFSAII (Michael W. Deem and Ramdas Pophale) SiO2 
 PCOD8184235
Probable space group: A M A 2
;
_chemical_formula_sum "Si O2"
_cell_formula_units_Z 64
_cell_length_a 13.497007
_cell_length_b 21.885475
_cell_length_c 9.951278
_cell_angle_alpha 90.000000
_cell_angle_beta 90.000000
_cell_angle_gamma 90.000000
_cell_volume 2939.492179
_symmetry_space_group_name_H-M "A M A 2"
_symmetry_group_IT_number 40
_symmetry_cell_setting 'orthorhombic'
loop_
_space_group_symop_operation_xyz
x,y,z
-x,-y,z
1/2-x,y,z
1/2+x,-y,z
x,1/2+y,1/2+z
-x,1/2-y,1/2+z
1/2-x,1/2+y,1/2+z
1/2+x,1/2-y,1/2+z
loop_
_atom_site_type_symbol
_atom_site_label
_atom_site_fract_x
_atom_site_fract_y
_atom_site_fract_z
Si Si1 0.638800 0.112847 0.227850
Si Si2 0.529485 0.352922 0.306359
Si Si3 0.450005 0.781734 0.369930
Si Si4 0.859631 0.914067 0.567370
Si Si5 0.637011 0.162475 0.627128
Si Si6 0.638838 0.353135 0.781519
Si Si7 0.475397 0.571818 0.562550
Si Si8 0.362457 0.960543 0.476723
O O1 0.750000 0.095569 0.194203
O O2 0.633409 0.181136 0.287178
O O3 0.577735 0.107176 0.091766
O O4 0.590384 0.065679 0.337901
O O5 0.575348 0.289593 0.358582
O O6 0.576672 0.372927 0.165877
O O7 0.413614 0.338420 0.274739
O O8 0.552170 0.406723 0.412617
O O9 0.432929 0.797839 0.526852
O O10 0.557522 0.799063 0.302955
O O11 0.750000 0.922437 0.630602
O O12 0.852893 0.883590 0.424266
O O13 0.914661 0.979291 0.539709
O O14 0.750000 0.187876 0.633581
O O15 0.636968 0.092105 0.585772
O O16 0.750000 0.328585 0.741644
O O17 0.605822 0.404003 0.670289
O O18 0.500000 0.500000 0.568485
O O19 0.250000 0.980075 0.441736
#
# Coordination Sequence:
#
# PCOD8184235 Si02
#       8
#     8   8   8   8   8   8   8   8
#     4   9  19  40  70  95 121 166 224 279 324 383
#     4  12  27  41  62  97 138 172 219 272 332 398
#     4  10  22  42  65  96 131 165 221 279 326 391
#     4  10  21  39  66  97 127 165 216 274 328 387
#     4  10  22  42  67  94 127 174 219 265 327 392
#     4  10  22  43  70  97 128 173 223 272 330 396
#     4  11  26  42  60  98 140 181 215 266 339 405
#     4   8  16  34  64  97 121 156 215 267 314 376
#
# _framework density 21.772468
#
# number of rings (size 3 to 8) (size 9 to 14) (size 15 to 20)
#    0.000    2.000    1.250    1.875    5.250    4.000 
#    0.000    1.250    0.000    0.000    0.000    0.000 
#    0.000    0.000    0.000    0.000    0.000    0.000 
#
# Total GULP energy -396471.559808 kJ/mol
# GULP energy per Si atom -12389.736244 kJ/mol
# Density = 2.172291 g / cm^3
# Si number density = 21.772468 Si / 1000 Ang^3
#
#
#
# Elastic Constant Matrix: (Units=GPa)
#
#
# Indices 1 2 3 4 5 6 
#
# 1 92.8331 10.9870 27.4073 0.0000 0.0000 0.0000
# 2 10.9870 102.3943 22.0768 0.0000 0.0000 0.0000
# 3 27.4073 22.0768 92.3879 0.0000 0.0000 0.0000
# 4 0.0000 0.0000 0.0000 22.2950 0.0000 0.0000
# 5 0.0000 0.0000 0.0000 0.0000 15.9189 0.0000
# 6 0.0000 0.0000 0.0000 0.0000 0.0000 17.0455
#
#
#
# Elastic Compliance Matrix: (Units=1/GPa)
#
#
# Indices 1 2 3 4 5 6 
#
# 1 0.011834 -0.000541 -0.003381 0.000000 0.000000 0.000000
# 2 -0.000541 0.010321 -0.002306 0.000000 0.000000 0.000000
# 3 -0.003381 -0.002306 0.012378 0.000000 0.000000 0.000000
# 4 0.000000 0.000000 0.000000 0.044853 0.000000 0.000000
# 5 0.000000 0.000000 0.000000 0.000000 0.062818 0.000000
# 6 0.000000 0.000000 0.000000 0.000000 0.000000 0.058666
#
#
# Mechanical properties :
#
#
# Convention : Reuss Voigt Hill
#
# Bulk Modulus (GPa) = 45.29524 45.39529 45.34526
# Shear Modulus (GPa) = 22.65650 26.19483 24.42566
#
# Velocity S-wave (km/s) = 3.22934 3.47236 3.35305
# Velocity P-wave (km/s) = 5.89524 6.08042 5.98855
#
# Compressibility (1/GPa) = 0.02207738
#
# Stress axis : x y z
#
# Youngs Moduli (GPa) = 84.49983 96.88633 80.78789
#
# Poissons Ratio (x) = 0.05239 0.27318
# Poissons Ratio (y) = 0.04569 0.18629
# Poissons Ratio (z) = 0.28574 0.22342
#
# Static dielectric constant tensor:
#      x y z
#    x 4.369100 0.000000 0.000000 
#    y 0.000000 3.858520 0.000000 
#    z 0.000000 0.000000 3.733140 
# 
# 
# High freq. dielectric constant tensor:
#      x y z
#    x 1.857730 0.000000 0.000000 
#    y 0.000000 1.852240 0.000000 
#    z 0.000000 0.000000 1.838620 
# 
# From -- ./inp_files/6914.got.cif
#   From: 2010.03.12/outbox.cif.g09.slc.cpg/sg40_4_cif.got.tgz:6914.got - 2010.04.14 01:38:03.
