data_PCOD8184657
_publ_section_title
;
Structure prediction by ZEFSAII (Michael W. Deem and Ramdas Pophale) SiO2 
 PCOD8184657
Probable space group: A M A 2
;
_chemical_formula_sum "Si O2"
_cell_formula_units_Z 40
_cell_length_a 18.551383
_cell_length_b 17.333199
_cell_length_c 5.218625
_cell_angle_alpha 90.000000
_cell_angle_beta 90.000000
_cell_angle_gamma 90.000000
_cell_volume 1678.073987
_symmetry_space_group_name_H-M "A M A 2"
_symmetry_group_IT_number 40
_symmetry_cell_setting 'orthorhombic'
loop_
_space_group_symop_operation_xyz
x,y,z
-x,-y,z
1/2-x,y,z
1/2+x,-y,z
x,1/2+y,1/2+z
-x,1/2-y,1/2+z
1/2-x,1/2+y,1/2+z
1/2+x,1/2-y,1/2+z
loop_
_atom_site_type_symbol
_atom_site_label
_atom_site_fract_x
_atom_site_fract_y
_atom_site_fract_z
Si Si1 0.597147 0.296764 0.945570
Si Si2 0.667351 0.952057 0.494506
Si Si3 0.670167 0.166771 0.656815
Si Si4 0.053489 0.346530 0.761362
Si Si5 0.874311 0.536852 0.475605
O O1 0.631816 0.247854 0.716660
O O2 0.526334 0.344566 0.869567
O O3 0.656438 0.360166 0.017403
O O4 0.575197 0.239453 0.173054
O O5 0.750000 0.971507 0.565113
O O6 0.616312 0.987101 0.717277
O O7 0.652536 0.983272 0.208182
O O8 0.750000 0.181871 0.543013
O O9 0.616895 0.125247 0.454309
O O10 0.678256 0.109745 0.902725
O O11 0.052194 0.415650 0.549616
#
# Coordination Sequence:
#
# PCOD8184657 Si02
#       5
#     8   8   8   8   8
#     4  11  26  45  72 107 150 188 242 303 365 425
#     4  12  26  47  73 109 148 187 242 306 364 426
#     4  11  23  45  76 105 141 194 246 294 358 434
#     4  11  24  48  73 106 146 196 245 295 358 443
#     4  11  26  47  73 103 148 192 241 294 364 437
#
# _framework density 23.836850999999999
#
# number of rings (size 3 to 8) (size 9 to 14) (size 15 to 20)
#    0.000    0.800    4.000    2.400    2.800    5.600 
#    3.600    0.000    0.000    0.000    0.000    0.000 
#    0.000    0.000    0.000    0.000    0.000    0.000 
#
# Total GULP energy -247789.922841 kJ/mol
# GULP energy per Si atom -12389.496142 kJ/mol
# Density = 2.378260 g / cm^3
# Si number density = 23.836851 Si / 1000 Ang^3
#
#
#
# Elastic Constant Matrix: (Units=GPa)
#
#
# Indices 1 2 3 4 5 6 
#
# 1 69.9363 -4.0634 13.6563 0.0000 0.0000 0.0000
# 2 -4.0634 106.5013 37.6271 0.0000 0.0000 0.0000
# 3 13.6563 37.6271 115.3058 0.0000 0.0000 0.0000
# 4 0.0000 0.0000 0.0000 34.8845 0.0000 0.0000
# 5 0.0000 0.0000 0.0000 0.0000 23.8951 0.0000
# 6 0.0000 0.0000 0.0000 0.0000 0.0000 15.3873
#
#
#
# Elastic Compliance Matrix: (Units=1/GPa)
#
#
# Indices 1 2 3 4 5 6 
#
# 1 0.014804 0.001339 -0.002190 0.000000 0.000000 0.000000
# 2 0.001339 0.010734 -0.003661 0.000000 0.000000 0.000000
# 3 -0.002190 -0.003661 0.010127 0.000000 0.000000 0.000000
# 4 0.000000 0.000000 0.000000 0.028666 0.000000 0.000000
# 5 0.000000 0.000000 0.000000 0.000000 0.041850 0.000000
# 6 0.000000 0.000000 0.000000 0.000000 0.000000 0.064989
#
#
# Mechanical properties :
#
#
# Convention : Reuss Voigt Hill
#
# Bulk Modulus (GPa) = 37.53850 42.90926 40.22388
# Shear Modulus (GPa) = 26.44451 31.13495 28.78973
#
# Velocity S-wave (km/s) = 3.33437 3.61802 3.47909
# Velocity P-wave (km/s) = 5.53230 5.95766 5.74891
#
# Compressibility (1/GPa) = 0.02663932
#
# Stress axis : x y z
#
# Youngs Moduli (GPa) = 67.54859 93.16019 98.74810
#
# Poissons Ratio (x) = -0.12471 0.21627
# Poissons Ratio (y) = -0.09042 0.36155
# Poissons Ratio (z) = 0.14794 0.34109
#
# Static dielectric constant tensor:
#      x y z
#    x 4.086620 0.000000 0.000000 
#    y 0.000000 4.371280 0.000000 
#    z 0.000000 0.000000 4.233530 
# 
# 
# High freq. dielectric constant tensor:
#      x y z
#    x 1.925990 0.000000 0.000000 
#    y 0.000000 1.964330 0.000000 
#    z 0.000000 0.000000 1.941580 
# 
# From -- ./inp_files/1729.got.cif
#   From: 2010.03.12/outbox.cif.g09.slc.cpg/sg40_1_cif.got.tgz:1729.got - 2010.04.14 01:38:03.
