data_PCOD8184168
_publ_section_title
;
Structure prediction by ZEFSAII (Michael W. Deem and Ramdas Pophale) SiO2 
 PCOD8184168
Probable space group: A M A 2
;
_chemical_formula_sum "Si O2"
_cell_formula_units_Z 48
_cell_length_a 8.496178
_cell_length_b 9.098038
_cell_length_c 30.136357
_cell_angle_alpha 90.000000
_cell_angle_beta 90.000000
_cell_angle_gamma 90.000000
_cell_volume 2329.496707
_symmetry_space_group_name_H-M "A M A 2"
_symmetry_group_IT_number 40
_symmetry_cell_setting 'orthorhombic'
loop_
_space_group_symop_operation_xyz
x,y,z
-x,-y,z
1/2-x,y,z
1/2+x,-y,z
x,1/2+y,1/2+z
-x,1/2-y,1/2+z
1/2-x,1/2+y,1/2+z
1/2+x,1/2-y,1/2+z
loop_
_atom_site_type_symbol
_atom_site_label
_atom_site_fract_x
_atom_site_fract_y
_atom_site_fract_z
Si Si1 0.565567 0.661408 0.642350
Si Si2 0.065357 0.339651 0.061328
Si Si3 0.067094 0.838502 0.722064
Si Si4 0.934612 0.660129 0.902528
Si Si5 0.565207 0.160290 0.980810
Si Si6 0.567923 0.346916 0.808031
O O1 0.500000 0.500000 0.648682
O O2 0.750000 0.659596 0.631531
O O3 0.473235 0.735681 0.602316
O O4 0.534878 0.745669 0.687863
O O5 0.250000 0.348457 0.054104
O O6 0.000000 0.500000 0.072135
O O7 0.989058 0.278093 0.016836
O O8 0.250000 0.835373 0.708073
O O9 0.042405 0.776241 0.771221
O O10 0.000000 0.000000 0.721750
O O11 0.750000 0.659318 0.909904
O O12 0.000000 0.500000 0.915523
O O13 0.008698 0.786493 0.932806
O O14 0.975521 0.701557 0.852037
O O15 0.750000 0.149309 0.981294
O O16 0.500000 0.000000 0.992433
O O17 0.500000 0.500000 0.789428
O O18 0.750000 0.368930 0.820435
#
# Coordination Sequence:
#
# PCOD8184168 Si02
#       6
#     8   8   8   8   8   8
#     4  12  25  43  66  93 125 162 204 251 304 362
#     4  12  25  44  67  94 126 162 204 250 303 360
#     4  11  24  41  62  90 124 163 206 253 306 363
#     4  11  22  39  63  91 123 162 206 253 306 363
#     4  12  25  43  64  91 125 162 205 252 305 363
#     4  10  21  38  61  89 121 159 205 255 308 365
#
# _framework density 20.605308999999998
#
# number of rings (size 3 to 8) (size 9 to 14) (size 15 to 20)
#    0.000    0.667    0.000   10.000    0.000    4.667 
#    0.000    1.667    0.000    0.000    0.000    0.000 
#    0.000    0.000    0.000    0.000    0.000    0.000 
#
# Total GULP energy -297793.502326 kJ/mol
# GULP energy per Si atom -12408.062597 kJ/mol
# Density = 2.055841 g / cm^3
# Si number density = 20.605309 Si / 1000 Ang^3
#
#
#
# Elastic Constant Matrix: (Units=GPa)
#
#
# Indices 1 2 3 4 5 6 
#
# 1 159.8116 37.9812 32.3902 0.0000 0.0000 0.0000
# 2 37.9812 126.6622 44.8897 0.0000 0.0000 0.0000
# 3 32.3902 44.8897 88.6925 0.0000 0.0000 0.0000
# 4 0.0000 0.0000 0.0000 66.9501 0.0000 0.0000
# 5 0.0000 0.0000 0.0000 0.0000 73.7572 0.0000
# 6 0.0000 0.0000 0.0000 0.0000 0.0000 37.4047
#
#
#
# Elastic Compliance Matrix: (Units=1/GPa)
#
#
# Indices 1 2 3 4 5 6 
#
# 1 0.006969 -0.001447 -0.001812 0.000000 0.000000 0.000000
# 2 -0.001447 0.009921 -0.004493 0.000000 0.000000 0.000000
# 3 -0.001812 -0.004493 0.014211 0.000000 0.000000 0.000000
# 4 0.000000 0.000000 0.000000 0.014937 0.000000 0.000000
# 5 0.000000 0.000000 0.000000 0.000000 0.013558 0.000000
# 6 0.000000 0.000000 0.000000 0.000000 0.000000 0.026735
#
#
# Mechanical properties :
#
#
# Convention : Reuss Voigt Hill
#
# Bulk Modulus (GPa) = 64.12096 67.29871 65.70984
# Shear Modulus (GPa) = 46.71430 52.94942 49.83186
#
# Velocity S-wave (km/s) = 4.76657 5.07472 4.92306
# Velocity P-wave (km/s) = 7.84091 8.18955 8.01713
#
# Compressibility (1/GPa) = 0.01559552
#
# Stress axis : x y z
#
# Youngs Moduli (GPa) = 143.49935 100.79312 70.36920
#
# Poissons Ratio (x) = 0.14588 0.12754
# Poissons Ratio (y) = 0.20769 0.31616
# Poissons Ratio (z) = 0.26008 0.45285
#
# Static dielectric constant tensor:
#      x y z
#    x 3.926020 0.000000 0.000000 
#    y 0.000000 3.824150 0.000000 
#    z 0.000000 0.000000 3.842880 
# 
# 
# High freq. dielectric constant tensor:
#      x y z
#    x 1.829130 0.000000 0.000000 
#    y 0.000000 1.815020 0.000000 
#    z 0.000000 0.000000 1.819380 
# 
# From -- ./inp_files/26141.got.cif
#   From: 2010.03.12/outbox.cif.g09.slc.cpg/sg40_14_cif.got.tgz:26141.got - 2010.04.14 01:38:03.
