data_PCOD8184994
_publ_section_title
;
Structure prediction by ZEFSAII (Michael W. Deem and Ramdas Pophale) SiO2 
 PCOD8184994
Probable space group: A B A 2
;
_chemical_formula_sum "Si O2"
_cell_formula_units_Z 64
_cell_length_a 12.414822
_cell_length_b 16.965406
_cell_length_c 14.687567
_cell_angle_alpha 90.000000
_cell_angle_beta 90.000000
_cell_angle_gamma 90.000000
_cell_volume 3093.532017
_symmetry_space_group_name_H-M "A B A 2"
_symmetry_group_IT_number 41
_symmetry_cell_setting 'orthorhombic'
loop_
_space_group_symop_operation_xyz
x,y,z
-x,-y,z
1/2-x,y,1/2+z
1/2+x,-y,1/2+z
x,1/2+y,1/2+z
-x,1/2-y,1/2+z
1/2-x,1/2+y,z
1/2+x,1/2-y,z
loop_
_atom_site_type_symbol
_atom_site_label
_atom_site_fract_x
_atom_site_fract_y
_atom_site_fract_z
Si Si1 0.584505 0.277974 0.245040
Si Si2 0.757097 0.443395 0.969187
Si Si3 0.083309 0.934812 0.528921
Si Si4 0.116278 0.271164 0.618975
Si Si5 0.628241 0.986538 0.299127
Si Si6 0.209279 0.870452 0.696615
Si Si7 0.750236 0.380388 0.162364
Si Si8 0.072009 0.688107 0.945216
O O1 0.488527 0.256574 0.178247
O O2 0.673105 0.209863 0.243718
O O3 0.639962 0.361116 0.216464
O O4 0.539507 0.280524 0.346703
O O5 0.657370 0.456966 0.900974
O O6 0.820082 0.364603 0.938949
O O7 0.830893 0.521688 0.963895
O O8 0.719763 0.434261 0.074782
O O9 0.130495 0.895420 0.617411
O O10 0.027809 0.865634 0.473529
O O11 0.000000 0.000000 0.565351
O O12 0.172715 0.353445 0.650790
O O13 0.199548 0.200255 0.628018
O O14 0.084056 0.264689 0.511817
O O15 0.660705 0.920902 0.225670
O O16 0.500000 0.000000 0.294826
O O17 0.702805 0.062472 0.274349
#
# Coordination Sequence:
#
# PCOD8184994 Si02
#       8
#     8   8   8   8   8   8   8   8
#     4  11  22  43  63  94 132 168 214 264 335 385
#     4  10  22  41  66  96 124 164 219 269 311 386
#     4  10  20  39  70  90 122 169 221 264 318 387
#     4  10  23  41  63  96 128 169 216 267 327 387
#     4  12  24  42  69  98 128 174 223 268 330 390
#     4  11  23  40  64  95 129 165 216 274 318 386
#     4  10  22  45  67  88 134 173 212 265 328 390
#     4  10  21  41  69  91 124 173 212 257 333 392
#
# _framework density 20.688326
#
# number of rings (size 3 to 8) (size 9 to 14) (size 15 to 20)
#    0.000    1.500    3.750    1.125    3.500    1.000 
#    9.000    0.625    0.000    0.000    0.000    0.000 
#    0.000    0.000    0.000    0.000    0.000    0.000 
#
# Total GULP energy -396678.300828 kJ/mol
# GULP energy per Si atom -12396.196901 kJ/mol
# Density = 2.064124 g / cm^3
# Si number density = 20.688326 Si / 1000 Ang^3
#
#
#
# Elastic Constant Matrix: (Units=GPa)
#
#
# Indices 1 2 3 4 5 6 
#
# 1 47.0141 15.4348 42.9175 0.0000 0.0000 0.0000
# 2 15.4348 54.5224 22.3895 0.0000 0.0000 0.0000
# 3 42.9175 22.3895 148.0132 0.0000 0.0000 0.0000
# 4 0.0000 0.0000 0.0000 21.3870 0.0000 0.0000
# 5 0.0000 0.0000 0.0000 0.0000 27.4362 0.0000
# 6 0.0000 0.0000 0.0000 0.0000 0.0000 25.0142
#
#
#
# Elastic Compliance Matrix: (Units=1/GPa)
#
#
# Indices 1 2 3 4 5 6 
#
# 1 0.030298 -0.005299 -0.007984 0.000000 0.000000 0.000000
# 2 -0.005299 0.020482 -0.001562 0.000000 0.000000 0.000000
# 3 -0.007984 -0.001562 0.009307 0.000000 0.000000 0.000000
# 4 0.000000 0.000000 0.000000 0.046757 0.000000 0.000000
# 5 0.000000 0.000000 0.000000 0.000000 0.036448 0.000000
# 6 0.000000 0.000000 0.000000 0.000000 0.000000 0.039977
#
#
# Mechanical properties :
#
#
# Convention : Reuss Voigt Hill
#
# Bulk Modulus (GPa) = 32.89550 45.67036 39.28293
# Shear Modulus (GPa) = 22.41232 26.02133 24.21682
#
# Velocity S-wave (km/s) = 3.29497 3.55036 3.42505
# Velocity P-wave (km/s) = 5.51460 6.23940 5.88816
#
# Compressibility (1/GPa) = 0.03039929
#
# Stress axis : x y z
#
# Youngs Moduli (GPa) = 33.00586 48.82219 107.44240
#
# Poissons Ratio (x) = 0.25869 0.85777
# Poissons Ratio (y) = 0.17488 0.16782
# Poissons Ratio (z) = 0.26350 0.07626
#
# Static dielectric constant tensor:
#      x y z
#    x 3.719360 0.000000 0.000000 
#    y 0.000000 3.978220 0.000000 
#    z 0.000000 0.000000 3.864640 
# 
# 
# High freq. dielectric constant tensor:
#      x y z
#    x 1.794820 0.000000 0.000000 
#    y 0.000000 1.804420 0.000000 
#    z 0.000000 0.000000 1.816140 
# 
# From -- ./inp_files/8089.got.cif
#   From: 2010.03.12/outbox.cif.g09.slc.cpg/sg41_5_cif.got.tgz:8089.got - 2010.04.14 01:55:53.
