data_PCOD8184149
_publ_section_title
;
Structure prediction by ZEFSAII (Michael W. Deem and Ramdas Pophale) SiO2 
 PCOD8184149
Probable space group: A M A 2
;
_chemical_formula_sum "Si O2"
_cell_formula_units_Z 32
_cell_length_a 17.254701
_cell_length_b 13.675415
_cell_length_c 7.509591
_cell_angle_alpha 90.000000
_cell_angle_beta 90.000000
_cell_angle_gamma 90.000000
_cell_volume 1772.002119
_symmetry_space_group_name_H-M "A M A 2"
_symmetry_group_IT_number 40
_symmetry_cell_setting 'orthorhombic'
loop_
_space_group_symop_operation_xyz
x,y,z
-x,-y,z
1/2-x,y,z
1/2+x,-y,z
x,1/2+y,1/2+z
-x,1/2-y,1/2+z
1/2-x,1/2+y,1/2+z
1/2+x,1/2-y,1/2+z
loop_
_atom_site_type_symbol
_atom_site_label
_atom_site_fract_x
_atom_site_fract_y
_atom_site_fract_z
Si Si1 0.400211 0.237104 0.360000
Si Si2 0.160265 0.893696 0.629101
Si Si3 0.160835 0.114912 0.672519
Si Si4 0.072256 0.728947 0.474696
O O1 0.356048 0.339648 0.318552
O O2 0.347301 0.171914 0.487173
O O3 0.481042 0.260042 0.453650
O O4 0.413083 0.181166 0.170550
O O5 0.250000 0.889001 0.577689
O O6 0.112432 0.836999 0.473346
O O7 0.131348 0.004753 0.642588
O O8 0.250000 0.117257 0.734930
O O9 0.107652 0.160975 0.823970
#
# Coordination Sequence:
#
# PCOD8184149 Si02
#       4
#     8   8   8   8
#     4  10  21  38  59  85 117 150 191 235 283 339
#     4   9  21  39  58  85 118 145 191 242 280 341
#     4  11  21  39  62  83 114 155 187 236 294 335
#     4  10  21  38  59  85 117 150 191 235 283 339
#
# _framework density 18.058668999999998
#
# number of rings (size 3 to 8) (size 9 to 14) (size 15 to 20)
#    1.500    0.500    2.500    1.500    0.000    4.000 
#    4.500    2.500    0.000    0.000    0.000    0.000 
#    0.000    0.000    0.000    0.000    0.000    0.000 
#
# Total GULP energy -198286.662117 kJ/mol
# GULP energy per Si atom -12392.916382 kJ/mol
# Density = 1.801757 g / cm^3
# Si number density = 18.058669 Si / 1000 Ang^3
#
#
#
# Elastic Constant Matrix: (Units=GPa)
#
#
# Indices 1 2 3 4 5 6 
#
# 1 54.5920 17.3352 -8.4756 0.0000 0.0000 0.0000
# 2 17.3352 98.9702 8.0817 0.0000 0.0000 0.0000
# 3 -8.4756 8.0817 65.0404 0.0000 0.0000 0.0000
# 4 0.0000 0.0000 0.0000 30.1670 0.0000 0.0000
# 5 0.0000 0.0000 0.0000 0.0000 29.9450 0.0000
# 6 0.0000 0.0000 0.0000 0.0000 0.0000 11.8208
#
#
#
# Elastic Compliance Matrix: (Units=1/GPa)
#
#
# Indices 1 2 3 4 5 6 
#
# 1 0.019986 -0.003751 0.003071 0.000000 0.000000 0.000000
# 2 -0.003751 0.010912 -0.001845 0.000000 0.000000 0.000000
# 3 0.003071 -0.001845 0.016004 0.000000 0.000000 0.000000
# 4 0.000000 0.000000 0.000000 0.033149 0.000000 0.000000
# 5 0.000000 0.000000 0.000000 0.000000 0.033395 0.000000
# 6 0.000000 0.000000 0.000000 0.000000 0.000000 0.084597
#
#
# Mechanical properties :
#
#
# Convention : Reuss Voigt Hill
#
# Bulk Modulus (GPa) = 23.89445 28.05390 25.97418
# Shear Modulus (GPa) = 23.03690 27.83065 25.43378
#
# Velocity S-wave (km/s) = 3.57553 3.92997 3.75693
# Velocity P-wave (km/s) = 5.50510 6.01345 5.76488
#
# Compressibility (1/GPa) = 0.04185072
#
# Stress axis : x y z
#
# Youngs Moduli (GPa) = 50.03603 91.64431 62.48282
#
# Poissons Ratio (x) = 0.34379 -0.19185
# Poissons Ratio (y) = 0.18770 0.11526
# Poissons Ratio (z) = -0.15364 0.16906
#
# Static dielectric constant tensor:
#      x y z
#    x 3.318560 0.000000 0.000000 
#    y 0.000000 3.288770 0.000000 
#    z 0.000000 0.000000 3.242210 
# 
# 
# High freq. dielectric constant tensor:
#      x y z
#    x 1.713400 0.000000 0.000000 
#    y 0.000000 1.684100 0.000000 
#    z 0.000000 0.000000 1.691670 
# 
# From -- ./inp_files/2545.got.cif
#   From: 2010.03.12/outbox.cif.g09.slc.cpg/sg40_2_cif.got.tgz:2545.got - 2010.04.14 01:38:03.
