data_PCOD8184845
_publ_section_title
;
Structure prediction by ZEFSAII (Michael W. Deem and Ramdas Pophale) SiO2 
 PCOD8184845
Probable space group: A B A 2
;
_chemical_formula_sum "Si O2"
_cell_formula_units_Z 64
_cell_length_a 31.165707
_cell_length_b 8.404986
_cell_length_c 12.094611
_cell_angle_alpha 90.000000
_cell_angle_beta 90.000000
_cell_angle_gamma 90.000000
_cell_volume 3168.151071
_symmetry_space_group_name_H-M "A B A 2"
_symmetry_group_IT_number 41
_symmetry_cell_setting 'orthorhombic'
loop_
_space_group_symop_operation_xyz
x,y,z
-x,-y,z
1/2-x,y,1/2+z
1/2+x,-y,1/2+z
x,1/2+y,1/2+z
-x,1/2-y,1/2+z
1/2-x,1/2+y,z
1/2+x,1/2-y,z
loop_
_atom_site_type_symbol
_atom_site_label
_atom_site_fract_x
_atom_site_fract_y
_atom_site_fract_z
Si Si1 0.543257 0.433590 0.937010
Si Si2 0.395050 0.300860 0.348263
Si Si3 0.398127 0.482881 0.576875
Si Si4 0.063789 0.315194 0.627264
Si Si5 0.701429 0.164661 0.856373
Si Si6 0.019388 0.836901 0.591435
Si Si7 0.762409 0.377214 0.731364
Si Si8 0.197544 0.411107 0.107885
O O1 0.500000 0.500000 0.875066
O O2 0.582085 0.375212 0.858142
O O3 0.560693 0.549004 0.033782
O O4 0.526869 0.268841 0.985255
O O5 0.400541 0.421666 0.450132
O O6 0.413362 0.384214 0.236911
O O7 0.345058 0.260034 0.333959
O O8 0.408251 0.670410 0.577301
O O9 0.434380 0.382180 0.647164
O O10 0.352105 0.452084 0.630705
O O11 0.016046 0.254698 0.666227
O O12 0.737627 0.296018 0.833330
O O13 0.706842 0.015288 0.774850
O O14 0.707481 0.106885 0.979970
O O15 0.000000 0.000000 0.544394
O O16 0.726861 0.444218 0.647768
O O17 0.792744 0.252372 0.670233
#
# Coordination Sequence:
#
# PCOD8184845 Si02
#       8
#     8   8   8   8   8   8   8   8
#     4   9  19  36  55  81 112 144 188 227 265 325
#     4  10  21  36  56  82 110 144 181 224 275 321
#     4   9  19  36  55  80 111 140 181 226 267 324
#     4  10  19  36  56  78 111 146 180 224 270 319
#     4  10  21  37  56  83 110 137 184 226 265 335
#     4   8  16  33  54  76 110 144 175 224 267 311
#     4  10  21  37  58  80 107 144 180 221 279 331
#     4  10  20  37  58  80 110 145 177 226 279 320
#
# _framework density 20.201056999999999
#
# number of rings (size 3 to 8) (size 9 to 14) (size 15 to 20)
#    0.000    2.500    0.000    1.500    0.000    4.500 
#    0.000   31.250    0.000    0.000    0.000    0.000 
#    0.000    0.000    0.000    0.000    0.000    0.000 
#
# Total GULP energy -396494.575837 kJ/mol
# GULP energy per Si atom -12390.455495 kJ/mol
# Density = 2.015508 g / cm^3
# Si number density = 20.201057 Si / 1000 Ang^3
#
#
#
# Elastic Constant Matrix: (Units=GPa)
#
#
# Indices 1 2 3 4 5 6 
#
# 1 144.7215 48.5889 39.0179 0.0000 0.0000 0.0000
# 2 48.5889 86.0832 15.4355 0.0000 0.0000 0.0000
# 3 39.0179 15.4355 53.0701 0.0000 0.0000 0.0000
# 4 0.0000 0.0000 0.0000 15.5305 0.0000 0.0000
# 5 0.0000 0.0000 0.0000 0.0000 92.3498 0.0000
# 6 0.0000 0.0000 0.0000 0.0000 0.0000 38.7623
#
#
#
# Elastic Compliance Matrix: (Units=1/GPa)
#
#
# Indices 1 2 3 4 5 6 
#
# 1 0.010097 -0.004608 -0.006083 0.000000 0.000000 0.000000
# 2 -0.004608 0.014359 -0.000788 0.000000 0.000000 0.000000
# 3 -0.006083 -0.000788 0.023545 0.000000 0.000000 0.000000
# 4 0.000000 0.000000 0.000000 0.064389 0.000000 0.000000
# 5 0.000000 0.000000 0.000000 0.000000 0.010828 0.000000
# 6 0.000000 0.000000 0.000000 0.000000 0.000000 0.025798
#
#
# Mechanical properties :
#
#
# Convention : Reuss Voigt Hill
#
# Bulk Modulus (GPa) = 39.93393 54.43993 47.18693
# Shear Modulus (GPa) = 27.72790 41.38404 34.55597
#
# Velocity S-wave (km/s) = 3.70888 4.53106 4.14043
# Velocity P-wave (km/s) = 6.17674 7.37439 6.80198
#
# Compressibility (1/GPa) = 0.02504136
#
# Stress axis : x y z
#
# Youngs Moduli (GPa) = 99.03798 69.64169 42.47248
#
# Poissons Ratio (x) = 0.32094 0.25837
# Poissons Ratio (y) = 0.45641 0.03348
# Poissons Ratio (z) = 0.60246 0.05489
#
# Static dielectric constant tensor:
#      x y z
#    x 4.044760 0.000000 0.000000 
#    y 0.000000 3.734210 0.000000 
#    z 0.000000 0.000000 3.415780 
# 
# 
# High freq. dielectric constant tensor:
#      x y z
#    x 1.807000 0.000000 0.000000 
#    y 0.000000 1.790420 0.000000 
#    z 0.000000 0.000000 1.765050 
# 
# From -- ./inp_files/6688.got.cif
#   From: 2010.03.12/outbox.cif.g09.slc.cpg/sg41_4_cif.got.tgz:6688.got - 2010.04.14 01:55:53.
