data_PCOD8184145
_publ_section_title
;
Structure prediction by ZEFSAII (Michael W. Deem and Ramdas Pophale) SiO2 
 PCOD8184145
Probable space group: A M A 2
;
_chemical_formula_sum "Si O2"
_cell_formula_units_Z 40
_cell_length_a 14.526003
_cell_length_b 13.406976
_cell_length_c 10.178869
_cell_angle_alpha 90.000000
_cell_angle_beta 90.000000
_cell_angle_gamma 90.000000
_cell_volume 1982.332433
_symmetry_space_group_name_H-M "A M A 2"
_symmetry_group_IT_number 40
_symmetry_cell_setting 'orthorhombic'
loop_
_space_group_symop_operation_xyz
x,y,z
-x,-y,z
1/2-x,y,z
1/2+x,-y,z
x,1/2+y,1/2+z
-x,1/2-y,1/2+z
1/2-x,1/2+y,1/2+z
1/2+x,1/2-y,1/2+z
loop_
_atom_site_type_symbol
_atom_site_label
_atom_site_fract_x
_atom_site_fract_y
_atom_site_fract_z
Si Si1 0.145723 0.170647 0.557750
Si Si2 0.144343 0.093687 0.031056
Si Si3 0.646835 0.122217 0.924515
Si Si4 0.470537 0.188914 0.806510
Si Si5 0.052275 0.103041 0.302563
O O1 0.250000 0.140208 0.591577
O O2 0.137827 0.288130 0.528391
O O3 0.083592 0.143939 0.683161
O O4 0.112249 0.105532 0.434879
O O5 0.250000 0.120470 0.003606
O O6 0.121876 0.116349 0.181703
O O7 0.081761 0.163440 0.940766
O O8 0.123052 0.978126 0.002003
O O9 0.750000 0.119262 0.863487
O O10 0.572805 0.139426 0.808297
O O11 0.477545 0.308320 0.800323
O O12 0.000000 0.000000 0.292489
#
# Coordination Sequence:
#
# PCOD8184145 Si02
#       5
#     8   8   8   8   8
#     4  10  21  38  58  85 119 153 188 238 295 342
#     4  11  22  39  63  88 112 149 197 238 279 342
#     4   9  20  38  62  86 112 149 196 241 284 337
#     4  11  21  37  59  86 117 152 190 236 287 342
#     4  11  22  38  59  85 116 155 194 237 286 339
#
# _framework density 20.178249000000001
#
# number of rings (size 3 to 8) (size 9 to 14) (size 15 to 20)
#    0.000    1.600    0.000    6.600    0.000    2.400 
#    0.000    3.000    0.000    1.200    0.000    0.000 
#    0.000    0.000    0.000    0.000    0.000    0.000 
#
# Total GULP energy -248078.848228 kJ/mol
# GULP energy per Si atom -12403.942411 kJ/mol
# Density = 2.013232 g / cm^3
# Si number density = 20.178249 Si / 1000 Ang^3
#
#
#
# Elastic Constant Matrix: (Units=GPa)
#
#
# Indices 1 2 3 4 5 6 
#
# 1 146.3349 35.0609 75.9611 0.0000 0.0000 0.0000
# 2 35.0609 71.1343 21.1769 0.0000 0.0000 0.0000
# 3 75.9611 21.1769 135.2738 0.0000 0.0000 0.0000
# 4 0.0000 0.0000 0.0000 18.9815 0.0000 0.0000
# 5 0.0000 0.0000 0.0000 0.0000 42.1219 0.0000
# 6 0.0000 0.0000 0.0000 0.0000 0.0000 25.7987
#
#
#
# Elastic Compliance Matrix: (Units=1/GPa)
#
#
# Indices 1 2 3 4 5 6 
#
# 1 0.010442 -0.003567 -0.005305 0.000000 0.000000 0.000000
# 2 -0.003567 0.015964 -0.000496 0.000000 0.000000 0.000000
# 3 -0.005305 -0.000496 0.010449 0.000000 0.000000 0.000000
# 4 0.000000 0.000000 0.000000 0.052683 0.000000 0.000000
# 5 0.000000 0.000000 0.000000 0.000000 0.023741 0.000000
# 6 0.000000 0.000000 0.000000 0.000000 0.000000 0.038762
#
#
# Mechanical properties :
#
#
# Convention : Reuss Voigt Hill
#
# Bulk Modulus (GPa) = 55.19321 68.57120 61.88220
# Shear Modulus (GPa) = 28.27785 32.08335 30.18060
#
# Velocity S-wave (km/s) = 3.74759 3.99180 3.87162
# Velocity P-wave (km/s) = 6.79251 7.43656 7.12182
#
# Compressibility (1/GPa) = 0.01811817
#
# Stress axis : x y z
#
# Youngs Moduli (GPa) = 95.76455 62.64150 95.70174
#
# Poissons Ratio (x) = 0.22347 0.50772
# Poissons Ratio (y) = 0.34163 0.04746
# Poissons Ratio (z) = 0.50805 0.03106
#
# Static dielectric constant tensor:
#      x y z
#    x 3.971440 0.000000 0.000000 
#    y 0.000000 3.658050 0.000000 
#    z 0.000000 0.000000 3.534670 
# 
# 
# High freq. dielectric constant tensor:
#      x y z
#    x 1.803680 0.000000 0.000000 
#    y 0.000000 1.783830 0.000000 
#    z 0.000000 0.000000 1.780180 
# 
# From -- ./inp_files/6129.got.cif
#   From: 2010.03.12/outbox.cif.g09.slc.cpg/sg40_4_cif.got.tgz:6129.got - 2010.04.14 01:38:03.
