data_PCOD8184943
_publ_section_title
;
Structure prediction by ZEFSAII (Michael W. Deem and Ramdas Pophale) SiO2 
 PCOD8184943
Probable space group: A B A 2
;
_chemical_formula_sum "Si O2"
_cell_formula_units_Z 64
_cell_length_a 16.288817
_cell_length_b 8.581088
_cell_length_c 21.869248
_cell_angle_alpha 90.000000
_cell_angle_beta 90.000000
_cell_angle_gamma 90.000000
_cell_volume 3056.791024
_symmetry_space_group_name_H-M "A B A 2"
_symmetry_group_IT_number 41
_symmetry_cell_setting 'orthorhombic'
loop_
_space_group_symop_operation_xyz
x,y,z
-x,-y,z
1/2-x,y,1/2+z
1/2+x,-y,1/2+z
x,1/2+y,1/2+z
-x,1/2-y,1/2+z
1/2-x,1/2+y,z
1/2+x,1/2-y,z
loop_
_atom_site_type_symbol
_atom_site_label
_atom_site_fract_x
_atom_site_fract_y
_atom_site_fract_z
Si Si1 0.842319 0.092528 0.746250
Si Si2 0.680775 0.101692 0.804771
Si Si3 0.087036 0.725417 0.645192
Si Si4 0.157681 0.407472 0.607767
Si Si5 0.322269 0.224550 0.857785
Si Si6 0.177731 0.224550 0.496232
Si Si7 0.680775 0.101692 0.049246
Si Si8 0.412964 0.225417 0.208825
O O1 0.747481 0.038899 0.754363
O O2 0.902391 0.953948 0.726828
O O3 0.845101 0.227777 0.695296
O O4 0.874485 0.167578 0.810866
O O5 0.656530 0.957188 0.847618
O O6 0.724898 0.239021 0.844719
O O7 0.600761 0.168937 0.769803
O O8 0.097609 0.546052 0.627189
O O9 1.000000 0.750000 0.677008
O O10 0.100761 0.831063 0.584214
O O11 0.125515 0.332422 0.543151
O O12 0.252519 0.461101 0.599654
O O13 0.154899 0.272223 0.658720
O O14 0.345222 0.268872 0.927008
O O15 0.156530 0.042812 0.506399
O O16 0.275102 0.260979 0.509298
#
# Coordination Sequence:
#
# PCOD8184943 Si02
#       8
#     8   8   8   8   8   8   8   8
#     4  10  22  38  59  91 129 162 215 262 315 378
#     4  10  20  37  61  92 126 163 215 265 318 374
#     4  12  23  39  62  94 132 170 205 265 330 387
#     4  10  22  38  59  91 129 162 215 262 315 378
#     4  10  20  37  66  93 125 164 222 271 306 367
#     4  10  20  37  66  93 125 164 222 271 306 367
#     4  10  20  37  61  92 126 163 215 265 318 374
#     4  12  23  39  62  94 132 170 205 265 330 387
#
# _framework density 20.936990000000002
#
# number of rings (size 3 to 8) (size 9 to 14) (size 15 to 20)
#    1.500    0.000    2.500    3.750    0.000    2.000 
#    0.000    0.000    0.000    7.500    0.000    0.000 
#    0.000    0.000    0.000    0.000    0.000    0.000 
#
# Total GULP energy -396445.651456 kJ/mol
# GULP energy per Si atom -12388.926608 kJ/mol
# Density = 2.088934 g / cm^3
# Si number density = 20.936990 Si / 1000 Ang^3
#
#
#
# Elastic Constant Matrix: (Units=GPa)
#
#
# Indices 1 2 3 4 5 6 
#
# 1 42.0337 19.7413 9.3512 0.0000 0.0000 0.0000
# 2 19.7413 124.4837 63.9437 0.0000 0.0000 0.0000
# 3 9.3512 63.9437 138.1522 0.0000 0.0000 0.0000
# 4 0.0000 0.0000 0.0000 40.4587 0.0000 0.0000
# 5 0.0000 0.0000 0.0000 0.0000 18.4262 0.0000
# 6 0.0000 0.0000 0.0000 0.0000 0.0000 23.5370
#
#
#
# Elastic Compliance Matrix: (Units=1/GPa)
#
#
# Indices 1 2 3 4 5 6 
#
# 1 0.025709 -0.004176 0.000193 0.000000 0.000000 0.000000
# 2 -0.004176 0.011217 -0.004909 0.000000 0.000000 0.000000
# 3 0.000193 -0.004909 0.009498 0.000000 0.000000 0.000000
# 4 0.000000 0.000000 0.000000 0.024717 0.000000 0.000000
# 5 0.000000 0.000000 0.000000 0.000000 0.054270 0.000000
# 6 0.000000 0.000000 0.000000 0.000000 0.000000 0.042486
#
#
# Mechanical properties :
#
#
# Convention : Reuss Voigt Hill
#
# Bulk Modulus (GPa) = 34.91802 54.52690 44.72246
# Shear Modulus (GPa) = 25.61109 30.59330 28.10220
#
# Velocity S-wave (km/s) = 3.50129 3.82672 3.66762
# Velocity P-wave (km/s) = 5.74972 6.75462 6.27233
#
# Compressibility (1/GPa) = 0.02863851
#
# Stress axis : x y z
#
# Youngs Moduli (GPa) = 38.89713 89.14930 105.29019
#
# Poissons Ratio (x) = 0.37229 -0.02029
# Poissons Ratio (y) = 0.16244 0.51689
# Poissons Ratio (z) = -0.00750 0.43765
#
# Static dielectric constant tensor:
#      x y z
#    x 3.230260 0.000000 0.000000 
#    y 0.000000 3.771050 0.000000 
#    z 0.000000 0.000000 3.728030 
# 
# 
# High freq. dielectric constant tensor:
#      x y z
#    x 1.763600 0.000000 0.000000 
#    y 0.000000 1.828800 0.000000 
#    z 0.000000 0.000000 1.815390 
# 
# From -- ./inp_files/12290.got.cif
#   From: 2010.03.12/outbox.cif.g09.slc.cpg/sg41_7_cif.got.tgz:12290.got - 2010.04.14 01:55:53.
