data_PCOD8184828
_publ_section_title
;
Structure prediction by ZEFSAII (Michael W. Deem and Ramdas Pophale) SiO2 
 PCOD8184828
Probable space group: A B A 2
;
_chemical_formula_sum "Si O2"
_cell_formula_units_Z 48
_cell_length_a 8.339885
_cell_length_b 17.022730
_cell_length_c 15.685595
_cell_angle_alpha 90.000000
_cell_angle_beta 90.000000
_cell_angle_gamma 90.000000
_cell_volume 2226.846443
_symmetry_space_group_name_H-M "A B A 2"
_symmetry_group_IT_number 41
_symmetry_cell_setting 'orthorhombic'
loop_
_space_group_symop_operation_xyz
x,y,z
-x,-y,z
1/2-x,y,1/2+z
1/2+x,-y,1/2+z
x,1/2+y,1/2+z
-x,1/2-y,1/2+z
1/2-x,1/2+y,z
1/2+x,1/2-y,z
loop_
_atom_site_type_symbol
_atom_site_label
_atom_site_fract_x
_atom_site_fract_y
_atom_site_fract_z
Si Si1 0.400528 0.638628 0.106280
Si Si2 0.500000 0.500000 0.226476
Si Si3 0.113294 0.385398 0.971075
Si Si4 0.739984 0.705260 0.122986
Si Si5 0.730683 0.947479 0.961361
Si Si6 0.244669 0.388684 0.294441
Si Si7 0.500000 0.000000 0.336153
O O1 0.413978 0.567996 0.172736
O O2 0.564356 0.685331 0.088905
O O3 0.266280 0.701700 0.134332
O O4 0.352402 0.600099 0.018708
O O5 0.370230 0.460065 0.286465
O O6 0.177480 0.469977 0.003304
O O7 0.214342 0.352776 0.888608
O O8 0.925974 0.393345 0.943251
O O9 0.133996 0.329033 0.053392
O O10 0.749604 0.673838 0.219425
O O11 0.840354 0.968609 0.881743
O O12 0.065673 0.424932 0.284373
#
# Coordination Sequence:
#
# PCOD8184828 Si02
#       7
#     8   4   8   8   8   8   4
#     4  11  22  40  63  91 126 165 211 258 314 375
#     4  10  21  40  63  84 122 172 210 254 304 370
#     4  10  21  40  63  92 125 164 211 258 309 368
#     4  11  24  40  62  90 125 162 204 262 322 374
#     4  10  19  36  64  91 123 166 212 255 304 370
#     4  10  21  39  61  91 127 161 209 261 309 372
#     4  10  19  34  61  92 122 164 212 258 308 368
#
# _framework density 21.555146000000001
#
# number of rings (size 3 to 8) (size 9 to 14) (size 15 to 20)
#    0.000    1.667    0.000    7.500    0.000    4.000 
#    0.000   13.333    0.000    0.000    0.000    0.000 
#    0.000    0.000    0.000    0.000    0.000    0.000 
#
# Total GULP energy -297393.624101 kJ/mol
# GULP energy per Si atom -12391.401004 kJ/mol
# Density = 2.150609 g / cm^3
# Si number density = 21.555146 Si / 1000 Ang^3
#
#
#
# Elastic Constant Matrix: (Units=GPa)
#
#
# Indices 1 2 3 4 5 6 
#
# 1 75.2578 15.0775 21.9059 0.0000 0.0000 0.0000
# 2 15.0775 87.7161 41.2822 0.0000 0.0000 0.0000
# 3 21.9059 41.2822 96.9966 0.0000 0.0000 0.0000
# 4 0.0000 0.0000 0.0000 41.1197 0.0000 0.0000
# 5 0.0000 0.0000 0.0000 0.0000 24.1159 0.0000
# 6 0.0000 0.0000 0.0000 0.0000 0.0000 38.7226
#
#
#
# Elastic Compliance Matrix: (Units=1/GPa)
#
#
# Indices 1 2 3 4 5 6 
#
# 1 0.014319 -0.001175 -0.002734 0.000000 0.000000 0.000000
# 2 -0.001175 0.014352 -0.005843 0.000000 0.000000 0.000000
# 3 -0.002734 -0.005843 0.013414 0.000000 0.000000 0.000000
# 4 0.000000 0.000000 0.000000 0.024319 0.000000 0.000000
# 5 0.000000 0.000000 0.000000 0.000000 0.041466 0.000000
# 6 0.000000 0.000000 0.000000 0.000000 0.000000 0.025825
#
#
# Mechanical properties :
#
#
# Convention : Reuss Voigt Hill
#
# Bulk Modulus (GPa) = 44.28346 46.27797 45.28071
# Shear Modulus (GPa) = 31.10887 32.90529 32.00708
#
# Velocity S-wave (km/s) = 3.80310 3.91136 3.85761
# Velocity P-wave (km/s) = 6.31455 6.47414 6.39485
#
# Compressibility (1/GPa) = 0.02258179
#
# Stress axis : x y z
#
# Youngs Moduli (GPa) = 69.83848 69.67521 74.54933
#
# Poissons Ratio (x) = 0.08184 0.20381
# Poissons Ratio (y) = 0.08203 0.43560
# Poissons Ratio (z) = 0.19093 0.40712
#
# Static dielectric constant tensor:
#      x y z
#    x 4.831670 0.000000 0.000000 
#    y 0.000000 3.858300 0.000000 
#    z 0.000000 0.000000 3.832180 
# 
# 
# High freq. dielectric constant tensor:
#      x y z
#    x 1.861440 0.000000 0.000000 
#    y 0.000000 1.834520 0.000000 
#    z 0.000000 0.000000 1.837860 
# 
# From -- ./inp_files/7337.got.cif
#   From: 2010.03.12/outbox.cif.g09.slc.cpg/sg41_4_cif.got.tgz:7337.got - 2010.04.14 01:55:53.
