data_PCOD8184735
_publ_section_title
;
Structure prediction by ZEFSAII (Michael W. Deem and Ramdas Pophale) SiO2 
 PCOD8184735
Probable space group: A B A 2
;
_chemical_formula_sum "Si O2"
_cell_formula_units_Z 56
_cell_length_a 37.428502
_cell_length_b 12.940875
_cell_length_c 5.155846
_cell_angle_alpha 90.000000
_cell_angle_beta 90.000000
_cell_angle_gamma 90.000000
_cell_volume 2497.273018
_symmetry_space_group_name_H-M "A B A 2"
_symmetry_group_IT_number 41
_symmetry_cell_setting 'orthorhombic'
loop_
_space_group_symop_operation_xyz
x,y,z
-x,-y,z
1/2-x,y,1/2+z
1/2+x,-y,1/2+z
x,1/2+y,1/2+z
-x,1/2-y,1/2+z
1/2-x,1/2+y,z
1/2+x,1/2-y,z
loop_
_atom_site_type_symbol
_atom_site_label
_atom_site_fract_x
_atom_site_fract_y
_atom_site_fract_z
Si Si1 0.152916 0.797590 0.921550
Si Si2 0.000364 0.677741 0.896964
Si Si3 0.737135 0.383328 0.872705
Si Si4 0.843465 0.333796 0.407204
Si Si5 0.397390 0.984371 0.358633
Si Si6 0.767871 0.160152 0.980488
Si Si7 0.943499 0.501014 0.860550
O O1 0.158857 0.720025 0.684762
O O2 0.140786 0.740419 0.184598
O O3 0.121022 0.873302 0.847654
O O4 0.189729 0.859663 0.971681
O O5 0.035050 0.606343 0.863148
O O6 0.004092 0.746941 0.152779
O O7 0.966659 0.602022 0.926860
O O8 0.757566 0.446549 0.642223
O O9 0.695809 0.365350 0.811808
O O10 0.758739 0.282253 0.986381
O O11 0.868218 0.432235 0.439000
O O12 0.428494 0.985250 0.571624
O O13 0.412622 0.008185 0.074299
O O14 0.751278 0.107698 0.236429
#
# Coordination Sequence:
#
# PCOD8184735 Si02
#       7
#     8   8   8   8   8   8   8
#     4  12  23  40  64  88 126 177 223 273 335 402
#     4  11  24  45  82 108 128 175 228 247 318 388
#     4  10  16  32  59  81 111 160 214 286 342 358
#     4  12  23  40  64  88 126 177 223 273 335 402
#     4  12  28  43  62 101 142 177 218 255 338 399
#     4  10  16  32  59  81 111 160 214 286 342 358
#     4  11  26  48  66 103 150 165 206 289 298 373
#
# _framework density 22.42446
#
# number of rings (size 3 to 8) (size 9 to 14) (size 15 to 20)
#    0.000    0.857    5.714    3.429    0.000    9.143 
#    0.000    1.429    0.000    0.000    0.000    0.000 
#    0.000    0.000    0.000    0.000    0.000    0.000 
#
# Total GULP energy -347159.212703 kJ/mol
# GULP energy per Si atom -12398.543311 kJ/mol
# Density = 2.237342 g / cm^3
# Si number density = 22.424460 Si / 1000 Ang^3
#
#
#
# Elastic Constant Matrix: (Units=GPa)
#
#
# Indices 1 2 3 4 5 6 
#
# 1 88.7834 22.1766 9.5857 0.0000 0.0000 0.0000
# 2 22.1766 71.5956 4.4204 0.0000 0.0000 0.0000
# 3 9.5857 4.4204 146.9428 0.0000 0.0000 0.0000
# 4 0.0000 0.0000 0.0000 12.6805 0.0000 0.0000
# 5 0.0000 0.0000 0.0000 0.0000 41.0151 0.0000
# 6 0.0000 0.0000 0.0000 0.0000 0.0000 41.6017
#
#
#
# Elastic Compliance Matrix: (Units=1/GPa)
#
#
# Indices 1 2 3 4 5 6 
#
# 1 0.012277 -0.003760 -0.000688 0.000000 0.000000 0.000000
# 2 -0.003760 0.015145 -0.000210 0.000000 0.000000 0.000000
# 3 -0.000688 -0.000210 0.006857 0.000000 0.000000 0.000000
# 4 0.000000 0.000000 0.000000 0.078861 0.000000 0.000000
# 5 0.000000 0.000000 0.000000 0.000000 0.024381 0.000000
# 6 0.000000 0.000000 0.000000 0.000000 0.000000 0.024038
#
#
# Mechanical properties :
#
#
# Convention : Reuss Voigt Hill
#
# Bulk Modulus (GPa) = 40.06116 42.18747 41.12431
# Shear Modulus (GPa) = 27.90246 37.13540 32.51893
#
# Velocity S-wave (km/s) = 3.53127 4.07384 3.81222
# Velocity P-wave (km/s) = 5.87624 6.40174 6.14461
#
# Compressibility (1/GPa) = 0.02496183
#
# Stress axis : x y z
#
# Youngs Moduli (GPa) = 81.45401 66.02811 145.84571
#
# Poissons Ratio (x) = 0.24828 0.10031
# Poissons Ratio (y) = 0.30629 0.03067
# Poissons Ratio (z) = 0.05602 0.01389
#
# Static dielectric constant tensor:
#      x y z
#    x 3.987450 0.000000 0.000000 
#    y 0.000000 3.969280 0.000000 
#    z 0.000000 0.000000 4.545200 
# 
# 
# High freq. dielectric constant tensor:
#      x y z
#    x 1.879510 0.000000 0.000000 
#    y 0.000000 1.892480 0.000000 
#    z 0.000000 0.000000 1.915250 
# 
# From -- ./inp_files/1357.got.cif
#   From: 2010.03.12/outbox.cif.g09.slc.cpg/sg41_1_cif.got.tgz:1357.got - 2010.04.14 01:55:53.
