data_PCOD8184405
_publ_section_title
;
Structure prediction by ZEFSAII (Michael W. Deem and Ramdas Pophale) SiO2 
 PCOD8184405
Probable space group: A M A 2
;
_chemical_formula_sum "Si O2"
_cell_formula_units_Z 64
_cell_length_a 17.672034
_cell_length_b 15.584493
_cell_length_c 11.891919
_cell_angle_alpha 90.000000
_cell_angle_beta 90.000000
_cell_angle_gamma 90.000000
_cell_volume 3275.149727
_symmetry_space_group_name_H-M "A M A 2"
_symmetry_group_IT_number 40
_symmetry_cell_setting 'orthorhombic'
loop_
_space_group_symop_operation_xyz
x,y,z
-x,-y,z
1/2-x,y,z
1/2+x,-y,z
x,1/2+y,1/2+z
-x,1/2-y,1/2+z
1/2-x,1/2+y,1/2+z
1/2+x,1/2-y,1/2+z
loop_
_atom_site_type_symbol
_atom_site_label
_atom_site_fract_x
_atom_site_fract_y
_atom_site_fract_z
Si Si1 0.912671 0.514458 0.145600
Si Si2 0.916707 0.184072 0.519316
Si Si3 0.838537 0.338442 0.116312
Si Si4 0.574190 0.556838 0.388631
Si Si5 0.663171 0.936940 0.025004
Si Si6 0.158992 0.695267 0.704943
Si Si7 0.838978 0.790925 0.856565
Si Si8 0.422900 0.244085 0.429883
O O1 0.872842 0.431843 0.092649
O O2 0.880957 0.541788 0.269821
O O3 0.000000 0.500000 0.166757
O O4 0.901964 0.586472 0.051685
O O5 0.882594 0.239388 0.621423
O O6 0.870176 0.201851 0.405573
O O7 0.004343 0.199967 0.487506
O O8 0.750000 0.350003 0.126158
O O9 0.873364 0.304354 0.233331
O O10 0.857273 0.268190 0.022017
O O11 0.500000 0.500000 0.391370
O O12 0.622502 0.526802 0.497567
O O13 0.557799 0.657548 0.403241
O O14 0.750000 0.953861 0.002199
O O15 0.650123 0.900328 0.151077
O O16 0.631380 0.867875 0.935167
O O17 0.250000 0.716503 0.718912
O O18 0.111246 0.696905 0.819927
O O19 0.750000 0.785717 0.855508
#
# Coordination Sequence:
#
# PCOD8184405 Si02
#       8
#     8   8   8   8   8   8   8   8
#     4  11  22  40  62  92 124 159 215 274 321 378
#     4  11  22  38  67  92 127 167 219 270 324 387
#     4  11  24  42  64  93 132 170 208 266 337 397
#     4  11  22  38  62  95 123 158 215 271 317 374
#     4   9  18  36  62  89 122 162 209 260 312 376
#     4  10  22  41  63  95 133 174 218 268 332 404
#     4   9  19  37  61  91 125 164 208 259 322 383
#     4  12  25  39  65  96 133 171 212 271 334 398
#
# _framework density 19.541093
#
# number of rings (size 3 to 8) (size 9 to 14) (size 15 to 20)
#    0.000    1.500    3.750    3.000    3.500    2.000 
#    0.000    1.250    2.750    1.500    0.000    0.000 
#    0.000    0.000    0.000    0.000    0.000    0.000 
#
# Total GULP energy -396564.419864 kJ/mol
# GULP energy per Si atom -12392.638121 kJ/mol
# Density = 1.949662 g / cm^3
# Si number density = 19.541093 Si / 1000 Ang^3
#
#
#
# Elastic Constant Matrix: (Units=GPa)
#
#
# Indices 1 2 3 4 5 6 
#
# 1 64.6340 21.9956 39.4944 0.0000 0.0000 0.0000
# 2 21.9956 89.3518 46.3847 0.0000 0.0000 0.0000
# 3 39.4944 46.3847 114.3175 0.0000 0.0000 0.0000
# 4 0.0000 0.0000 0.0000 -72.9197 0.0000 0.0000
# 5 0.0000 0.0000 0.0000 0.0000 38.9509 0.0000
# 6 0.0000 0.0000 0.0000 0.0000 0.0000 28.5993
#
#
#
# Elastic Compliance Matrix: (Units=1/GPa)
#
#
# Indices 1 2 3 4 5 6 
#
# 1 0.019808 -0.001677 -0.006163 0.000000 0.000000 0.000000
# 2 -0.001677 0.014320 -0.005231 0.000000 0.000000 0.000000
# 3 -0.006163 -0.005231 0.012999 0.000000 0.000000 0.000000
# 4 0.000000 0.000000 0.000000 -0.013714 0.000000 0.000000
# 5 0.000000 0.000000 0.000000 0.000000 0.025673 0.000000
# 6 0.000000 0.000000 0.000000 0.000000 0.000000 0.034966
#
#
# Mechanical properties :
#
#
# Convention : Reuss Voigt Hill
#
# Bulk Modulus (GPa) = 47.65123 53.78361 50.71742
# Shear Modulus (GPa) = 39.31121 9.62135 24.46628
#
# Velocity S-wave (km/s) = 4.49009 2.22134 3.54226
# Velocity P-wave (km/s) = 7.16375 5.84484 6.53764
#
# Compressibility (1/GPa) = 0.02098582
#
# Stress axis : x y z
#
# Youngs Moduli (GPa) = 50.48412 69.83190 76.92728
#
# Poissons Ratio (x) = 0.11709 0.47410
# Poissons Ratio (y) = 0.08465 0.40242
# Poissons Ratio (z) = 0.31113 0.36530
#
# Static dielectric constant tensor:
#      x y z
#    x 3.548570 0.000000 0.000000 
#    y 0.000000 4.147760 0.000000 
#    z 0.000000 0.000000 3.905570 
# 
# 
# High freq. dielectric constant tensor:
#      x y z
#    x 1.764800 0.000000 0.000000 
#    y 0.000000 1.744320 0.000000 
#    z 0.000000 0.000000 1.763200 
# 
# From -- ./inp_files/13155.got.cif
#   From: 2010.03.12/outbox.cif.g09.slc.cpg/sg40_7_cif.got.tgz:13155.got - 2010.04.14 01:38:03.
