data_PCOD8184798
_publ_section_title
;
Structure prediction by ZEFSAII (Michael W. Deem and Ramdas Pophale) SiO2 
 PCOD8184798
Probable space group: A B A 2
;
_chemical_formula_sum "Si O2"
_cell_formula_units_Z 60
_cell_length_a 11.037879
_cell_length_b 18.109485
_cell_length_c 13.889532
_cell_angle_alpha 90.000000
_cell_angle_beta 90.000000
_cell_angle_gamma 90.000000
_cell_volume 2776.382776
_symmetry_space_group_name_H-M "A B A 2"
_symmetry_group_IT_number 41
_symmetry_cell_setting 'orthorhombic'
loop_
_space_group_symop_operation_xyz
x,y,z
-x,-y,z
1/2-x,y,1/2+z
1/2+x,-y,1/2+z
x,1/2+y,1/2+z
-x,1/2-y,1/2+z
1/2-x,1/2+y,z
1/2+x,1/2-y,z
loop_
_atom_site_type_symbol
_atom_site_label
_atom_site_fract_x
_atom_site_fract_y
_atom_site_fract_z
Si Si1 0.204719 0.520209 0.404780
Si Si2 0.197207 0.367781 0.489368
Si Si3 0.433955 0.110850 0.568121
Si Si4 0.558920 0.742064 0.859883
Si Si5 0.325628 0.621663 0.260197
Si Si6 0.438416 0.651424 0.700378
Si Si7 0.583251 0.223123 0.039448
Si Si8 0.500000 0.000000 0.251921
O O1 0.255136 0.441882 0.442851
O O2 0.134452 0.559929 0.491431
O O3 0.310235 0.570675 0.356029
O O4 0.117165 0.502920 0.317512
O O5 0.162709 0.306767 0.410011
O O6 0.301154 0.330234 0.554761
O O7 0.078494 0.390003 0.550630
O O8 0.410998 0.083687 0.678297
O O9 0.378514 0.192454 0.555793
O O10 0.619581 0.799867 0.788931
O O11 0.474252 0.685289 0.803014
O O12 0.473783 0.786338 0.933813
O O13 0.203955 0.639037 0.201721
O O14 0.476623 0.704016 0.613877
O O15 0.505189 0.572530 0.685416
#
# Coordination Sequence:
#
# PCOD8184798 Si02
#       8
#     8   8   8   8   8   8   8   4
#     4  11  21  43  67  94 127 178 218 270 333 395
#     4  11  22  43  68  91 135 173 217 270 334 401
#     4  11  23  41  68  97 129 175 223 266 335 399
#     4  11  22  44  66  98 130 174 220 276 330 397
#     4  11  25  40  69  97 131 170 222 276 325 398
#     4  11  23  41  68  95 130 173 219 270 329 401
#     4  11  25  40  66 102 130 169 219 279 329 388
#     4  10  18  42  64  92 122 170 226 250 320 404
#
# _framework density 21.610852999999999
#
# number of rings (size 3 to 8) (size 9 to 14) (size 15 to 20)
#    0.000    1.067    4.000    4.000    5.600    2.133 
#    2.400    1.333    0.000    0.000    0.000    0.000 
#    0.000    0.000    0.000    0.000    0.000    0.000 
#
# Total GULP energy -371983.499116 kJ/mol
# GULP energy per Si atom -12399.449971 kJ/mol
# Density = 2.156167 g / cm^3
# Si number density = 21.610853 Si / 1000 Ang^3
#
#
#
# Elastic Constant Matrix: (Units=GPa)
#
#
# Indices 1 2 3 4 5 6 
#
# 1 62.2832 31.2460 37.6800 0.0000 0.0000 0.0000
# 2 31.2460 96.2271 18.1124 0.0000 0.0000 0.0000
# 3 37.6800 18.1124 84.6516 0.0000 0.0000 0.0000
# 4 0.0000 0.0000 0.0000 19.3226 0.0000 0.0000
# 5 0.0000 0.0000 0.0000 0.0000 29.8759 0.0000
# 6 0.0000 0.0000 0.0000 0.0000 0.0000 24.5707
#
#
#
# Elastic Compliance Matrix: (Units=1/GPa)
#
#
# Indices 1 2 3 4 5 6 
#
# 1 0.025195 -0.006325 -0.009861 0.000000 0.000000 0.000000
# 2 -0.006325 0.012416 0.000159 0.000000 0.000000 0.000000
# 3 -0.009861 0.000159 0.016169 0.000000 0.000000 0.000000
# 4 0.000000 0.000000 0.000000 0.051753 0.000000 0.000000
# 5 0.000000 0.000000 0.000000 0.000000 0.033472 0.000000
# 6 0.000000 0.000000 0.000000 0.000000 0.000000 0.040699
#
#
# Mechanical properties :
#
#
# Convention : Reuss Voigt Hill
#
# Bulk Modulus (GPa) = 46.03124 46.35985 46.19554
# Shear Modulus (GPa) = 22.83114 25.16206 23.99660
#
# Velocity S-wave (km/s) = 3.25386 3.41592 3.33588
# Velocity P-wave (km/s) = 5.95509 6.08742 6.02162
#
# Compressibility (1/GPa) = 0.02172438
#
# Stress axis : x y z
#
# Youngs Moduli (GPa) = 39.69101 80.54156 61.84816
#
# Poissons Ratio (x) = 0.50941 0.60990
# Poissons Ratio (y) = 0.25104 -0.00982
# Poissons Ratio (z) = 0.39141 -0.01278
#
# Static dielectric constant tensor:
#      x y z
#    x 3.772540 0.000000 0.000000 
#    y 0.000000 4.331610 0.000000 
#    z 0.000000 0.000000 3.936180 
# 
# 
# High freq. dielectric constant tensor:
#      x y z
#    x 1.831890 0.000000 0.000000 
#    y 0.000000 1.861180 0.000000 
#    z 0.000000 0.000000 1.846330 
# 
# From -- ./inp_files/5138.got.cif
#   From: 2010.03.12/outbox.cif.g09.slc.cpg/sg41_3_cif.got.tgz:5138.got - 2010.04.14 01:55:53.
