data_PCOD8184807
_publ_section_title
;
Structure prediction by ZEFSAII (Michael W. Deem and Ramdas Pophale) SiO2 
 PCOD8184807
Probable space group: A B A 2
;
_chemical_formula_sum "Si O2"
_cell_formula_units_Z 64
_cell_length_a 21.685932
_cell_length_b 12.810091
_cell_length_c 12.530477
_cell_angle_alpha 90.000000
_cell_angle_beta 90.000000
_cell_angle_gamma 90.000000
_cell_volume 3480.951002
_symmetry_space_group_name_H-M "A B A 2"
_symmetry_group_IT_number 41
_symmetry_cell_setting 'orthorhombic'
loop_
_space_group_symop_operation_xyz
x,y,z
-x,-y,z
1/2-x,y,1/2+z
1/2+x,-y,1/2+z
x,1/2+y,1/2+z
-x,1/2-y,1/2+z
1/2-x,1/2+y,z
1/2+x,1/2-y,z
loop_
_atom_site_type_symbol
_atom_site_label
_atom_site_fract_x
_atom_site_fract_y
_atom_site_fract_z
Si Si1 0.060781 0.771913 0.004850
Si Si2 0.944987 0.918212 0.664758
Si Si3 0.316443 0.519426 0.590492
Si Si4 0.818891 0.812119 0.411280
Si Si5 0.750774 0.606477 0.932244
Si Si6 0.791666 0.973006 0.242100
Si Si7 0.041612 0.101278 0.904581
Si Si8 0.867834 0.022834 0.037496
O O1 0.045606 0.684703 0.092986
O O2 0.087636 0.877804 0.056388
O O3 0.111700 0.731561 0.920576
O O4 0.997344 0.798317 0.943327
O O5 0.886706 0.985550 0.626345
O O6 0.933997 0.876995 0.785038
O O7 0.000000 0.000000 0.652336
O O8 0.303411 0.610191 0.506364
O O9 0.296111 0.410300 0.534440
O O10 0.275515 0.544755 0.693015
O O11 0.764946 0.726941 0.418021
O O12 0.814101 0.867083 0.297423
O O13 0.785624 0.566984 0.826653
O O14 0.687145 0.544695 0.954316
O O15 0.842734 0.998636 0.154434
O O16 0.000000 0.000000 0.896297
O O17 0.096208 0.076829 0.988516
#
# Coordination Sequence:
#
# PCOD8184807 Si02
#       8
#     8   8   8   8   8   8   8   8
#     4   9  19  36  54  74 105 140 176 219 264 313
#     4  10  20  36  55  75 102 139 179 220 264 316
#     4   9  19  35  51  74 105 135 170 215 262 315
#     4   9  19  34  52  77 109 137 170 217 266 317
#     4   9  18  33  52  74 103 137 166 205 264 318
#     4  10  19  32  54  80 103 133 173 217 264 315
#     4   9  18  34  54  74 100 136 176 214 257 311
#     4   9  18  34  53  76 104 135 171 213 260 317
#
# _framework density 18.385778999999999
#
# number of rings (size 3 to 8) (size 9 to 14) (size 15 to 20)
#    0.000    2.750    0.000    0.750    0.000    6.000 
#    0.000    8.750    0.000    3.000    0.000    0.000 
#    0.000    0.000    0.000    0.000    0.000    0.000 
#
# Total GULP energy -396708.531179 kJ/mol
# GULP energy per Si atom -12397.141599 kJ/mol
# Density = 1.834393 g / cm^3
# Si number density = 18.385779 Si / 1000 Ang^3
#
#
#
# Elastic Constant Matrix: (Units=GPa)
#
#
# Indices 1 2 3 4 5 6 
#
# 1 94.4446 45.8369 58.5925 0.0000 0.0000 0.0000
# 2 45.8369 89.9151 54.3032 0.0000 0.0000 0.0000
# 3 58.5925 54.3032 130.4119 0.0000 0.0000 0.0000
# 4 0.0000 0.0000 0.0000 19.9313 0.0000 0.0000
# 5 0.0000 0.0000 0.0000 0.0000 31.4690 0.0000
# 6 0.0000 0.0000 0.0000 0.0000 0.0000 27.7805
#
#
#
# Elastic Compliance Matrix: (Units=1/GPa)
#
#
# Indices 1 2 3 4 5 6 
#
# 1 0.016316 -0.005197 -0.005166 0.000000 0.000000 0.000000
# 2 -0.005197 0.016514 -0.004541 0.000000 0.000000 0.000000
# 3 -0.005166 -0.004541 0.011880 0.000000 0.000000 0.000000
# 4 0.000000 0.000000 0.000000 0.050172 0.000000 0.000000
# 5 0.000000 0.000000 0.000000 0.000000 0.031777 0.000000
# 6 0.000000 0.000000 0.000000 0.000000 0.000000 0.035996
#
#
# Mechanical properties :
#
#
# Convention : Reuss Voigt Hill
#
# Bulk Modulus (GPa) = 67.11434 70.24853 68.68143
# Shear Modulus (GPa) = 25.32516 26.23874 25.78195
#
# Velocity S-wave (km/s) = 3.71540 3.78182 3.74876
# Velocity P-wave (km/s) = 7.41541 7.57368 7.49496
#
# Compressibility (1/GPa) = 0.01489995
#
# Stress axis : x y z
#
# Youngs Moduli (GPa) = 61.29039 60.55584 84.17424
#
# Poissons Ratio (x) = 0.31473 0.43487
# Poissons Ratio (y) = 0.31855 0.38225
# Poissons Ratio (z) = 0.31665 0.27499
#
# Static dielectric constant tensor:
#      x y z
#    x 3.505020 0.000000 0.000000 
#    y 0.000000 3.335800 0.000000 
#    z 0.000000 0.000000 3.465290 
# 
# 
# High freq. dielectric constant tensor:
#      x y z
#    x 1.713800 0.000000 0.000000 
#    y 0.000000 1.701040 0.000000 
#    z 0.000000 0.000000 1.716840 
# 
# From -- ./inp_files/6448.got.cif
#   From: 2010.03.12/outbox.cif.g09.slc.cpg/sg41_4_cif.got.tgz:6448.got - 2010.04.14 01:55:53.
