data_PCOD8184693
_publ_section_title
;
Structure prediction by ZEFSAII (Michael W. Deem and Ramdas Pophale) SiO2 
 PCOD8184693
Probable space group: A M A 2
;
_chemical_formula_sum "Si O2"
_cell_formula_units_Z 28
_cell_length_a 23.414244
_cell_length_b 7.427751
_cell_length_c 6.677465
_cell_angle_alpha 90.000000
_cell_angle_beta 90.000000
_cell_angle_gamma 90.000000
_cell_volume 1161.312489
_symmetry_space_group_name_H-M "A M A 2"
_symmetry_group_IT_number 40
_symmetry_cell_setting 'orthorhombic'
loop_
_space_group_symop_operation_xyz
x,y,z
-x,-y,z
1/2-x,y,z
1/2+x,-y,z
x,1/2+y,1/2+z
-x,1/2-y,1/2+z
1/2-x,1/2+y,1/2+z
1/2+x,1/2-y,1/2+z
loop_
_atom_site_type_symbol
_atom_site_label
_atom_site_fract_x
_atom_site_fract_y
_atom_site_fract_z
Si Si1 0.847821 0.995507 0.388350
Si Si2 0.250000 0.076612 0.124788
Si Si3 0.250000 0.998077 0.678663
Si Si4 0.000000 0.000000 0.842508
Si Si5 0.076183 0.728899 0.616252
O O1 0.805900 0.033306 0.199318
O O2 0.892682 0.844880 0.315732
O O3 0.806560 0.928365 0.566684
O O4 0.880726 0.170479 0.466505
O O5 0.250000 0.282041 0.205015
O O6 0.250000 0.094637 0.889337
O O7 0.975746 0.150365 0.693606
O O8 0.050944 0.068728 0.982863
#
# Coordination Sequence:
#
# PCOD8184693 Si02
#       5
#     8   4   4   4   8
#     4  11  26  47  76 108 146 191 236 291 368 424
#     4  11  26  46  71 113 147 188 236 290 349 453
#     4  11  26  46  71 113 147 188 236 290 349 453
#     4  12  28  48  72 106 138 186 252 298 356 420
#     4  12  26  47  74 102 144 187 240 304 356 422
#
# _framework density 24.110648999999999
#
# number of rings (size 3 to 8) (size 9 to 14) (size 15 to 20)
#    0.000    0.571    2.857    3.429    4.000    9.143 
#    0.000    0.000    0.000    0.000    0.000    0.000 
#    0.000    0.000    0.000    0.000    0.000    0.000 
#
# Total GULP energy -173608.223582 kJ/mol
# GULP energy per Si atom -12400.587399 kJ/mol
# Density = 2.405577 g / cm^3
# Si number density = 24.110649 Si / 1000 Ang^3
#
#
#
# Elastic Constant Matrix: (Units=GPa)
#
#
# Indices 1 2 3 4 5 6 
#
# 1 106.1399 13.2438 21.9594 0.0000 0.0000 0.0000
# 2 13.2438 68.5576 10.3186 0.0000 0.0000 0.0000
# 3 21.9594 10.3186 103.5037 0.0000 0.0000 0.0000
# 4 0.0000 0.0000 0.0000 41.2590 0.0000 0.0000
# 5 0.0000 0.0000 0.0000 0.0000 12.1806 0.0000
# 6 0.0000 0.0000 0.0000 0.0000 0.0000 9.9498
#
#
#
# Elastic Compliance Matrix: (Units=1/GPa)
#
#
# Indices 1 2 3 4 5 6 
#
# 1 0.010033 -0.001642 -0.001965 0.000000 0.000000 0.000000
# 2 -0.001642 0.015077 -0.001155 0.000000 0.000000 0.000000
# 3 -0.001965 -0.001155 0.010193 0.000000 0.000000 0.000000
# 4 0.000000 0.000000 0.000000 0.024237 0.000000 0.000000
# 5 0.000000 0.000000 0.000000 0.000000 0.082098 0.000000
# 6 0.000000 0.000000 0.000000 0.000000 0.000000 0.100505
#
#
# Mechanical properties :
#
#
# Convention : Reuss Voigt Hill
#
# Bulk Modulus (GPa) = 38.78989 41.02721 39.90855
# Shear Modulus (GPa) = 19.21147 28.18982 23.70065
#
# Velocity S-wave (km/s) = 2.82583 3.42304 3.13868
# Velocity P-wave (km/s) = 5.17401 5.71630 5.45190
#
# Compressibility (1/GPa) = 0.02577991
#
# Stress axis : x y z
#
# Youngs Moduli (GPa) = 99.67136 66.32473 98.10205
#
# Poissons Ratio (x) = 0.10893 0.19276
# Poissons Ratio (y) = 0.16370 0.11327
# Poissons Ratio (z) = 0.19584 0.07658
#
# Static dielectric constant tensor:
#      x y z
#    x 4.770230 0.000000 0.000000 
#    y 0.000000 4.083990 0.000000 
#    z 0.000000 0.000000 4.371040 
# 
# 
# High freq. dielectric constant tensor:
#      x y z
#    x 1.976600 0.000000 0.000000 
#    y 0.000000 1.944860 0.000000 
#    z 0.000000 0.000000 1.967710 
# 
# From -- ./inp_files/2521.got.cif
#   From: 2010.03.12/outbox.cif.g09.slc.cpg/sg40_2_cif.got.tgz:2521.got - 2010.04.14 01:38:03.
