data_PCOD8184003
_publ_section_title
;
Structure prediction by ZEFSAII (Michael W. Deem and Ramdas Pophale) SiO2 
 PCOD8184003
Probable space group: A M A 2
;
_chemical_formula_sum "Si O2"
_cell_formula_units_Z 40
_cell_length_a 14.695906
_cell_length_b 13.697288
_cell_length_c 9.777994
_cell_angle_alpha 90.000000
_cell_angle_beta 90.000000
_cell_angle_gamma 90.000000
_cell_volume 1968.252081
_symmetry_space_group_name_H-M "A M A 2"
_symmetry_group_IT_number 40
_symmetry_cell_setting 'orthorhombic'
loop_
_space_group_symop_operation_xyz
x,y,z
-x,-y,z
1/2-x,y,z
1/2+x,-y,z
x,1/2+y,1/2+z
-x,1/2-y,1/2+z
1/2-x,1/2+y,1/2+z
1/2+x,1/2-y,1/2+z
loop_
_atom_site_type_symbol
_atom_site_label
_atom_site_fract_x
_atom_site_fract_y
_atom_site_fract_z
Si Si1 0.444432 0.910116 0.710030
Si Si2 0.750000 0.495569 0.740259
Si Si3 0.250000 0.397474 0.341575
Si Si4 0.750000 0.889923 0.964655
Si Si5 0.396376 0.724025 0.292598
Si Si6 0.917570 0.558556 0.892875
Si Si7 0.750000 0.707829 0.605504
O O1 0.342687 0.889014 0.758271
O O2 0.506529 0.817789 0.747360
O O3 0.429871 0.937317 0.554019
O O4 0.500000 0.000000 0.780329
O O5 0.750000 0.404554 0.630985
O O6 0.833930 0.492132 0.844253
O O7 0.750000 0.599166 0.665060
O O8 0.250000 0.501958 0.409492
O O9 0.250000 0.304621 0.443180
O O10 0.658879 0.834470 0.911609
O O11 0.413734 0.831647 0.343712
O O12 0.336944 0.729836 0.154358
O O13 0.000000 0.500000 0.824259
#
# Coordination Sequence:
#
# PCOD8184003 Si02
#       7
#     8   4   4   4   8   8   4
#     4  11  23  39  64  93 133 173 213 269 331 393
#     4   9  19  42  62  91 122 164 208 273 314 371
#     4  11  21  39  61 101 118 172 222 273 320 400
#     4  10  20  39  69  92 121 165 224 267 332 375
#     4  10  21  41  65  93 129 173 213 266 326 392
#     4  10  23  42  62  92 132 170 209 265 328 383
#     4   8  20  38  62  88 133 157 212 271 322 372
#
# _framework density 20.322599
#
# number of rings (size 3 to 8) (size 9 to 14) (size 15 to 20)
#    0.000    2.000    2.000    1.200    2.800    1.600 
#    7.200    1.000    0.000    0.000    0.000    0.000 
#    0.000    0.000    0.000    0.000    0.000    0.000 
#
# Total GULP energy -247762.814974 kJ/mol
# GULP energy per Si atom -12388.140749 kJ/mol
# Density = 2.027634 g / cm^3
# Si number density = 20.322599 Si / 1000 Ang^3
#
#
#
# Elastic Constant Matrix: (Units=GPa)
#
#
# Indices 1 2 3 4 5 6 
#
# 1 209.6155 62.0043 72.6457 0.0000 0.0000 0.0000
# 2 62.0043 89.1115 45.4803 0.0000 0.0000 0.0000
# 3 72.6457 45.4803 101.0794 0.0000 0.0000 0.0000
# 4 0.0000 0.0000 0.0000 23.2555 0.0000 0.0000
# 5 0.0000 0.0000 0.0000 0.0000 28.3128 0.0000
# 6 0.0000 0.0000 0.0000 0.0000 0.0000 35.9502
#
#
#
# Elastic Compliance Matrix: (Units=1/GPa)
#
#
# Indices 1 2 3 4 5 6 
#
# 1 0.006902 -0.002948 -0.003634 0.000000 0.000000 0.000000
# 2 -0.002948 0.015826 -0.005002 0.000000 0.000000 0.000000
# 3 -0.003634 -0.005002 0.014756 0.000000 0.000000 0.000000
# 4 0.000000 0.000000 0.000000 0.043001 0.000000 0.000000
# 5 0.000000 0.000000 0.000000 0.000000 0.035320 0.000000
# 6 0.000000 0.000000 0.000000 0.000000 0.000000 0.027816
#
#
# Mechanical properties :
#
#
# Convention : Reuss Voigt Hill
#
# Bulk Modulus (GPa) = 69.85444 84.45188 77.15316
# Shear Modulus (GPa) = 29.14418 32.14876 30.64647
#
# Velocity S-wave (km/s) = 3.79103 3.98165 3.88751
# Velocity P-wave (km/s) = 7.32188 7.92363 7.62869
#
# Compressibility (1/GPa) = 0.01431548
#
# Stress axis : x y z
#
# Youngs Moduli (GPa) = 144.88424 63.18725 67.76946
#
# Poissons Ratio (x) = 0.18626 0.24629
# Poissons Ratio (y) = 0.42707 0.33901
# Poissons Ratio (z) = 0.52654 0.31608
#
# Static dielectric constant tensor:
#      x y z
#    x 4.378560 0.000000 0.000000 
#    y 0.000000 3.799480 0.000000 
#    z 0.000000 0.000000 3.758310 
# 
# 
# High freq. dielectric constant tensor:
#      x y z
#    x 1.809870 0.000000 0.000000 
#    y 0.000000 1.796950 0.000000 
#    z 0.000000 0.000000 1.782700 
# 
# From -- ./inp_files/6192.got.cif
#   From: 2010.03.12/outbox.cif.g09.slc.cpg/sg40_4_cif.got.tgz:6192.got - 2010.04.14 01:38:03.
