data_PCOD8184470
_publ_section_title
;
Structure prediction by ZEFSAII (Michael W. Deem and Ramdas Pophale) SiO2 
 PCOD8184470
Probable space group: A M A 2
;
_chemical_formula_sum "Si O2"
_cell_formula_units_Z 48
_cell_length_a 15.069296
_cell_length_b 8.100994
_cell_length_c 18.439505
_cell_angle_alpha 90.000000
_cell_angle_beta 90.000000
_cell_angle_gamma 90.000000
_cell_volume 2251.026111
_symmetry_space_group_name_H-M "A M A 2"
_symmetry_group_IT_number 40
_symmetry_cell_setting 'orthorhombic'
loop_
_space_group_symop_operation_xyz
x,y,z
-x,-y,z
1/2-x,y,z
1/2+x,-y,z
x,1/2+y,1/2+z
-x,1/2-y,1/2+z
1/2-x,1/2+y,1/2+z
1/2+x,1/2-y,1/2+z
loop_
_atom_site_type_symbol
_atom_site_label
_atom_site_fract_x
_atom_site_fract_y
_atom_site_fract_z
Si Si1 0.845759 0.145966 0.800480
Si Si2 0.353800 0.159304 0.523352
Si Si3 0.973733 0.173271 0.292281
Si Si4 0.101140 0.992407 0.943329
Si Si5 0.853383 0.655537 0.933529
Si Si6 0.649471 0.870298 0.689082
O O1 0.750000 0.242089 0.799892
O O2 0.841733 0.022861 0.869428
O O3 0.930729 0.256242 0.815182
O O4 0.854498 0.051687 0.724175
O O5 0.250000 0.164930 0.512950
O O6 0.389046 0.338240 0.498107
O O7 0.380354 0.123633 0.605927
O O8 0.390590 0.002529 0.478007
O O9 0.910227 0.163550 0.360862
O O10 0.924221 0.263240 0.228005
O O11 0.000000 0.000000 0.258590
O O12 0.131419 0.170287 0.977281
O O13 0.000000 0.000000 0.918880
O O14 0.750000 0.631816 0.915364
O O15 0.750000 0.798533 0.696874
#
# Coordination Sequence:
#
# PCOD8184470 Si02
#       6
#     8   8   8   8   8   8
#     4  11  22  42  67  91 127 174 220 269 324 386
#     4  10  24  44  67  99 136 174 217 269 332 392
#     4  12  24  40  65  98 131 167 223 270 325 391
#     4  12  22  40  69  98 133 171 219 271 323 387
#     4  11  23  42  70 101 132 172 220 272 327 392
#     4  10  22  45  68  91 132 175 212 268 331 387
#
# _framework density 21.323608
#
# number of rings (size 3 to 8) (size 9 to 14) (size 15 to 20)
#    0.000    1.000    3.333    3.500    0.000    3.333 
#    9.000    0.000    0.000    0.000    0.000    0.000 
#    0.000    0.000    0.000    0.000    0.000    0.000 
#
# Total GULP energy -297420.446333 kJ/mol
# GULP energy per Si atom -12392.518597 kJ/mol
# Density = 2.127507 g / cm^3
# Si number density = 21.323608 Si / 1000 Ang^3
#
#
#
# Elastic Constant Matrix: (Units=GPa)
#
#
# Indices 1 2 3 4 5 6 
#
# 1 135.2310 36.5218 46.0340 0.0000 0.0000 0.0000
# 2 36.5218 118.8230 33.7183 0.0000 0.0000 0.0000
# 3 46.0340 33.7183 111.5243 0.0000 0.0000 0.0000
# 4 0.0000 0.0000 0.0000 25.9806 0.0000 0.0000
# 5 0.0000 0.0000 0.0000 0.0000 16.8504 0.0000
# 6 0.0000 0.0000 0.0000 0.0000 0.0000 -108.9904
#
#
#
# Elastic Compliance Matrix: (Units=1/GPa)
#
#
# Indices 1 2 3 4 5 6 
#
# 1 0.008967 -0.001866 -0.003137 0.000000 0.000000 0.000000
# 2 -0.001866 0.009594 -0.002130 0.000000 0.000000 0.000000
# 3 -0.003137 -0.002130 0.010906 0.000000 0.000000 0.000000
# 4 0.000000 0.000000 0.000000 0.038490 0.000000 0.000000
# 5 0.000000 0.000000 0.000000 0.000000 0.059346 0.000000
# 6 0.000000 0.000000 0.000000 0.000000 0.000000 -0.009175
#
#
# Mechanical properties :
#
#
# Convention : Reuss Voigt Hill
#
# Bulk Modulus (GPa) = 65.79157 66.45849 66.12503
# Shear Modulus (GPa) = 36.37423 3.38841 19.88132
#
# Velocity S-wave (km/s) = 4.13464 1.26194 3.05677
# Velocity P-wave (km/s) = 7.32902 5.77560 6.59818
#
# Compressibility (1/GPa) = 0.01519952
#
# Stress axis : x y z
#
# Youngs Moduli (GPa) = 111.52597 104.23271 91.69553
#
# Poissons Ratio (x) = 0.19448 0.28765
# Poissons Ratio (y) = 0.20808 0.19536
# Poissons Ratio (z) = 0.34986 0.22207
#
# Static dielectric constant tensor:
#      x y z
#    x 4.055640 0.000000 0.000000 
#    y 0.000000 4.314880 0.000000 
#    z 0.000000 0.000000 3.765850 
# 
# 
# High freq. dielectric constant tensor:
#      x y z
#    x 1.859740 0.000000 0.000000 
#    y 0.000000 1.836100 0.000000 
#    z 0.000000 0.000000 1.815870 
# 
# From -- ./inp_files/20559.got.cif
#   From: 2010.03.12/outbox.cif.g09.slc.cpg/sg40_11_cif.got.tgz:20559.got - 2010.04.14 01:38:03.
