data_PCOD8184517
_publ_section_title
;
Structure prediction by ZEFSAII (Michael W. Deem and Ramdas Pophale) SiO2 
 PCOD8184517
Probable space group: A M A 2
;
_chemical_formula_sum "Si O2"
_cell_formula_units_Z 56
_cell_length_a 16.257741
_cell_length_b 12.511543
_cell_length_c 12.977809
_cell_angle_alpha 90.000000
_cell_angle_beta 90.000000
_cell_angle_gamma 90.000000
_cell_volume 2639.808674
_symmetry_space_group_name_H-M "A M A 2"
_symmetry_group_IT_number 40
_symmetry_cell_setting 'orthorhombic'
loop_
_space_group_symop_operation_xyz
x,y,z
-x,-y,z
1/2-x,y,z
1/2+x,-y,z
x,1/2+y,1/2+z
-x,1/2-y,1/2+z
1/2-x,1/2+y,1/2+z
1/2+x,1/2-y,1/2+z
loop_
_atom_site_type_symbol
_atom_site_label
_atom_site_fract_x
_atom_site_fract_y
_atom_site_fract_z
Si Si1 0.064117 0.667660 0.941480
Si Si2 0.515766 0.723655 0.140704
Si Si3 0.419226 0.559171 0.613648
Si Si4 0.154215 0.336027 0.294914
Si Si5 0.908423 0.222158 0.328117
Si Si6 0.840599 0.998539 0.321184
Si Si7 0.341701 0.554657 0.405508
O O1 0.121727 0.759462 0.888423
O O2 0.096263 0.552422 0.903763
O O3 0.969580 0.685793 0.916301
O O4 0.051477 0.664973 0.066083
O O5 0.562611 0.818850 0.082177
O O6 0.590751 0.660979 0.197735
O O7 0.457908 0.779347 0.223101
O O8 0.500000 0.500000 0.653090
O O9 0.355482 0.550891 0.707666
O O10 0.387719 0.510585 0.506759
O O11 0.250000 0.304350 0.267620
O O12 0.152432 0.459175 0.325503
O O13 0.874064 0.339201 0.350435
O O14 0.841435 0.127645 0.320532
O O15 0.750000 0.962647 0.355011
O O16 0.250000 0.579960 0.441155
#
# Coordination Sequence:
#
# PCOD8184517 Si02
#       7
#     8   8   8   8   8   8   8
#     4  11  22  42  67 100 129 173 226 273 329 401
#     4  11  23  40  69  97 129 173 226 274 328 405
#     4  12  21  40  70 101 127 165 221 274 333 394
#     4  10  23  43  68 101 136 172 222 284 341 397
#     4  11  23  44  64  93 132 175 220 271 323 398
#     4  12  24  42  67  97 136 172 215 275 335 391
#     4  11  25  43  65  97 135 171 218 275 337 392
#
# _framework density 21.213657999999999
#
# number of rings (size 3 to 8) (size 9 to 14) (size 15 to 20)
#    0.000    0.857    5.714    2.571    2.000    0.571 
#    5.143    2.143    0.000    0.000    0.000    0.000 
#    0.000    0.000    0.000    0.000    0.000    0.000 
#
# Total GULP energy -346880.479959 kJ/mol
# GULP energy per Si atom -12388.588570 kJ/mol
# Density = 2.116538 g / cm^3
# Si number density = 21.213658 Si / 1000 Ang^3
#
#
#
# Elastic Constant Matrix: (Units=GPa)
#
#
# Indices 1 2 3 4 5 6 
#
# 1 114.3484 43.0238 32.0740 0.0000 0.0000 0.0000
# 2 43.0238 100.6648 26.7972 0.0000 0.0000 0.0000
# 3 32.0740 26.7972 55.5373 0.0000 0.0000 0.0000
# 4 0.0000 0.0000 0.0000 18.2445 0.0000 0.0000
# 5 0.0000 0.0000 0.0000 0.0000 25.4411 0.0000
# 6 0.0000 0.0000 0.0000 0.0000 0.0000 26.9499
#
#
#
# Elastic Compliance Matrix: (Units=1/GPa)
#
#
# Indices 1 2 3 4 5 6 
#
# 1 0.011471 -0.003602 -0.004887 0.000000 0.000000 0.000000
# 2 -0.003602 0.012529 -0.003965 0.000000 0.000000 0.000000
# 3 -0.004887 -0.003965 0.022741 0.000000 0.000000 0.000000
# 4 0.000000 0.000000 0.000000 0.054811 0.000000 0.000000
# 5 0.000000 0.000000 0.000000 0.000000 0.039306 0.000000
# 6 0.000000 0.000000 0.000000 0.000000 0.000000 0.037106
#
#
# Mechanical properties :
#
#
# Convention : Reuss Voigt Hill
#
# Bulk Modulus (GPa) = 45.80082 52.70449 49.25266
# Shear Modulus (GPa) = 23.79246 25.37080 24.58163
#
# Velocity S-wave (km/s) = 3.35261 3.46203 3.40776
# Velocity P-wave (km/s) = 6.05176 6.39370 6.22508
#
# Compressibility (1/GPa) = 0.02183367
#
# Stress axis : x y z
#
# Youngs Moduli (GPa) = 87.17523 79.81547 43.97252
#
# Poissons Ratio (x) = 0.28748 0.21489
# Poissons Ratio (y) = 0.31399 0.17436
# Poissons Ratio (z) = 0.42602 0.31648
#
# Static dielectric constant tensor:
#      x y z
#    x 3.998130 0.000000 0.000000 
#    y 0.000000 3.797850 0.000000 
#    z 0.000000 0.000000 3.731030 
# 
# 
# High freq. dielectric constant tensor:
#      x y z
#    x 1.835490 0.000000 0.000000 
#    y 0.000000 1.835750 0.000000 
#    z 0.000000 0.000000 1.824610 
# 
# From -- ./inp_files/17099.got.cif
#   From: 2010.03.12/outbox.cif.g09.slc.cpg/sg40_9_cif.got.tgz:17099.got - 2010.04.14 01:38:03.
