data_PCOD8184600
_publ_section_title
;
Structure prediction by ZEFSAII (Michael W. Deem and Ramdas Pophale) SiO2 
 PCOD8184600
Probable space group: A M A 2
;
_chemical_formula_sum "Si O2"
_cell_formula_units_Z 40
_cell_length_a 15.988392
_cell_length_b 4.962748
_cell_length_c 22.453176
_cell_angle_alpha 90.000000
_cell_angle_beta 90.000000
_cell_angle_gamma 90.000000
_cell_volume 1781.577795
_symmetry_space_group_name_H-M "A M A 2"
_symmetry_group_IT_number 40
_symmetry_cell_setting 'orthorhombic'
loop_
_space_group_symop_operation_xyz
x,y,z
-x,-y,z
1/2-x,y,z
1/2+x,-y,z
x,1/2+y,1/2+z
-x,1/2-y,1/2+z
1/2-x,1/2+y,1/2+z
1/2+x,1/2-y,1/2+z
loop_
_atom_site_type_symbol
_atom_site_label
_atom_site_fract_x
_atom_site_fract_y
_atom_site_fract_z
Si Si1 0.054241 0.248080 0.062580
Si Si2 0.599021 0.513769 0.179654
Si Si3 0.402403 0.056640 0.383468
Si Si4 0.155181 0.068850 0.951346
Si Si5 0.099731 0.495239 0.748974
O O1 0.115845 0.391167 0.111311
O O2 0.000000 0.500000 0.035748
O O3 0.104835 0.084612 0.012927
O O4 0.000000 0.000000 0.092466
O O5 0.500000 0.500000 0.185592
O O6 0.638281 0.732028 0.223527
O O7 0.636725 0.235270 0.204795
O O8 0.386761 0.363307 0.404305
O O9 0.370398 0.986342 0.317125
O O10 0.500000 0.000000 0.390604
O O11 0.346944 0.867036 0.424814
O O12 0.250000 0.982109 0.964792
O O13 0.000000 0.500000 0.747836
#
# Coordination Sequence:
#
# PCOD8184600 Si02
#       5
#     8   8   8   8   8
#     4  11  21  36  60  88 118 155 202 248 295 362
#     4   9  16  29  51  84 116 141 179 240 300 345
#     4  11  22  39  63  89 116 154 204 250 295 358
#     4  12  25  40  58  84 123 163 201 249 304 356
#     4   9  17  30  53  85 114 139 181 243 299 343
#
# _framework density 22.452006999999998
#
# number of rings (size 3 to 8) (size 9 to 14) (size 15 to 20)
#    0.000    1.600    0.000    8.400    0.000    3.200 
#    0.000    0.000    0.000    7.200    0.000    0.000 
#    0.000    0.000    0.000    0.000    0.000    0.000 
#
# Total GULP energy -247782.386862 kJ/mol
# GULP energy per Si atom -12389.119343 kJ/mol
# Density = 2.240091 g / cm^3
# Si number density = 22.452007 Si / 1000 Ang^3
#
#
#
# Elastic Constant Matrix: (Units=GPa)
#
#
# Indices 1 2 3 4 5 6 
#
# 1 53.9215 5.4630 13.8486 0.0000 0.0000 0.0000
# 2 5.4630 114.1643 35.4676 0.0000 0.0000 0.0000
# 3 13.8486 35.4676 146.1233 0.0000 0.0000 0.0000
# 4 0.0000 0.0000 0.0000 56.0220 0.0000 0.0000
# 5 0.0000 0.0000 0.0000 0.0000 -27.8727 0.0000
# 6 0.0000 0.0000 0.0000 0.0000 0.0000 16.4247
#
#
#
# Elastic Compliance Matrix: (Units=1/GPa)
#
#
# Indices 1 2 3 4 5 6 
#
# 1 0.019023 -0.000379 -0.001711 0.000000 0.000000 0.000000
# 2 -0.000379 0.009481 -0.002265 0.000000 0.000000 0.000000
# 3 -0.001711 -0.002265 0.007556 0.000000 0.000000 0.000000
# 4 0.000000 0.000000 0.000000 0.017850 0.000000 0.000000
# 5 0.000000 0.000000 0.000000 0.000000 -0.035877 0.000000
# 6 0.000000 0.000000 0.000000 0.000000 0.000000 0.060884
#
#
# Mechanical properties :
#
#
# Convention : Reuss Voigt Hill
#
# Bulk Modulus (GPa) = 36.56334 47.08528 41.82431
# Shear Modulus (GPa) = 51.68294 26.21013 38.94654
#
# Velocity S-wave (km/s) = 4.80305 3.42041 4.16944
# Velocity P-wave (km/s) = 6.86145 6.05111 6.46898
#
# Compressibility (1/GPa) = 0.02734980
#
# Stress axis : x y z
#
# Youngs Moduli (GPa) = 52.56713 105.47153 132.35280
#
# Poissons Ratio (x) = 0.03995 0.22645
# Poissons Ratio (y) = 0.01991 0.29984
# Poissons Ratio (z) = 0.08994 0.23894
#
# Static dielectric constant tensor:
#      x y z
#    x 3.462280 0.000000 0.000000 
#    y 0.000000 4.456750 0.000000 
#    z 0.000000 0.000000 4.312590 
# 
# 
# High freq. dielectric constant tensor:
#      x y z
#    x 1.819780 0.000000 0.000000 
#    y 0.000000 1.908640 0.000000 
#    z 0.000000 0.000000 1.895880 
# 
# From -- ./inp_files/23246.got.cif
#   From: 2010.03.12/outbox.cif.g09.slc.cpg/sg40_12_cif.got.tgz:23246.got - 2010.04.14 01:38:03.
