data_PCOD8184771
_publ_section_title
;
Structure prediction by ZEFSAII (Michael W. Deem and Ramdas Pophale) SiO2 
 PCOD8184771
Probable space group: A B A 2
;
_chemical_formula_sum "Si O2"
_cell_formula_units_Z 40
_cell_length_a 5.329186
_cell_length_b 12.798607
_cell_length_c 22.125911
_cell_angle_alpha 90.000000
_cell_angle_beta 90.000000
_cell_angle_gamma 90.000000
_cell_volume 1509.123365
_symmetry_space_group_name_H-M "A B A 2"
_symmetry_group_IT_number 41
_symmetry_cell_setting 'orthorhombic'
loop_
_space_group_symop_operation_xyz
x,y,z
-x,-y,z
1/2-x,y,1/2+z
1/2+x,-y,1/2+z
x,1/2+y,1/2+z
-x,1/2-y,1/2+z
1/2-x,1/2+y,z
1/2+x,1/2-y,z
loop_
_atom_site_type_symbol
_atom_site_label
_atom_site_fract_x
_atom_site_fract_y
_atom_site_fract_z
Si Si1 0.845678 0.135970 0.321890
Si Si2 0.286633 0.682863 0.002807
Si Si3 0.346083 0.129343 0.370517
Si Si4 0.244434 0.878445 0.182158
Si Si5 0.253137 0.609517 0.630846
O O1 0.620731 0.076065 0.358518
O O2 0.897995 0.250626 0.349955
O O3 0.758716 0.140321 0.253218
O O4 0.118290 0.079095 0.330424
O O5 0.560710 0.734711 0.006452
O O6 0.252941 0.601459 0.058045
O O7 0.269802 0.619218 0.940465
O O8 0.498639 0.828547 0.153934
O O9 0.993534 0.827112 0.153333
O O10 0.248462 0.998842 0.163283
#
# Coordination Sequence:
#
# PCOD8184771 Si02
#       5
#     8   8   8   8   8
#     4  10  18  35  60  86 123 154 199 252 307 365
#     4  12  21  40  62  93 132 155 207 258 307 374
#     4  10  19  35  58  94 119 154 198 254 318 353
#     4  10  21  42  62  84 126 168 210 250 298 374
#     4  10  23  40  62  87 124 171 208 248 306 362
#
# _framework density 26.505455000000001
#
# number of rings (size 3 to 8) (size 9 to 14) (size 15 to 20)
#    0.000    1.600    4.000    2.400    0.000    0.000 
#   21.600    0.000    0.000   28.800    0.000    0.000 
#    0.000    0.000    0.000    0.000    0.000    0.000 
#
# Total GULP energy -247861.995537 kJ/mol
# GULP energy per Si atom -12393.099777 kJ/mol
# Density = 2.644513 g / cm^3
# Si number density = 26.505455 Si / 1000 Ang^3
#
#
#
# Elastic Constant Matrix: (Units=GPa)
#
#
# Indices 1 2 3 4 5 6 
#
# 1 299.9577 -6.4920 65.3107 0.0000 0.0000 0.0000
# 2 -6.4920 43.1957 -4.7362 0.0000 0.0000 0.0000
# 3 65.3107 -4.7362 222.3206 0.0000 0.0000 0.0000
# 4 0.0000 0.0000 0.0000 88.9451 0.0000 0.0000
# 5 0.0000 0.0000 0.0000 0.0000 58.7540 0.0000
# 6 0.0000 0.0000 0.0000 0.0000 0.0000 -30.9458
#
#
#
# Elastic Compliance Matrix: (Units=1/GPa)
#
#
# Indices 1 2 3 4 5 6 
#
# 1 0.003569 0.000422 -0.001040 0.000000 0.000000 0.000000
# 2 0.000422 0.023255 0.000371 0.000000 0.000000 0.000000
# 3 -0.001040 0.000371 0.004811 0.000000 0.000000 0.000000
# 4 0.000000 0.000000 0.000000 0.011243 0.000000 0.000000
# 5 0.000000 0.000000 0.000000 0.000000 0.017020 0.000000
# 6 0.000000 0.000000 0.000000 0.000000 0.000000 -0.032315
#
#
# Mechanical properties :
#
#
# Convention : Reuss Voigt Hill
#
# Bulk Modulus (GPa) = 32.10927 74.84878 53.47902
# Shear Modulus (GPa) = 130.01714 57.44343 93.73029
#
# Velocity S-wave (km/s) = 7.01138 4.66040 5.95310
# Velocity P-wave (km/s) = 8.81399 7.56700 8.21419
#
# Compressibility (1/GPa) = 0.03114366
#
# Stress axis : x y z
#
# Youngs Moduli (GPa) = 280.16786 43.00217 207.84392
#
# Poissons Ratio (x) = -0.01817 0.21606
# Poissons Ratio (y) = -0.11836 -0.07717
# Poissons Ratio (z) = 0.29125 -0.01597
#
# Static dielectric constant tensor:
#      x y z
#    x 1.074530 0.000000 0.000000 
#    y 0.000000 4.382470 0.000000 
#    z 0.000000 0.000000 4.674820 
# 
# 
# High freq. dielectric constant tensor:
#      x y z
#    x 2.115500 0.000000 0.000000 
#    y 0.000000 2.068480 0.000000 
#    z 0.000000 0.000000 2.052290 
# 
# From -- ./inp_files/9370.got.cif
#   From: 2010.03.12/outbox.cif.g09.slc.cpg/sg41_5_cif.got.tgz:9370.got - 2010.04.14 01:55:53.
