data_PCOD8184696
_publ_section_title
;
Structure prediction by ZEFSAII (Michael W. Deem and Ramdas Pophale) SiO2 
 PCOD8184696
Probable space group: A M A 2
;
_chemical_formula_sum "Si O2"
_cell_formula_units_Z 28
_cell_length_a 9.639394
_cell_length_b 15.251762
_cell_length_c 8.138366
_cell_angle_alpha 90.000000
_cell_angle_beta 90.000000
_cell_angle_gamma 90.000000
_cell_volume 1196.484202
_symmetry_space_group_name_H-M "A M A 2"
_symmetry_group_IT_number 40
_symmetry_cell_setting 'orthorhombic'
loop_
_space_group_symop_operation_xyz
x,y,z
-x,-y,z
1/2-x,y,z
1/2+x,-y,z
x,1/2+y,1/2+z
-x,1/2-y,1/2+z
1/2-x,1/2+y,1/2+z
1/2+x,1/2-y,1/2+z
loop_
_atom_site_type_symbol
_atom_site_label
_atom_site_fract_x
_atom_site_fract_y
_atom_site_fract_z
Si Si1 0.750000 0.273529 0.207520
Si Si2 0.250000 0.212709 0.071296
Si Si3 0.750000 0.120871 0.799432
Si Si4 0.500000 0.500000 0.837474
Si Si5 0.954081 0.640022 0.582590
Si Si6 0.250000 0.541302 0.060395
O O1 0.750000 0.240865 0.395004
O O2 0.886889 0.234010 0.123065
O O3 0.750000 0.377958 0.187561
O O4 0.250000 0.282987 0.217222
O O5 0.381296 0.148499 0.076716
O O6 0.750000 0.049086 0.658479
O O7 0.888795 0.108519 0.909270
O O8 0.581192 0.569803 0.723656
O O9 0.386840 0.548842 0.949300
#
# Coordination Sequence:
#
# PCOD8184696 Si02
#       6
#     4   4   4   4   8   4
#     4  11  28  47  72 108 146 195 244 308 375 445
#     4  12  25  44  79 106 146 193 248 309 372 453
#     4  11  27  48  73 109 153 194 247 310 372 444
#     4  12  28  50  76 108 152 200 252 308 376 440
#     4  11  27  47  76 107 151 193 251 305 374 441
#     4  12  30  47  78 107 151 198 255 309 377 438
#
# _framework density 23.401896000000001
#
# number of rings (size 3 to 8) (size 9 to 14) (size 15 to 20)
#    0.000    0.571    0.000    6.000   24.000    0.000 
#    0.000    0.000    0.000    0.000    0.000    0.000 
#    0.000    0.000    0.000    0.000    0.000    0.000 
#
# Total GULP energy -173682.373224 kJ/mol
# GULP energy per Si atom -12405.883802 kJ/mol
# Density = 2.334863 g / cm^3
# Si number density = 23.401896 Si / 1000 Ang^3
#
#
#
# Elastic Constant Matrix: (Units=GPa)
#
#
# Indices 1 2 3 4 5 6 
#
# 1 154.9927 27.4499 37.6910 0.0000 0.0000 0.0000
# 2 27.4499 96.2632 34.1242 0.0000 0.0000 0.0000
# 3 37.6910 34.1242 139.5556 0.0000 0.0000 0.0000
# 4 0.0000 0.0000 0.0000 52.0359 0.0000 0.0000
# 5 0.0000 0.0000 0.0000 0.0000 37.1115 0.0000
# 6 0.0000 0.0000 0.0000 0.0000 0.0000 7.1122
#
#
#
# Elastic Compliance Matrix: (Units=1/GPa)
#
#
# Indices 1 2 3 4 5 6 
#
# 1 0.007091 -0.001471 -0.001555 0.000000 0.000000 0.000000
# 2 -0.001471 0.011679 -0.002459 0.000000 0.000000 0.000000
# 3 -0.001555 -0.002459 0.008187 0.000000 0.000000 0.000000
# 4 0.000000 0.000000 0.000000 0.019218 0.000000 0.000000
# 5 0.000000 0.000000 0.000000 0.000000 0.026946 0.000000
# 6 0.000000 0.000000 0.000000 0.000000 0.000000 0.140604
#
#
# Mechanical properties :
#
#
# Convention : Reuss Voigt Hill
#
# Bulk Modulus (GPa) = 62.54937 65.48240 64.01589
# Shear Modulus (GPa) = 21.73701 38.68833 30.21267
#
# Velocity S-wave (km/s) = 3.05102 4.07038 3.59700
# Velocity P-wave (km/s) = 6.26083 7.08047 6.68323
#
# Compressibility (1/GPa) = 0.01598737
#
# Stress axis : x y z
#
# Youngs Moduli (GPa) = 141.03164 85.62329 122.14669
#
# Poissons Ratio (x) = 0.12591 0.18999
# Poissons Ratio (y) = 0.20739 0.30031
# Poissons Ratio (z) = 0.21937 0.21051
#
# Static dielectric constant tensor:
#      x y z
#    x 4.321840 0.000000 0.000000 
#    y 0.000000 3.856760 0.000000 
#    z 0.000000 0.000000 4.443350 
# 
# 
# High freq. dielectric constant tensor:
#      x y z
#    x 1.935760 0.000000 0.000000 
#    y 0.000000 1.921270 0.000000 
#    z 0.000000 0.000000 1.944190 
# 
# From -- ./inp_files/3997.got.cif
#   From: 2010.03.12/outbox.cif.g09.slc.cpg/sg40_2_cif.got.tgz:3997.got - 2010.04.14 01:38:03.
