data_PCOD8184523
_publ_section_title
;
Structure prediction by ZEFSAII (Michael W. Deem and Ramdas Pophale) SiO2 
 PCOD8184523
Probable space group: A M A 2
;
_chemical_formula_sum "Si O2"
_cell_formula_units_Z 64
_cell_length_a 17.308873
_cell_length_b 11.931690
_cell_length_c 15.010655
_cell_angle_alpha 90.000000
_cell_angle_beta 90.000000
_cell_angle_gamma 90.000000
_cell_volume 3100.062118
_symmetry_space_group_name_H-M "A M A 2"
_symmetry_group_IT_number 40
_symmetry_cell_setting 'orthorhombic'
loop_
_space_group_symop_operation_xyz
x,y,z
-x,-y,z
1/2-x,y,z
1/2+x,-y,z
x,1/2+y,1/2+z
-x,1/2-y,1/2+z
1/2-x,1/2+y,1/2+z
1/2+x,1/2-y,1/2+z
loop_
_atom_site_type_symbol
_atom_site_label
_atom_site_fract_x
_atom_site_fract_y
_atom_site_fract_z
Si Si1 0.838680 0.181920 0.229710
Si Si2 0.414910 0.665624 0.845571
Si Si3 0.413880 0.029970 0.160911
Si Si4 0.840696 0.489279 0.992465
Si Si5 0.841170 0.423741 0.189968
Si Si6 0.410445 0.811469 0.408276
Si Si7 0.340280 0.592614 0.481474
Si Si8 0.660065 0.092689 0.839005
O O1 0.750000 0.188381 0.205297
O O2 0.878283 0.303374 0.214731
O O3 0.853336 0.145886 0.330756
O O4 0.873724 0.089832 0.165807
O O5 0.409548 0.604219 0.750214
O O6 0.363784 0.599691 0.917098
O O7 0.502515 0.668866 0.877821
O O8 0.385600 0.791833 0.839178
O O9 0.369175 0.093892 0.082720
O O10 0.500000 0.000000 0.132152
O O11 0.750000 0.513596 0.986178
O O12 0.889086 0.604608 0.987980
O O13 0.864155 0.443360 0.088577
O O14 0.750000 0.418197 0.205617
O O15 0.873079 0.519240 0.256476
O O16 0.392478 0.683774 0.431354
O O17 0.250000 0.626953 0.477584
O O18 0.353427 0.474193 0.431648
O O19 0.750000 0.120354 0.825914
#
# Coordination Sequence:
#
# PCOD8184523 Si02
#       8
#     8   8   8   8   8   8   8   8
#     4  11  21  42  71  92 125 176 223 269 321 392
#     4  12  26  44  63  97 139 176 217 279 344 403
#     4  12  26  44  65 100 139 174 218 278 339 403
#     4  11  23  41  69  98 127 171 221 273 331 395
#     4   9  21  41  67  98 126 161 217 271 320 386
#     4  12  24  44  66  94 133 176 225 276 331 395
#     4  11  26  45  70 100 132 180 234 275 329 404
#     4  10  23  44  66  94 133 172 218 276 335 401
#
# _framework density 20.644748
#
# number of rings (size 3 to 8) (size 9 to 14) (size 15 to 20)
#    0.000    1.000    3.750    2.250    5.250    1.500 
#    0.000    1.250    0.000    0.000    0.000    0.000 
#    0.000    0.000    0.000    0.000    0.000    0.000 
#
# Total GULP energy -396827.925369 kJ/mol
# GULP energy per Si atom -12400.872668 kJ/mol
# Density = 2.059776 g / cm^3
# Si number density = 20.644748 Si / 1000 Ang^3
#
#
#
# Elastic Constant Matrix: (Units=GPa)
#
#
# Indices 1 2 3 4 5 6 
#
# 1 62.9897 89.6561 64.0623 0.0000 0.0000 0.0000
# 2 89.6561 41.2560 -12.8111 0.0000 0.0000 0.0000
# 3 64.0623 -12.8111 90.6023 0.0000 0.0000 0.0000
# 4 0.0000 0.0000 0.0000 32.3949 0.0000 0.0000
# 5 0.0000 0.0000 0.0000 0.0000 27.4655 0.0000
# 6 0.0000 0.0000 0.0000 0.0000 0.0000 -5.5720
#
#
#
# Elastic Compliance Matrix: (Units=1/GPa)
#
#
# Indices 1 2 3 4 5 6 
#
# 1 -0.004360 0.010912 0.004626 0.000000 0.000000 0.000000
# 2 0.010912 -0.001956 -0.007992 0.000000 0.000000 0.000000
# 3 0.004626 -0.007992 0.006636 0.000000 0.000000 0.000000
# 4 0.000000 0.000000 0.000000 0.030869 0.000000 0.000000
# 5 0.000000 0.000000 0.000000 0.000000 0.036409 0.000000
# 6 0.000000 0.000000 0.000000 0.000000 0.000000 -0.179469
#
#
# Mechanical properties :
#
#
# Convention : Reuss Voigt Hill
#
# Bulk Modulus (GPa) = 64.88535 52.96250 58.92393
# Shear Modulus (GPa) = -41.04277 14.45373 -13.29452
#
# Velocity S-wave (km/s) = -4.46359 2.64884 -2.54040
# Velocity P-wave (km/s) = 2.22100 5.92158 4.47202
#
# Compressibility (1/GPa) = 0.01541180
#
# Stress axis : x y z
#
# Youngs Moduli (GPa) = -229.35142 -511.30921 150.68392
#
# Poissons Ratio (x) = 5.57926 -0.69704
# Poissons Ratio (y) = 2.50262 1.20425
# Poissons Ratio (z) = 1.06094 -4.08633
#
# Static dielectric constant tensor:
#      x y z
#    x 3.656450 0.000000 0.000000 
#    y 0.000000 3.945180 0.000000 
#    z 0.000000 0.000000 3.951970 
# 
# 
# High freq. dielectric constant tensor:
#      x y z
#    x 1.800430 0.000000 0.000000 
#    y 0.000000 1.823190 0.000000 
#    z 0.000000 0.000000 1.814550 
# 
# From -- ./inp_files/17835.got.cif
#   From: 2010.03.12/outbox.cif.g09.slc.cpg/sg40_9_cif.got.tgz:17835.got - 2010.04.14 01:38:03.
