data_PCOD8184969
_publ_section_title
;
Structure prediction by ZEFSAII (Michael W. Deem and Ramdas Pophale) SiO2 
 PCOD8184969
Probable space group: A B A 2
;
_chemical_formula_sum "Si O2"
_cell_formula_units_Z 60
_cell_length_a 27.080872
_cell_length_b 5.318778
_cell_length_c 17.717865
_cell_angle_alpha 90.000000
_cell_angle_beta 90.000000
_cell_angle_gamma 90.000000
_cell_volume 2552.030712
_symmetry_space_group_name_H-M "A B A 2"
_symmetry_group_IT_number 41
_symmetry_cell_setting 'orthorhombic'
loop_
_space_group_symop_operation_xyz
x,y,z
-x,-y,z
1/2-x,y,1/2+z
1/2+x,-y,1/2+z
x,1/2+y,1/2+z
-x,1/2-y,1/2+z
1/2-x,1/2+y,z
1/2+x,1/2-y,z
loop_
_atom_site_type_symbol
_atom_site_label
_atom_site_fract_x
_atom_site_fract_y
_atom_site_fract_z
Si Si1 0.051112 0.402960 0.055240
Si Si2 0.769092 0.399969 0.676752
Si Si3 0.942487 0.574773 0.760398
Si Si4 0.272023 0.566023 0.507808
Si Si5 0.078336 0.904177 0.847543
Si Si6 0.125681 0.765696 0.989205
Si Si7 0.121175 0.576052 0.634565
Si Si8 0.500000 0.500000 0.955144
O O1 0.000000 0.500000 0.092474
O O2 0.089126 0.329651 0.121425
O O3 0.073728 0.623294 0.003964
O O4 0.039059 0.159708 0.003869
O O5 0.755444 0.660967 0.719671
O O6 0.742279 0.438804 0.595971
O O7 0.827944 0.359394 0.676277
O O8 0.914046 0.325049 0.789977
O O9 0.914675 0.617496 0.680137
O O10 0.000000 0.500000 0.750204
O O11 0.931516 0.822618 0.809905
O O12 0.250473 0.315656 0.468655
O O13 0.330682 0.561189 0.494333
O O14 0.124207 0.903574 0.907133
O O15 0.031336 0.824869 0.898579
O O16 0.136667 0.968672 0.053566
#
# Coordination Sequence:
#
# PCOD8184969 Si02
#       8
#     8   8   8   8   8   8   8   4
#     4  12  24  38  64 107 143 173 231 312 348 405
#     4  10  20  40  67  99 135 173 219 287 360 422
#     4  12  29  46  66  94 148 193 235 279 350 419
#     4  10  20  38  65 106 134 168 216 298 355 414
#     4  12  26  47  68  93 136 196 234 278 340 427
#     4  12  25  40  77 103 134 180 249 290 351 422
#     4  12  27  41  69 109 136 181 240 298 348 424
#     4  12  22  42  64  96 130 192 238 274 344 410
#
# _framework density 23.51069
#
# number of rings (size 3 to 8) (size 9 to 14) (size 15 to 20)
#    0.000    0.533    6.667    2.400    4.667    0.000 
#    0.000    0.000    0.000    4.800    0.000    0.000 
#    0.000    0.000    0.000    0.000    0.000    0.000 
#
# Total GULP energy -371779.915763 kJ/mol
# GULP energy per Si atom -12392.663859 kJ/mol
# Density = 2.345718 g / cm^3
# Si number density = 23.510690 Si / 1000 Ang^3
#
#
#
# Elastic Constant Matrix: (Units=GPa)
#
#
# Indices 1 2 3 4 5 6 
#
# 1 103.0085 14.9599 7.6550 0.0000 0.0000 0.0000
# 2 14.9599 144.6218 9.7475 0.0000 0.0000 0.0000
# 3 7.6550 9.7475 54.0602 0.0000 0.0000 0.0000
# 4 0.0000 0.0000 0.0000 24.8691 0.0000 0.0000
# 5 0.0000 0.0000 0.0000 0.0000 13.0460 0.0000
# 6 0.0000 0.0000 0.0000 0.0000 0.0000 37.9097
#
#
#
# Elastic Compliance Matrix: (Units=1/GPa)
#
#
# Indices 1 2 3 4 5 6 
#
# 1 0.009937 -0.000945 -0.001237 0.000000 0.000000 0.000000
# 2 -0.000945 0.007089 -0.001145 0.000000 0.000000 0.000000
# 3 -0.001237 -0.001145 0.018879 0.000000 0.000000 0.000000
# 4 0.000000 0.000000 0.000000 0.040211 0.000000 0.000000
# 5 0.000000 0.000000 0.000000 0.000000 0.076652 0.000000
# 6 0.000000 0.000000 0.000000 0.000000 0.000000 0.026378
#
#
# Mechanical properties :
#
#
# Convention : Reuss Voigt Hill
#
# Bulk Modulus (GPa) = 34.18320 40.71280 37.44800
# Shear Modulus (GPa) = 25.56894 33.12016 29.34455
#
# Velocity S-wave (km/s) = 3.30137 3.75737 3.53673
# Velocity P-wave (km/s) = 5.39473 6.01483 5.71320
#
# Compressibility (1/GPa) = 0.02925413
#
# Stress axis : x y z
#
# Youngs Moduli (GPa) = 100.63377 141.05505 52.96779
#
# Poissons Ratio (x) = 0.13323 0.06551
# Poissons Ratio (y) = 0.09505 0.06062
# Poissons Ratio (z) = 0.12446 0.16144
#
# Static dielectric constant tensor:
#      x y z
#    x 4.279180 0.000000 0.000000 
#    y 0.000000 5.020500 0.000000 
#    z 0.000000 0.000000 3.905590 
# 
# 
# High freq. dielectric constant tensor:
#      x y z
#    x 1.936790 0.000000 0.000000 
#    y 0.000000 1.945260 0.000000 
#    z 0.000000 0.000000 1.882050 
# 
# From -- ./inp_files/10801.got.cif
#   From: 2010.03.12/outbox.cif.g09.slc.cpg/sg41_6_cif.got.tgz:10801.got - 2010.04.14 01:55:53.
