data_PCOD8184844
_publ_section_title
;
Structure prediction by ZEFSAII (Michael W. Deem and Ramdas Pophale) SiO2 
 PCOD8184844
Probable space group: A B A 2
;
_chemical_formula_sum "Si O2"
_cell_formula_units_Z 52
_cell_length_a 7.999615
_cell_length_b 15.257815
_cell_length_c 19.593201
_cell_angle_alpha 90.000000
_cell_angle_beta 90.000000
_cell_angle_gamma 90.000000
_cell_volume 2391.480393
_symmetry_space_group_name_H-M "A B A 2"
_symmetry_group_IT_number 41
_symmetry_cell_setting 'orthorhombic'
loop_
_space_group_symop_operation_xyz
x,y,z
-x,-y,z
1/2-x,y,1/2+z
1/2+x,-y,1/2+z
x,1/2+y,1/2+z
-x,1/2-y,1/2+z
1/2-x,1/2+y,z
1/2+x,1/2-y,z
loop_
_atom_site_type_symbol
_atom_site_label
_atom_site_fract_x
_atom_site_fract_y
_atom_site_fract_z
Si Si1 0.329847 0.672598 0.033950
Si Si2 0.000000 0.000000 0.431451
Si Si3 0.345797 0.066782 0.394745
Si Si4 0.664502 0.895544 0.244549
Si Si5 0.016538 0.604489 0.665801
Si Si6 0.545430 0.135992 0.044319
Si Si7 0.838481 0.590043 0.185199
O O1 0.460896 0.632264 0.087346
O O2 0.353331 0.775992 0.029078
O O3 0.146464 0.654354 0.063545
O O4 0.356584 0.630333 0.959603
O O5 0.942649 0.082057 0.475595
O O6 0.165010 0.019806 0.387445
O O7 0.352120 0.122069 0.325012
O O8 0.500000 0.000000 0.398426
O O9 0.835178 0.855887 0.212983
O O10 0.494990 0.852234 0.213032
O O11 0.664616 0.998216 0.224645
O O12 0.000000 0.500000 0.668057
O O13 0.838434 0.640910 0.694383
O O14 0.631125 0.078268 0.103915
#
# Coordination Sequence:
#
# PCOD8184844 Si02
#       7
#     8   4   8   8   8   8   8
#     4  11  24  40  63  98 130 166 217 271 329 387
#     4  10  26  40  66  94 122 170 224 258 322 390
#     4  11  24  39  66  94 131 176 212 265 328 396
#     4  10  20  38  62  96 129 165 216 261 316 392
#     4  10  21  35  66  93 128 166 218 267 315 381
#     4  11  23  42  66  95 130 164 216 280 318 382
#     4  10  19  35  62  90 122 165 210 271 308 366
#
# _framework density 21.743853999999999
#
# number of rings (size 3 to 8) (size 9 to 14) (size 15 to 20)
#    0.000    1.538    3.077    2.308   14.000    0.000 
#    0.000    0.000   10.154    0.000    0.000    0.000 
#    0.000    0.000    0.000    0.000    0.000    0.000 
#
# Total GULP energy -322245.332052 kJ/mol
# GULP energy per Si atom -12394.051233 kJ/mol
# Density = 2.169436 g / cm^3
# Si number density = 21.743854 Si / 1000 Ang^3
#
#
#
# Elastic Constant Matrix: (Units=GPa)
#
#
# Indices 1 2 3 4 5 6 
#
# 1 175.3384 7.1934 58.0385 0.0000 0.0000 0.0000
# 2 7.1934 39.3813 12.4743 0.0000 0.0000 0.0000
# 3 58.0385 12.4743 126.6618 0.0000 0.0000 0.0000
# 4 0.0000 0.0000 0.0000 6.6154 0.0000 0.0000
# 5 0.0000 0.0000 0.0000 0.0000 7.1836 0.0000
# 6 0.0000 0.0000 0.0000 0.0000 0.0000 24.0655
#
#
#
# Elastic Compliance Matrix: (Units=1/GPa)
#
#
# Indices 1 2 3 4 5 6 
#
# 1 0.006726 -0.000260 -0.003056 0.000000 0.000000 0.000000
# 2 -0.000260 0.026220 -0.002463 0.000000 0.000000 0.000000
# 3 -0.003056 -0.002463 0.009538 0.000000 0.000000 0.000000
# 4 0.000000 0.000000 0.000000 0.151163 0.000000 0.000000
# 5 0.000000 0.000000 0.000000 0.000000 0.139206 0.000000
# 6 0.000000 0.000000 0.000000 0.000000 0.000000 0.041553
#
#
# Mechanical properties :
#
#
# Convention : Reuss Voigt Hill
#
# Bulk Modulus (GPa) = 32.33639 55.19932 43.76786
# Shear Modulus (GPa) = 12.61755 25.15125 18.88440
#
# Velocity S-wave (km/s) = 2.41152 3.40473 2.95022
# Velocity P-wave (km/s) = 4.76001 6.39512 5.63716
#
# Compressibility (1/GPa) = 0.03092491
#
# Stress axis : x y z
#
# Youngs Moduli (GPa) = 148.68702 38.13813 104.84414
#
# Poissons Ratio (x) = 0.00993 0.32041
# Poissons Ratio (y) = 0.03872 0.25823
# Poissons Ratio (z) = 0.45440 0.09393
#
# Static dielectric constant tensor:
#      x y z
#    x 5.039800 0.000000 0.000000 
#    y 0.000000 3.454220 0.000000 
#    z 0.000000 0.000000 3.810970 
# 
# 
# High freq. dielectric constant tensor:
#      x y z
#    x 1.889530 0.000000 0.000000 
#    y 0.000000 1.811710 0.000000 
#    z 0.000000 0.000000 1.847990 
# 
# From -- ./inp_files/9737.got.cif
#   From: 2010.03.12/outbox.cif.g09.slc.cpg/sg41_5_cif.got.tgz:9737.got - 2010.04.14 01:55:53.
