data_PCOD8184197
_publ_section_title
;
Structure prediction by ZEFSAII (Michael W. Deem and Ramdas Pophale) SiO2 
 PCOD8184197
Probable space group: A M A 2
;
_chemical_formula_sum "Si O2"
_cell_formula_units_Z 56
_cell_length_a 8.705183
_cell_length_b 18.130557
_cell_length_c 17.281423
_cell_angle_alpha 90.000000
_cell_angle_beta 90.000000
_cell_angle_gamma 90.000000
_cell_volume 2727.523822
_symmetry_space_group_name_H-M "A M A 2"
_symmetry_group_IT_number 40
_symmetry_cell_setting 'orthorhombic'
loop_
_space_group_symop_operation_xyz
x,y,z
-x,-y,z
1/2-x,y,z
1/2+x,-y,z
x,1/2+y,1/2+z
-x,1/2-y,1/2+z
1/2-x,1/2+y,1/2+z
1/2+x,1/2-y,1/2+z
loop_
_atom_site_type_symbol
_atom_site_label
_atom_site_fract_x
_atom_site_fract_y
_atom_site_fract_z
Si Si1 0.930422 0.080688 0.042750
Si Si2 0.431400 0.667306 0.850096
Si Si3 0.068966 0.921561 0.478362
Si Si4 0.568366 0.174632 0.900103
Si Si5 0.568737 0.340560 0.117155
Si Si6 0.929630 0.682820 0.683698
Si Si7 0.567989 0.077072 0.757120
O O1 0.750000 0.073448 0.030475
O O2 0.969729 0.116808 0.125085
O O3 0.000809 0.132892 0.974982
O O4 0.000000 0.000000 0.037628
O O5 0.250000 0.657472 0.857903
O O6 0.515380 0.599017 0.891550
O O7 0.490608 0.741635 0.892901
O O8 0.473207 0.668466 0.760143
O O9 0.250000 0.926965 0.482742
O O10 0.007894 0.857612 0.534976
O O11 0.000000 0.000000 0.503003
O O12 0.750000 0.174784 0.907082
O O13 0.515817 0.134681 0.821941
O O14 0.750000 0.346081 0.107249
O O15 0.518260 0.259365 0.144462
O O16 0.509773 0.401343 0.176865
O O17 0.750000 0.685065 0.704365
O O18 0.750000 0.073035 0.746636
O O19 0.500000 0.000000 0.784934
#
# Coordination Sequence:
#
# PCOD8184197 Si02
#       7
#     8   8   8   8   8   8   8
#     4  10  21  39  60  86 120 159 201 248 301 357
#     4  11  22  41  67  93 123 161 206 255 311 369
#     4  12  26  44  65  92 125 162 208 259 316 378
#     4   9  19  37  61  87 121 161 201 247 304 361
#     4  11  22  40  64  90 122 162 207 257 312 370
#     4  10  22  40  63  90 125 164 208 255 307 367
#     4  11  21  35  56  88 125 164 204 250 305 368
#
# _framework density 20.531444
#
# number of rings (size 3 to 8) (size 9 to 14) (size 15 to 20)
#    0.000    1.429    1.429    4.286    0.000    4.000 
#    0.000    5.000    0.000    0.000    0.000    0.000 
#    0.000    0.000    0.000    0.000    0.000    0.000 
#
# Total GULP energy -347320.900152 kJ/mol
# GULP energy per Si atom -12404.317863 kJ/mol
# Density = 2.048471 g / cm^3
# Si number density = 20.531444 Si / 1000 Ang^3
#
#
#
# Elastic Constant Matrix: (Units=GPa)
#
#
# Indices 1 2 3 4 5 6 
#
# 1 82.0805 19.7285 44.8738 0.0000 0.0000 0.0000
# 2 19.7285 66.4778 42.1300 0.0000 0.0000 0.0000
# 3 44.8738 42.1300 119.5845 0.0000 0.0000 0.0000
# 4 0.0000 0.0000 0.0000 33.3742 0.0000 0.0000
# 5 0.0000 0.0000 0.0000 0.0000 34.2093 0.0000
# 6 0.0000 0.0000 0.0000 0.0000 0.0000 30.9721
#
#
#
# Elastic Compliance Matrix: (Units=1/GPa)
#
#
# Indices 1 2 3 4 5 6 
#
# 1 0.015398 -0.001169 -0.005366 0.000000 0.000000 0.000000
# 2 -0.001169 0.019455 -0.006416 0.000000 0.000000 0.000000
# 3 -0.005366 -0.006416 0.012636 0.000000 0.000000 0.000000
# 4 0.000000 0.000000 0.000000 0.029963 0.000000 0.000000
# 5 0.000000 0.000000 0.000000 0.000000 0.029232 0.000000
# 6 0.000000 0.000000 0.000000 0.000000 0.000000 0.032287
#
#
# Mechanical properties :
#
#
# Convention : Reuss Voigt Hill
#
# Bulk Modulus (GPa) = 46.32171 53.51193 49.91682
# Shear Modulus (GPa) = 29.05815 30.47182 29.76499
#
# Velocity S-wave (km/s) = 3.76613 3.85665 3.81166
# Velocity P-wave (km/s) = 6.44375 6.77877 6.61338
#
# Compressibility (1/GPa) = 0.02158815
#
# Stress axis : x y z
#
# Youngs Moduli (GPa) = 64.94423 51.39984 79.13774
#
# Poissons Ratio (x) = 0.06007 0.42467
# Poissons Ratio (y) = 0.07590 0.50772
# Poissons Ratio (z) = 0.34851 0.32976
#
# Static dielectric constant tensor:
#      x y z
#    x 3.538200 0.000000 0.000000 
#    y 0.000000 3.883150 0.000000 
#    z 0.000000 0.000000 3.828490 
# 
# 
# High freq. dielectric constant tensor:
#      x y z
#    x 1.789230 0.000000 0.000000 
#    y 0.000000 1.811760 0.000000 
#    z 0.000000 0.000000 1.815820 
# 
# From -- ./inp_files/15336.got.cif
#   From: 2010.03.12/outbox.cif.g09.slc.cpg/sg40_8_cif.got.tgz:15336.got - 2010.04.14 01:38:03.
