data_PCOD8184481
_publ_section_title
;
Structure prediction by ZEFSAII (Michael W. Deem and Ramdas Pophale) SiO2 
 PCOD8184481
Probable space group: A M A 2
;
_chemical_formula_sum "Si O2"
_cell_formula_units_Z 56
_cell_length_a 21.038769
_cell_length_b 10.555531
_cell_length_c 11.840430
_cell_angle_alpha 90.000000
_cell_angle_beta 90.000000
_cell_angle_gamma 90.000000
_cell_volume 2629.467972
_symmetry_space_group_name_H-M "A M A 2"
_symmetry_group_IT_number 40
_symmetry_cell_setting 'orthorhombic'
loop_
_space_group_symop_operation_xyz
x,y,z
-x,-y,z
1/2-x,y,z
1/2+x,-y,z
x,1/2+y,1/2+z
-x,1/2-y,1/2+z
1/2-x,1/2+y,1/2+z
1/2+x,1/2-y,1/2+z
loop_
_atom_site_type_symbol
_atom_site_label
_atom_site_fract_x
_atom_site_fract_y
_atom_site_fract_z
Si Si1 0.072210 0.712797 0.609380
Si Si2 0.075443 0.498675 0.445399
Si Si3 0.933857 0.438318 0.826085
Si Si4 0.819240 0.098973 0.596616
Si Si5 0.135427 0.624604 0.234664
Si Si6 0.320809 0.383877 0.831073
Si Si7 0.437282 0.229293 0.532144
O O1 0.102592 0.602853 0.532299
O O2 0.047184 0.657949 0.727025
O O3 0.124558 0.815131 0.645152
O O4 0.014111 0.770258 0.536465
O O5 0.104801 0.526682 0.323330
O O6 0.094581 0.362421 0.495761
O O7 0.000000 0.500000 0.435756
O O8 0.878165 0.531704 0.779465
O O9 0.911108 0.368951 0.939733
O O10 0.000000 0.500000 0.859717
O O11 0.750000 0.157558 0.625618
O O12 0.828619 0.095395 0.463423
O O13 0.820641 0.959116 0.652045
O O14 0.173389 0.735935 0.298354
O O15 0.082526 0.691134 0.157884
O O16 0.250000 0.429393 0.792108
#
# Coordination Sequence:
#
# PCOD8184481 Si02
#       7
#     8   8   8   8   8   8   8
#     4  11  23  42  65  94 136 172 218 282 341 407
#     4  10  23  40  61  98 133 167 216 270 337 405
#     4  12  24  42  68  99 137 175 228 284 342 408
#     4  11  24  42  64  94 128 174 228 276 338 410
#     4  12  23  42  71  95 134 179 218 281 338 405
#     4  11  24  45  68  96 135 182 230 282 342 411
#     4  11  25  39  65 103 133 169 223 276 341 407
#
# _framework density 21.297083000000001
#
# number of rings (size 3 to 8) (size 9 to 14) (size 15 to 20)
#    0.000    0.857    2.857    5.143    8.000    0.571 
#    0.000    0.000    0.000    4.286    0.000    0.000 
#    0.000    0.000    0.000    0.000    0.000    0.000 
#
# Total GULP energy -347133.092439 kJ/mol
# GULP energy per Si atom -12397.610444 kJ/mol
# Density = 2.124861 g / cm^3
# Si number density = 21.297083 Si / 1000 Ang^3
#
#
#
# Elastic Constant Matrix: (Units=GPa)
#
#
# Indices 1 2 3 4 5 6 
#
# 1 85.9995 56.6374 21.4847 0.0000 0.0000 0.0000
# 2 56.6374 117.3086 41.7303 0.0000 0.0000 0.0000
# 3 21.4847 41.7303 111.9685 0.0000 0.0000 0.0000
# 4 0.0000 0.0000 0.0000 48.6882 0.0000 0.0000
# 5 0.0000 0.0000 0.0000 0.0000 -0.9796 0.0000
# 6 0.0000 0.0000 0.0000 0.0000 0.0000 19.8265
#
#
#
# Elastic Compliance Matrix: (Units=1/GPa)
#
#
# Indices 1 2 3 4 5 6 
#
# 1 0.017054 -0.008150 -0.000235 0.000000 0.000000 0.000000
# 2 -0.008150 0.013723 -0.003550 0.000000 0.000000 0.000000
# 3 -0.000235 -0.003550 0.010299 0.000000 0.000000 0.000000
# 4 0.000000 0.000000 0.000000 0.020539 0.000000 0.000000
# 5 0.000000 0.000000 0.000000 0.000000 -1.020833 0.000000
# 6 0.000000 0.000000 0.000000 0.000000 0.000000 0.050438
#
#
# Mechanical properties :
#
#
# Convention : Reuss Voigt Hill
#
# Bulk Modulus (GPa) = 58.12266 61.66461 59.89363
# Shear Modulus (GPa) = -5.68716 26.53530 10.42407
#
# Velocity S-wave (km/s) = -1.63591 3.53364 2.21477
# Velocity P-wave (km/s) = 4.87672 6.75768 5.89273
#
# Compressibility (1/GPa) = 0.01720500
#
# Stress axis : x y z
#
# Youngs Moduli (GPa) = 58.63612 72.87239 97.09331
#
# Poissons Ratio (x) = 0.59394 0.02279
# Poissons Ratio (y) = 0.47791 0.34473
# Poissons Ratio (z) = 0.01377 0.25873
#
# Static dielectric constant tensor:
#      x y z
#    x 3.736310 0.000000 0.000000 
#    y 0.000000 4.055800 0.000000 
#    z 0.000000 0.000000 3.825640 
# 
# 
# High freq. dielectric constant tensor:
#      x y z
#    x 1.817040 0.000000 0.000000 
#    y 0.000000 1.840570 0.000000 
#    z 0.000000 0.000000 1.844330 
# 
# From -- ./inp_files/13570.got.cif
#   From: 2010.03.12/outbox.cif.g09.slc.cpg/sg40_7_cif.got.tgz:13570.got - 2010.04.14 01:38:03.
