data_PCOD8184979
_publ_section_title
;
Structure prediction by ZEFSAII (Michael W. Deem and Ramdas Pophale) SiO2 
 PCOD8184979
Probable space group: A B A 2
;
_chemical_formula_sum "Si O2"
_cell_formula_units_Z 40
_cell_length_a 13.887395
_cell_length_b 9.191996
_cell_length_c 15.165031
_cell_angle_alpha 90.000000
_cell_angle_beta 90.000000
_cell_angle_gamma 90.000000
_cell_volume 1935.859872
_symmetry_space_group_name_H-M "A B A 2"
_symmetry_group_IT_number 41
_symmetry_cell_setting 'orthorhombic'
loop_
_space_group_symop_operation_xyz
x,y,z
-x,-y,z
1/2-x,y,1/2+z
1/2+x,-y,1/2+z
x,1/2+y,1/2+z
-x,1/2-y,1/2+z
1/2-x,1/2+y,z
1/2+x,1/2-y,z
loop_
_atom_site_type_symbol
_atom_site_label
_atom_site_fract_x
_atom_site_fract_y
_atom_site_fract_z
Si Si1 0.953933 0.153177 0.945850
Si Si2 0.288282 0.841451 0.314282
Si Si3 0.436299 0.858388 0.820362
Si Si4 0.119360 0.817326 0.134314
Si Si5 0.246606 0.579663 0.694933
O O1 0.847764 0.157706 0.904022
O O2 0.027159 0.258292 0.898059
O O3 0.947018 0.191215 0.048874
O O4 0.000000 0.000000 0.932127
O O5 0.177353 0.879497 0.337042
O O6 0.304867 0.686213 0.266421
O O7 0.319891 0.972269 0.248022
O O8 0.446917 0.792332 0.721221
O O9 0.500000 0.000000 0.826806
O O10 0.195835 0.684286 0.127665
O O11 0.170280 0.977257 0.142580
#
# Coordination Sequence:
#
# PCOD8184979 Si02
#       5
#     8   8   8   8   8
#     4  12  24  37  61  93 122 158 203 250 301 362
#     4  10  20  39  62  86 119 160 204 249 302 358
#     4  10  22  42  62  85 123 165 201 249 304 356
#     4  10  21  38  61  91 120 156 203 248 300 361
#     4   8  18  38  63  83 116 163 195 244 306 353
#
# _framework density 20.662652999999999
#
# number of rings (size 3 to 8) (size 9 to 14) (size 15 to 20)
#    0.000    2.400    0.000    5.400    0.000    4.800 
#    0.000    9.000    0.000    0.000    0.000    0.000 
#    0.000    0.000    0.000    0.000    0.000    0.000 
#
# Total GULP energy -247813.319785 kJ/mol
# GULP energy per Si atom -12390.665989 kJ/mol
# Density = 2.061562 g / cm^3
# Si number density = 20.662653 Si / 1000 Ang^3
#
#
#
# Elastic Constant Matrix: (Units=GPa)
#
#
# Indices 1 2 3 4 5 6 
#
# 1 88.0771 34.7123 34.2373 0.0000 0.0000 0.0000
# 2 34.7123 126.1338 51.1934 0.0000 0.0000 0.0000
# 3 34.2373 51.1934 84.5219 0.0000 0.0000 0.0000
# 4 0.0000 0.0000 0.0000 26.2505 0.0000 0.0000
# 5 0.0000 0.0000 0.0000 0.0000 47.6270 0.0000
# 6 0.0000 0.0000 0.0000 0.0000 0.0000 27.0825
#
#
#
# Elastic Compliance Matrix: (Units=1/GPa)
#
#
# Indices 1 2 3 4 5 6 
#
# 1 0.013859 -0.002036 -0.004381 0.000000 0.000000 0.000000
# 2 -0.002036 0.010811 -0.005724 0.000000 0.000000 0.000000
# 3 -0.004381 -0.005724 0.017072 0.000000 0.000000 0.000000
# 4 0.000000 0.000000 0.000000 0.038095 0.000000 0.000000
# 5 0.000000 0.000000 0.000000 0.000000 0.020996 0.000000
# 6 0.000000 0.000000 0.000000 0.000000 0.000000 0.036924
#
#
# Mechanical properties :
#
#
# Convention : Reuss Voigt Hill
#
# Bulk Modulus (GPa) = 57.26634 59.89097 58.57865
# Shear Modulus (GPa) = 29.78687 32.09799 30.94243
#
# Velocity S-wave (km/s) = 3.80093 3.94563 3.87396
# Velocity P-wave (km/s) = 6.85842 7.05730 6.95857
#
# Compressibility (1/GPa) = 0.01746226
#
# Stress axis : x y z
#
# Youngs Moduli (GPa) = 72.15537 92.49494 58.57418
#
# Poissons Ratio (x) = 0.18833 0.25659
# Poissons Ratio (y) = 0.14691 0.33525
# Poissons Ratio (z) = 0.31609 0.52940
#
# Static dielectric constant tensor:
#      x y z
#    x 3.585510 0.000000 0.000000 
#    y 0.000000 4.000570 0.000000 
#    z 0.000000 0.000000 3.702810 
# 
# 
# High freq. dielectric constant tensor:
#      x y z
#    x 1.794830 0.000000 0.000000 
#    y 0.000000 1.827330 0.000000 
#    z 0.000000 0.000000 1.795120 
# 
# From -- ./inp_files/8214.got.cif
#   From: 2010.03.12/outbox.cif.g09.slc.cpg/sg41_5_cif.got.tgz:8214.got - 2010.04.14 01:55:53.
