data_PCOD8184573
_publ_section_title
;
Structure prediction by ZEFSAII (Michael W. Deem and Ramdas Pophale) SiO2 
 PCOD8184573
Probable space group: A M A 2
;
_chemical_formula_sum "Si O2"
_cell_formula_units_Z 48
_cell_length_a 13.878258
_cell_length_b 9.313940
_cell_length_c 18.981327
_cell_angle_alpha 90.000000
_cell_angle_beta 90.000000
_cell_angle_gamma 90.000000
_cell_volume 2453.550288
_symmetry_space_group_name_H-M "A M A 2"
_symmetry_group_IT_number 40
_symmetry_cell_setting 'orthorhombic'
loop_
_space_group_symop_operation_xyz
x,y,z
-x,-y,z
1/2-x,y,z
1/2+x,-y,z
x,1/2+y,1/2+z
-x,1/2-y,1/2+z
1/2-x,1/2+y,1/2+z
1/2+x,1/2-y,1/2+z
loop_
_atom_site_type_symbol
_atom_site_label
_atom_site_fract_x
_atom_site_fract_y
_atom_site_fract_z
Si Si1 0.040640 0.157736 0.710100
Si Si2 0.036708 0.656772 0.579358
Si Si3 0.750000 0.752946 0.244041
Si Si4 0.750000 0.440790 0.206707
Si Si5 0.439562 0.640924 0.976187
Si Si6 0.750000 0.273781 0.578962
Si Si7 0.056989 0.146706 0.311748
Si Si8 0.750000 0.968026 0.543225
O O1 0.155973 0.158029 0.716682
O O2 0.995190 0.246753 0.645607
O O3 0.007324 0.222223 0.784388
O O4 0.000000 0.000000 0.699463
O O5 0.151101 0.641255 0.565157
O O6 0.000000 0.500000 0.595597
O O7 0.990965 0.720111 0.508245
O O8 0.750000 0.579545 0.260593
O O9 0.750000 0.743446 0.161173
O O10 0.840699 0.842623 0.272599
O O11 0.750000 0.485427 0.126188
O O12 0.500000 0.500000 0.992518
O O13 0.424060 0.666134 0.893973
O O14 0.338980 0.620510 0.014509
O O15 0.750000 0.137477 0.524346
O O16 0.000000 0.000000 0.294243
#
# Coordination Sequence:
#
# PCOD8184573 Si02
#       8
#     8   8   4   4   8   4   8   4
#     4  12  22  42  67  94 132 172 219 268 324 391
#     4  12  25  42  66  99 135 167 214 281 327 382
#     4  11  21  41  65  97 132 170 213 274 331 378
#     4  11  22  36  71 103 121 170 227 269 319 395
#     4  11  23  42  67  93 130 178 222 262 324 395
#     4  11  22  38  71  99 127 168 217 277 329 377
#     4  11  25  42  65  97 133 175 216 271 328 390
#     4  11  19  39  71  99 126 168 229 270 311 404
#
# _framework density 19.563488
#
# number of rings (size 3 to 8) (size 9 to 14) (size 15 to 20)
#    0.000    0.667    6.667    2.500    0.000    2.667 
#    0.000    1.667    0.000    0.000    0.000    0.000 
#    0.000    0.000    0.000    0.000    0.000    0.000 
#
# Total GULP energy -297489.191665 kJ/mol
# GULP energy per Si atom -12395.382986 kJ/mol
# Density = 1.951896 g / cm^3
# Si number density = 19.563488 Si / 1000 Ang^3
#
#
#
# Elastic Constant Matrix: (Units=GPa)
#
#
# Indices 1 2 3 4 5 6 
#
# 1 191.7342 56.6875 40.8839 0.0000 0.0000 0.0000
# 2 56.6875 123.5058 45.8560 0.0000 0.0000 0.0000
# 3 40.8839 45.8560 86.5951 0.0000 0.0000 0.0000
# 4 0.0000 0.0000 0.0000 33.6808 0.0000 0.0000
# 5 0.0000 0.0000 0.0000 0.0000 27.2442 0.0000
# 6 0.0000 0.0000 0.0000 0.0000 0.0000 60.4807
#
#
#
# Elastic Compliance Matrix: (Units=1/GPa)
#
#
# Indices 1 2 3 4 5 6 
#
# 1 0.006248 -0.002206 -0.001781 0.000000 0.000000 0.000000
# 2 -0.002206 0.010857 -0.004708 0.000000 0.000000 0.000000
# 3 -0.001781 -0.004708 0.014882 0.000000 0.000000 0.000000
# 4 0.000000 0.000000 0.000000 0.029691 0.000000 0.000000
# 5 0.000000 0.000000 0.000000 0.000000 0.036705 0.000000
# 6 0.000000 0.000000 0.000000 0.000000 0.000000 0.016534
#
#
# Mechanical properties :
#
#
# Convention : Reuss Voigt Hill
#
# Bulk Modulus (GPa) = 68.51106 76.52108 72.51607
# Shear Modulus (GPa) = 36.45026 41.50831 38.97928
#
# Velocity S-wave (km/s) = 4.32114 4.61121 4.46853
# Velocity P-wave (km/s) = 7.74546 8.21889 7.98569
#
# Compressibility (1/GPa) = 0.01459618
#
# Stress axis : x y z
#
# Youngs Moduli (GPa) = 160.05932 92.10343 67.19494
#
# Poissons Ratio (x) = 0.20320 0.11970
# Poissons Ratio (y) = 0.35312 0.31634
# Poissons Ratio (z) = 0.28513 0.43361
#
# Static dielectric constant tensor:
#      x y z
#    x 4.697100 0.000000 0.000000 
#    y 0.000000 3.022140 0.000000 
#    z 0.000000 0.000000 3.541910 
# 
# 
# High freq. dielectric constant tensor:
#      x y z
#    x 1.785310 0.000000 0.000000 
#    y 0.000000 1.755210 0.000000 
#    z 0.000000 0.000000 1.753000 
# 
# From -- ./inp_files/20621.got.cif
#   From: 2010.03.12/outbox.cif.g09.slc.cpg/sg40_11_cif.got.tgz:20621.got - 2010.04.14 01:38:03.
