data_PCOD8184639
_publ_section_title
;
Structure prediction by ZEFSAII (Michael W. Deem and Ramdas Pophale) SiO2 
 PCOD8184639
Probable space group: A M A 2
;
_chemical_formula_sum "Si O2"
_cell_formula_units_Z 32
_cell_length_a 14.492940
_cell_length_b 12.182805
_cell_length_c 7.191087
_cell_angle_alpha 90.000000
_cell_angle_beta 90.000000
_cell_angle_gamma 90.000000
_cell_volume 1269.691845
_symmetry_space_group_name_H-M "A M A 2"
_symmetry_group_IT_number 40
_symmetry_cell_setting 'orthorhombic'
loop_
_space_group_symop_operation_xyz
x,y,z
-x,-y,z
1/2-x,y,z
1/2+x,-y,z
x,1/2+y,1/2+z
-x,1/2-y,1/2+z
1/2-x,1/2+y,1/2+z
1/2+x,1/2-y,1/2+z
loop_
_atom_site_type_symbol
_atom_site_label
_atom_site_fract_x
_atom_site_fract_y
_atom_site_fract_z
Si Si1 0.977265 0.609743 0.382170
Si Si2 0.647697 0.764529 0.826710
Si Si3 0.144106 0.469234 0.720626
Si Si4 0.644364 0.801704 0.391027
O O1 0.923730 0.553510 0.552047
O O2 0.914618 0.704972 0.287829
O O3 0.000000 0.500000 0.255816
O O4 0.073738 0.667431 0.447288
O O5 0.750000 0.805211 0.884026
O O6 0.637509 0.634312 0.861887
O O7 0.627516 0.790674 0.610290
O O8 0.250000 0.478581 0.649311
O O9 0.111324 0.578446 0.827504
O O10 0.750000 0.780701 0.337078
#
# Coordination Sequence:
#
# PCOD8184639 Si02
#       4
#     8   8   8   8
#     4  11  23  36  61  99 136 171 216 278 327 397
#     4   9  20  40  62  93 133 174 222 275 329 394
#     4   9  20  42  69  94 129 177 226 274 334 398
#     4   9  20  41  68  93 131 180 225 275 331 394
#
# _framework density 25.202963
#
# number of rings (size 3 to 8) (size 9 to 14) (size 15 to 20)
#    0.000    2.500    0.000    2.250    7.000    2.000 
#    9.000    0.000    0.000    0.000    0.000    0.000 
#    0.000    0.000    0.000    0.000    0.000    0.000 
#
# Total GULP energy -198230.696328 kJ/mol
# GULP energy per Si atom -12389.418520 kJ/mol
# Density = 2.514560 g / cm^3
# Si number density = 25.202963 Si / 1000 Ang^3
#
#
#
# Elastic Constant Matrix: (Units=GPa)
#
#
# Indices 1 2 3 4 5 6 
#
# 1 163.3719 112.1964 11.7341 0.0000 0.0000 0.0000
# 2 112.1964 278.6217 42.8377 0.0000 0.0000 0.0000
# 3 11.7341 42.8377 38.6585 0.0000 0.0000 0.0000
# 4 0.0000 0.0000 0.0000 33.4271 0.0000 0.0000
# 5 0.0000 0.0000 0.0000 0.0000 23.4597 0.0000
# 6 0.0000 0.0000 0.0000 0.0000 0.0000 82.9579
#
#
#
# Elastic Compliance Matrix: (Units=1/GPa)
#
#
# Indices 1 2 3 4 5 6 
#
# 1 0.008529 -0.003660 0.001467 0.000000 0.000000 0.000000
# 2 -0.003660 0.005897 -0.005423 0.000000 0.000000 0.000000
# 3 0.001467 -0.005423 0.031432 0.000000 0.000000 0.000000
# 4 0.000000 0.000000 0.000000 0.029916 0.000000 0.000000
# 5 0.000000 0.000000 0.000000 0.000000 0.042626 0.000000
# 6 0.000000 0.000000 0.000000 0.000000 0.000000 0.012054
#
#
# Mechanical properties :
#
#
# Convention : Reuss Voigt Hill
#
# Bulk Modulus (GPa) = 32.65324 90.46538 61.55931
# Shear Modulus (GPa) = 32.07276 48.89455 40.48366
#
# Velocity S-wave (km/s) = 3.57119 4.40936 4.01222
# Velocity P-wave (km/s) = 5.47620 7.86740 6.77808
#
# Compressibility (1/GPa) = 0.03062483
#
# Stress axis : x y z
#
# Youngs Moduli (GPa) = 117.24362 169.58375 31.81488
#
# Poissons Ratio (x) = 0.62070 -0.04667
# Poissons Ratio (y) = 0.42913 0.17254
# Poissons Ratio (z) = -0.17198 0.91970
#
# Static dielectric constant tensor:
#      x y z
#    x 4.946750 0.000000 0.000000 
#    y 0.000000 5.561780 0.000000 
#    z 0.000000 0.000000 3.774930 
# 
# 
# High freq. dielectric constant tensor:
#      x y z
#    x 2.027620 0.000000 0.000000 
#    y 0.000000 2.041920 0.000000 
#    z 0.000000 0.000000 1.939210 
# 
# From -- ./inp_files/5884.got.cif
#   From: 2010.03.12/outbox.cif.g09.slc.cpg/sg40_3_cif.got.tgz:5884.got - 2010.04.14 01:38:03.
