data_PCOD8184098
_publ_section_title
;
Structure prediction by ZEFSAII (Michael W. Deem and Ramdas Pophale) SiO2 
 PCOD8184098
Probable space group: A M A 2
;
_chemical_formula_sum "Si O2"
_cell_formula_units_Z 64
_cell_length_a 8.697665
_cell_length_b 27.655771
_cell_length_c 14.480450
_cell_angle_alpha 90.000000
_cell_angle_beta 90.000000
_cell_angle_gamma 90.000000
_cell_volume 3483.136587
_symmetry_space_group_name_H-M "A M A 2"
_symmetry_group_IT_number 40
_symmetry_cell_setting 'orthorhombic'
loop_
_space_group_symop_operation_xyz
x,y,z
-x,-y,z
1/2-x,y,z
1/2+x,-y,z
x,1/2+y,1/2+z
-x,1/2-y,1/2+z
1/2-x,1/2+y,1/2+z
1/2+x,1/2-y,1/2+z
loop_
_atom_site_type_symbol
_atom_site_label
_atom_site_fract_x
_atom_site_fract_y
_atom_site_fract_z
Si Si1 0.570466 0.673535 0.353760
Si Si2 0.568998 0.051543 0.150200
Si Si3 0.069749 0.551143 0.844361
Si Si4 0.926931 0.282121 0.659935
Si Si5 0.071983 0.141297 0.467055
Si Si6 0.428202 0.631403 0.526234
Si Si7 0.428488 0.776470 0.349091
Si Si8 0.927263 0.671900 0.143823
O O1 0.750000 0.668025 0.373814
O O2 0.477223 0.637510 0.420021
O O3 0.525228 0.728853 0.372077
O O4 0.529192 0.658712 0.248953
O O5 0.750000 0.046774 0.159851
O O6 0.500963 0.069514 0.247818
O O7 0.527372 0.088999 0.070495
O O8 0.500000 0.000000 0.122228
O O9 0.250000 0.544898 0.829495
O O10 0.029716 0.589584 0.923550
O O11 0.000000 0.500000 0.875331
O O12 0.750000 0.285962 0.692295
O O13 0.965254 0.318335 0.577368
O O14 0.963251 0.228302 0.624752
O O15 0.031706 0.296154 0.747151
O O16 0.250000 0.153471 0.450815
O O17 0.967281 0.182412 0.422344
O O18 0.032106 0.139737 0.575923
O O19 0.250000 0.617567 0.532875
O O20 0.250000 0.763349 0.356509
O O21 0.750000 0.660179 0.124179
#
# Coordination Sequence:
#
# PCOD8184098 Si02
#       8
#     8   8   8   8   8   8   8   8
#     4  10  21  37  54  74 104 140 177 219 263 305
#     4  11  22  37  57  81 109 140 173 212 261 314
#     4  10  21  37  56  80 108 137 170 212 263 315
#     4   9  19  34  50  73 107 141 173 212 257 305
#     4  11  22  34  52  77 105 137 174 216 261 312
#     4  11  21  34  55  81 108 139 176 217 261 313
#     4  11  21  32  50  76 106 141 178 214 256 308
#     4   9  19  35  53  74 103 139 178 218 258 302
#
# _framework density 18.374244999999998
#
# number of rings (size 3 to 8) (size 9 to 14) (size 15 to 20)
#    0.000    1.750    0.000    6.750    0.000    9.500 
#    0.000    0.000    0.000    0.750    0.000    1.750 
#    0.000    0.000    0.000    0.000    0.000    0.000 
#
# Total GULP energy -396952.184828 kJ/mol
# GULP energy per Si atom -12404.755776 kJ/mol
# Density = 1.833242 g / cm^3
# Si number density = 18.374245 Si / 1000 Ang^3
#
#
#
# Elastic Constant Matrix: (Units=GPa)
#
#
# Indices 1 2 3 4 5 6 
#
# 1 79.2216 32.5073 39.5882 0.0000 0.0000 0.0000
# 2 32.5073 75.8527 60.8308 0.0000 0.0000 0.0000
# 3 39.5882 60.8308 113.2894 0.0000 0.0000 0.0000
# 4 0.0000 0.0000 0.0000 29.0528 0.0000 0.0000
# 5 0.0000 0.0000 0.0000 0.0000 32.6285 0.0000
# 6 0.0000 0.0000 0.0000 0.0000 0.0000 24.9181
#
#
#
# Elastic Compliance Matrix: (Units=1/GPa)
#
#
# Indices 1 2 3 4 5 6 
#
# 1 0.016011 -0.004171 -0.003355 0.000000 0.000000 0.000000
# 2 -0.004171 0.024240 -0.011558 0.000000 0.000000 0.000000
# 3 -0.003355 -0.011558 0.016206 0.000000 0.000000 0.000000
# 4 0.000000 0.000000 0.000000 0.034420 0.000000 0.000000
# 5 0.000000 0.000000 0.000000 0.000000 0.030648 0.000000
# 6 0.000000 0.000000 0.000000 0.000000 0.000000 0.040132
#
#
# Mechanical properties :
#
#
# Convention : Reuss Voigt Hill
#
# Bulk Modulus (GPa) = 54.68102 59.35737 57.01919
# Shear Modulus (GPa) = 24.28110 26.34903 25.31506
#
# Velocity S-wave (km/s) = 3.63915 3.79095 3.71583
# Velocity P-wave (km/s) = 6.89073 7.17890 7.03629
#
# Compressibility (1/GPa) = 0.01828788
#
# Stress axis : x y z
#
# Youngs Moduli (GPa) = 62.45717 41.25388 61.70646
#
# Poissons Ratio (x) = 0.17206 0.20706
# Poissons Ratio (y) = 0.26049 0.71322
# Poissons Ratio (z) = 0.20957 0.47683
#
# Static dielectric constant tensor:
#      x y z
#    x 3.414480 0.000000 0.000000 
#    y 0.000000 3.224130 0.000000 
#    z 0.000000 0.000000 3.451260 
# 
# 
# High freq. dielectric constant tensor:
#      x y z
#    x 1.723050 0.000000 0.000000 
#    y 0.000000 1.689600 0.000000 
#    z 0.000000 0.000000 1.713060 
# 
# From -- ./inp_files/15626.got.cif
#   From: 2010.03.12/outbox.cif.g09.slc.cpg/sg40_8_cif.got.tgz:15626.got - 2010.04.14 01:38:03.
