data_PCOD8184365
_publ_section_title
;
Structure prediction by ZEFSAII (Michael W. Deem and Ramdas Pophale) SiO2 
 PCOD8184365
Probable space group: A M A 2
;
_chemical_formula_sum "Si O2"
_cell_formula_units_Z 48
_cell_length_a 18.045248
_cell_length_b 11.600782
_cell_length_c 10.319955
_cell_angle_alpha 90.000000
_cell_angle_beta 90.000000
_cell_angle_gamma 90.000000
_cell_volume 2160.368938
_symmetry_space_group_name_H-M "A M A 2"
_symmetry_group_IT_number 40
_symmetry_cell_setting 'orthorhombic'
loop_
_space_group_symop_operation_xyz
x,y,z
-x,-y,z
1/2-x,y,z
1/2+x,-y,z
x,1/2+y,1/2+z
-x,1/2-y,1/2+z
1/2-x,1/2+y,1/2+z
1/2+x,1/2-y,1/2+z
loop_
_atom_site_type_symbol
_atom_site_label
_atom_site_fract_x
_atom_site_fract_y
_atom_site_fract_z
Si Si1 0.584758 0.728267 0.478990
Si Si2 0.911648 0.760324 0.980480
Si Si3 0.668853 0.555147 0.098423
Si Si4 0.663131 0.330406 0.222323
Si Si5 0.168057 0.588458 0.838916
Si Si6 0.414357 0.003403 0.107888
O O1 0.498240 0.746275 0.449305
O O2 0.608261 0.783312 0.613816
O O3 0.626437 0.787297 0.356647
O O4 0.604442 0.592927 0.499086
O O5 0.862392 0.764856 0.851385
O O6 0.891594 0.653624 0.074525
O O7 0.889174 0.874539 0.054897
O O8 0.750000 0.612608 0.115321
O O9 0.651390 0.470821 0.221906
O O10 0.670184 0.468751 0.978136
O O11 0.750000 0.301274 0.196030
O O12 0.250000 0.615289 0.786376
O O13 0.129411 0.495280 0.743750
O O14 0.500000 0.000000 0.144578
#
# Coordination Sequence:
#
# PCOD8184365 Si02
#       6
#     8   8   8   8   8   8
#     4  10  23  41  63  93 129 163 216 267 319 385
#     4  11  23  38  63  94 124 171 213 262 323 387
#     4   9  20  39  61  92 124 160 214 264 315 386
#     4  10  22  42  65  91 128 170 213 268 328 383
#     4  10  22  39  66  92 120 166 213 259 319 384
#     4  10  24  41  57  90 132 165 207 264 320 382
#
# _framework density 22.218426000000001
#
# number of rings (size 3 to 8) (size 9 to 14) (size 15 to 20)
#    0.000    2.000    0.000    3.000    7.000    7.333 
#    6.000    1.667    0.000    0.000    0.000    0.000 
#    0.000    0.000    0.000    0.000    0.000    0.000 
#
# Total GULP energy -297429.765193 kJ/mol
# GULP energy per Si atom -12392.906883 kJ/mol
# Density = 2.216786 g / cm^3
# Si number density = 22.218426 Si / 1000 Ang^3
#
#
#
# Elastic Constant Matrix: (Units=GPa)
#
#
# Indices 1 2 3 4 5 6 
#
# 1 97.1362 53.6221 28.0957 0.0000 0.0000 0.0000
# 2 53.6221 116.8286 4.9779 0.0000 0.0000 0.0000
# 3 28.0957 4.9779 37.9422 0.0000 0.0000 0.0000
# 4 0.0000 0.0000 0.0000 26.3160 0.0000 0.0000
# 5 0.0000 0.0000 0.0000 0.0000 25.5057 0.0000
# 6 0.0000 0.0000 0.0000 0.0000 0.0000 15.1234
#
#
#
# Elastic Compliance Matrix: (Units=1/GPa)
#
#
# Indices 1 2 3 4 5 6 
#
# 1 0.018226 -0.007834 -0.012468 0.000000 0.000000 0.000000
# 2 -0.007834 0.011975 0.004230 0.000000 0.000000 0.000000
# 3 -0.012468 0.004230 0.035033 0.000000 0.000000 0.000000
# 4 0.000000 0.000000 0.000000 0.038000 0.000000 0.000000
# 5 0.000000 0.000000 0.000000 0.000000 0.039207 0.000000
# 6 0.000000 0.000000 0.000000 0.000000 0.000000 0.066123
#
#
# Mechanical properties :
#
#
# Convention : Reuss Voigt Hill
#
# Bulk Modulus (GPa) = 30.22093 47.25538 38.73816
# Shear Modulus (GPa) = 19.86195 24.40310 22.13252
#
# Velocity S-wave (km/s) = 2.99313 3.31770 3.15958
# Velocity P-wave (km/s) = 5.05731 5.99924 5.54830
#
# Compressibility (1/GPa) = 0.03308965
#
# Stress axis : x y z
#
# Youngs Moduli (GPa) = 54.86762 83.50751 28.54422
#
# Poissons Ratio (x) = 0.65420 0.35589
# Poissons Ratio (y) = 0.42983 -0.12074
# Poissons Ratio (z) = 0.68409 -0.35323
#
# Static dielectric constant tensor:
#      x y z
#    x 4.025500 0.000000 0.000000 
#    y 0.000000 4.335820 0.000000 
#    z 0.000000 0.000000 4.053780 
# 
# 
# High freq. dielectric constant tensor:
#      x y z
#    x 1.875540 0.000000 0.000000 
#    y 0.000000 1.882130 0.000000 
#    z 0.000000 0.000000 1.861450 
# 
# From -- ./inp_files/12915.got.cif
#   From: 2010.03.12/outbox.cif.g09.slc.cpg/sg40_7_cif.got.tgz:12915.got - 2010.04.14 01:38:03.
