data_PCOD8184989
_publ_section_title
;
Structure prediction by ZEFSAII (Michael W. Deem and Ramdas Pophale) SiO2 
 PCOD8184989
Probable space group: A B A 2
;
_chemical_formula_sum "Si O2"
_cell_formula_units_Z 64
_cell_length_a 11.368240
_cell_length_b 27.835044
_cell_length_c 9.225036
_cell_angle_alpha 90.000000
_cell_angle_beta 90.000000
_cell_angle_gamma 90.000000
_cell_volume 2919.128516
_symmetry_space_group_name_H-M "A B A 2"
_symmetry_group_IT_number 41
_symmetry_cell_setting 'orthorhombic'
loop_
_space_group_symop_operation_xyz
x,y,z
-x,-y,z
1/2-x,y,1/2+z
1/2+x,-y,1/2+z
x,1/2+y,1/2+z
-x,1/2-y,1/2+z
1/2-x,1/2+y,z
1/2+x,1/2-y,z
loop_
_atom_site_type_symbol
_atom_site_label
_atom_site_fract_x
_atom_site_fract_y
_atom_site_fract_z
Si Si1 0.334812 0.526713 0.526570
Si Si2 0.077462 0.926407 0.483520
Si Si3 0.188036 0.813977 0.971166
Si Si4 0.197073 0.080171 0.804621
Si Si5 0.335856 0.707833 0.573222
Si Si6 0.850487 0.833887 0.269108
Si Si7 0.879746 0.153818 0.271640
Si Si8 0.011845 0.855775 0.736767
O O1 0.329545 0.469152 0.510225
O O2 0.450783 0.550063 0.455864
O O3 0.224610 0.553023 0.453232
O O4 0.332119 0.537158 0.695880
O O5 0.116693 0.899927 0.335838
O O6 0.074754 0.888814 0.616326
O O7 0.315979 0.812499 0.893488
O O8 0.103728 0.837241 0.852761
O O9 0.144323 0.761615 0.018019
O O10 0.189786 0.845972 0.118262
O O11 0.303569 0.112357 0.737751
O O12 0.084145 0.113946 0.826522
O O13 0.217685 0.704957 0.670151
O O14 0.319074 0.672983 0.437442
O O15 0.449771 0.690204 0.662219
O O16 0.988837 0.826732 0.242783
#
# Coordination Sequence:
#
# PCOD8184989 Si02
#       8
#     8   8   8   8   8   8   8   8
#     4  10  21  37  69  98 137 167 237 282 349 420
#     4  10  21  44  66  97 133 190 216 290 354 419
#     4  12  29  44  68 100 141 195 237 287 350 430
#     4  10  20  39  66 107 128 177 225 292 347 416
#     4  11  25  44  71 104 135 181 247 295 345 410
#     4  11  23  42  73 100 142 180 227 301 351 414
#     4  12  26  45  68  97 145 187 233 286 361 422
#     4  10  23  43  70  97 145 181 234 287 363 413
#
# _framework density 21.924351000000001
#
# number of rings (size 3 to 8) (size 9 to 14) (size 15 to 20)
#    0.000    1.250    2.500    3.000    7.000    3.000 
#    0.000    0.000    0.000    3.000    0.000    0.000 
#    0.000    0.000    0.000    0.000    0.000    0.000 
#
# Total GULP energy -396792.987548 kJ/mol
# GULP energy per Si atom -12399.780861 kJ/mol
# Density = 2.187445 g / cm^3
# Si number density = 21.924351 Si / 1000 Ang^3
#
#
#
# Elastic Constant Matrix: (Units=GPa)
#
#
# Indices 1 2 3 4 5 6 
#
# 1 76.9749 34.5703 32.1471 0.0000 0.0000 0.0000
# 2 34.5703 135.1933 39.4984 0.0000 0.0000 0.0000
# 3 32.1471 39.4984 100.2258 0.0000 0.0000 0.0000
# 4 0.0000 0.0000 0.0000 31.3446 0.0000 0.0000
# 5 0.0000 0.0000 0.0000 0.0000 39.8068 0.0000
# 6 0.0000 0.0000 0.0000 0.0000 0.0000 24.7011
#
#
#
# Elastic Compliance Matrix: (Units=1/GPa)
#
#
# Indices 1 2 3 4 5 6 
#
# 1 0.015961 -0.002922 -0.003968 0.000000 0.000000 0.000000
# 2 -0.002922 0.008894 -0.002568 0.000000 0.000000 0.000000
# 3 -0.003968 -0.002568 0.012262 0.000000 0.000000 0.000000
# 4 0.000000 0.000000 0.000000 0.031903 0.000000 0.000000
# 5 0.000000 0.000000 0.000000 0.000000 0.025121 0.000000
# 6 0.000000 0.000000 0.000000 0.000000 0.000000 0.040484
#
#
# Mechanical properties :
#
#
# Convention : Reuss Voigt Hill
#
# Bulk Modulus (GPa) = 54.94049 58.31396 56.62722
# Shear Modulus (GPa) = 31.32665 32.91570 32.12118
#
# Velocity S-wave (km/s) = 3.78412 3.87890 3.83180
# Velocity P-wave (km/s) = 6.64878 6.83497 6.74251
#
# Compressibility (1/GPa) = 0.01820151
#
# Stress axis : x y z
#
# Youngs Moduli (GPa) = 62.65414 112.43190 81.55193
#
# Poissons Ratio (x) = 0.32853 0.32358
# Poissons Ratio (y) = 0.18308 0.20942
# Poissons Ratio (z) = 0.24860 0.28872
#
# Static dielectric constant tensor:
#      x y z
#    x 4.000460 0.000000 0.000000 
#    y 0.000000 3.927150 0.000000 
#    z 0.000000 0.000000 4.037290 
# 
# 
# High freq. dielectric constant tensor:
#      x y z
#    x 1.857870 0.000000 0.000000 
#    y 0.000000 1.857630 0.000000 
#    z 0.000000 0.000000 1.866660 
# 
# From -- ./inp_files/2238.got.cif
#   From: 2010.03.12/outbox.cif.g09.slc.cpg/sg41_2_cif.got.tgz:2238.got - 2010.04.14 01:55:53.
