data_PCOD8184841
_publ_section_title
;
Structure prediction by ZEFSAII (Michael W. Deem and Ramdas Pophale) SiO2 
 PCOD8184841
Probable space group: A B A 2
;
_chemical_formula_sum "Si O2"
_cell_formula_units_Z 48
_cell_length_a 5.154835
_cell_length_b 20.316066
_cell_length_c 23.365806
_cell_angle_alpha 90.000000
_cell_angle_beta 90.000000
_cell_angle_gamma 90.000000
_cell_volume 2447.006653
_symmetry_space_group_name_H-M "A B A 2"
_symmetry_group_IT_number 41
_symmetry_cell_setting 'orthorhombic'
loop_
_space_group_symop_operation_xyz
x,y,z
-x,-y,z
1/2-x,y,1/2+z
1/2+x,-y,1/2+z
x,1/2+y,1/2+z
-x,1/2-y,1/2+z
1/2-x,1/2+y,z
1/2+x,1/2-y,z
loop_
_atom_site_type_symbol
_atom_site_label
_atom_site_fract_x
_atom_site_fract_y
_atom_site_fract_z
Si Si1 0.249999 0.294837 0.137270
Si Si2 0.268893 0.871952 0.253763
Si Si3 0.768894 0.128048 0.020777
Si Si4 0.748768 0.876157 0.452102
Si Si5 0.000000 0.000000 0.783932
Si Si6 0.251232 0.623843 0.822438
Si Si7 0.000000 0.000000 0.990608
O O1 0.499998 0.250000 0.137270
O O2 0.256004 0.341136 0.191989
O O3 0.243995 0.341135 0.082551
O O4 0.324055 0.950500 0.245501
O O5 0.510207 0.839978 0.289304
O O6 0.011035 0.858816 0.289725
O O7 0.511035 0.141183 0.984815
O O8 0.824055 0.049501 0.029039
O O9 0.010208 0.160022 0.985236
O O10 0.769381 0.850439 0.387270
O O11 0.691257 0.955075 0.451691
O O12 0.808743 0.955075 0.822849
#
# Coordination Sequence:
#
# PCOD8184841 Si02
#       7
#     8   8   8   8   4   8   4
#     4  12  26  48  68  78 114 170 220 258 290 350
#     4  10  22  38  59  94 117 162 201 248 300 356
#     4  10  22  38  59  94 117 162 201 248 300 356
#     4  10  19  35  60  96 132 156 185 234 311 382
#     4   8  21  34  58  98 130 156 185 240 310 368
#     4  10  19  35  60  96 132 156 185 234 311 382
#     4   8  21  34  58  98 130 156 185 240 310 368
#
# _framework density 19.615805000000002
#
# number of rings (size 3 to 8) (size 9 to 14) (size 15 to 20)
#    2.000    0.000    0.000    4.500    0.000    1.333 
#    6.000    0.000    0.000   20.000    0.000    0.000 
#    0.000    0.000    0.000    0.000    0.000    0.000 
#
# Total GULP energy -297322.537033 kJ/mol
# GULP energy per Si atom -12388.439043 kJ/mol
# Density = 1.957116 g / cm^3
# Si number density = 19.615805 Si / 1000 Ang^3
#
#
#
# Elastic Constant Matrix: (Units=GPa)
#
#
# Indices 1 2 3 4 5 6 
#
# 1 186.2446 24.8902 88.9356 0.0000 0.0000 0.0000
# 2 24.8902 28.9789 50.7924 0.0000 0.0000 0.0000
# 3 88.9356 50.7924 202.0536 0.0000 0.0000 0.0000
# 4 0.0000 0.0000 0.0000 -10.7471 0.0000 0.0000
# 5 0.0000 0.0000 0.0000 0.0000 34.0607 0.0000
# 6 0.0000 0.0000 0.0000 0.0000 0.0000 16.7293
#
#
#
# Elastic Compliance Matrix: (Units=1/GPa)
#
#
# Indices 1 2 3 4 5 6 
#
# 1 0.006816 -0.001065 -0.002733 0.000000 0.000000 0.000000
# 2 -0.001065 0.061854 -0.015080 0.000000 0.000000 0.000000
# 3 -0.002733 -0.015080 0.009943 0.000000 0.000000 0.000000
# 4 0.000000 0.000000 0.000000 -0.093049 0.000000 0.000000
# 5 0.000000 0.000000 0.000000 0.000000 0.029359 0.000000
# 6 0.000000 0.000000 0.000000 0.000000 0.000000 0.059775
#
#
# Mechanical properties :
#
#
# Convention : Reuss Voigt Hill
#
# Bulk Modulus (GPa) = 24.47521 82.94595 53.71058
# Shear Modulus (GPa) = 39.65910 24.85252 32.25581
#
# Velocity S-wave (km/s) = 4.50131 3.56331 4.05949
# Velocity P-wave (km/s) = 6.28650 7.70108 7.02946
#
# Compressibility (1/GPa) = 0.04085766
#
# Stress axis : x y z
#
# Youngs Moduli (GPa) = 146.70289 16.16704 100.57557
#
# Poissons Ratio (x) = 0.01722 0.27483
# Poissons Ratio (y) = 0.15629 1.51669
# Poissons Ratio (z) = 0.40087 0.24380
#
# Static dielectric constant tensor:
#      x y z
#    x 3.701590 0.000000 0.000000 
#    y 0.000000 3.290600 0.000000 
#    z 0.000000 0.000000 3.391810 
# 
# 
# High freq. dielectric constant tensor:
#      x y z
#    x 1.782580 0.000000 0.000000 
#    y 0.000000 1.737450 0.000000 
#    z 0.000000 0.000000 1.753790 
# 
# From -- ./inp_files/11853.got.cif
#   From: 2010.03.12/outbox.cif.g09.slc.cpg/sg41_6_cif.got.tgz:11853.got - 2010.04.14 01:55:53.
