data_PCOD8184555
_publ_section_title
;
Structure prediction by ZEFSAII (Michael W. Deem and Ramdas Pophale) SiO2 
 PCOD8184555
Probable space group: A M A 2
;
_chemical_formula_sum "Si O2"
_cell_formula_units_Z 64
_cell_length_a 18.383352
_cell_length_b 14.757664
_cell_length_c 11.758149
_cell_angle_alpha 90.000000
_cell_angle_beta 90.000000
_cell_angle_gamma 90.000000
_cell_volume 3189.930937
_symmetry_space_group_name_H-M "A M A 2"
_symmetry_group_IT_number 40
_symmetry_cell_setting 'orthorhombic'
loop_
_space_group_symop_operation_xyz
x,y,z
-x,-y,z
1/2-x,y,z
1/2+x,-y,z
x,1/2+y,1/2+z
-x,1/2-y,1/2+z
1/2-x,1/2+y,1/2+z
1/2+x,1/2-y,1/2+z
loop_
_atom_site_type_symbol
_atom_site_label
_atom_site_fract_x
_atom_site_fract_y
_atom_site_fract_z
Si Si1 0.103640 0.572290 0.480830
Si Si2 0.445930 0.369409 0.476688
Si Si3 0.165116 0.409855 0.839775
Si Si4 0.417469 0.264587 0.697684
Si Si5 0.665346 0.593490 0.104977
Si Si6 0.665750 0.905678 0.222447
Si Si7 0.916874 0.230198 0.753399
Si Si8 0.165879 0.086649 0.735945
O O1 0.076043 0.471615 0.497432
O O2 0.152457 0.599486 0.587777
O O3 0.153387 0.580832 0.370398
O O4 0.033851 0.639028 0.472448
O O5 0.410431 0.312212 0.576853
O O6 0.410107 0.335406 0.360834
O O7 0.250000 0.393015 0.815628
O O8 0.121787 0.322997 0.795011
O O9 0.137212 0.499902 0.775233
O O10 0.149073 0.422210 0.972742
O O11 0.500617 0.253389 0.729135
O O12 0.380434 0.167503 0.683084
O O13 0.750000 0.613708 0.127545
O O14 0.619732 0.680070 0.146303
O O15 0.639648 0.504896 0.174091
O O16 0.750000 0.893688 0.249871
O O17 0.623610 0.823730 0.282627
O O18 0.250000 0.105104 0.710807
#
# Coordination Sequence:
#
# PCOD8184555 Si02
#       8
#     8   8   8   8   8   8   8   8
#     4  11  21  44  68  93 130 170 216 268 319 386
#     4  11  24  42  66  94 136 170 212 271 325 383
#     4  10  24  46  66  92 130 169 213 264 319 382
#     4  12  25  42  65  96 130 169 216 263 324 385
#     4  10  24  46  66  92 130 169 213 264 319 382
#     4  11  24  43  67  95 127 170 217 265 322 384
#     4  12  25  42  65  96 130 169 216 263 324 385
#     4  11  24  43  67  95 127 170 217 265 322 384
#
# _framework density 20.063130999999998
#
# number of rings (size 3 to 8) (size 9 to 14) (size 15 to 20)
#    0.000    1.000    5.000    1.125    5.250    1.000 
#    0.000    3.125    0.000    0.000    0.000    0.000 
#    0.000    0.000    0.000    0.000    0.000    0.000 
#
# Total GULP energy -397007.224900 kJ/mol
# GULP energy per Si atom -12406.475778 kJ/mol
# Density = 2.001747 g / cm^3
# Si number density = 20.063131 Si / 1000 Ang^3
#
#
#
# Elastic Constant Matrix: (Units=GPa)
#
#
# Indices 1 2 3 4 5 6 
#
# 1 86.8535 47.0726 21.6519 0.0000 0.0000 0.0000
# 2 47.0726 107.9273 28.1209 0.0000 0.0000 0.0000
# 3 21.6519 28.1209 107.4242 0.0000 0.0000 0.0000
# 4 0.0000 0.0000 0.0000 27.2351 0.0000 0.0000
# 5 0.0000 0.0000 0.0000 0.0000 32.5687 0.0000
# 6 0.0000 0.0000 0.0000 0.0000 0.0000 43.1652
#
#
#
# Elastic Compliance Matrix: (Units=1/GPa)
#
#
# Indices 1 2 3 4 5 6 
#
# 1 0.015281 -0.006291 -0.001433 0.000000 0.000000 0.000000
# 2 -0.006291 0.012534 -0.002013 0.000000 0.000000 0.000000
# 3 -0.001433 -0.002013 0.010125 0.000000 0.000000 0.000000
# 4 0.000000 0.000000 0.000000 0.036717 0.000000 0.000000
# 5 0.000000 0.000000 0.000000 0.000000 0.030704 0.000000
# 6 0.000000 0.000000 0.000000 0.000000 0.000000 0.023167
#
#
# Mechanical properties :
#
#
# Convention : Reuss Voigt Hill
#
# Bulk Modulus (GPa) = 54.15758 55.09954 54.62856
# Shear Modulus (GPa) = 32.43445 34.28445 33.35945
#
# Velocity S-wave (km/s) = 4.02508 4.13828 4.08208
# Velocity P-wave (km/s) = 6.97524 7.09623 7.03599
#
# Compressibility (1/GPa) = 0.01846464
#
# Stress axis : x y z
#
# Youngs Moduli (GPa) = 65.44243 79.78335 98.76861
#
# Poissons Ratio (x) = 0.50194 0.14153
# Poissons Ratio (y) = 0.41172 0.19882
# Poissons Ratio (z) = 0.09378 0.16061
#
# Static dielectric constant tensor:
#      x y z
#    x 3.615130 0.000000 0.000000 
#    y 0.000000 3.817210 0.000000 
#    z 0.000000 0.000000 3.703630 
# 
# 
# High freq. dielectric constant tensor:
#      x y z
#    x 1.783640 0.000000 0.000000 
#    y 0.000000 1.796970 0.000000 
#    z 0.000000 0.000000 1.789040 
# 
# From -- ./inp_files/13152.got.cif
#   From: 2010.03.12/outbox.cif.g09.slc.cpg/sg40_7_cif.got.tgz:13152.got - 2010.04.14 01:38:03.
