data_PCOD8184119
_publ_section_title
;
Structure prediction by ZEFSAII (Michael W. Deem and Ramdas Pophale) SiO2 
 PCOD8184119
Probable space group: A M A 2
;
_chemical_formula_sum "Si O2"
_cell_formula_units_Z 64
_cell_length_a 17.968031
_cell_length_b 14.606557
_cell_length_c 12.808613
_cell_angle_alpha 90.000000
_cell_angle_beta 90.000000
_cell_angle_gamma 90.000000
_cell_volume 3361.634174
_symmetry_space_group_name_H-M "A M A 2"
_symmetry_group_IT_number 40
_symmetry_cell_setting 'orthorhombic'
loop_
_space_group_symop_operation_xyz
x,y,z
-x,-y,z
1/2-x,y,z
1/2+x,-y,z
x,1/2+y,1/2+z
-x,1/2-y,1/2+z
1/2-x,1/2+y,1/2+z
1/2+x,1/2-y,1/2+z
loop_
_atom_site_type_symbol
_atom_site_label
_atom_site_fract_x
_atom_site_fract_y
_atom_site_fract_z
Si Si1 0.882524 0.010764 0.615180
Si Si2 0.335374 0.558016 0.891654
Si Si3 0.933077 0.767421 0.810909
Si Si4 0.431351 0.226859 0.438929
Si Si5 0.163085 0.400791 0.488274
Si Si6 0.497665 0.142039 0.630859
Si Si7 0.833051 0.444822 0.327645
Si Si8 0.163022 0.900290 0.230327
O O1 0.917360 0.113887 0.600474
O O2 0.842071 0.985195 0.507465
O O3 0.952089 0.950068 0.647903
O O4 0.830077 0.999939 0.716788
O O5 0.250000 0.587581 0.875097
O O6 0.387636 0.646583 0.877055
O O7 0.360416 0.486096 0.802713
O O8 0.000148 0.795483 0.733150
O O9 0.883859 0.855760 0.834857
O O10 0.880948 0.688091 0.767957
O O11 0.981893 0.734254 0.907396
O O12 0.383849 0.318869 0.437642
O O13 0.443091 0.198274 0.556677
O O14 0.250000 0.375925 0.476580
O O15 0.140567 0.489065 0.421089
O O16 0.143323 0.420624 0.609436
O O17 0.750000 0.410521 0.350197
O O18 0.250000 0.879161 0.244273
#
# Coordination Sequence:
#
# PCOD8184119 Si02
#       8
#     8   8   8   8   8   8   8   8
#     4   9  17  32  56  82 111 141 183 245 295 345
#     4  10  21  37  59  86 113 153 202 250 298 350
#     4  11  21  36  57  85 118 154 196 243 298 355
#     4  11  21  36  57  85 118 154 196 243 298 355
#     4  10  21  39  61  86 119 159 204 245 290 360
#     4   9  18  32  50  79 112 142 183 226 288 349
#     4  10  21  37  59  86 113 153 202 250 298 350
#     4  10  21  39  61  86 119 159 204 245 290 360
#
# _framework density 19.038359
#
# number of rings (size 3 to 8) (size 9 to 14) (size 15 to 20)
#    0.000    2.000    1.250    2.625    0.000    3.000 
#    2.250    1.250    0.000    0.000    0.000    0.000 
#    0.000    0.000    0.000    0.000    0.000    0.000 
#
# Total GULP energy -396471.414616 kJ/mol
# GULP energy per Si atom -12389.731707 kJ/mol
# Density = 1.899503 g / cm^3
# Si number density = 19.038359 Si / 1000 Ang^3
#
#
#
# Elastic Constant Matrix: (Units=GPa)
#
#
# Indices 1 2 3 4 5 6 
#
# 1 79.5517 62.6834 34.3546 0.0000 0.0000 0.0000
# 2 62.6834 120.4317 61.3212 0.0000 0.0000 0.0000
# 3 34.3546 61.3212 103.2470 0.0000 0.0000 0.0000
# 4 0.0000 0.0000 0.0000 -8.8166 0.0000 0.0000
# 5 0.0000 0.0000 0.0000 0.0000 24.7238 0.0000
# 6 0.0000 0.0000 0.0000 0.0000 0.0000 30.5959
#
#
#
# Elastic Compliance Matrix: (Units=1/GPa)
#
#
# Indices 1 2 3 4 5 6 
#
# 1 0.021348 -0.010743 -0.000722 0.000000 0.000000 0.000000
# 2 -0.010743 0.017310 -0.006706 0.000000 0.000000 0.000000
# 3 -0.000722 -0.006706 0.013909 0.000000 0.000000 0.000000
# 4 0.000000 0.000000 0.000000 -0.113422 0.000000 0.000000
# 5 0.000000 0.000000 0.000000 0.000000 0.040447 0.000000
# 6 0.000000 0.000000 0.000000 0.000000 0.000000 0.032684
#
#
# Mechanical properties :
#
#
# Convention : Reuss Voigt Hill
#
# Bulk Modulus (GPa) = 61.64237 68.88321 65.26279
# Shear Modulus (GPa) = 92.54695 18.95869 55.75282
#
# Velocity S-wave (km/s) = 6.97971 3.15908 5.41738
# Velocity P-wave (km/s) = 9.86931 7.04033 8.57233
#
# Compressibility (1/GPa) = 0.01622261
#
# Stress axis : x y z
#
# Youngs Moduli (GPa) = 46.84318 57.77054 71.89697
#
# Poissons Ratio (x) = 0.62065 0.05194
# Poissons Ratio (y) = 0.50326 0.48214
# Poissons Ratio (z) = 0.03384 0.38741
#
# Static dielectric constant tensor:
#      x y z
#    x 3.768800 0.000000 0.000000 
#    y 0.000000 3.666580 0.000000 
#    z 0.000000 0.000000 3.513170 
# 
# 
# High freq. dielectric constant tensor:
#      x y z
#    x 1.740240 0.000000 0.000000 
#    y 0.000000 1.736020 0.000000 
#    z 0.000000 0.000000 1.741260 
# 
# From -- ./inp_files/13106.got.cif
#   From: 2010.03.12/outbox.cif.g09.slc.cpg/sg40_7_cif.got.tgz:13106.got - 2010.04.14 01:38:03.
