data_PCOD8184888
_publ_section_title
;
Structure prediction by ZEFSAII (Michael W. Deem and Ramdas Pophale) SiO2 
 PCOD8184888
Probable space group: A B A 2
;
_chemical_formula_sum "Si O2"
_cell_formula_units_Z 56
_cell_length_a 32.284297
_cell_length_b 13.726414
_cell_length_c 5.532052
_cell_angle_alpha 90.000000
_cell_angle_beta 90.000000
_cell_angle_gamma 90.000000
_cell_volume 2451.515712
_symmetry_space_group_name_H-M "A B A 2"
_symmetry_group_IT_number 41
_symmetry_cell_setting 'orthorhombic'
loop_
_space_group_symop_operation_xyz
x,y,z
-x,-y,z
1/2-x,y,1/2+z
1/2+x,-y,1/2+z
x,1/2+y,1/2+z
-x,1/2-y,1/2+z
1/2-x,1/2+y,z
1/2+x,1/2-y,z
loop_
_atom_site_type_symbol
_atom_site_label
_atom_site_fract_x
_atom_site_fract_y
_atom_site_fract_z
Si Si1 0.913188 0.900142 0.593710
Si Si2 0.915237 0.602773 0.298046
Si Si3 0.842257 0.146474 0.101776
Si Si4 0.111867 0.732346 0.470746
Si Si5 0.524938 0.744204 0.956760
Si Si6 0.774384 0.511720 0.798846
Si Si7 0.829877 0.834952 0.346432
O O1 0.914849 0.857016 0.866669
O O2 0.944513 0.838827 0.428131
O O3 0.866379 0.891319 0.489789
O O4 0.926430 0.013153 0.621930
O O5 0.869588 0.581408 0.414142
O O6 0.952106 0.636987 0.477386
O O7 0.914349 0.705972 0.157900
O O8 0.816226 0.232988 0.972485
O O9 0.878278 0.196005 0.252611
O O10 0.813994 0.081376 0.274730
O O11 0.154427 0.690126 0.579124
O O12 0.497066 0.744862 0.716403
O O13 0.748145 0.533153 0.554180
O O14 0.789109 0.400338 0.815951
#
# Coordination Sequence:
#
# PCOD8184888 Si02
#       7
#     8   8   8   8   8   8   8
#     4  11  23  44  76 104 137 197 244 295 354 440
#     4  11  23  44  76 104 137 197 244 295 354 440
#     4  10  23  43  75 101 138 193 248 296 356 445
#     4  10  19  42  72 107 136 178 262 302 335 426
#     4  12  27  50  70 109 158 182 234 310 371 426
#     4  12  30  46  66 110 153 188 241 314 370 426
#     4  10  23  43  75 101 138 193 248 296 356 445
#
# _framework density 22.843011000000001
#
# number of rings (size 3 to 8) (size 9 to 14) (size 15 to 20)
#    0.000    1.143    4.286    2.571   10.000    1.714 
#    0.000    4.286    0.000    0.000    0.000    0.000 
#    0.000    0.000    0.000    0.000    0.000    0.000 
#
# Total GULP energy -346925.830331 kJ/mol
# GULP energy per Si atom -12390.208226 kJ/mol
# Density = 2.279102 g / cm^3
# Si number density = 22.843011 Si / 1000 Ang^3
#
#
#
# Elastic Constant Matrix: (Units=GPa)
#
#
# Indices 1 2 3 4 5 6 
#
# 1 57.9435 29.9766 21.6773 0.0000 0.0000 0.0000
# 2 29.9766 94.7196 18.0683 0.0000 0.0000 0.0000
# 3 21.6773 18.0683 107.2380 0.0000 0.0000 0.0000
# 4 0.0000 0.0000 0.0000 33.3971 0.0000 0.0000
# 5 0.0000 0.0000 0.0000 0.0000 34.8178 0.0000
# 6 0.0000 0.0000 0.0000 0.0000 0.0000 28.6224
#
#
#
# Elastic Compliance Matrix: (Units=1/GPa)
#
#
# Indices 1 2 3 4 5 6 
#
# 1 0.021738 -0.006242 -0.003342 0.000000 0.000000 0.000000
# 2 -0.006242 0.012700 -0.000878 0.000000 0.000000 0.000000
# 3 -0.003342 -0.000878 0.010149 0.000000 0.000000 0.000000
# 4 0.000000 0.000000 0.000000 0.029943 0.000000 0.000000
# 5 0.000000 0.000000 0.000000 0.000000 0.028721 0.000000
# 6 0.000000 0.000000 0.000000 0.000000 0.000000 0.034938
#
#
# Mechanical properties :
#
#
# Convention : Reuss Voigt Hill
#
# Bulk Modulus (GPa) = 42.26198 44.37171 43.31685
# Shear Modulus (GPa) = 29.94003 32.04607 30.99305
#
# Velocity S-wave (km/s) = 3.62427 3.74957 3.68745
# Velocity P-wave (km/s) = 6.00458 6.18163 6.09375
#
# Compressibility (1/GPa) = 0.02366193
#
# Stress axis : x y z
#
# Youngs Moduli (GPa) = 46.00272 78.73756 98.53530
#
# Poissons Ratio (x) = 0.49148 0.32935
# Poissons Ratio (y) = 0.28715 0.08652
# Poissons Ratio (z) = 0.15376 0.06914
#
# Static dielectric constant tensor:
#      x y z
#    x 3.936920 0.000000 0.000000 
#    y 0.000000 4.130180 0.000000 
#    z 0.000000 0.000000 4.375830 
# 
# 
# High freq. dielectric constant tensor:
#      x y z
#    x 1.882550 0.000000 0.000000 
#    y 0.000000 1.900050 0.000000 
#    z 0.000000 0.000000 1.913720 
# 
# From -- ./inp_files/1339.got.cif
#   From: 2010.03.12/outbox.cif.g09.slc.cpg/sg41_1_cif.got.tgz:1339.got - 2010.04.14 01:55:53.
