data_PCOD8184467
_publ_section_title
;
Structure prediction by ZEFSAII (Michael W. Deem and Ramdas Pophale) SiO2 
 PCOD8184467
Probable space group: A M A 2
;
_chemical_formula_sum "Si O2"
_cell_formula_units_Z 60
_cell_length_a 24.791333
_cell_length_b 9.620693
_cell_length_c 11.345673
_cell_angle_alpha 90.000000
_cell_angle_beta 90.000000
_cell_angle_gamma 90.000000
_cell_volume 2706.054242
_symmetry_space_group_name_H-M "A M A 2"
_symmetry_group_IT_number 40
_symmetry_cell_setting 'orthorhombic'
loop_
_space_group_symop_operation_xyz
x,y,z
-x,-y,z
1/2-x,y,z
1/2+x,-y,z
x,1/2+y,1/2+z
-x,1/2-y,1/2+z
1/2-x,1/2+y,1/2+z
1/2+x,1/2-y,1/2+z
loop_
_atom_site_type_symbol
_atom_site_label
_atom_site_fract_x
_atom_site_fract_y
_atom_site_fract_z
Si Si1 0.610888 0.998118 0.056970
Si Si2 0.689832 0.900545 0.496333
Si Si3 0.000000 0.000000 0.778374
Si Si4 0.690429 0.094175 0.894991
Si Si5 0.544685 0.734665 0.446269
Si Si6 0.567465 0.215571 0.493085
Si Si7 0.392783 0.007622 0.333075
Si Si8 0.386206 0.977406 0.679919
O O1 0.610710 0.972641 0.194819
O O2 0.579506 0.879520 0.984372
O O3 0.671833 0.999018 0.005639
O O4 0.583740 0.146314 0.029501
O O5 0.750000 0.951681 0.530475
O O6 0.692131 0.748286 0.443456
O O7 0.666685 0.997948 0.391499
O O8 0.650997 0.909581 0.611800
O O9 0.984265 0.137885 0.849796
O O10 0.945583 0.959191 0.705147
O O11 0.750000 0.047511 0.851569
O O12 0.645049 0.079037 0.794352
O O13 0.496058 0.800427 0.523994
O O14 0.576942 0.859430 0.386876
O O15 0.605260 0.154759 0.595277
O O16 0.577821 0.136124 0.368774
#
# Coordination Sequence:
#
# PCOD8184467 Si02
#       8
#     8   8   4   8   8   8   8   8
#     4  12  24  46  66  99 140 176 231 282 334 408
#     4  10  22  44  70  96 132 178 226 281 340 403
#     4  12  22  40  68  94 138 182 226 280 338 414
#     4  11  23  44  70  98 134 179 231 283 343 406
#     4  12  23  45  63 101 139 186 225 275 344 413
#     4  11  25  42  67 100 141 183 227 279 343 412
#     4  11  26  45  66 100 141 174 231 282 336 410
#     4  11  24  41  66 104 136 178 228 280 344 408
#
# _framework density 22.172504
#
# number of rings (size 3 to 8) (size 9 to 14) (size 15 to 20)
#    0.000    0.800    4.000    2.400    3.733    5.867 
#    0.000    3.333    0.000    0.000    0.000    0.000 
#    0.000    0.000    0.000    0.000    0.000    0.000 
#
# Total GULP energy -371845.746514 kJ/mol
# GULP energy per Si atom -12394.858217 kJ/mol
# Density = 2.212204 g / cm^3
# Si number density = 22.172504 Si / 1000 Ang^3
#
#
#
# Elastic Constant Matrix: (Units=GPa)
#
#
# Indices 1 2 3 4 5 6 
#
# 1 187.6407 35.9143 57.5150 0.0000 0.0000 0.0000
# 2 35.9143 73.1576 54.1793 0.0000 0.0000 0.0000
# 3 57.5150 54.1793 88.4122 0.0000 0.0000 0.0000
# 4 0.0000 0.0000 0.0000 24.6310 0.0000 0.0000
# 5 0.0000 0.0000 0.0000 0.0000 32.9933 0.0000
# 6 0.0000 0.0000 0.0000 0.0000 0.0000 16.1922
#
#
#
# Elastic Compliance Matrix: (Units=1/GPa)
#
#
# Indices 1 2 3 4 5 6 
#
# 1 0.006657 -0.000111 -0.004262 0.000000 0.000000 0.000000
# 2 -0.000111 0.025029 -0.015266 0.000000 0.000000 0.000000
# 3 -0.004262 -0.015266 0.023438 0.000000 0.000000 0.000000
# 4 0.000000 0.000000 0.000000 0.040599 0.000000 0.000000
# 5 0.000000 0.000000 0.000000 0.000000 0.030309 0.000000
# 6 0.000000 0.000000 0.000000 0.000000 0.000000 0.061758
#
#
# Mechanical properties :
#
#
# Convention : Reuss Voigt Hill
#
# Bulk Modulus (GPa) = 63.10773 71.60310 67.35541
# Shear Modulus (GPa) = 21.51908 28.20341 24.86125
#
# Velocity S-wave (km/s) = 3.11871 3.57038 3.35216
# Velocity P-wave (km/s) = 6.44146 7.02571 6.73992
#
# Compressibility (1/GPa) = 0.01584592
#
# Stress axis : x y z
#
# Youngs Moduli (GPa) = 150.21411 39.95331 42.66527
#
# Poissons Ratio (x) = 0.00445 0.18186
# Poissons Ratio (y) = 0.01674 0.65131
# Poissons Ratio (z) = 0.64027 0.60991
#
# Static dielectric constant tensor:
#      x y z
#    x 4.805650 0.000000 0.000000 
#    y 0.000000 3.918510 0.000000 
#    z 0.000000 0.000000 4.020750 
# 
# 
# High freq. dielectric constant tensor:
#      x y z
#    x 1.885440 0.000000 0.000000 
#    y 0.000000 1.870140 0.000000 
#    z 0.000000 0.000000 1.869850 
# 
# From -- ./inp_files/14221.got.cif
#   From: 2010.03.12/outbox.cif.g09.slc.cpg/sg40_8_cif.got.tgz:14221.got - 2010.04.14 01:38:03.
