data_PCOD8184973
_publ_section_title
;
Structure prediction by ZEFSAII (Michael W. Deem and Ramdas Pophale) SiO2 
 PCOD8184973
Probable space group: A B A 2
;
_chemical_formula_sum "Si O2"
_cell_formula_units_Z 60
_cell_length_a 18.335207
_cell_length_b 13.800234
_cell_length_c 11.895830
_cell_angle_alpha 90.000000
_cell_angle_beta 90.000000
_cell_angle_gamma 90.000000
_cell_volume 3010.003614
_symmetry_space_group_name_H-M "A B A 2"
_symmetry_group_IT_number 41
_symmetry_cell_setting 'orthorhombic'
loop_
_space_group_symop_operation_xyz
x,y,z
-x,-y,z
1/2-x,y,1/2+z
1/2+x,-y,1/2+z
x,1/2+y,1/2+z
-x,1/2-y,1/2+z
1/2-x,1/2+y,z
1/2+x,1/2-y,z
loop_
_atom_site_type_symbol
_atom_site_label
_atom_site_fract_x
_atom_site_fract_y
_atom_site_fract_z
Si Si1 0.369070 0.956946 0.571810
Si Si2 0.360894 0.769183 0.309176
Si Si3 0.623422 0.827958 0.576855
Si Si4 0.357837 0.321409 0.279535
Si Si5 0.000000 0.000000 0.911022
Si Si6 0.732350 0.560782 0.877645
Si Si7 0.518641 0.795001 0.389337
Si Si8 0.727822 0.341247 0.865928
O O1 0.374913 0.872253 0.662209
O O2 0.435586 0.951057 0.484187
O O3 0.291472 0.941508 0.508530
O O4 0.372744 0.063375 0.628086
O O5 0.367155 0.745878 0.177777
O O6 0.326707 0.876369 0.309360
O O7 0.435900 0.762121 0.376950
O O8 0.310800 0.693904 0.378092
O O9 0.545145 0.804886 0.519146
O O10 0.685557 0.817778 0.481476
O O11 0.313733 0.395566 0.362075
O O12 0.435210 0.288553 0.328758
O O13 0.309068 0.223647 0.266539
O O14 0.970731 0.906627 0.839411
O O15 0.727155 0.452486 0.828403
#
# Coordination Sequence:
#
# PCOD8184973 Si02
#       8
#     8   8   8   8   4   8   8   8
#     4  10  20  38  66  91 117 166 208 244 305 377
#     4  11  21  36  65  92 117 166 206 253 312 362
#     4   9  21  40  60  92 125 155 208 255 302 372
#     4  10  22  35  61  95 120 154 206 259 303 354
#     4  10  20  40  64  86 122 164 212 254 300 376
#     4  10  21  40  61  90 122 164 206 253 305 371
#     4  10  22  37  59  93 122 155 204 259 299 367
#     4   9  21  41  59  90 122 160 208 260 302 371
#
# _framework density 19.933530000000001
#
# number of rings (size 3 to 8) (size 9 to 14) (size 15 to 20)
#    0.000    2.133    1.333    1.600    3.733    6.400 
#    0.000    0.000    0.000    3.200   13.867    0.000 
#    0.000    0.000    0.000    0.000    0.000    0.000 
#
# Total GULP energy -371683.298434 kJ/mol
# GULP energy per Si atom -12389.443281 kJ/mol
# Density = 1.988816 g / cm^3
# Si number density = 19.933530 Si / 1000 Ang^3
#
#
#
# Elastic Constant Matrix: (Units=GPa)
#
#
# Indices 1 2 3 4 5 6 
#
# 1 143.1370 61.4306 38.4724 0.0000 0.0000 0.0000
# 2 61.4306 164.7524 58.6254 0.0000 0.0000 0.0000
# 3 38.4724 58.6254 70.8934 0.0000 0.0000 0.0000
# 4 0.0000 0.0000 0.0000 39.2784 0.0000 0.0000
# 5 0.0000 0.0000 0.0000 0.0000 22.0802 0.0000
# 6 0.0000 0.0000 0.0000 0.0000 0.0000 29.9421
#
#
#
# Elastic Compliance Matrix: (Units=1/GPa)
#
#
# Indices 1 2 3 4 5 6 
#
# 1 0.008717 -0.002220 -0.002895 0.000000 0.000000 0.000000
# 2 -0.002220 0.009166 -0.006375 0.000000 0.000000 0.000000
# 3 -0.002895 -0.006375 0.020948 0.000000 0.000000 0.000000
# 4 0.000000 0.000000 0.000000 0.025459 0.000000 0.000000
# 5 0.000000 0.000000 0.000000 0.000000 0.045289 0.000000
# 6 0.000000 0.000000 0.000000 0.000000 0.000000 0.033398
#
#
# Mechanical properties :
#
#
# Convention : Reuss Voigt Hill
#
# Bulk Modulus (GPa) = 63.08403 77.31548 70.19976
# Shear Modulus (GPa) = 29.19852 32.94379 31.07115
#
# Velocity S-wave (km/s) = 3.83141 4.06973 3.95237
# Velocity P-wave (km/s) = 7.16163 7.80733 7.49144
#
# Compressibility (1/GPa) = 0.01585187
#
# Stress axis : x y z
#
# Youngs Moduli (GPa) = 114.71533 109.09802 47.73674
#
# Poissons Ratio (x) = 0.24224 0.13817
# Poissons Ratio (y) = 0.25471 0.30432
# Poissons Ratio (z) = 0.33205 0.69549
#
# Static dielectric constant tensor:
#      x y z
#    x 3.885330 0.000000 0.000000 
#    y 0.000000 3.990890 0.000000 
#    z 0.000000 0.000000 3.199510 
# 
# 
# High freq. dielectric constant tensor:
#      x y z
#    x 1.789110 0.000000 0.000000 
#    y 0.000000 1.795070 0.000000 
#    z 0.000000 0.000000 1.732290 
# 
# From -- ./inp_files/6016.got.cif
#   From: 2010.03.12/outbox.cif.g09.slc.cpg/sg41_4_cif.got.tgz:6016.got - 2010.04.14 01:55:53.
