data_PCOD8184196
_publ_section_title
;
Structure prediction by ZEFSAII (Michael W. Deem and Ramdas Pophale) SiO2 
 PCOD8184196
Probable space group: A M A 2
;
_chemical_formula_sum "Si O2"
_cell_formula_units_Z 56
_cell_length_a 8.371448
_cell_length_b 20.861616
_cell_length_c 15.334710
_cell_angle_alpha 90.000000
_cell_angle_beta 90.000000
_cell_angle_gamma 90.000000
_cell_volume 2678.083405
_symmetry_space_group_name_H-M "A M A 2"
_symmetry_group_IT_number 40
_symmetry_cell_setting 'orthorhombic'
loop_
_space_group_symop_operation_xyz
x,y,z
-x,-y,z
1/2-x,y,z
1/2+x,-y,z
x,1/2+y,1/2+z
-x,1/2-y,1/2+z
1/2-x,1/2+y,1/2+z
1/2+x,1/2-y,1/2+z
loop_
_atom_site_type_symbol
_atom_site_label
_atom_site_fract_x
_atom_site_fract_y
_atom_site_fract_z
Si Si1 0.940068 0.797644 0.376150
Si Si2 0.932685 0.433989 0.469410
Si Si3 0.438803 0.070903 0.458555
Si Si4 0.934166 0.756755 0.184565
Si Si5 0.568115 0.060354 0.787238
Si Si6 0.432910 0.129194 0.639194
Si Si7 0.934222 0.696113 0.522605
O O1 0.750000 0.796923 0.376050
O O2 0.999787 0.870962 0.395623
O O3 0.002665 0.776857 0.279796
O O4 0.000983 0.747395 0.449950
O O5 0.750000 0.422345 0.498812
O O6 0.000000 0.500000 0.512356
O O7 0.940884 0.439306 0.365168
O O8 0.050431 0.375405 0.486922
O O9 0.250000 0.068761 0.455440
O O10 0.497345 0.090465 0.555404
O O11 0.500000 0.000000 0.431141
O O12 0.750000 0.736566 0.193081
O O13 0.044186 0.705091 0.131706
O O14 0.959314 0.810984 0.111277
O O15 0.750000 0.056206 0.820056
O O16 0.547084 0.119569 0.722881
O O17 0.500000 0.000000 0.730406
O O18 0.250000 0.111072 0.657068
O O19 0.750000 0.711145 0.542158
#
# Coordination Sequence:
#
# PCOD8184196 Si02
#       7
#     8   8   8   8   8   8   8
#     4   9  20  40  62  85 121 166 205 253 318 376
#     4  11  22  38  59  87 119 157 203 250 305 370
#     4  10  21  39  60  85 118 163 207 257 318 377
#     4  11  22  37  61  90 118 155 208 261 313 377
#     4  11  21  34  52  80 117 156 195 239 298 365
#     4  11  21  36  57  83 118 157 201 253 315 378
#     4  11  21  40  64  88 122 163 202 252 316 375
#
# _framework density 20.910478000000001
#
# number of rings (size 3 to 8) (size 9 to 14) (size 15 to 20)
#    0.000    1.429    1.429    6.000    0.000    3.429 
#    0.000    4.286    0.000    1.714    0.000    0.000 
#    0.000    0.000    0.000    0.000    0.000    0.000 
#
# Total GULP energy -346873.790426 kJ/mol
# GULP energy per Si atom -12388.349658 kJ/mol
# Density = 2.086288 g / cm^3
# Si number density = 20.910478 Si / 1000 Ang^3
#
#
#
# Elastic Constant Matrix: (Units=GPa)
#
#
# Indices 1 2 3 4 5 6 
#
# 1 63.5659 14.4273 22.8377 0.0000 0.0000 0.0000
# 2 14.4273 129.9782 42.5132 0.0000 0.0000 0.0000
# 3 22.8377 42.5132 116.0511 0.0000 0.0000 0.0000
# 4 0.0000 0.0000 0.0000 28.5975 0.0000 0.0000
# 5 0.0000 0.0000 0.0000 0.0000 23.9934 0.0000
# 6 0.0000 0.0000 0.0000 0.0000 0.0000 35.5325
#
#
#
# Elastic Compliance Matrix: (Units=1/GPa)
#
#
# Indices 1 2 3 4 5 6 
#
# 1 0.017021 -0.000902 -0.003019 0.000000 0.000000 0.000000
# 2 -0.000902 0.008789 -0.003042 0.000000 0.000000 0.000000
# 3 -0.003019 -0.003042 0.010325 0.000000 0.000000 0.000000
# 4 0.000000 0.000000 0.000000 0.034968 0.000000 0.000000
# 5 0.000000 0.000000 0.000000 0.000000 0.041678 0.000000
# 6 0.000000 0.000000 0.000000 0.000000 0.000000 0.028143
#
#
# Mechanical properties :
#
#
# Convention : Reuss Voigt Hill
#
# Bulk Modulus (GPa) = 45.02670 52.12794 48.57732
# Shear Modulus (GPa) = 30.81586 32.94581 31.88083
#
# Velocity S-wave (km/s) = 3.84305 3.97364 3.90889
# Velocity P-wave (km/s) = 6.42432 6.78501 6.60713
#
# Compressibility (1/GPa) = 0.02220904
#
# Stress axis : x y z
#
# Youngs Moduli (GPa) = 58.75054 113.78235 96.84788
#
# Poissons Ratio (x) = 0.10261 0.29241
# Poissons Ratio (y) = 0.05298 0.29462
# Poissons Ratio (z) = 0.17738 0.34614
#
# Static dielectric constant tensor:
#      x y z
#    x 3.344020 0.000000 0.000000 
#    y 0.000000 4.174540 0.000000 
#    z 0.000000 0.000000 3.685720 
# 
# 
# High freq. dielectric constant tensor:
#      x y z
#    x 1.802280 0.000000 0.000000 
#    y 0.000000 1.832310 0.000000 
#    z 0.000000 0.000000 1.802960 
# 
# From -- ./inp_files/15326.got.cif
#   From: 2010.03.12/outbox.cif.g09.slc.cpg/sg40_8_cif.got.tgz:15326.got - 2010.04.14 01:38:03.
