data_PCOD8184012
_publ_section_title
;
Structure prediction by ZEFSAII (Michael W. Deem and Ramdas Pophale) SiO2 
 PCOD8184012
Probable space group: A M A 2
;
_chemical_formula_sum "Si O2"
_cell_formula_units_Z 48
_cell_length_a 15.256885
_cell_length_b 27.561575
_cell_length_c 5.126921
_cell_angle_alpha 90.000000
_cell_angle_beta 90.000000
_cell_angle_gamma 90.000000
_cell_volume 2155.889661
_symmetry_space_group_name_H-M "A M A 2"
_symmetry_group_IT_number 40
_symmetry_cell_setting 'orthorhombic'
loop_
_space_group_symop_operation_xyz
x,y,z
-x,-y,z
1/2-x,y,z
1/2+x,-y,z
x,1/2+y,1/2+z
-x,1/2-y,1/2+z
1/2-x,1/2+y,1/2+z
1/2+x,1/2-y,1/2+z
loop_
_atom_site_type_symbol
_atom_site_label
_atom_site_fract_x
_atom_site_fract_y
_atom_site_fract_z
Si Si1 0.651374 0.831668 0.853580
Si Si2 0.554065 0.742531 0.028990
Si Si3 0.567411 0.554489 0.367036
Si Si4 0.481627 0.859917 0.556722
Si Si5 0.848217 0.012970 0.369446
Si Si6 0.584909 0.918863 0.165852
O O1 0.750000 0.830796 0.737286
O O2 0.634581 0.779848 0.996095
O O3 0.578664 0.839792 0.632766
O O4 0.645571 0.876494 0.054448
O O5 0.476765 0.756504 0.828927
O O6 0.578564 0.685954 0.970876
O O7 0.632814 0.542424 0.603154
O O8 0.464583 0.546296 0.450815
O O9 0.569176 0.612119 0.289047
O O10 0.587152 0.525165 0.104624
O O11 0.501352 0.896493 0.320073
O O12 0.750000 0.026017 0.455692
O O13 0.854599 0.954843 0.331070
#
# Coordination Sequence:
#
# PCOD8184012 Si02
#       6
#     8   8   8   8   8   8
#     4  10  22  39  64 102 136 164 211 279 338 383
#     4  10  20  40  64  93 127 172 210 257 322 396
#     4  11  25  43  68  94 129 178 228 263 319 405
#     4  10  22  41  69  93 129 175 225 263 316 403
#     4  12  27  43  64  97 137 171 218 284 337 375
#     4  11  23  41  69  96 128 178 221 268 324 405
#
# _framework density 22.264590999999999
#
# number of rings (size 3 to 8) (size 9 to 14) (size 15 to 20)
#    0.000    1.333    3.333    1.500    7.000    1.333 
#    0.000    1.667    0.000    0.000    0.000    0.000 
#    0.000    0.000    0.000    0.000    0.000    0.000 
#
# Total GULP energy -297413.261595 kJ/mol
# GULP energy per Si atom -12392.219233 kJ/mol
# Density = 2.221392 g / cm^3
# Si number density = 22.264591 Si / 1000 Ang^3
#
#
#
# Elastic Constant Matrix: (Units=GPa)
#
#
# Indices 1 2 3 4 5 6 
#
# 1 80.2601 57.9272 22.6615 0.0000 0.0000 0.0000
# 2 57.9272 112.4251 35.5838 0.0000 0.0000 0.0000
# 3 22.6615 35.5838 97.8511 0.0000 0.0000 0.0000
# 4 0.0000 0.0000 0.0000 36.9520 0.0000 0.0000
# 5 0.0000 0.0000 0.0000 0.0000 23.5487 0.0000
# 6 0.0000 0.0000 0.0000 0.0000 0.0000 19.6092
#
#
#
# Elastic Compliance Matrix: (Units=1/GPa)
#
#
# Indices 1 2 3 4 5 6 
#
# 1 0.019922 -0.009950 -0.000995 0.000000 0.000000 0.000000
# 2 -0.009950 0.015021 -0.003158 0.000000 0.000000 0.000000
# 3 -0.000995 -0.003158 0.011599 0.000000 0.000000 0.000000
# 4 0.000000 0.000000 0.000000 0.027062 0.000000 0.000000
# 5 0.000000 0.000000 0.000000 0.000000 0.042465 0.000000
# 6 0.000000 0.000000 0.000000 0.000000 0.000000 0.050996
#
#
# Mechanical properties :
#
#
# Convention : Reuss Voigt Hill
#
# Bulk Modulus (GPa) = 54.54129 58.09792 56.31961
# Shear Modulus (GPa) = 24.82833 27.64624 26.23728
#
# Velocity S-wave (km/s) = 3.34301 3.52762 3.43655
# Velocity P-wave (km/s) = 6.28100 6.53782 6.41070
#
# Compressibility (1/GPa) = 0.01833473
#
# Stress axis : x y z
#
# Youngs Moduli (GPa) = 50.19678 66.57379 86.21708
#
# Poissons Ratio (x) = 0.66238 0.08583
# Poissons Ratio (y) = 0.49944 0.27229
# Poissons Ratio (z) = 0.04997 0.21025
#
# Static dielectric constant tensor:
#      x y z
#    x 3.523390 0.000000 0.000000 
#    y 0.000000 4.522600 0.000000 
#    z 0.000000 0.000000 4.038480 
# 
# 
# High freq. dielectric constant tensor:
#      x y z
#    x 1.825330 0.000000 0.000000 
#    y 0.000000 1.900750 0.000000 
#    z 0.000000 0.000000 1.882490 
# 
# From -- ./inp_files/1354.got.cif
#   From: 2010.03.12/outbox.cif.g09.slc.cpg/sg40_1_cif.got.tgz:1354.got - 2010.04.14 01:38:03.
