data_PCOD8184382
_publ_section_title
;
Structure prediction by ZEFSAII (Michael W. Deem and Ramdas Pophale) SiO2 
 PCOD8184382
Probable space group: A M A 2
;
_chemical_formula_sum "Si O2"
_cell_formula_units_Z 64
_cell_length_a 8.796263
_cell_length_b 23.677526
_cell_length_c 15.322046
_cell_angle_alpha 90.000000
_cell_angle_beta 90.000000
_cell_angle_gamma 90.000000
_cell_volume 3191.179915
_symmetry_space_group_name_H-M "A M A 2"
_symmetry_group_IT_number 40
_symmetry_cell_setting 'orthorhombic'
loop_
_space_group_symop_operation_xyz
x,y,z
-x,-y,z
1/2-x,y,z
1/2+x,-y,z
x,1/2+y,1/2+z
-x,1/2-y,1/2+z
1/2-x,1/2+y,1/2+z
1/2+x,1/2-y,1/2+z
loop_
_atom_site_type_symbol
_atom_site_label
_atom_site_fract_x
_atom_site_fract_y
_atom_site_fract_z
Si Si1 0.425751 0.743255 0.467690
Si Si2 0.575825 0.629171 0.414506
Si Si3 0.425346 0.863326 0.717304
Si Si4 0.428214 0.643216 0.719326
Si Si5 0.428877 0.439055 0.057872
Si Si6 0.927775 0.939906 0.063719
Si Si7 0.426195 0.865193 0.394999
Si Si8 0.928022 0.253860 0.153574
O O1 0.250000 0.725065 0.469354
O O2 0.522366 0.693314 0.425984
O O3 0.452732 0.798927 0.410986
O O4 0.476068 0.755604 0.565588
O O5 0.750000 0.625485 0.444195
O O6 0.555135 0.611093 0.313907
O O7 0.481046 0.585697 0.472136
O O8 0.250000 0.846078 0.699227
O O9 0.480823 0.910291 0.648390
O O10 0.531713 0.808738 0.709901
O O11 0.250000 0.656956 0.716976
O O12 0.475725 0.601273 0.642001
O O13 0.474921 0.615555 0.811681
O O14 0.526043 0.699747 0.709888
O O15 0.500000 0.500000 0.049250
O O16 0.250000 0.445674 0.055145
O O17 0.486156 0.400303 0.977984
O O18 0.750000 0.948409 0.059093
O O19 0.000000 0.000000 0.082248
O O20 0.250000 0.878274 0.377140
O O21 0.750000 0.252244 0.132763
#
# Coordination Sequence:
#
# PCOD8184382 Si02
#       8
#     8   8   8   8   8   8   8   8
#     4  11  21  38  62  89 126 165 199 246 309 366
#     4  11  23  39  64  95 124 160 203 251 305 367
#     4  10  22  42  64  90 127 164 201 249 306 363
#     4  11  24  41  63  91 125 162 200 249 309 366
#     4  10  22  42  63  87 121 162 205 254 306 356
#     4  11  25  44  65  87 120 164 207 259 310 360
#     4  10  22  40  64  90 123 163 203 250 304 362
#     4  12  23  36  62  95 125 161 204 249 302 365
#
# _framework density 20.055278000000001
#
# number of rings (size 3 to 8) (size 9 to 14) (size 15 to 20)
#    0.000    1.250    2.500    3.375    0.000    7.500 
#    0.000    3.750    0.000    0.000    0.000    0.000 
#    0.000    0.000    0.000    0.000    0.000    0.000 
#
# Total GULP energy -396998.351114 kJ/mol
# GULP energy per Si atom -12406.198472 kJ/mol
# Density = 2.000963 g / cm^3
# Si number density = 20.055278 Si / 1000 Ang^3
#
#
#
# Elastic Constant Matrix: (Units=GPa)
#
#
# Indices 1 2 3 4 5 6 
#
# 1 46.1100 40.9663 38.4969 0.0000 0.0000 0.0000
# 2 40.9663 95.4858 29.5863 0.0000 0.0000 0.0000
# 3 38.4969 29.5863 127.5345 0.0000 0.0000 0.0000
# 4 0.0000 0.0000 0.0000 3.1277 0.0000 0.0000
# 5 0.0000 0.0000 0.0000 0.0000 27.9564 0.0000
# 6 0.0000 0.0000 0.0000 0.0000 0.0000 36.3864
#
#
#
# Elastic Compliance Matrix: (Units=1/GPa)
#
#
# Indices 1 2 3 4 5 6 
#
# 1 0.043651 -0.015779 -0.009516 0.000000 0.000000 0.000000
# 2 -0.015779 0.016988 0.000822 0.000000 0.000000 0.000000
# 3 -0.009516 0.000822 0.010523 0.000000 0.000000 0.000000
# 4 0.000000 0.000000 0.000000 0.319723 0.000000 0.000000
# 5 0.000000 0.000000 0.000000 0.000000 0.035770 0.000000
# 6 0.000000 0.000000 0.000000 0.000000 0.000000 0.027483
#
#
# Mechanical properties :
#
#
# Convention : Reuss Voigt Hill
#
# Bulk Modulus (GPa) = 45.01303 54.13658 49.57480
# Shear Modulus (GPa) = 9.79458 24.16616 16.98037
#
# Velocity S-wave (km/s) = 2.21233 3.47504 2.91293
# Velocity P-wave (km/s) = 5.38693 6.56913 6.00719
#
# Compressibility (1/GPa) = 0.02221579
#
# Stress axis : x y z
#
# Youngs Moduli (GPa) = 22.90924 58.86615 95.03316
#
# Poissons Ratio (x) = 0.92885 0.90430
# Poissons Ratio (y) = 0.36148 -0.07812
# Poissons Ratio (z) = 0.21800 -0.04839
#
# Static dielectric constant tensor:
#      x y z
#    x 3.629020 0.000000 0.000000 
#    y 0.000000 3.638540 0.000000 
#    z 0.000000 0.000000 3.822150 
# 
# 
# High freq. dielectric constant tensor:
#      x y z
#    x 1.784770 0.000000 0.000000 
#    y 0.000000 1.776090 0.000000 
#    z 0.000000 0.000000 1.799140 
# 
# From -- ./inp_files/15630.got.cif
#   From: 2010.03.12/outbox.cif.g09.slc.cpg/sg40_8_cif.got.tgz:15630.got - 2010.04.14 01:38:03.
