data_PCOD8184304
_publ_section_title
;
Structure prediction by ZEFSAII (Michael W. Deem and Ramdas Pophale) SiO2 
 PCOD8184304
Probable space group: A M A 2
;
_chemical_formula_sum "Si O2"
_cell_formula_units_Z 60
_cell_length_a 25.767397
_cell_length_b 15.898679
_cell_length_c 6.608045
_cell_angle_alpha 90.000000
_cell_angle_beta 90.000000
_cell_angle_gamma 90.000000
_cell_volume 2707.101761
_symmetry_space_group_name_H-M "A M A 2"
_symmetry_group_IT_number 40
_symmetry_cell_setting 'orthorhombic'
loop_
_space_group_symop_operation_xyz
x,y,z
-x,-y,z
1/2-x,y,z
1/2+x,-y,z
x,1/2+y,1/2+z
-x,1/2-y,1/2+z
1/2-x,1/2+y,1/2+z
1/2+x,1/2-y,1/2+z
loop_
_atom_site_type_symbol
_atom_site_label
_atom_site_fract_x
_atom_site_fract_y
_atom_site_fract_z
Si Si1 0.809671 0.649039 0.781760
Si Si2 0.627936 0.907024 0.776010
Si Si3 0.691915 0.805103 0.488976
Si Si4 0.472389 0.635655 0.073051
Si Si5 0.106684 0.452394 0.574737
Si Si6 0.134957 0.738360 0.587829
Si Si7 0.053080 0.806812 0.856774
Si Si8 0.000000 0.000000 0.271243
O O1 0.750000 0.617190 0.800715
O O2 0.814515 0.716049 0.600558
O O3 0.848582 0.569623 0.741212
O O4 0.825357 0.694064 0.992286
O O5 0.677179 0.882904 0.637096
O O6 0.579797 0.914838 0.622788
O O7 0.618088 0.832187 0.931769
O O8 0.634914 0.993634 0.898404
O O9 0.750000 0.821330 0.418786
O O10 0.657795 0.805682 0.287443
O O11 0.503267 0.640495 0.285147
O O12 0.461842 0.728532 0.994095
O O13 0.503609 0.583989 0.904720
O O14 0.090564 0.362333 0.491907
O O15 0.054526 0.501341 0.647805
O O16 0.081425 0.782545 0.648233
#
# Coordination Sequence:
#
# PCOD8184304 Si02
#       8
#     8   8   8   8   8   8   8   4
#     4  10  22  41  67  97 129 169 228 288 337 407
#     4  11  24  40  64  94 137 169 216 275 337 412
#     4  10  21  42  69  96 128 174 224 279 344 408
#     4  12  23  41  63  97 133 174 227 278 336 406
#     4  12  24  43  63  98 138 179 226 279 344 414
#     4  11  20  42  66  96 124 171 219 276 343 400
#     4  12  22  39  66  95 129 174 226 275 327 400
#     4  12  26  42  66  96 140 184 222 282 352 410
#
# _framework density 22.163924999999999
#
# number of rings (size 3 to 8) (size 9 to 14) (size 15 to 20)
#    0.000    0.800    2.667    6.000    0.000    1.067 
#    0.000    0.000    0.000    0.000    0.000    0.000 
#    0.000    0.000    0.000    0.000    0.000    0.000 
#
# Total GULP energy -372028.662874 kJ/mol
# GULP energy per Si atom -12400.955429 kJ/mol
# Density = 2.211348 g / cm^3
# Si number density = 22.163925 Si / 1000 Ang^3
#
#
#
# Elastic Constant Matrix: (Units=GPa)
#
#
# Indices 1 2 3 4 5 6 
#
# 1 102.2348 21.8521 15.2339 0.0000 0.0000 0.0000
# 2 21.8521 84.6750 17.3749 0.0000 0.0000 0.0000
# 3 15.2339 17.3749 76.0569 0.0000 0.0000 0.0000
# 4 0.0000 0.0000 0.0000 42.5478 0.0000 0.0000
# 5 0.0000 0.0000 0.0000 0.0000 32.4485 0.0000
# 6 0.0000 0.0000 0.0000 0.0000 0.0000 31.4164
#
#
#
# Elastic Compliance Matrix: (Units=1/GPa)
#
#
# Indices 1 2 3 4 5 6 
#
# 1 0.010526 -0.002396 -0.001561 0.000000 0.000000 0.000000
# 2 -0.002396 0.012936 -0.002475 0.000000 0.000000 0.000000
# 3 -0.001561 -0.002475 0.014026 0.000000 0.000000 0.000000
# 4 0.000000 0.000000 0.000000 0.023503 0.000000 0.000000
# 5 0.000000 0.000000 0.000000 0.000000 0.030818 0.000000
# 6 0.000000 0.000000 0.000000 0.000000 0.000000 0.031831
#
#
# Mechanical properties :
#
#
# Convention : Reuss Voigt Hill
#
# Bulk Modulus (GPa) = 40.61131 41.32095 40.96613
# Shear Modulus (GPa) = 34.55120 35.18293 34.86706
#
# Velocity S-wave (km/s) = 3.95257 3.98854 3.97059
# Velocity P-wave (km/s) = 6.26046 6.31625 6.28842
#
# Compressibility (1/GPa) = 0.02462368
#
# Stress axis : x y z
#
# Youngs Moduli (GPa) = 95.00132 77.30271 71.29530
#
# Poissons Ratio (x) = 0.18523 0.11129
# Poissons Ratio (y) = 0.22764 0.17647
# Poissons Ratio (z) = 0.14829 0.19134
#
# Static dielectric constant tensor:
#      x y z
#    x 4.155030 0.000000 0.000000 
#    y 0.000000 3.791880 0.000000 
#    z 0.000000 0.000000 4.019390 
# 
# 
# High freq. dielectric constant tensor:
#      x y z
#    x 1.877760 0.000000 0.000000 
#    y 0.000000 1.858850 0.000000 
#    z 0.000000 0.000000 1.878820 
# 
# From -- ./inp_files/3180.got.cif
#   From: 2010.03.12/outbox.cif.g09.slc.cpg/sg40_2_cif.got.tgz:3180.got - 2010.04.14 01:38:03.
