data_PCOD8184219
_publ_section_title
;
Structure prediction by ZEFSAII (Michael W. Deem and Ramdas Pophale) SiO2 
 PCOD8184219
Probable space group: A M A 2
;
_chemical_formula_sum "Si O2"
_cell_formula_units_Z 40
_cell_length_a 10.070092
_cell_length_b 22.231071
_cell_length_c 7.739955
_cell_angle_alpha 90.000000
_cell_angle_beta 90.000000
_cell_angle_gamma 90.000000
_cell_volume 1732.735446
_symmetry_space_group_name_H-M "A M A 2"
_symmetry_group_IT_number 40
_symmetry_cell_setting 'orthorhombic'
loop_
_space_group_symop_operation_xyz
x,y,z
-x,-y,z
1/2-x,y,z
1/2+x,-y,z
x,1/2+y,1/2+z
-x,1/2-y,1/2+z
1/2-x,1/2+y,1/2+z
1/2+x,1/2-y,1/2+z
loop_
_atom_site_type_symbol
_atom_site_label
_atom_site_fract_x
_atom_site_fract_y
_atom_site_fract_z
Si Si1 0.465109 0.068523 0.834570
Si Si2 0.893504 0.948885 0.460402
Si Si3 0.098914 0.258821 0.558091
Si Si4 0.398433 0.640658 0.664310
Si Si5 0.394296 0.321829 0.207131
O O1 0.378022 0.070238 0.660401
O O2 0.591249 0.111287 0.788447
O O3 0.500000 0.000000 0.882164
O O4 0.391308 0.096087 0.999410
O O5 0.750000 0.973225 0.399106
O O6 0.935651 0.893787 0.339615
O O7 0.000000 0.000000 0.434926
O O8 0.250000 0.254310 0.634461
O O9 0.105720 0.271272 0.355829
O O10 0.014111 0.310857 0.648919
O O11 0.018190 0.195979 0.583596
O O12 0.250000 0.669580 0.679380
O O13 0.250000 0.320076 0.112629
#
# Coordination Sequence:
#
# PCOD8184219 Si02
#       5
#     8   8   8   8   8
#     4  10  22  40  64  94 127 164 208 259 316 375
#     4  10  22  38  59  90 124 163 210 257 311 377
#     4  10  23  41  62  91 124 163 209 260 317 377
#     4  10  21  39  63  90 124 166 208 259 316 373
#     4  10  23  42  64  93 127 164 209 261 316 378
#
# _framework density 23.084886999999998
#
# number of rings (size 3 to 8) (size 9 to 14) (size 15 to 20)
#    0.000    2.000    0.000    1.800    2.800    9.600 
#    0.000    4.000    0.000    0.000    0.000    0.000 
#    0.000    0.000    0.000    0.000    0.000    0.000 
#
# Total GULP energy -247790.800854 kJ/mol
# GULP energy per Si atom -12389.540043 kJ/mol
# Density = 2.303235 g / cm^3
# Si number density = 23.084887 Si / 1000 Ang^3
#
#
#
# Elastic Constant Matrix: (Units=GPa)
#
#
# Indices 1 2 3 4 5 6 
#
# 1 177.4632 61.7404 17.7075 0.0000 0.0000 0.0000
# 2 61.7404 102.9933 23.1459 0.0000 0.0000 0.0000
# 3 17.7075 23.1459 61.1942 0.0000 0.0000 0.0000
# 4 0.0000 0.0000 0.0000 38.5596 0.0000 0.0000
# 5 0.0000 0.0000 0.0000 0.0000 27.7288 0.0000
# 6 0.0000 0.0000 0.0000 0.0000 0.0000 19.8605
#
#
#
# Elastic Compliance Matrix: (Units=1/GPa)
#
#
# Indices 1 2 3 4 5 6 
#
# 1 0.007133 -0.004166 -0.000488 0.000000 0.000000 0.000000
# 2 -0.004166 0.013045 -0.003728 0.000000 0.000000 0.000000
# 3 -0.000488 -0.003728 0.017893 0.000000 0.000000 0.000000
# 4 0.000000 0.000000 0.000000 0.025934 0.000000 0.000000
# 5 0.000000 0.000000 0.000000 0.000000 0.036064 0.000000
# 6 0.000000 0.000000 0.000000 0.000000 0.000000 0.050351
#
#
# Mechanical properties :
#
#
# Convention : Reuss Voigt Hill
#
# Bulk Modulus (GPa) = 46.93755 60.75982 53.84869
# Shear Modulus (GPa) = 28.68824 33.16688 30.92756
#
# Velocity S-wave (km/s) = 3.52906 3.79454 3.66421
# Velocity P-wave (km/s) = 6.08132 6.75095 6.42486
#
# Compressibility (1/GPa) = 0.02130491
#
# Stress axis : x y z
#
# Youngs Moduli (GPa) = 140.18992 76.65869 55.88798
#
# Poissons Ratio (x) = 0.31939 0.02729
# Poissons Ratio (y) = 0.58408 0.20838
# Poissons Ratio (z) = 0.06845 0.28582
#
# Static dielectric constant tensor:
#      x y z
#    x 4.170460 0.000000 0.000000 
#    y 0.000000 4.120090 0.000000 
#    z 0.000000 0.000000 4.260390 
# 
# 
# High freq. dielectric constant tensor:
#      x y z
#    x 1.912940 0.000000 0.000000 
#    y 0.000000 1.914450 0.000000 
#    z 0.000000 0.000000 1.911730 
# 
# From -- ./inp_files/4248.got.cif
#   From: 2010.03.12/outbox.cif.g09.slc.cpg/sg40_3_cif.got.tgz:4248.got - 2010.04.14 01:38:03.
