data_PCOD8184144
_publ_section_title
;
Structure prediction by ZEFSAII (Michael W. Deem and Ramdas Pophale) SiO2 
 PCOD8184144
Probable space group: A M A 2
;
_chemical_formula_sum "Si O2"
_cell_formula_units_Z 48
_cell_length_a 8.767699
_cell_length_b 9.596607
_cell_length_c 30.307784
_cell_angle_alpha 90.000000
_cell_angle_beta 90.000000
_cell_angle_gamma 90.000000
_cell_volume 2550.101843
_symmetry_space_group_name_H-M "A M A 2"
_symmetry_group_IT_number 40
_symmetry_cell_setting 'orthorhombic'
loop_
_space_group_symop_operation_xyz
x,y,z
-x,-y,z
1/2-x,y,z
1/2+x,-y,z
x,1/2+y,1/2+z
-x,1/2-y,1/2+z
1/2-x,1/2+y,1/2+z
1/2+x,1/2-y,1/2+z
loop_
_atom_site_type_symbol
_atom_site_label
_atom_site_fract_x
_atom_site_fract_y
_atom_site_fract_z
Si Si1 0.930322 0.653073 0.380340
Si Si2 0.072168 0.650705 0.196913
Si Si3 0.071422 0.151244 0.793902
Si Si4 0.573131 0.144547 0.448133
Si Si5 0.072958 0.354312 0.051329
Si Si6 0.068985 0.847714 0.119006
O O1 0.750000 0.645514 0.380341
O O2 0.000000 0.500000 0.382607
O O3 0.989106 0.729450 0.335015
O O4 0.986743 0.733428 0.423129
O O5 0.250000 0.626908 0.190524
O O6 0.038626 0.717311 0.245588
O O7 0.009598 0.759690 0.161093
O O8 0.000000 0.500000 0.189424
O O9 0.250000 0.142836 0.804151
O O10 0.000000 0.000000 0.791408
O O11 0.750000 0.144175 0.435415
O O12 0.546953 0.169653 0.499695
O O13 0.500000 0.000000 0.432784
O O14 0.250000 0.356967 0.064000
O O15 0.000000 0.500000 0.066965
O O16 0.989909 0.226476 0.074898
O O17 0.250000 0.858717 0.117472
O O18 0.000000 0.000000 0.122399
#
# Coordination Sequence:
#
# PCOD8184144 Si02
#       6
#     8   8   8   8   8   8
#     4  11  21  34  54  81 111 144 182 223 269 317
#     4   9  19  34  55  80 105 138 179 222 266 317
#     4   9  16  30  51  76 106 138 177 223 267 313
#     4  10  21  38  58  81 109 141 178 220 267 319
#     4  10  21  38  60  83 107 139 179 221 265 317
#     4  11  23  38  55  79 111 144 179 221 271 321
#
# _framework density 18.822776000000001
#
# number of rings (size 3 to 8) (size 9 to 14) (size 15 to 20)
#    0.000    2.000    0.000    5.000    0.000    6.000 
#    0.000    0.833    0.000    2.000    0.000    0.000 
#    0.000    0.000    0.000    0.000    0.000    0.000 
#
# Total GULP energy -297555.054044 kJ/mol
# GULP energy per Si atom -12398.127252 kJ/mol
# Density = 1.877993 g / cm^3
# Si number density = 18.822776 Si / 1000 Ang^3
#
#
#
# Elastic Constant Matrix: (Units=GPa)
#
#
# Indices 1 2 3 4 5 6 
#
# 1 128.7528 54.5569 60.1640 0.0000 0.0000 0.0000
# 2 54.5569 110.6118 63.8056 0.0000 0.0000 0.0000
# 3 60.1640 63.8056 100.8277 0.0000 0.0000 0.0000
# 4 0.0000 0.0000 0.0000 27.9019 0.0000 0.0000
# 5 0.0000 0.0000 0.0000 0.0000 32.8185 0.0000
# 6 0.0000 0.0000 0.0000 0.0000 0.0000 32.6527
#
#
#
# Elastic Compliance Matrix: (Units=1/GPa)
#
#
# Indices 1 2 3 4 5 6 
#
# 1 0.011238 -0.002638 -0.005037 0.000000 0.000000 0.000000
# 2 -0.002638 0.014857 -0.007828 0.000000 0.000000 0.000000
# 3 -0.005037 -0.007828 0.017877 0.000000 0.000000 0.000000
# 4 0.000000 0.000000 0.000000 0.035840 0.000000 0.000000
# 5 0.000000 0.000000 0.000000 0.000000 0.030471 0.000000
# 6 0.000000 0.000000 0.000000 0.000000 0.000000 0.030625
#
#
# Mechanical properties :
#
#
# Convention : Reuss Voigt Hill
#
# Bulk Modulus (GPa) = 77.11485 77.47171 77.29328
# Shear Modulus (GPa) = 28.37125 29.45232 28.91179
#
# Velocity S-wave (km/s) = 3.88659 3.95994 3.92344
# Velocity P-wave (km/s) = 7.82295 7.88391 7.85349
#
# Compressibility (1/GPa) = 0.01296767
#
# Stress axis : x y z
#
# Youngs Moduli (GPa) = 88.98403 67.30799 55.93788
#
# Poissons Ratio (x) = 0.17753 0.28174
# Poissons Ratio (y) = 0.23470 0.43788
# Poissons Ratio (z) = 0.44818 0.52689
#
# Static dielectric constant tensor:
#      x y z
#    x 3.564420 0.000000 0.000000 
#    y 0.000000 3.224200 0.000000 
#    z 0.000000 0.000000 4.162500 
# 
# 
# High freq. dielectric constant tensor:
#      x y z
#    x 1.746880 0.000000 0.000000 
#    y 0.000000 1.702260 0.000000 
#    z 0.000000 0.000000 1.750850 
# 
# From -- ./inp_files/26116.got.cif
#   From: 2010.03.12/outbox.cif.g09.slc.cpg/sg40_14_cif.got.tgz:26116.got - 2010.04.14 01:38:03.
