data_PCOD8184075
_publ_section_title
;
Structure prediction by ZEFSAII (Michael W. Deem and Ramdas Pophale) SiO2 
 PCOD8184075
Probable space group: A M A 2
;
_chemical_formula_sum "Si O2"
_cell_formula_units_Z 64
_cell_length_a 18.376766
_cell_length_b 20.282622
_cell_length_c 9.195568
_cell_angle_alpha 90.000000
_cell_angle_beta 90.000000
_cell_angle_gamma 90.000000
_cell_volume 3427.454850
_symmetry_space_group_name_H-M "A M A 2"
_symmetry_group_IT_number 40
_symmetry_cell_setting 'orthorhombic'
loop_
_space_group_symop_operation_xyz
x,y,z
-x,-y,z
1/2-x,y,z
1/2+x,-y,z
x,1/2+y,1/2+z
-x,1/2-y,1/2+z
1/2-x,1/2+y,1/2+z
1/2+x,1/2-y,1/2+z
loop_
_atom_site_type_symbol
_atom_site_label
_atom_site_fract_x
_atom_site_fract_y
_atom_site_fract_z
Si Si1 0.665066 0.499662 0.268860
Si Si2 0.085616 0.875896 0.276122
Si Si3 0.086323 0.123087 0.270646
Si Si4 0.165607 0.255602 0.282933
Si Si5 0.334928 0.380828 0.473801
Si Si6 0.833142 0.231845 0.452756
Si Si7 0.914685 0.499321 0.965778
Si Si8 0.833709 0.882075 0.974407
O O1 0.750000 0.503988 0.234650
O O2 0.640310 0.559909 0.370111
O O3 0.643661 0.431505 0.346776
O O4 0.623595 0.504045 0.119112
O O5 0.114206 0.809454 0.350315
O O6 0.109901 0.938233 0.371140
O O7 0.999755 0.870454 0.259104
O O8 0.119185 0.885319 0.118653
O O9 0.119128 0.191874 0.326716
O O10 0.109812 0.067059 0.384314
O O11 0.116884 0.103222 0.113530
O O12 0.250000 0.235134 0.287598
O O13 0.146278 0.312322 0.395879
O O14 0.146246 0.280730 0.121048
O O15 0.250000 0.385929 0.511916
O O16 0.750000 0.210712 0.422024
O O17 0.845562 0.308465 0.414447
O O18 0.000000 0.500000 0.993021
O O19 0.750000 0.892790 0.021713
#
# Coordination Sequence:
#
# PCOD8184075 Si02
#       8
#     8   8   8   8   8   8   8   8
#     4  10  21  37  59  83 104 136 183 224 262 316
#     4  11  22  35  54  80 109 143 181 217 259 317
#     4  10  21  37  56  79 108 143 180 216 262 320
#     4   9  19  36  56  78 107 141 175 218 271 316
#     4  10  21  36  55  81 110 139 176 222 267 312
#     4   9  18  35  56  77 107 142 173 215 268 315
#     4  10  23  39  53  76 111 144 175 219 271 315
#     4   9  19  37  59  82 108 138 175 221 270 315
#
# _framework density 18.672747000000001
#
# number of rings (size 3 to 8) (size 9 to 14) (size 15 to 20)
#    0.000    2.250    0.000    3.000    0.000    7.000 
#    0.000    5.000    0.000    0.000    0.000    0.000 
#    0.000    0.000    0.000    0.000    0.000    0.000 
#
# Total GULP energy -396924.664197 kJ/mol
# GULP energy per Si atom -12403.895756 kJ/mol
# Density = 1.863025 g / cm^3
# Si number density = 18.672747 Si / 1000 Ang^3
#
#
#
# Elastic Constant Matrix: (Units=GPa)
#
#
# Indices 1 2 3 4 5 6 
#
# 1 66.2318 59.7230 61.3223 0.0000 0.0000 0.0000
# 2 59.7230 133.2356 89.5831 0.0000 0.0000 0.0000
# 3 61.3223 89.5831 143.0246 0.0000 0.0000 0.0000
# 4 0.0000 0.0000 0.0000 34.3991 0.0000 0.0000
# 5 0.0000 0.0000 0.0000 0.0000 35.1754 0.0000
# 6 0.0000 0.0000 0.0000 0.0000 0.0000 29.5769
#
#
#
# Elastic Compliance Matrix: (Units=1/GPa)
#
#
# Indices 1 2 3 4 5 6 
#
# 1 0.029369 -0.008116 -0.007508 0.000000 0.000000 0.000000
# 2 -0.008116 0.015209 -0.006046 0.000000 0.000000 0.000000
# 3 -0.007508 -0.006046 0.013998 0.000000 0.000000 0.000000
# 4 0.000000 0.000000 0.000000 0.029071 0.000000 0.000000
# 5 0.000000 0.000000 0.000000 0.000000 0.028429 0.000000
# 6 0.000000 0.000000 0.000000 0.000000 0.000000 0.033810
#
#
# Mechanical properties :
#
#
# Convention : Reuss Voigt Hill
#
# Bulk Modulus (GPa) = 65.64183 84.86098 75.25141
# Shear Modulus (GPa) = 25.21364 28.62119 26.91741
#
# Velocity S-wave (km/s) = 3.67862 3.91932 3.80087
# Velocity P-wave (km/s) = 7.29884 8.12567 7.72333
#
# Compressibility (1/GPa) = 0.01523419
#
# Stress axis : x y z
#
# Youngs Moduli (GPa) = 34.04953 65.75121 71.43835
#
# Poissons Ratio (x) = 0.53365 0.53639
# Poissons Ratio (y) = 0.27635 0.43193
# Poissons Ratio (z) = 0.25566 0.39754
#
# Static dielectric constant tensor:
#      x y z
#    x 3.348300 0.000000 0.000000 
#    y 0.000000 3.666300 0.000000 
#    z 0.000000 0.000000 3.383860 
# 
# 
# High freq. dielectric constant tensor:
#      x y z
#    x 1.719560 0.000000 0.000000 
#    y 0.000000 1.740780 0.000000 
#    z 0.000000 0.000000 1.726750 
# 
# From -- ./inp_files/7779.got.cif
#   From: 2010.03.12/outbox.cif.g09.slc.cpg/sg40_4_cif.got.tgz:7779.got - 2010.04.14 01:38:03.
