data_PCOD8184700
_publ_section_title
;
Structure prediction by ZEFSAII (Michael W. Deem and Ramdas Pophale) SiO2 
 PCOD8184700
Probable space group: A M A 2
;
_chemical_formula_sum "Si O2"
_cell_formula_units_Z 44
_cell_length_a 14.666539
_cell_length_b 16.557941
_cell_length_c 9.230895
_cell_angle_alpha 90.000000
_cell_angle_beta 90.000000
_cell_angle_gamma 90.000000
_cell_volume 2241.701504
_symmetry_space_group_name_H-M "A M A 2"
_symmetry_group_IT_number 40
_symmetry_cell_setting 'orthorhombic'
loop_
_space_group_symop_operation_xyz
x,y,z
-x,-y,z
1/2-x,y,z
1/2+x,-y,z
x,1/2+y,1/2+z
-x,1/2-y,1/2+z
1/2-x,1/2+y,1/2+z
1/2+x,1/2-y,1/2+z
loop_
_atom_site_type_symbol
_atom_site_label
_atom_site_fract_x
_atom_site_fract_y
_atom_site_fract_z
Si Si1 0.352614 0.214426 0.869050
Si Si2 0.352339 0.964341 0.047633
Si Si3 0.348524 0.143546 0.170317
Si Si4 0.037562 0.869910 0.284110
Si Si5 0.357543 0.541875 0.253648
Si Si6 0.000000 0.500000 0.014985
O O1 0.250000 0.230934 0.818650
O O2 0.410727 0.288122 0.812866
O O3 0.388123 0.130775 0.802781
O O4 0.358925 0.208414 0.042198
O O5 0.250000 0.926903 0.059933
O O6 0.350798 0.053160 0.112062
O O7 0.425101 0.909294 0.134011
O O8 0.380904 0.974968 0.878373
O O9 0.250000 0.158008 0.247746
O O10 0.431611 0.155358 0.278697
O O11 0.045935 0.931281 0.416374
O O12 0.250000 0.538434 0.219201
O O13 0.414328 0.526206 0.109891
#
# Coordination Sequence:
#
# PCOD8184700 Si02
#       6
#     8   8   8   8   8   4
#     4   9  21  40  63  84 115 159 201 248 304 354
#     4   9  18  37  63  86 113 155 204 243 287 358
#     4   9  19  37  58  82 118 162 193 233 300 362
#     4  12  22  36  62  98 118 152 204 258 296 352
#     4   9  22  43  61  83 121 165 200 243 305 370
#     4  12  26  34  58  98 126 158 192 256 312 350
#
# _framework density 19.627949999999998
#
# number of rings (size 3 to 8) (size 9 to 14) (size 15 to 20)
#    0.000    2.182    1.818    2.727    7.636    2.182 
#    0.000    0.000    0.000    0.000    0.000    0.000 
#    0.000    0.000    0.000    0.000    0.000    0.000 
#
# Total GULP energy -272674.768502 kJ/mol
# GULP energy per Si atom -12394.307659 kJ/mol
# Density = 1.958328 g / cm^3
# Si number density = 19.627950 Si / 1000 Ang^3
#
#
#
# Elastic Constant Matrix: (Units=GPa)
#
#
# Indices 1 2 3 4 5 6 
#
# 1 109.8290 53.0218 51.9724 0.0000 0.0000 0.0000
# 2 53.0218 87.7629 44.6831 0.0000 0.0000 0.0000
# 3 51.9724 44.6831 82.0796 0.0000 0.0000 0.0000
# 4 0.0000 0.0000 0.0000 28.4078 0.0000 0.0000
# 5 0.0000 0.0000 0.0000 0.0000 32.6831 0.0000
# 6 0.0000 0.0000 0.0000 0.0000 0.0000 20.2118
#
#
#
# Elastic Compliance Matrix: (Units=1/GPa)
#
#
# Indices 1 2 3 4 5 6 
#
# 1 0.014863 -0.005794 -0.006257 0.000000 0.000000 0.000000
# 2 -0.005794 0.018022 -0.006142 0.000000 0.000000 0.000000
# 3 -0.006257 -0.006142 0.019489 0.000000 0.000000 0.000000
# 4 0.000000 0.000000 0.000000 0.035202 0.000000 0.000000
# 5 0.000000 0.000000 0.000000 0.000000 0.030597 0.000000
# 6 0.000000 0.000000 0.000000 0.000000 0.000000 0.049476
#
#
# Mechanical properties :
#
#
# Convention : Reuss Voigt Hill
#
# Bulk Modulus (GPa) = 62.54858 64.33624 63.44241
# Shear Modulus (GPa) = 23.88183 24.92683 24.40433
#
# Velocity S-wave (km/s) = 3.49194 3.56752 3.52994
# Velocity P-wave (km/s) = 6.94223 7.05823 7.00047
#
# Compressibility (1/GPa) = 0.01598757
#
# Stress axis : x y z
#
# Youngs Moduli (GPa) = 67.28092 55.48804 51.31072
#
# Poissons Ratio (x) = 0.32148 0.32106
# Poissons Ratio (y) = 0.38981 0.31517
# Poissons Ratio (z) = 0.42099 0.34083
#
# Static dielectric constant tensor:
#      x y z
#    x 5.731550 0.000000 0.000000 
#    y 0.000000 3.376850 0.000000 
#    z 0.000000 0.000000 3.633150 
# 
# 
# High freq. dielectric constant tensor:
#      x y z
#    x 1.782060 0.000000 0.000000 
#    y 0.000000 1.746560 0.000000 
#    z 0.000000 0.000000 1.749940 
# 
# From -- ./inp_files/6375.got.cif
#   From: 2010.03.12/outbox.cif.g09.slc.cpg/sg40_4_cif.got.tgz:6375.got - 2010.04.14 01:38:03.
