data_PCOD8184014
_publ_section_title
;
Structure prediction by ZEFSAII (Michael W. Deem and Ramdas Pophale) SiO2 
 PCOD8184014
Probable space group: A M A 2
;
_chemical_formula_sum "Si O2"
_cell_formula_units_Z 64
_cell_length_a 18.189173
_cell_length_b 15.338994
_cell_length_c 11.446171
_cell_angle_alpha 90.000000
_cell_angle_beta 90.000000
_cell_angle_gamma 90.000000
_cell_volume 3193.523093
_symmetry_space_group_name_H-M "A M A 2"
_symmetry_group_IT_number 40
_symmetry_cell_setting 'orthorhombic'
loop_
_space_group_symop_operation_xyz
x,y,z
-x,-y,z
1/2-x,y,z
1/2+x,-y,z
x,1/2+y,1/2+z
-x,1/2-y,1/2+z
1/2-x,1/2+y,1/2+z
1/2+x,1/2-y,1/2+z
loop_
_atom_site_type_symbol
_atom_site_label
_atom_site_fract_x
_atom_site_fract_y
_atom_site_fract_z
Si Si1 0.667280 0.356073 0.435000
Si Si2 0.921753 0.518322 0.433756
Si Si3 0.334671 0.735484 0.666773
Si Si4 0.412451 0.587152 0.085176
Si Si5 0.574157 0.090173 0.685556
Si Si6 0.167139 0.743998 0.209972
Si Si7 0.663085 0.065556 0.159945
Si Si8 0.835972 0.915664 0.340629
O O1 0.750000 0.393554 0.447206
O O2 0.614162 0.429991 0.383816
O O3 0.638028 0.324661 0.560218
O O4 0.664732 0.275479 0.347109
O O5 0.937907 0.582830 0.325139
O O6 0.867277 0.555549 0.529815
O O7 0.000000 0.500000 0.494609
O O8 0.250000 0.760970 0.648536
O O9 0.379148 0.824277 0.664502
O O10 0.346129 0.680031 0.784248
O O11 0.499268 0.596177 0.110807
O O12 0.382993 0.497111 0.143184
O O13 0.376004 0.673511 0.135476
O O14 0.391598 0.580673 0.948937
O O15 0.250000 0.742680 0.161198
O O16 0.133109 0.840522 0.201029
O O17 0.750000 0.063127 0.150982
O O18 0.637816 0.990164 0.249245
O O19 0.750000 0.929629 0.376397
#
# Coordination Sequence:
#
# PCOD8184014 Si02
#       8
#     8   8   8   8   8   8   8   8
#     4  10  20  40  65  89 125 165 210 266 316 369
#     4  12  22  42  64  89 127 169 213 261 318 372
#     4  10  23  42  66  98 125 163 216 264 319 377
#     4  11  23  45  59  89 132 172 208 261 317 378
#     4  11  25  44  62  90 131 171 214 265 313 382
#     4  10  21  38  63  94 122 162 212 259 316 376
#     4  10  23  42  66  98 128 161 213 268 319 380
#     4  10  22  44  68  93 130 166 210 267 321 381
#
# _framework density 20.040564
#
# number of rings (size 3 to 8) (size 9 to 14) (size 15 to 20)
#    0.000    1.500    3.750    0.750    3.500    3.000 
#    4.500    0.000    0.000    0.000    0.000    0.000 
#    0.000    0.000    0.000    0.000    0.000    0.000 
#
# Total GULP energy -396724.575387 kJ/mol
# GULP energy per Si atom -12397.642981 kJ/mol
# Density = 1.999495 g / cm^3
# Si number density = 20.040564 Si / 1000 Ang^3
#
#
#
# Elastic Constant Matrix: (Units=GPa)
#
#
# Indices 1 2 3 4 5 6 
#
# 1 68.4687 57.7261 46.7871 0.0000 0.0000 0.0000
# 2 57.7261 132.9921 38.0421 0.0000 0.0000 0.0000
# 3 46.7871 38.0421 125.5506 0.0000 0.0000 0.0000
# 4 0.0000 0.0000 0.0000 23.1409 0.0000 0.0000
# 5 0.0000 0.0000 0.0000 0.0000 33.0911 0.0000
# 6 0.0000 0.0000 0.0000 0.0000 0.0000 26.8844
#
#
#
# Elastic Compliance Matrix: (Units=1/GPa)
#
#
# Indices 1 2 3 4 5 6 
#
# 1 0.028233 -0.010123 -0.007454 0.000000 0.000000 0.000000
# 2 -0.010123 0.011862 0.000178 0.000000 0.000000 0.000000
# 3 -0.007454 0.000178 0.010689 0.000000 0.000000 0.000000
# 4 0.000000 0.000000 0.000000 0.043214 0.000000 0.000000
# 5 0.000000 0.000000 0.000000 0.000000 0.030220 0.000000
# 6 0.000000 0.000000 0.000000 0.000000 0.000000 0.037196
#
#
# Mechanical properties :
#
#
# Convention : Reuss Voigt Hill
#
# Bulk Modulus (GPa) = 62.55180 68.01353 65.28267
# Shear Modulus (GPa) = 24.80899 28.92035 26.86467
#
# Velocity S-wave (km/s) = 3.52225 3.80292 3.66528
# Velocity P-wave (km/s) = 6.91535 7.30031 7.11044
#
# Compressibility (1/GPa) = 0.01598675
#
# Stress axis : x y z
#
# Youngs Moduli (GPa) = 35.41927 84.30206 93.55598
#
# Poissons Ratio (x) = 0.85335 0.69737
# Poissons Ratio (y) = 0.35853 -0.01665
# Poissons Ratio (z) = 0.26402 -0.01500
#
# Static dielectric constant tensor:
#      x y z
#    x 3.552750 0.000000 0.000000 
#    y 0.000000 3.820600 0.000000 
#    z 0.000000 0.000000 3.634120 
# 
# 
# High freq. dielectric constant tensor:
#      x y z
#    x 1.768990 0.000000 0.000000 
#    y 0.000000 1.791250 0.000000 
#    z 0.000000 0.000000 1.787410 
# 
# From -- ./inp_files/13107.got.cif
#   From: 2010.03.12/outbox.cif.g09.slc.cpg/sg40_7_cif.got.tgz:13107.got - 2010.04.14 01:38:03.
