data_PCOD8184628
_publ_section_title
;
Structure prediction by ZEFSAII (Michael W. Deem and Ramdas Pophale) SiO2 
 PCOD8184628
Probable space group: A M A 2
;
_chemical_formula_sum "Si O2"
_cell_formula_units_Z 64
_cell_length_a 13.588973
_cell_length_b 22.174105
_cell_length_c 9.646094
_cell_angle_alpha 90.000000
_cell_angle_beta 90.000000
_cell_angle_gamma 90.000000
_cell_volume 2906.593013
_symmetry_space_group_name_H-M "A M A 2"
_symmetry_group_IT_number 40
_symmetry_cell_setting 'orthorhombic'
loop_
_space_group_symop_operation_xyz
x,y,z
-x,-y,z
1/2-x,y,z
1/2+x,-y,z
x,1/2+y,1/2+z
-x,1/2-y,1/2+z
1/2-x,1/2+y,1/2+z
1/2+x,1/2-y,1/2+z
loop_
_atom_site_type_symbol
_atom_site_label
_atom_site_fract_x
_atom_site_fract_y
_atom_site_fract_z
Si Si1 0.508048 0.174929 0.175390
Si Si2 0.137436 0.970117 0.431688
Si Si3 0.639734 0.161645 0.409454
Si Si4 0.364348 0.480828 0.232335
Si Si5 0.638285 0.384424 0.169857
Si Si6 0.365970 0.872683 0.922732
Si Si7 0.637993 0.406301 0.845047
Si Si8 0.956713 0.193509 0.684561
O O1 0.581004 0.199492 0.296097
O O2 0.425310 0.132140 0.238765
O O3 0.458100 0.237549 0.130070
O O4 0.567934 0.140284 0.057073
O O5 0.250000 0.991613 0.460360
O O6 0.134269 0.907281 0.349932
O O7 0.087897 0.962275 0.584010
O O8 0.092808 0.025270 0.341468
O O9 0.750000 0.186240 0.421773
O O10 0.590452 0.157698 0.558098
O O11 0.250000 0.467036 0.228889
O O12 0.387307 0.552219 0.249132
O O13 0.403822 0.436466 0.354560
O O14 0.750000 0.366100 0.209180
O O15 0.564139 0.333192 0.223919
O O16 0.627788 0.385657 0.003761
O O17 0.250000 0.873612 0.962617
O O18 0.385420 0.817386 0.816059
O O19 0.750000 0.401904 0.791939
#
# Coordination Sequence:
#
# PCOD8184628 Si02
#       8
#     8   8   8   8   8   8   8   8
#     4  12  26  42  59  99 138 176 225 265 320 409
#     4   8  15  33  64  96 120 151 209 273 327 388
#     4  11  22  41  66  93 125 165 222 283 324 377
#     4   8  15  34  63  96 123 153 209 266 328 398
#     4   9  19  38  67  98 127 163 215 282 331 374
#     4  11  24  43  66  93 138 181 213 276 347 392
#     4   9  19  39  66  97 131 167 213 277 336 382
#     4  12  24  42  63  96 130 178 236 266 307 406
#
# _framework density 22.018908
#
# number of rings (size 3 to 8) (size 9 to 14) (size 15 to 20)
#    0.000    2.000    2.500    3.000    0.000    3.000 
#    0.000    3.125    0.000    3.000    0.000    0.875 
#    0.000    0.000    0.000    0.000    0.000    0.000 
#
# Total GULP energy -396498.890373 kJ/mol
# GULP energy per Si atom -12390.590324 kJ/mol
# Density = 2.196879 g / cm^3
# Si number density = 22.018908 Si / 1000 Ang^3
#
#
#
# Elastic Constant Matrix: (Units=GPa)
#
#
# Indices 1 2 3 4 5 6 
#
# 1 98.1707 43.8464 43.0290 0.0000 0.0000 0.0000
# 2 43.8464 103.9499 36.7056 0.0000 0.0000 0.0000
# 3 43.0290 36.7056 90.1939 0.0000 0.0000 0.0000
# 4 0.0000 0.0000 0.0000 24.0344 0.0000 0.0000
# 5 0.0000 0.0000 0.0000 0.0000 36.3628 0.0000
# 6 0.0000 0.0000 0.0000 0.0000 0.0000 21.8728
#
#
#
# Elastic Compliance Matrix: (Units=1/GPa)
#
#
# Indices 1 2 3 4 5 6 
#
# 1 0.014316 -0.004236 -0.005106 0.000000 0.000000 0.000000
# 2 -0.004236 0.012488 -0.003061 0.000000 0.000000 0.000000
# 3 -0.005106 -0.003061 0.014769 0.000000 0.000000 0.000000
# 4 0.000000 0.000000 0.000000 0.041607 0.000000 0.000000
# 5 0.000000 0.000000 0.000000 0.000000 0.027501 0.000000
# 6 0.000000 0.000000 0.000000 0.000000 0.000000 0.045719
#
#
# Mechanical properties :
#
#
# Convention : Reuss Voigt Hill
#
# Bulk Modulus (GPa) = 59.64176 59.94182 59.79179
# Shear Modulus (GPa) = 26.76744 27.70292 27.23518
#
# Velocity S-wave (km/s) = 3.49041 3.55088 3.52077
# Velocity P-wave (km/s) = 6.58706 6.64030 6.61374
#
# Compressibility (1/GPa) = 0.01676678
#
# Stress axis : x y z
#
# Youngs Moduli (GPa) = 69.85127 80.07965 67.70923
#
# Poissons Ratio (x) = 0.33918 0.34573
# Poissons Ratio (y) = 0.29586 0.20728
# Poissons Ratio (z) = 0.35667 0.24515
#
# Static dielectric constant tensor:
#      x y z
#    x 4.147980 0.000000 0.000000 
#    y 0.000000 3.905680 0.000000 
#    z 0.000000 0.000000 3.635530 
# 
# 
# High freq. dielectric constant tensor:
#      x y z
#    x 1.878790 0.000000 0.000000 
#    y 0.000000 1.863120 0.000000 
#    z 0.000000 0.000000 1.830460 
# 
# From -- ./inp_files/6868.got.cif
#   From: 2010.03.12/outbox.cif.g09.slc.cpg/sg40_4_cif.got.tgz:6868.got - 2010.04.14 01:38:03.
