data_PCOD8184866
_publ_section_title
;
Structure prediction by ZEFSAII (Michael W. Deem and Ramdas Pophale) SiO2 
 PCOD8184866
Probable space group: A B A 2
;
_chemical_formula_sum "Si O2"
_cell_formula_units_Z 64
_cell_length_a 14.600687
_cell_length_b 13.441403
_cell_length_c 15.312390
_cell_angle_alpha 90.000000
_cell_angle_beta 90.000000
_cell_angle_gamma 90.000000
_cell_volume 3005.113470
_symmetry_space_group_name_H-M "A B A 2"
_symmetry_group_IT_number 41
_symmetry_cell_setting 'orthorhombic'
loop_
_space_group_symop_operation_xyz
x,y,z
-x,-y,z
1/2-x,y,1/2+z
1/2+x,-y,1/2+z
x,1/2+y,1/2+z
-x,1/2-y,1/2+z
1/2-x,1/2+y,z
1/2+x,1/2-y,z
loop_
_atom_site_type_symbol
_atom_site_label
_atom_site_fract_x
_atom_site_fract_y
_atom_site_fract_z
Si Si1 0.787526 0.085881 0.022110
Si Si2 0.861339 0.237385 0.711472
Si Si3 0.195509 0.726300 0.525284
Si Si4 0.152985 0.568444 0.395168
Si Si5 0.687544 0.942553 0.772537
Si Si6 0.549505 0.849131 0.236682
Si Si7 0.820146 0.425204 0.111135
Si Si8 0.663250 0.150377 0.710696
O O1 0.737009 0.177977 0.975470
O O2 0.843115 0.122286 0.107833
O O3 0.699523 0.018128 0.049036
O O4 0.857584 0.031185 0.955183
O O5 0.870264 0.247818 0.606755
O O6 0.876373 0.345394 0.758063
O O7 0.765372 0.186334 0.737122
O O8 0.940701 0.162848 0.743040
O O9 0.137094 0.662503 0.458004
O O10 0.285647 0.672959 0.563080
O O11 0.258795 0.567376 0.363776
O O12 0.079259 0.581011 0.318345
O O13 0.763532 0.940646 0.698674
O O14 0.636271 0.049849 0.765270
O O15 0.576262 0.906718 0.146030
O O16 0.595510 0.739433 0.237132
#
# Coordination Sequence:
#
# PCOD8184866 Si02
#       8
#     8   8   8   8   8   8   8   8
#     4   9  17  31  60  82 110 159 199 245 296 366
#     4  10  20  38  63  86 117 158 205 250 299 380
#     4   9  17  35  57  82 112 159 205 237 310 363
#     4  10  20  33  57  89 122 149 197 261 306 356
#     4   9  18  34  57  82 114 156 197 243 297 359
#     4  11  20  36  62  88 121 159 201 255 309 363
#     4   8  15  33  52  81 109 151 202 238 285 363
#     4  10  19  38  62  84 115 165 212 239 303 370
#
# _framework density 21.297032999999999
#
# number of rings (size 3 to 8) (size 9 to 14) (size 15 to 20)
#    0.000    2.500    5.000    0.750    1.750    0.500 
#    0.000   12.500    5.500    0.000    0.000    0.000 
#    0.000    0.000    0.000    0.000    0.000    0.000 
#
# Total GULP energy -396430.978841 kJ/mol
# GULP energy per Si atom -12388.468089 kJ/mol
# Density = 2.124856 g / cm^3
# Si number density = 21.297033 Si / 1000 Ang^3
#
#
#
# Elastic Constant Matrix: (Units=GPa)
#
#
# Indices 1 2 3 4 5 6 
#
# 1 41.7481 9.1212 7.7524 0.0000 0.0000 0.0000
# 2 9.1212 107.3588 25.1305 0.0000 0.0000 0.0000
# 3 7.7524 25.1305 63.9949 0.0000 0.0000 0.0000
# 4 0.0000 0.0000 0.0000 71.7085 0.0000 0.0000
# 5 0.0000 0.0000 0.0000 0.0000 8.7968 0.0000
# 6 0.0000 0.0000 0.0000 0.0000 0.0000 12.6078
#
#
#
# Elastic Compliance Matrix: (Units=1/GPa)
#
#
# Indices 1 2 3 4 5 6 
#
# 1 0.024734 -0.001542 -0.002391 0.000000 0.000000 0.000000
# 2 -0.001542 0.010354 -0.003879 0.000000 0.000000 0.000000
# 3 -0.002391 -0.003879 0.017439 0.000000 0.000000 0.000000
# 4 0.000000 0.000000 0.000000 0.013945 0.000000 0.000000
# 5 0.000000 0.000000 0.000000 0.000000 0.113677 0.000000
# 6 0.000000 0.000000 0.000000 0.000000 0.000000 0.079316
#
#
# Mechanical properties :
#
#
# Convention : Reuss Voigt Hill
#
# Bulk Modulus (GPa) = 27.09774 33.01221 30.05498
# Shear Modulus (GPa) = 17.39798 30.02914 23.71356
#
# Velocity S-wave (km/s) = 2.86128 3.75909 3.34049
# Velocity P-wave (km/s) = 4.86490 5.86306 5.38715
#
# Compressibility (1/GPa) = 0.03690345
#
# Stress axis : x y z
#
# Youngs Moduli (GPa) = 40.43014 96.58525 57.34218
#
# Poissons Ratio (x) = 0.14891 0.13710
# Poissons Ratio (y) = 0.06233 0.22243
# Poissons Ratio (z) = 0.09666 0.37466
#
# Static dielectric constant tensor:
#      x y z
#    x 3.258010 0.000000 0.000000 
#    y 0.000000 3.625150 0.000000 
#    z 0.000000 0.000000 4.013120 
# 
# 
# High freq. dielectric constant tensor:
#      x y z
#    x 1.770030 0.000000 0.000000 
#    y 0.000000 1.862200 0.000000 
#    z 0.000000 0.000000 1.822040 
# 
# From -- ./inp_files/10463.got.cif
#   From: 2010.03.12/outbox.cif.g09.slc.cpg/sg41_6_cif.got.tgz:10463.got - 2010.04.14 01:55:53.
