data_PCOD8184658
_publ_section_title
;
Structure prediction by ZEFSAII (Michael W. Deem and Ramdas Pophale) SiO2 
 PCOD8184658
Probable space group: A M A 2
;
_chemical_formula_sum "Si O2"
_cell_formula_units_Z 48
_cell_length_a 9.455876
_cell_length_b 16.561665
_cell_length_c 13.618146
_cell_angle_alpha 90.000000
_cell_angle_beta 90.000000
_cell_angle_gamma 90.000000
_cell_volume 2132.670443
_symmetry_space_group_name_H-M "A M A 2"
_symmetry_group_IT_number 40
_symmetry_cell_setting 'orthorhombic'
loop_
_space_group_symop_operation_xyz
x,y,z
-x,-y,z
1/2-x,y,z
1/2+x,-y,z
x,1/2+y,1/2+z
-x,1/2-y,1/2+z
1/2-x,1/2+y,1/2+z
1/2+x,1/2-y,1/2+z
loop_
_atom_site_type_symbol
_atom_site_label
_atom_site_fract_x
_atom_site_fract_y
_atom_site_fract_z
Si Si1 0.750000 0.426470 0.753850
Si Si2 0.588147 0.918635 0.801937
Si Si3 0.750000 0.385256 0.977199
Si Si4 0.588147 0.581365 0.474587
Si Si5 0.008230 0.838142 0.167035
Si Si6 0.750000 0.614744 0.799326
Si Si7 0.250000 0.926470 0.522674
Si Si8 0.491770 0.161859 0.609489
O O1 0.750000 0.383314 0.859605
O O2 0.616339 0.399562 0.691172
O O3 0.750000 0.522711 0.761341
O O4 0.750000 0.935416 0.834757
O O5 0.500000 0.871892 0.888262
O O6 0.595089 0.867856 0.703118
O O7 0.500000 0.000000 0.783448
O O8 0.750000 0.477289 0.015184
O O9 0.612976 0.337456 0.015965
O O10 0.500000 0.500000 0.493076
O O11 0.750000 0.564584 0.441767
O O12 0.595090 0.632144 0.573407
O O13 0.112976 0.837456 0.260559
O O14 0.949123 0.750000 0.138262
O O15 0.750000 0.616685 0.916919
O O16 0.383661 0.899562 0.585353
#
# Coordination Sequence:
#
# PCOD8184658 Si02
#       8
#     4   8   4   8   8   4   4   8
#     4  11  25  44  73 101 131 179 234 281 330 412
#     4  11  24  42  69  97 133 177 227 275 327 397
#     4  11  23  46  73  99 133 179 230 281 338 396
#     4  11  24  42  69  97 133 177 227 275 327 397
#     4  12  26  44  65 103 138 174 218 279 350 406
#     4  11  23  46  73  99 133 179 230 281 338 396
#     4  11  25  44  73 101 131 179 234 281 330 412
#     4  12  26  44  65 103 138 174 218 279 350 406
#
# _framework density 22.506995
#
# number of rings (size 3 to 8) (size 9 to 14) (size 15 to 20)
#    0.000    0.667    1.667    7.000    4.667    5.333 
#    0.000    0.000    0.000    0.000    0.000    0.000 
#    0.000    0.000    0.000    0.000    0.000    0.000 
#
# Total GULP energy -297574.119208 kJ/mol
# GULP energy per Si atom -12398.921634 kJ/mol
# Density = 2.245577 g / cm^3
# Si number density = 22.506995 Si / 1000 Ang^3
#
#
#
# Elastic Constant Matrix: (Units=GPa)
#
#
# Indices 1 2 3 4 5 6 
#
# 1 153.9226 14.6532 27.1115 0.0000 0.0000 0.0000
# 2 14.6532 70.1305 22.4961 0.0000 0.0000 0.0000
# 3 27.1115 22.4961 113.9939 0.0000 0.0000 0.0000
# 4 0.0000 0.0000 0.0000 22.0567 0.0000 0.0000
# 5 0.0000 0.0000 0.0000 0.0000 34.1286 0.0000
# 6 0.0000 0.0000 0.0000 0.0000 0.0000 81.0789
#
#
#
# Elastic Compliance Matrix: (Units=1/GPa)
#
#
# Indices 1 2 3 4 5 6 
#
# 1 0.006842 -0.000969 -0.001436 0.000000 0.000000 0.000000
# 2 -0.000969 0.015360 -0.002801 0.000000 0.000000 0.000000
# 3 -0.001436 -0.002801 0.009667 0.000000 0.000000 0.000000
# 4 0.000000 0.000000 0.000000 0.045338 0.000000 0.000000
# 5 0.000000 0.000000 0.000000 0.000000 0.029301 0.000000
# 6 0.000000 0.000000 0.000000 0.000000 0.000000 0.012334
#
#
# Mechanical properties :
#
#
# Convention : Reuss Voigt Hill
#
# Bulk Modulus (GPa) = 46.60454 51.84096 49.22275
# Shear Modulus (GPa) = 36.65563 45.70526 41.18044
#
# Velocity S-wave (km/s) = 4.04001 4.51123 4.28211
# Velocity P-wave (km/s) = 6.52027 7.08648 6.80926
#
# Compressibility (1/GPa) = 0.02145714
#
# Stress axis : x y z
#
# Youngs Moduli (GPa) = 146.15716 65.10418 103.44845
#
# Poissons Ratio (x) = 0.06308 0.14855
# Poissons Ratio (y) = 0.14162 0.28974
# Poissons Ratio (z) = 0.20989 0.18234
#
# Static dielectric constant tensor:
#      x y z
#    x 4.268830 0.000000 0.000000 
#    y 0.000000 3.879780 0.000000 
#    z 0.000000 0.000000 4.513700 
# 
# 
# High freq. dielectric constant tensor:
#      x y z
#    x 1.898770 0.000000 0.000000 
#    y 0.000000 1.868300 0.000000 
#    z 0.000000 0.000000 1.905010 
# 
# From -- ./inp_files/15117.got.cif
#   From: 2010.03.12/outbox.cif.g09.slc.cpg/sg40_8_cif.got.tgz:15117.got - 2010.04.14 01:38:03.
