data_PCOD8184035
_publ_section_title
;
Structure prediction by ZEFSAII (Michael W. Deem and Ramdas Pophale) SiO2 
 PCOD8184035
Probable space group: A M A 2
;
_chemical_formula_sum "Si O2"
_cell_formula_units_Z 52
_cell_length_a 14.968959
_cell_length_b 8.766583
_cell_length_c 20.800839
_cell_angle_alpha 90.000000
_cell_angle_beta 90.000000
_cell_angle_gamma 90.000000
_cell_volume 2729.623826
_symmetry_space_group_name_H-M "A M A 2"
_symmetry_group_IT_number 40
_symmetry_cell_setting 'orthorhombic'
loop_
_space_group_symop_operation_xyz
x,y,z
-x,-y,z
1/2-x,y,z
1/2+x,-y,z
x,1/2+y,1/2+z
-x,1/2-y,1/2+z
1/2-x,1/2+y,1/2+z
1/2+x,1/2-y,1/2+z
loop_
_atom_site_type_symbol
_atom_site_label
_atom_site_fract_x
_atom_site_fract_y
_atom_site_fract_z
Si Si1 0.910317 0.921331 0.672670
Si Si2 0.417180 0.899726 0.952834
Si Si3 0.488593 0.834380 0.087540
Si Si4 0.250000 0.572767 0.406825
Si Si5 0.250000 0.892637 0.361490
Si Si6 0.647432 0.617048 0.054201
Si Si7 0.250000 0.140308 0.767082
Si Si8 0.596088 0.442511 0.925031
O O1 0.939420 0.763595 0.640837
O O2 0.840437 0.891994 0.728934
O O3 0.862630 0.024753 0.619870
O O4 0.000000 0.000000 0.700900
O O5 0.334033 0.007612 0.943037
O O6 0.403900 0.739681 0.916913
O O7 0.500000 0.000000 0.926790
O O8 0.423646 0.860112 0.027586
O O9 0.580354 0.761021 0.058867
O O10 0.500000 0.000000 0.120223
O O11 0.250000 0.756903 0.415190
O O12 0.250000 0.532101 0.330420
O O13 0.250000 0.818088 0.290165
O O14 0.336611 0.995979 0.371391
O O15 0.750000 0.672600 0.047356
O O16 0.620865 0.503227 0.996232
O O17 0.500000 0.500000 0.904680
#
# Coordination Sequence:
#
# PCOD8184035 Si02
#       8
#     8   8   8   4   4   8   4   8
#     4  10  20  42  69  90 124 167 218 258 309 381
#     4  11  22  38  62  96 133 156 201 261 325 389
#     4  10  22  37  60 101 131 156 198 260 332 385
#     4  10  25  40  57  90 122 168 216 249 316 362
#     4  10  25  40  59  92 124 162 226 256 302 380
#     4  11  20  36  65  98 125 166 206 252 320 394
#     4  10  24  44  64  90 118 176 226 263 298 360
#     4  12  20  37  63  93 127 166 199 255 324 388
#
# _framework density 19.050242999999998
#
# number of rings (size 3 to 8) (size 9 to 14) (size 15 to 20)
#    0.462    0.923    4.615    1.846    2.154    1.231 
#    1.385    0.769   10.154    0.000    0.000    0.000 
#    0.000    0.000    0.000    0.000    0.000    0.000 
#
# Total GULP energy -322298.955896 kJ/mol
# GULP energy per Si atom -12396.113688 kJ/mol
# Density = 1.900688 g / cm^3
# Si number density = 19.050243 Si / 1000 Ang^3
#
#
#
# Elastic Constant Matrix: (Units=GPa)
#
#
# Indices 1 2 3 4 5 6 
#
# 1 163.5952 52.4482 52.4474 0.0000 0.0000 0.0000
# 2 52.4482 131.9460 28.4400 0.0000 0.0000 0.0000
# 3 52.4474 28.4400 81.1736 0.0000 0.0000 0.0000
# 4 0.0000 0.0000 0.0000 22.4526 0.0000 0.0000
# 5 0.0000 0.0000 0.0000 0.0000 21.8995 0.0000
# 6 0.0000 0.0000 0.0000 0.0000 0.0000 37.6918
#
#
#
# Elastic Compliance Matrix: (Units=1/GPa)
#
#
# Indices 1 2 3 4 5 6 
#
# 1 0.008320 -0.002324 -0.004561 0.000000 0.000000 0.000000
# 2 -0.002324 0.008847 -0.001598 0.000000 0.000000 0.000000
# 3 -0.004561 -0.001598 0.015826 0.000000 0.000000 0.000000
# 4 0.000000 0.000000 0.000000 0.044538 0.000000 0.000000
# 5 0.000000 0.000000 0.000000 0.000000 0.045663 0.000000
# 6 0.000000 0.000000 0.000000 0.000000 0.000000 0.026531
#
#
# Mechanical properties :
#
#
# Convention : Reuss Voigt Hill
#
# Bulk Modulus (GPa) = 62.39694 71.48734 66.94214
# Shear Modulus (GPa) = 29.06381 32.63407 30.84894
#
# Velocity S-wave (km/s) = 3.91018 4.14339 4.02848
# Velocity P-wave (km/s) = 7.29459 7.77801 7.54017
#
# Compressibility (1/GPa) = 0.01602643
#
# Stress axis : x y z
#
# Youngs Moduli (GPa) = 120.19085 113.03127 63.18551
#
# Poissons Ratio (x) = 0.26269 0.28822
# Poissons Ratio (y) = 0.27933 0.10098
# Poissons Ratio (z) = 0.54825 0.18063
#
# Static dielectric constant tensor:
#      x y z
#    x 3.533140 0.000000 0.000000 
#    y 0.000000 3.867500 0.000000 
#    z 0.000000 0.000000 3.148160 
# 
# 
# High freq. dielectric constant tensor:
#      x y z
#    x 1.754690 0.000000 0.000000 
#    y 0.000000 1.751320 0.000000 
#    z 0.000000 0.000000 1.709240 
# 
# From -- ./inp_files/23093.got.cif
#   From: 2010.03.12/outbox.cif.g09.slc.cpg/sg40_12_cif.got.tgz:23093.got - 2010.04.14 01:38:03.
