data_PCOD8184104
_publ_section_title
;
Structure prediction by ZEFSAII (Michael W. Deem and Ramdas Pophale) SiO2 
 PCOD8184104
Probable space group: A M A 2
;
_chemical_formula_sum "Si O2"
_cell_formula_units_Z 48
_cell_length_a 10.575521
_cell_length_b 31.949966
_cell_length_c 7.489387
_cell_angle_alpha 90.000000
_cell_angle_beta 90.000000
_cell_angle_gamma 90.000000
_cell_volume 2530.570522
_symmetry_space_group_name_H-M "A M A 2"
_symmetry_group_IT_number 40
_symmetry_cell_setting 'orthorhombic'
loop_
_space_group_symop_operation_xyz
x,y,z
-x,-y,z
1/2-x,y,z
1/2+x,-y,z
x,1/2+y,1/2+z
-x,1/2-y,1/2+z
1/2-x,1/2+y,1/2+z
1/2+x,1/2-y,1/2+z
loop_
_atom_site_type_symbol
_atom_site_label
_atom_site_fract_x
_atom_site_fract_y
_atom_site_fract_z
Si Si1 0.392638 0.098330 0.458360
Si Si2 0.609358 0.231438 0.146614
Si Si3 0.893095 0.896808 0.861206
Si Si4 0.102540 0.536475 0.646944
Si Si5 0.106745 0.333380 0.944490
Si Si6 0.996499 0.191707 0.800562
O O1 0.250000 0.117405 0.430409
O O2 0.409294 0.084427 0.663446
O O3 0.408121 0.056804 0.341942
O O4 0.501974 0.131066 0.409498
O O5 0.750000 0.219272 0.101440
O O6 0.563486 0.203939 0.314526
O O7 0.600187 0.280797 0.193263
O O8 0.538770 0.220751 0.964926
O O9 0.750000 0.888686 0.915112
O O10 0.957854 0.851955 0.880902
O O11 0.947385 0.930157 0.001066
O O12 0.250000 0.522245 0.611527
O O13 0.000000 0.500000 0.636533
O O14 0.250000 0.349295 0.901836
O O15 0.109783 0.317909 0.150906
#
# Coordination Sequence:
#
# PCOD8184104 Si02
#       6
#     8   8   8   8   8   8
#     4   9  19  37  59  82 110 147 188 227 276 343
#     4  11  22  35  52  78 112 150 195 242 287 336
#     4   9  19  36  58  81 110 147 190 232 275 338
#     4  10  21  38  59  87 115 143 183 231 283 344
#     4  10  21  37  55  82 115 146 189 243 290 335
#     4  11  20  37  55  80 112 155 195 239 288 335
#
# _framework density 18.968053999999999
#
# number of rings (size 3 to 8) (size 9 to 14) (size 15 to 20)
#    0.000    2.000    1.667    2.000    0.000    2.000 
#    0.000    5.000    0.000    0.000    0.000    0.000 
#    0.000    0.000    0.000    0.000    0.000    0.000 
#
# Total GULP energy -297363.586036 kJ/mol
# GULP energy per Si atom -12390.149418 kJ/mol
# Density = 1.892488 g / cm^3
# Si number density = 18.968054 Si / 1000 Ang^3
#
#
#
# Elastic Constant Matrix: (Units=GPa)
#
#
# Indices 1 2 3 4 5 6 
#
# 1 87.9610 54.5465 33.6435 0.0000 0.0000 0.0000
# 2 54.5465 109.6480 54.3292 0.0000 0.0000 0.0000
# 3 33.6435 54.3292 95.3530 0.0000 0.0000 0.0000
# 4 0.0000 0.0000 0.0000 32.1172 0.0000 0.0000
# 5 0.0000 0.0000 0.0000 0.0000 22.2259 0.0000
# 6 0.0000 0.0000 0.0000 0.0000 0.0000 30.6990
#
#
#
# Elastic Compliance Matrix: (Units=1/GPa)
#
#
# Indices 1 2 3 4 5 6 
#
# 1 0.016615 -0.007470 -0.001606 0.000000 0.000000 0.000000
# 2 -0.007470 0.016066 -0.006518 0.000000 0.000000 0.000000
# 3 -0.001606 -0.006518 0.014768 0.000000 0.000000 0.000000
# 4 0.000000 0.000000 0.000000 0.031136 0.000000 0.000000
# 5 0.000000 0.000000 0.000000 0.000000 0.044993 0.000000
# 6 0.000000 0.000000 0.000000 0.000000 0.000000 0.032574
#
#
# Mechanical properties :
#
#
# Convention : Reuss Voigt Hill
#
# Bulk Modulus (GPa) = 61.49899 64.22225 62.86062
# Shear Modulus (GPa) = 25.93894 27.03792 26.48843
#
# Velocity S-wave (km/s) = 3.70199 3.77960 3.74100
# Velocity P-wave (km/s) = 7.12501 7.27865 7.20224
#
# Compressibility (1/GPa) = 0.01626043
#
# Stress axis : x y z
#
# Youngs Moduli (GPa) = 60.18612 62.24450 67.71387
#
# Poissons Ratio (x) = 0.46494 0.10878
# Poissons Ratio (y) = 0.44956 0.44138
# Poissons Ratio (z) = 0.09668 0.40572
#
# Static dielectric constant tensor:
#      x y z
#    x 3.423250 0.000000 0.000000 
#    y 0.000000 3.320190 0.000000 
#    z 0.000000 0.000000 3.753710 
# 
# 
# High freq. dielectric constant tensor:
#      x y z
#    x 1.728350 0.000000 0.000000 
#    y 0.000000 1.719360 0.000000 
#    z 0.000000 0.000000 1.756690 
# 
# From -- ./inp_files/5419.got.cif
#   From: 2010.03.12/outbox.cif.g09.slc.cpg/sg40_3_cif.got.tgz:5419.got - 2010.04.14 01:38:03.
