data_PCOD8184361
_publ_section_title
;
Structure prediction by ZEFSAII (Michael W. Deem and Ramdas Pophale) SiO2 
 PCOD8184361
Probable space group: A M A 2
;
_chemical_formula_sum "Si O2"
_cell_formula_units_Z 52
_cell_length_a 27.153238
_cell_length_b 10.769974
_cell_length_c 8.743394
_cell_angle_alpha 90.000000
_cell_angle_beta 90.000000
_cell_angle_gamma 90.000000
_cell_volume 2556.915232
_symmetry_space_group_name_H-M "A M A 2"
_symmetry_group_IT_number 40
_symmetry_cell_setting 'orthorhombic'
loop_
_space_group_symop_operation_xyz
x,y,z
-x,-y,z
1/2-x,y,z
1/2+x,-y,z
x,1/2+y,1/2+z
-x,1/2-y,1/2+z
1/2-x,1/2+y,1/2+z
1/2+x,1/2-y,1/2+z
loop_
_atom_site_type_symbol
_atom_site_label
_atom_site_fract_x
_atom_site_fract_y
_atom_site_fract_z
Si Si1 0.434626 0.772142 0.050310
Si Si2 0.250000 0.590367 0.165224
Si Si3 0.356611 0.203517 0.324260
Si Si4 0.750000 0.127193 0.084004
Si Si5 0.170292 0.460282 0.354989
Si Si6 0.250000 0.080689 0.336139
Si Si7 0.985022 0.861819 0.837602
Si Si8 0.908523 0.448895 0.565185
O O1 0.458216 0.699286 0.192323
O O2 0.423879 0.911276 0.110342
O O3 0.384241 0.704189 0.991124
O O4 0.469023 0.779568 0.897440
O O5 0.250000 0.737856 0.156869
O O6 0.201193 0.548968 0.249132
O O7 0.250000 0.520329 0.003523
O O8 0.356380 0.347168 0.263968
O O9 0.299405 0.162991 0.326273
O O10 0.388202 0.116941 0.214922
O O11 0.750000 0.027395 0.216516
O O12 0.798475 0.109412 0.984893
O O13 0.131983 0.551972 0.432349
O O14 0.952598 0.870065 0.992265
O O15 0.000000 0.000000 0.783992
#
# Coordination Sequence:
#
# PCOD8184361 Si02
#       8
#     8   4   8   4   8   4   8   8
#     4  10  23  41  66  95 127 168 207 270 319 383
#     4  11  24  39  61  87 122 165 222 266 308 377
#     4  11  22  42  64  90 131 168 212 265 314 379
#     4  11  21  41  58  80 122 165 209 267 312 370
#     4  10  22  40  60  84 123 167 206 263 320 368
#     4  12  23  38  63  89 124 170 213 255 316 373
#     4  10  22  42  66  95 127 163 211 262 323 382
#     4  10  22  39  62  91 127 165 209 256 325 384
#
# _framework density 20.337007
#
# number of rings (size 3 to 8) (size 9 to 14) (size 15 to 20)
#    0.000    1.538    3.077    1.385    2.154    2.462 
#    2.769    0.000    0.000    0.000    0.000    0.000 
#    0.000    0.000    0.000    0.000    0.000    0.000 
#
# Total GULP energy -322256.994908 kJ/mol
# GULP energy per Si atom -12394.499804 kJ/mol
# Density = 2.029072 g / cm^3
# Si number density = 20.337007 Si / 1000 Ang^3
#
#
#
# Elastic Constant Matrix: (Units=GPa)
#
#
# Indices 1 2 3 4 5 6 
#
# 1 98.8104 35.3343 35.1390 0.0000 0.0000 0.0000
# 2 35.3343 100.3599 58.6060 0.0000 0.0000 0.0000
# 3 35.1390 58.6060 88.1178 0.0000 0.0000 0.0000
# 4 0.0000 0.0000 0.0000 30.2460 0.0000 0.0000
# 5 0.0000 0.0000 0.0000 0.0000 66.5516 0.0000
# 6 0.0000 0.0000 0.0000 0.0000 0.0000 32.2253
#
#
#
# Elastic Compliance Matrix: (Units=1/GPa)
#
#
# Indices 1 2 3 4 5 6 
#
# 1 0.012126 -0.002363 -0.003264 0.000000 0.000000 0.000000
# 2 -0.002363 0.016752 -0.010199 0.000000 0.000000 0.000000
# 3 -0.003264 -0.010199 0.019433 0.000000 0.000000 0.000000
# 4 0.000000 0.000000 0.000000 0.033062 0.000000 0.000000
# 5 0.000000 0.000000 0.000000 0.000000 0.015026 0.000000
# 6 0.000000 0.000000 0.000000 0.000000 0.000000 0.031031
#
#
# Mechanical properties :
#
#
# Convention : Reuss Voigt Hill
#
# Bulk Modulus (GPa) = 60.02777 60.60520 60.31648
# Shear Modulus (GPa) = 30.36990 36.35185 33.36087
#
# Velocity S-wave (km/s) = 3.86856 4.23244 4.05458
# Velocity P-wave (km/s) = 7.03810 7.33143 7.18626
#
# Compressibility (1/GPa) = 0.01665896
#
# Stress axis : x y z
#
# Youngs Moduli (GPa) = 82.46609 59.69394 51.45831
#
# Poissons Ratio (x) = 0.14109 0.16794
# Poissons Ratio (y) = 0.19491 0.52483
# Poissons Ratio (z) = 0.26914 0.60883
#
# Static dielectric constant tensor:
#      x y z
#    x 4.163740 0.000000 0.000000 
#    y 0.000000 3.608080 0.000000 
#    z 0.000000 0.000000 3.528290 
# 
# 
# High freq. dielectric constant tensor:
#      x y z
#    x 1.821410 0.000000 0.000000 
#    y 0.000000 1.794170 0.000000 
#    z 0.000000 0.000000 1.779980 
# 
# From -- ./inp_files/9142.got.cif
#   From: 2010.03.12/outbox.cif.g09.slc.cpg/sg40_5_cif.got.tgz:9142.got - 2010.04.14 01:38:03.
