data_PCOD8184152
_publ_section_title
;
Structure prediction by ZEFSAII (Michael W. Deem and Ramdas Pophale) SiO2 
 PCOD8184152
Probable space group: A M A 2
;
_chemical_formula_sum "Si O2"
_cell_formula_units_Z 48
_cell_length_a 8.412638
_cell_length_b 28.206551
_cell_length_c 10.296518
_cell_angle_alpha 90.000000
_cell_angle_beta 90.000000
_cell_angle_gamma 90.000000
_cell_volume 2443.276230
_symmetry_space_group_name_H-M "A M A 2"
_symmetry_group_IT_number 40
_symmetry_cell_setting 'orthorhombic'
loop_
_space_group_symop_operation_xyz
x,y,z
-x,-y,z
1/2-x,y,z
1/2+x,-y,z
x,1/2+y,1/2+z
-x,1/2-y,1/2+z
1/2-x,1/2+y,1/2+z
1/2+x,1/2-y,1/2+z
loop_
_atom_site_type_symbol
_atom_site_label
_atom_site_fract_x
_atom_site_fract_y
_atom_site_fract_z
Si Si1 0.064112 0.549359 0.963440
Si Si2 0.934412 0.354922 0.352136
Si Si3 0.064679 0.305684 0.601409
Si Si4 0.436632 0.448862 0.247563
Si Si5 0.563780 0.640881 0.852460
Si Si6 0.437888 0.198984 0.589834
O O1 0.250000 0.545534 0.993375
O O2 0.000000 0.500000 0.904423
O O3 0.027897 0.590931 0.862164
O O4 0.975005 0.560939 0.097387
O O5 0.750000 0.349177 0.383620
O O6 0.983162 0.325977 0.224394
O O7 0.032410 0.334177 0.471084
O O8 0.977181 0.409958 0.336020
O O9 0.250000 0.300683 0.625369
O O10 0.992539 0.333217 0.725300
O O11 0.995377 0.252546 0.594155
O O12 0.500000 0.500000 0.291897
O O13 0.250000 0.445712 0.270340
O O14 0.750000 0.630442 0.839594
O O15 0.532424 0.673200 0.976593
O O16 0.250000 0.195575 0.562131
#
# Coordination Sequence:
#
# PCOD8184152 Si02
#       6
#     8   8   8   8   8   8
#     4  11  21  36  59  88 118 150 191 241 290 347
#     4  11  22  38  60  88 120 156 196 243 293 347
#     4  10  23  40  57  83 120 159 199 244 293 346
#     4  11  21  36  60  89 118 151 191 240 290 345
#     4  11  22  38  60  87 118 156 197 243 294 348
#     4  10  21  38  60  85 116 154 200 249 290 343
#
# _framework density 19.645752000000002
#
# number of rings (size 3 to 8) (size 9 to 14) (size 15 to 20)
#    0.000    1.333    1.667    6.000    0.000    4.000 
#    0.000    0.833    0.000    4.000    0.000    0.000 
#    0.000    0.000    0.000    0.000    0.000    0.000 
#
# Total GULP energy -297726.179038 kJ/mol
# GULP energy per Si atom -12405.257460 kJ/mol
# Density = 1.960104 g / cm^3
# Si number density = 19.645752 Si / 1000 Ang^3
#
#
#
# Elastic Constant Matrix: (Units=GPa)
#
#
# Indices 1 2 3 4 5 6 
#
# 1 31.5441 9.3465 5.2997 0.0000 0.0000 0.0000
# 2 9.3465 165.9430 53.4727 0.0000 0.0000 0.0000
# 3 5.2997 53.4727 92.3232 0.0000 0.0000 0.0000
# 4 0.0000 0.0000 0.0000 12.4054 0.0000 0.0000
# 5 0.0000 0.0000 0.0000 0.0000 23.7561 0.0000
# 6 0.0000 0.0000 0.0000 0.0000 0.0000 25.3630
#
#
#
# Elastic Compliance Matrix: (Units=1/GPa)
#
#
# Indices 1 2 3 4 5 6 
#
# 1 0.032312 -0.001503 -0.000984 0.000000 0.000000 0.000000
# 2 -0.001503 0.007479 -0.004245 0.000000 0.000000 0.000000
# 3 -0.000984 -0.004245 0.013347 0.000000 0.000000 0.000000
# 4 0.000000 0.000000 0.000000 0.080610 0.000000 0.000000
# 5 0.000000 0.000000 0.000000 0.000000 0.042094 0.000000
# 6 0.000000 0.000000 0.000000 0.000000 0.000000 0.039428
#
#
# Mechanical properties :
#
#
# Convention : Reuss Voigt Hill
#
# Bulk Modulus (GPa) = 25.20616 47.33869 36.27242
# Shear Modulus (GPa) = 20.66461 27.08433 23.87447
#
# Velocity S-wave (km/s) = 3.24676 3.71703 3.48982
# Velocity P-wave (km/s) = 5.18782 6.52458 5.89422
#
# Compressibility (1/GPa) = 0.03967284
#
# Stress axis : x y z
#
# Youngs Moduli (GPa) = 30.94796 133.71092 74.92366
#
# Poissons Ratio (x) = 0.20093 0.07376
# Poissons Ratio (y) = 0.04651 0.31808
# Poissons Ratio (z) = 0.03047 0.56766
#
# Static dielectric constant tensor:
#      x y z
#    x 3.495650 0.000000 0.000000 
#    y 0.000000 4.027600 0.000000 
#    z 0.000000 0.000000 3.430400 
# 
# 
# High freq. dielectric constant tensor:
#      x y z
#    x 1.767390 0.000000 0.000000 
#    y 0.000000 1.786810 0.000000 
#    z 0.000000 0.000000 1.746260 
# 
# From -- ./inp_files/4626.got.cif
#   From: 2010.03.12/outbox.cif.g09.slc.cpg/sg40_3_cif.got.tgz:4626.got - 2010.04.14 01:38:03.
