data_PCOD8184468
_publ_section_title
;
Structure prediction by ZEFSAII (Michael W. Deem and Ramdas Pophale) SiO2 
 PCOD8184468
Probable space group: A M A 2
;
_chemical_formula_sum "Si O2"
_cell_formula_units_Z 48
_cell_length_a 16.809516
_cell_length_b 10.756789
_cell_length_c 11.607572
_cell_angle_alpha 90.000000
_cell_angle_beta 90.000000
_cell_angle_gamma 90.000000
_cell_volume 2098.839577
_symmetry_space_group_name_H-M "A M A 2"
_symmetry_group_IT_number 40
_symmetry_cell_setting 'orthorhombic'
loop_
_space_group_symop_operation_xyz
x,y,z
-x,-y,z
1/2-x,y,z
1/2+x,-y,z
x,1/2+y,1/2+z
-x,1/2-y,1/2+z
1/2-x,1/2+y,1/2+z
1/2+x,1/2-y,1/2+z
loop_
_atom_site_type_symbol
_atom_site_label
_atom_site_fract_x
_atom_site_fract_y
_atom_site_fract_z
Si Si1 0.408777 0.019310 0.274030
Si Si2 0.840366 0.322639 0.592881
Si Si3 0.157813 0.286310 0.652785
Si Si4 0.840342 0.063280 0.938073
Si Si5 0.912032 0.963331 0.712465
Si Si6 0.840769 0.068307 0.498131
O O1 0.352604 0.911651 0.224479
O O2 0.393993 0.013651 0.410808
O O3 0.500000 0.000000 0.242776
O O4 0.384070 0.151296 0.215566
O O5 0.750000 0.288467 0.623041
O O6 0.849266 0.442613 0.515704
O O7 0.876324 0.207216 0.519988
O O8 0.250000 0.245492 0.661433
O O9 0.135473 0.317405 0.517909
O O10 0.100396 0.185916 0.715669
O O11 0.750000 0.078300 0.894415
O O12 0.897640 0.040785 0.829808
O O13 0.845596 0.000848 0.620258
O O14 0.000000 0.000000 0.670595
O O15 0.750000 0.071887 0.454344
#
# Coordination Sequence:
#
# PCOD8184468 Si02
#       6
#     8   8   8   8   8   8
#     4  11  23  40  66  99 130 166 220 282 340 395
#     4   9  20  40  67  93 123 168 223 270 321 399
#     4  10  22  44  71  94 128 179 228 269 331 414
#     4   9  19  40  68  94 121 168 225 269 322 399
#     4  12  26  41  60  98 140 170 215 276 339 397
#     4  11  23  41  64  90 130 177 218 265 329 407
#
# _framework density 22.869781
#
# number of rings (size 3 to 8) (size 9 to 14) (size 15 to 20)
#    0.000    1.667    0.000    5.500    2.333    5.333 
#    3.000    1.667    0.000    0.000    0.000    0.000 
#    0.000    0.000    0.000    0.000    0.000    0.000 
#
# Total GULP energy -297478.488469 kJ/mol
# GULP energy per Si atom -12394.937020 kJ/mol
# Density = 2.281773 g / cm^3
# Si number density = 22.869781 Si / 1000 Ang^3
#
#
#
# Elastic Constant Matrix: (Units=GPa)
#
#
# Indices 1 2 3 4 5 6 
#
# 1 71.3858 19.2289 33.0884 0.0000 0.0000 0.0000
# 2 19.2289 43.5682 15.8393 0.0000 0.0000 0.0000
# 3 33.0884 15.8393 111.6771 0.0000 0.0000 0.0000
# 4 0.0000 0.0000 0.0000 26.8191 0.0000 0.0000
# 5 0.0000 0.0000 0.0000 0.0000 30.3326 0.0000
# 6 0.0000 0.0000 0.0000 0.0000 0.0000 28.3056
#
#
#
# Elastic Compliance Matrix: (Units=1/GPa)
#
#
# Indices 1 2 3 4 5 6 
#
# 1 0.017709 -0.006230 -0.004363 0.000000 0.000000 0.000000
# 2 -0.006230 0.026392 -0.001897 0.000000 0.000000 0.000000
# 3 -0.004363 -0.001897 0.010516 0.000000 0.000000 0.000000
# 4 0.000000 0.000000 0.000000 0.037287 0.000000 0.000000
# 5 0.000000 0.000000 0.000000 0.000000 0.032968 0.000000
# 6 0.000000 0.000000 0.000000 0.000000 0.000000 0.035329
#
#
# Mechanical properties :
#
#
# Convention : Reuss Voigt Hill
#
# Bulk Modulus (GPa) = 33.74242 40.32711 37.03477
# Shear Modulus (GPa) = 25.63318 27.65644 26.64481
#
# Velocity S-wave (km/s) = 3.35151 3.48127 3.41701
# Velocity P-wave (km/s) = 5.45555 5.81641 5.63887
#
# Compressibility (1/GPa) = 0.02963628
#
# Stress axis : x y z
#
# Youngs Moduli (GPa) = 56.46882 37.89065 95.09038
#
# Poissons Ratio (x) = 0.23604 0.41491
# Poissons Ratio (y) = 0.35177 0.18043
# Poissons Ratio (z) = 0.24639 0.07190
#
# Static dielectric constant tensor:
#      x y z
#    x 3.764560 0.000000 0.000000 
#    y 0.000000 4.407490 0.000000 
#    z 0.000000 0.000000 4.347490 
# 
# 
# High freq. dielectric constant tensor:
#      x y z
#    x 1.884010 0.000000 0.000000 
#    y 0.000000 1.902390 0.000000 
#    z 0.000000 0.000000 1.905960 
# 
# From -- ./inp_files/12895.got.cif
#   From: 2010.03.12/outbox.cif.g09.slc.cpg/sg40_7_cif.got.tgz:12895.got - 2010.04.14 01:38:03.
