data_PCOD8184036
_publ_section_title
;
Structure prediction by ZEFSAII (Michael W. Deem and Ramdas Pophale) SiO2 
 PCOD8184036
Probable space group: A M A 2
;
_chemical_formula_sum "Si O2"
_cell_formula_units_Z 64
_cell_length_a 17.523956
_cell_length_b 13.125035
_cell_length_c 13.987165
_cell_angle_alpha 90.000000
_cell_angle_beta 90.000000
_cell_angle_gamma 90.000000
_cell_volume 3217.083419
_symmetry_space_group_name_H-M "A M A 2"
_symmetry_group_IT_number 40
_symmetry_cell_setting 'orthorhombic'
loop_
_space_group_symop_operation_xyz
x,y,z
-x,-y,z
1/2-x,y,z
1/2+x,-y,z
x,1/2+y,1/2+z
-x,1/2-y,1/2+z
1/2-x,1/2+y,1/2+z
1/2+x,1/2-y,1/2+z
loop_
_atom_site_type_symbol
_atom_site_label
_atom_site_fract_x
_atom_site_fract_y
_atom_site_fract_z
Si Si1 0.078570 0.451434 0.896840
Si Si2 0.836999 0.879226 0.490115
Si Si3 0.337857 0.763660 0.808456
Si Si4 0.013580 0.381597 0.291443
Si Si5 0.838286 0.574896 0.707558
Si Si6 0.162683 0.137241 0.120518
Si Si7 0.071524 0.738232 0.129463
Si Si8 0.548508 0.773828 0.971996
O O1 0.110006 0.521327 0.982431
O O2 0.142705 0.457934 0.815200
O O3 0.066869 0.339281 0.937088
O O4 0.000000 0.500000 0.857494
O O5 0.750000 0.914072 0.492917
O O6 0.852812 0.801766 0.403194
O O7 0.857834 0.828637 0.591500
O O8 0.250000 0.802949 0.805056
O O9 0.396208 0.858815 0.807297
O O10 0.359018 0.693987 0.718230
O O11 0.984512 0.323814 0.197584
O O12 0.964359 0.345545 0.381408
O O13 0.000000 0.500000 0.275753
O O14 0.750000 0.608324 0.701890
O O15 0.854479 0.482386 0.634859
O O16 0.895035 0.665757 0.684280
O O17 0.250000 0.155759 0.095653
O O18 0.118526 0.180102 0.030149
O O19 0.025948 0.775782 0.037132
#
# Coordination Sequence:
#
# PCOD8184036 Si02
#       8
#     8   8   8   8   8   8   8   8
#     4  12  23  41  68 101 132 170 221 280 332 384
#     4  11  23  41  70 100 129 171 219 268 327 390
#     4  10  20  42  69  97 130 167 219 271 322 387
#     4  12  27  46  63  98 135 173 218 269 325 388
#     4  11  25  44  69 100 133 171 219 280 335 385
#     4  10  23  42  68  99 130 171 221 272 328 389
#     4  12  25  43  68  95 135 172 218 272 320 396
#     4  12  26  43  66  97 131 175 219 269 329 388
#
# _framework density 19.893795999999998
#
# number of rings (size 3 to 8) (size 9 to 14) (size 15 to 20)
#    0.000    0.750    6.250    0.750    5.250    1.000 
#    0.000    3.125    0.000    0.000    0.000    0.000 
#    0.000    0.000    0.000    0.000    0.000    0.000 
#
# Total GULP energy -396922.094992 kJ/mol
# GULP energy per Si atom -12403.815468 kJ/mol
# Density = 1.984852 g / cm^3
# Si number density = 19.893796 Si / 1000 Ang^3
#
#
#
# Elastic Constant Matrix: (Units=GPa)
#
#
# Indices 1 2 3 4 5 6 
#
# 1 106.5862 52.7117 27.4588 0.0000 0.0000 0.0000
# 2 52.7117 107.8931 18.3422 0.0000 0.0000 0.0000
# 3 27.4588 18.3422 77.9836 0.0000 0.0000 0.0000
# 4 0.0000 0.0000 0.0000 12.2499 0.0000 0.0000
# 5 0.0000 0.0000 0.0000 0.0000 38.9492 0.0000
# 6 0.0000 0.0000 0.0000 0.0000 0.0000 32.7570
#
#
#
# Elastic Compliance Matrix: (Units=1/GPa)
#
#
# Indices 1 2 3 4 5 6 
#
# 1 0.013112 -0.005855 -0.003240 0.000000 0.000000 0.000000
# 2 -0.005855 0.012269 -0.000824 0.000000 0.000000 0.000000
# 3 -0.003240 -0.000824 0.014158 0.000000 0.000000 0.000000
# 4 0.000000 0.000000 0.000000 0.081634 0.000000 0.000000
# 5 0.000000 0.000000 0.000000 0.000000 0.025674 0.000000
# 6 0.000000 0.000000 0.000000 0.000000 0.000000 0.030528
#
#
# Mechanical properties :
#
#
# Convention : Reuss Voigt Hill
#
# Bulk Modulus (GPa) = 50.75890 54.38761 52.57326
# Shear Modulus (GPa) = 24.53617 29.72123 27.12870
#
# Velocity S-wave (km/s) = 3.51573 3.86942 3.69681
# Velocity P-wave (km/s) = 6.48466 6.88197 6.68627
#
# Compressibility (1/GPa) = 0.01970098
#
# Stress axis : x y z
#
# Youngs Moduli (GPa) = 76.26322 81.50491 70.63246
#
# Poissons Ratio (x) = 0.47724 0.22884
# Poissons Ratio (y) = 0.44655 0.05820
# Poissons Ratio (z) = 0.24708 0.06716
#
# Static dielectric constant tensor:
#      x y z
#    x 3.729940 0.000000 0.000000 
#    y 0.000000 3.551640 0.000000 
#    z 0.000000 0.000000 3.777760 
# 
# 
# High freq. dielectric constant tensor:
#      x y z
#    x 1.789520 0.000000 0.000000 
#    y 0.000000 1.772050 0.000000 
#    z 0.000000 0.000000 1.778390 
# 
# From -- ./inp_files/17859.got.cif
#   From: 2010.03.12/outbox.cif.g09.slc.cpg/sg40_9_cif.got.tgz:17859.got - 2010.04.14 01:38:03.
