data_PCOD8184286
_publ_section_title
;
Structure prediction by ZEFSAII (Michael W. Deem and Ramdas Pophale) SiO2 
 PCOD8184286
Probable space group: A M A 2
;
_chemical_formula_sum "Si O2"
_cell_formula_units_Z 64
_cell_length_a 18.103799
_cell_length_b 11.701457
_cell_length_c 14.828922
_cell_angle_alpha 90.000000
_cell_angle_beta 90.000000
_cell_angle_gamma 90.000000
_cell_volume 3141.371078
_symmetry_space_group_name_H-M "A M A 2"
_symmetry_group_IT_number 40
_symmetry_cell_setting 'orthorhombic'
loop_
_space_group_symop_operation_xyz
x,y,z
-x,-y,z
1/2-x,y,z
1/2+x,-y,z
x,1/2+y,1/2+z
-x,1/2-y,1/2+z
1/2-x,1/2+y,1/2+z
1/2+x,1/2-y,1/2+z
loop_
_atom_site_type_symbol
_atom_site_label
_atom_site_fract_x
_atom_site_fract_y
_atom_site_fract_z
Si Si1 0.078915 0.950621 0.234890
Si Si2 0.078010 0.528031 0.165420
Si Si3 0.597566 0.187099 0.561686
Si Si4 0.438134 0.766959 0.081443
Si Si5 0.837213 0.194472 0.913943
Si Si6 0.163086 0.288007 0.872289
Si Si7 0.663032 0.317978 0.729767
Si Si8 0.664079 0.962216 0.833769
O O1 0.069422 0.880150 0.142177
O O2 0.114132 0.874672 0.314130
O O3 0.133063 0.055074 0.215358
O O4 0.000000 0.000000 0.267392
O O5 0.083156 0.447715 0.077406
O O6 0.083763 0.660666 0.143017
O O7 0.142988 0.497440 0.233937
O O8 0.000000 0.500000 0.214080
O O9 0.521000 0.254012 0.542580
O O10 0.652957 0.191219 0.478205
O O11 0.633699 0.237887 0.650948
O O12 0.380906 0.762656 0.999977
O O13 0.750000 0.208732 0.931062
O O14 0.861796 0.267171 0.826389
O O15 0.859987 0.061399 0.902651
O O16 0.250000 0.301306 0.847680
O O17 0.129799 0.161095 0.856155
O O18 0.750000 0.323259 0.722955
O O19 0.750000 0.947497 0.837977
#
# Coordination Sequence:
#
# PCOD8184286 Si02
#       8
#     8   8   8   8   8   8   8   8
#     4  12  26  44  69  97 137 181 218 270 332 404
#     4  10  22  41  66  92 123 164 214 268 325 384
#     4  11  24  42  69  98 131 173 222 278 333 398
#     4  11  25  43  65  99 132 173 223 271 337 396
#     4  10  24  42  67  98 132 175 225 279 334 395
#     4  11  26  44  67  99 134 178 224 272 335 396
#     4  11  24  44  67  96 133 175 222 275 335 399
#     4  10  21  41  66  93 123 165 218 270 323 381
#
# _framework density 20.373270999999999
#
# number of rings (size 3 to 8) (size 9 to 14) (size 15 to 20)
#    0.000    1.250    3.750    0.750    5.250    3.500 
#    0.000    0.000    0.000    0.000    0.000    0.000 
#    0.000    0.000    0.000    0.000    0.000    0.000 
#
# Total GULP energy -396795.458324 kJ/mol
# GULP energy per Si atom -12399.858073 kJ/mol
# Density = 2.032690 g / cm^3
# Si number density = 20.373271 Si / 1000 Ang^3
#
#
#
# Elastic Constant Matrix: (Units=GPa)
#
#
# Indices 1 2 3 4 5 6 
#
# 1 50.5109 39.1305 31.3783 0.0000 0.0000 0.0000
# 2 39.1305 113.2657 23.5404 0.0000 0.0000 0.0000
# 3 31.3783 23.5404 86.6214 0.0000 0.0000 0.0000
# 4 0.0000 0.0000 0.0000 13.7669 0.0000 0.0000
# 5 0.0000 0.0000 0.0000 0.0000 26.6982 0.0000
# 6 0.0000 0.0000 0.0000 0.0000 0.0000 32.9755
#
#
#
# Elastic Compliance Matrix: (Units=1/GPa)
#
#
# Indices 1 2 3 4 5 6 
#
# 1 0.032916 -0.009426 -0.009362 0.000000 0.000000 0.000000
# 2 -0.009426 0.012057 0.000138 0.000000 0.000000 0.000000
# 3 -0.009362 0.000138 0.014898 0.000000 0.000000 0.000000
# 4 0.000000 0.000000 0.000000 0.072638 0.000000 0.000000
# 5 0.000000 0.000000 0.000000 0.000000 0.037456 0.000000
# 6 0.000000 0.000000 0.000000 0.000000 0.000000 0.030326
#
#
# Mechanical properties :
#
#
# Convention : Reuss Voigt Hill
#
# Bulk Modulus (GPa) = 44.30500 48.72184 46.51342
# Shear Modulus (GPa) = 20.39874 25.11137 22.75506
#
# Velocity S-wave (km/s) = 3.16769 3.51460 3.34564
# Velocity P-wave (km/s) = 5.93067 6.35896 6.14854
#
# Compressibility (1/GPa) = 0.02257082
#
# Stress axis : x y z
#
# Youngs Moduli (GPa) = 30.38068 82.94276 67.12156
#
# Poissons Ratio (x) = 0.78180 0.62839
# Poissons Ratio (y) = 0.28636 -0.00926
# Poissons Ratio (z) = 0.28442 -0.01144
#
# Static dielectric constant tensor:
#      x y z
#    x 3.731340 0.000000 0.000000 
#    y 0.000000 4.110740 0.000000 
#    z 0.000000 0.000000 3.479380 
# 
# 
# High freq. dielectric constant tensor:
#      x y z
#    x 1.801390 0.000000 0.000000 
#    y 0.000000 1.817370 0.000000 
#    z 0.000000 0.000000 1.787940 
# 
# From -- ./inp_files/17822.got.cif
#   From: 2010.03.12/outbox.cif.g09.slc.cpg/sg40_9_cif.got.tgz:17822.got - 2010.04.14 01:38:03.
