data_PCOD8184378
_publ_section_title
;
Structure prediction by ZEFSAII (Michael W. Deem and Ramdas Pophale) SiO2 
 PCOD8184378
Probable space group: A M A 2
;
_chemical_formula_sum "Si O2"
_cell_formula_units_Z 64
_cell_length_a 8.643207
_cell_length_b 15.419685
_cell_length_c 23.649231
_cell_angle_alpha 90.000000
_cell_angle_beta 90.000000
_cell_angle_gamma 90.000000
_cell_volume 3151.863780
_symmetry_space_group_name_H-M "A M A 2"
_symmetry_group_IT_number 40
_symmetry_cell_setting 'orthorhombic'
loop_
_space_group_symop_operation_xyz
x,y,z
-x,-y,z
1/2-x,y,z
1/2+x,-y,z
x,1/2+y,1/2+z
-x,1/2-y,1/2+z
1/2-x,1/2+y,1/2+z
1/2+x,1/2-y,1/2+z
loop_
_atom_site_type_symbol
_atom_site_label
_atom_site_fract_x
_atom_site_fract_y
_atom_site_fract_z
Si Si1 0.933289 0.343246 0.804660
Si Si2 0.432381 0.912049 0.916551
Si Si3 0.569395 0.256719 0.985272
Si Si4 0.069105 0.749839 0.606517
Si Si5 0.931306 0.589989 0.186861
Si Si6 0.932169 0.409160 0.684292
Si Si7 0.432666 0.653340 0.303577
Si Si8 0.432232 0.411794 0.917007
O O1 0.750000 0.331155 0.804245
O O2 0.993511 0.387634 0.747132
O O3 0.008089 0.250049 0.811513
O O4 0.985724 0.402020 0.856516
O O5 0.250000 0.918297 0.912189
O O6 0.483881 0.832227 0.955833
O O7 0.502379 0.904169 0.854225
O O8 0.500000 0.000000 0.944207
O O9 0.750000 0.274928 0.974801
O O10 0.470118 0.333821 0.958942
O O11 0.535019 0.250628 0.051217
O O12 0.250000 0.744362 0.590930
O O13 0.031702 0.836283 0.641351
O O14 0.014266 0.667056 0.642627
O O15 0.750000 0.581560 0.197754
O O16 0.000000 0.500000 0.163150
O O17 0.011886 0.612517 0.245404
O O18 0.750000 0.416474 0.684893
O O19 0.000000 0.500000 0.662738
O O20 0.250000 0.652627 0.305701
O O21 0.500000 0.500000 0.944190
O O22 0.250000 0.418387 0.908552
#
# Coordination Sequence:
#
# PCOD8184378 Si02
#       8
#     8   8   8   8   8   8   8   8
#     4  11  21  39  64  93 131 168 205 255 313 375
#     4  11  24  42  65  92 128 166 208 260 314 376
#     4  11  25  44  66  92 124 165 212 266 317 370
#     4  10  23  44  65  87 123 168 210 260 316 370
#     4  11  23  42  65  92 127 165 206 257 314 374
#     4  10  22  40  63  92 126 166 205 252 310 366
#     4  12  23  37  63  96 128 166 207 253 312 378
#     4  12  25  42  66  96 129 168 210 258 313 376
#
# _framework density 20.305446
#
# number of rings (size 3 to 8) (size 9 to 14) (size 15 to 20)
#    0.000    1.000    2.500    4.500    0.000    6.000 
#    0.000    3.750    0.000    0.000    0.000    0.000 
#    0.000    0.000    0.000    0.000    0.000    0.000 
#
# Total GULP energy -397011.155691 kJ/mol
# GULP energy per Si atom -12406.598615 kJ/mol
# Density = 2.025923 g / cm^3
# Si number density = 20.305446 Si / 1000 Ang^3
#
#
#
# Elastic Constant Matrix: (Units=GPa)
#
#
# Indices 1 2 3 4 5 6 
#
# 1 140.0261 60.3932 39.1028 0.0000 0.0000 0.0000
# 2 60.3932 164.9956 45.6666 0.0000 0.0000 0.0000
# 3 39.1028 45.6666 105.2467 0.0000 0.0000 0.0000
# 4 0.0000 0.0000 0.0000 7.5529 0.0000 0.0000
# 5 0.0000 0.0000 0.0000 0.0000 30.4332 0.0000
# 6 0.0000 0.0000 0.0000 0.0000 0.0000 33.9994
#
#
#
# Elastic Compliance Matrix: (Units=1/GPa)
#
#
# Indices 1 2 3 4 5 6 
#
# 1 0.008888 -0.002659 -0.002149 0.000000 0.000000 0.000000
# 2 -0.002659 0.007683 -0.002346 0.000000 0.000000 0.000000
# 3 -0.002149 -0.002346 0.011318 0.000000 0.000000 0.000000
# 4 0.000000 0.000000 0.000000 0.132399 0.000000 0.000000
# 5 0.000000 0.000000 0.000000 0.000000 0.032859 0.000000
# 6 0.000000 0.000000 0.000000 0.000000 0.000000 0.029412
#
#
# Mechanical properties :
#
#
# Convention : Reuss Voigt Hill
#
# Bulk Modulus (GPa) = 73.62399 77.84374 75.73387
# Shear Modulus (GPa) = 20.71311 32.07084 26.39198
#
# Velocity S-wave (km/s) = 3.19733 3.97850 3.60911
# Velocity P-wave (km/s) = 7.06877 7.71520 7.39905
#
# Compressibility (1/GPa) = 0.01358253
#
# Stress axis : x y z
#
# Youngs Moduli (GPa) = 112.50828 130.15380 88.35704
#
# Poissons Ratio (x) = 0.34603 0.18985
# Poissons Ratio (y) = 0.29912 0.20728
# Poissons Ratio (z) = 0.24175 0.30534
#
# Static dielectric constant tensor:
#      x y z
#    x 3.668190 0.000000 0.000000 
#    y 0.000000 4.094750 0.000000 
#    z 0.000000 0.000000 3.663940 
# 
# 
# High freq. dielectric constant tensor:
#      x y z
#    x 1.799810 0.000000 0.000000 
#    y 0.000000 1.814130 0.000000 
#    z 0.000000 0.000000 1.789360 
# 
# From -- ./inp_files/24258.got.cif
#   From: 2010.03.12/outbox.cif.g09.slc.cpg/sg40_13_cif.got.tgz:24258.got - 2010.04.14 01:38:03.
