data_PCOD8184578
_publ_section_title
;
Structure prediction by ZEFSAII (Michael W. Deem and Ramdas Pophale) SiO2 
 PCOD8184578
Probable space group: A M A 2
;
_chemical_formula_sum "Si O2"
_cell_formula_units_Z 64
_cell_length_a 8.794626
_cell_length_b 20.769392
_cell_length_c 19.557218
_cell_angle_alpha 90.000000
_cell_angle_beta 90.000000
_cell_angle_gamma 90.000000
_cell_volume 3572.302565
_symmetry_space_group_name_H-M "A M A 2"
_symmetry_group_IT_number 40
_symmetry_cell_setting 'orthorhombic'
loop_
_space_group_symop_operation_xyz
x,y,z
-x,-y,z
1/2-x,y,z
1/2+x,-y,z
x,1/2+y,1/2+z
-x,1/2-y,1/2+z
1/2-x,1/2+y,1/2+z
1/2+x,1/2-y,1/2+z
loop_
_atom_site_type_symbol
_atom_site_label
_atom_site_fract_x
_atom_site_fract_y
_atom_site_fract_z
Si Si1 0.428543 0.433799 0.195740
Si Si2 0.927464 0.379408 0.912767
Si Si3 0.430408 0.812066 0.777310
Si Si4 0.070444 0.683955 0.702045
Si Si5 0.929503 0.566491 0.783017
Si Si6 0.423853 0.620484 0.068002
Si Si7 0.072502 0.271086 0.569088
Si Si8 0.930047 0.735052 0.419225
O O1 0.500000 0.500000 0.222360
O O2 0.250000 0.438631 0.204127
O O3 0.497553 0.375950 0.241964
O O4 0.468776 0.421364 0.116691
O O5 0.750000 0.383718 0.893019
O O6 0.990830 0.306802 0.904332
O O7 0.022297 0.424166 0.861951
O O8 0.955238 0.402077 0.990516
O O9 0.250000 0.812722 0.771672
O O10 0.491212 0.748499 0.739037
O O11 0.482425 0.811008 0.857012
O O12 0.250000 0.676229 0.710145
O O13 0.990531 0.623290 0.735644
O O14 0.025581 0.687874 0.622417
O O15 0.750000 0.563031 0.777345
O O16 0.000000 0.500000 0.755625
O O17 0.250000 0.606646 0.088175
O O18 0.461133 0.695546 0.077691
O O19 0.250000 0.286257 0.579972
O O20 0.015269 0.291805 0.492849
O O21 0.750000 0.741827 0.423863
#
# Coordination Sequence:
#
# PCOD8184578 Si02
#       8
#     8   8   8   8   8   8   8   8
#     4  11  22  35  51  75 106 145 185 225 271 320
#     4   9  17  33  55  78 107 143 179 217 266 318
#     4   9  17  31  55  80 102 136 181 222 269 318
#     4  11  20  35  58  81 109 142 178 224 270 321
#     4  12  25  39  55  79 109 144 183 224 270 323
#     4   9  18  32  52  78 109 144 181 221 263 316
#     4   9  17  30  53  83 110 136 174 221 267 317
#     4   8  14  29  54  80 106 137 174 216 265 322
#
# _framework density 17.915616
#
# number of rings (size 3 to 8) (size 9 to 14) (size 15 to 20)
#    0.000    2.250    2.500    3.375    0.000    1.000 
#    0.000    1.875    0.000    0.750    0.000    1.750 
#    0.000    0.000    0.000    0.000    0.000    0.000 
#
# Total GULP energy -396752.144611 kJ/mol
# GULP energy per Si atom -12398.504519 kJ/mol
# Density = 1.787484 g / cm^3
# Si number density = 17.915616 Si / 1000 Ang^3
#
#
#
# Elastic Constant Matrix: (Units=GPa)
#
#
# Indices 1 2 3 4 5 6 
#
# 1 70.3111 41.9843 33.3472 0.0000 0.0000 0.0000
# 2 41.9843 118.8034 63.9787 0.0000 0.0000 0.0000
# 3 33.3472 63.9787 121.3761 0.0000 0.0000 0.0000
# 4 0.0000 0.0000 0.0000 23.1579 0.0000 0.0000
# 5 0.0000 0.0000 0.0000 0.0000 26.5030 0.0000
# 6 0.0000 0.0000 0.0000 0.0000 0.0000 22.7784
#
#
#
# Elastic Compliance Matrix: (Units=1/GPa)
#
#
# Indices 1 2 3 4 5 6 
#
# 1 0.018468 -0.005298 -0.002281 0.000000 0.000000 0.000000
# 2 -0.005298 0.013274 -0.005541 0.000000 0.000000 0.000000
# 3 -0.002281 -0.005541 0.011786 0.000000 0.000000 0.000000
# 4 0.000000 0.000000 0.000000 0.043182 0.000000 0.000000
# 5 0.000000 0.000000 0.000000 0.000000 0.037732 0.000000
# 6 0.000000 0.000000 0.000000 0.000000 0.000000 0.043901
#
#
# Mechanical properties :
#
#
# Convention : Reuss Voigt Hill
#
# Bulk Modulus (GPa) = 57.84601 65.45676 61.65138
# Shear Modulus (GPa) = 24.95687 25.89988 25.42837
#
# Velocity S-wave (km/s) = 3.73637 3.80631 3.77150
# Velocity P-wave (km/s) = 7.13947 7.47882 7.31112
#
# Compressibility (1/GPa) = 0.01728728
#
# Stress axis : x y z
#
# Youngs Moduli (GPa) = 54.14770 75.33798 84.84348
#
# Poissons Ratio (x) = 0.39913 0.19356
# Poissons Ratio (y) = 0.28687 0.47012
# Poissons Ratio (z) = 0.12353 0.41745
#
# Static dielectric constant tensor:
#      x y z
#    x 3.040870 0.000000 0.000000 
#    y 0.000000 3.237180 0.000000 
#    z 0.000000 0.000000 3.520570 
# 
# 
# High freq. dielectric constant tensor:
#      x y z
#    x 1.671290 0.000000 0.000000 
#    y 0.000000 1.671890 0.000000 
#    z 0.000000 0.000000 1.699450 
# 
# From -- ./inp_files/22371.got.cif
#   From: 2010.03.12/outbox.cif.g09.slc.cpg/sg40_12_cif.got.tgz:22371.got - 2010.04.14 01:38:03.
