data_PCOD8184476
_publ_section_title
;
Structure prediction by ZEFSAII (Michael W. Deem and Ramdas Pophale) SiO2 
 PCOD8184476
Probable space group: A M A 2
;
_chemical_formula_sum "Si O2"
_cell_formula_units_Z 48
_cell_length_a 22.998178
_cell_length_b 11.601472
_cell_length_c 8.882626
_cell_angle_alpha 90.000000
_cell_angle_beta 90.000000
_cell_angle_gamma 90.000000
_cell_volume 2369.997587
_symmetry_space_group_name_H-M "A M A 2"
_symmetry_group_IT_number 40
_symmetry_cell_setting 'orthorhombic'
loop_
_space_group_symop_operation_xyz
x,y,z
-x,-y,z
1/2-x,y,z
1/2+x,-y,z
x,1/2+y,1/2+z
-x,1/2-y,1/2+z
1/2-x,1/2+y,1/2+z
1/2+x,1/2-y,1/2+z
loop_
_atom_site_type_symbol
_atom_site_label
_atom_site_fract_x
_atom_site_fract_y
_atom_site_fract_z
Si Si1 0.818591 0.005615 0.780360
Si Si2 0.392458 0.270328 0.280462
Si Si3 0.103511 0.082597 0.030288
Si Si4 0.059674 0.931523 0.280159
Si Si5 0.396544 0.082339 0.530386
Si Si6 0.523928 0.831444 0.780321
O O1 0.750000 0.009228 0.780361
O O2 0.840110 0.937165 0.633078
O O3 0.842520 0.135090 0.780695
O O4 0.840114 0.936779 0.927336
O O5 0.385415 0.193620 0.132435
O O6 0.385545 0.193471 0.428389
O O7 0.454539 0.334477 0.280334
O O8 0.094704 0.968112 0.130663
O O9 0.046139 0.103169 0.929020
O O10 0.049712 0.796657 0.279994
O O11 0.094604 0.967939 0.429882
O O12 0.000000 0.000000 0.280099
O O13 0.453856 0.102781 0.631922
#
# Coordination Sequence:
#
# PCOD8184476 Si02
#       6
#     8   8   8   8   8   8
#     4  11  26  43  59  80 115 162 212 250 282 329
#     4  11  22  36  64  90 118 152 194 240 300 355
#     4  10  23  38  60  91 123 155 192 239 297 356
#     4  11  21  35  60  92 130 150 181 232 300 372
#     4  10  23  38  60  91 123 155 192 239 297 356
#     4  11  21  34  60  95 127 154 181 232 306 367
#
# _framework density 20.253184000000001
#
# number of rings (size 3 to 8) (size 9 to 14) (size 15 to 20)
#    0.000    1.333    3.333    3.000    4.667    2.667 
#    0.000    2.500    0.000    0.000    0.000    0.000 
#    0.000    0.000    0.000    0.000    0.000    0.000 
#
# Total GULP energy -297719.761160 kJ/mol
# GULP energy per Si atom -12404.990048 kJ/mol
# Density = 2.020709 g / cm^3
# Si number density = 20.253184 Si / 1000 Ang^3
#
#
#
# Elastic Constant Matrix: (Units=GPa)
#
#
# Indices 1 2 3 4 5 6 
#
# 1 152.8103 28.1968 53.7630 0.0000 0.0000 0.0000
# 2 28.1968 67.5728 28.9740 0.0000 0.0000 0.0000
# 3 53.7630 28.9740 139.7199 0.0000 0.0000 0.0000
# 4 0.0000 0.0000 0.0000 -8.0708 0.0000 0.0000
# 5 0.0000 0.0000 0.0000 0.0000 -4.4675 0.0000
# 6 0.0000 0.0000 0.0000 0.0000 0.0000 27.8548
#
#
#
# Elastic Compliance Matrix: (Units=1/GPa)
#
#
# Indices 1 2 3 4 5 6 
#
# 1 0.007849 -0.002174 -0.002570 0.000000 0.000000 0.000000
# 2 -0.002174 0.016845 -0.002657 0.000000 0.000000 0.000000
# 3 -0.002570 -0.002657 0.008697 0.000000 0.000000 0.000000
# 4 0.000000 0.000000 0.000000 -0.123903 0.000000 0.000000
# 5 0.000000 0.000000 0.000000 0.000000 -0.223840 0.000000
# 6 0.000000 0.000000 0.000000 0.000000 0.000000 0.035901
#
#
# Mechanical properties :
#
#
# Convention : Reuss Voigt Hill
#
# Bulk Modulus (GPa) = 53.78881 64.66341 59.22611
# Shear Modulus (GPa) = -19.42091 19.67457 0.12683
#
# Velocity S-wave (km/s) = -3.09998 3.12016 0.25052
# Velocity P-wave (km/s) = 3.71520 6.70652 5.42126
#
# Compressibility (1/GPa) = 0.01859123
#
# Stress axis : x y z
#
# Youngs Moduli (GPa) = 127.40203 59.36473 114.98385
#
# Poissons Ratio (x) = 0.12903 0.29546
# Poissons Ratio (y) = 0.27691 0.30549
# Poissons Ratio (z) = 0.32737 0.15772
#
# Static dielectric constant tensor:
#      x y z
#    x 3.304050 0.000000 0.000000 
#    y 0.000000 9.943930 0.000000 
#    z 0.000000 0.000000 4.186660 
# 
# 
# High freq. dielectric constant tensor:
#      x y z
#    x 1.748640 0.000000 0.000000 
#    y 0.000000 1.806630 0.000000 
#    z 0.000000 0.000000 1.819370 
# 
# From -- ./inp_files/8740.got.cif
#   From: 2010.03.12/outbox.cif.g09.slc.cpg/sg40_5_cif.got.tgz:8740.got - 2010.04.14 01:38:03.
