data_PCOD8184514
_publ_section_title
;
Structure prediction by ZEFSAII (Michael W. Deem and Ramdas Pophale) SiO2 
 PCOD8184514
Probable space group: A M A 2
;
_chemical_formula_sum "Si O2"
_cell_formula_units_Z 48
_cell_length_a 8.381061
_cell_length_b 27.573446
_cell_length_c 9.737732
_cell_angle_alpha 90.000000
_cell_angle_beta 90.000000
_cell_angle_gamma 90.000000
_cell_volume 2250.338576
_symmetry_space_group_name_H-M "A M A 2"
_symmetry_group_IT_number 40
_symmetry_cell_setting 'orthorhombic'
loop_
_space_group_symop_operation_xyz
x,y,z
-x,-y,z
1/2-x,y,z
1/2+x,-y,z
x,1/2+y,1/2+z
-x,1/2-y,1/2+z
1/2-x,1/2+y,1/2+z
1/2+x,1/2-y,1/2+z
loop_
_atom_site_type_symbol
_atom_site_label
_atom_site_fract_x
_atom_site_fract_y
_atom_site_fract_z
Si Si1 0.563736 0.300472 0.552580
Si Si2 0.432004 0.613343 0.949066
Si Si3 0.566817 0.049697 0.223795
Si Si4 0.064901 0.594973 0.462985
Si Si5 0.935193 0.053848 0.690166
Si Si6 0.065422 0.219502 0.358075
O O1 0.750000 0.308006 0.574298
O O2 0.494605 0.351785 0.499487
O O3 0.530664 0.260782 0.437216
O O4 0.494030 0.286354 0.703201
O O5 0.250000 0.600985 0.908854
O O6 0.550761 0.590559 0.838732
O O7 0.458877 0.670926 0.946673
O O8 0.471037 0.592854 0.098581
O O9 0.750000 0.045696 0.178721
O O10 0.500000 0.000000 0.288740
O O11 0.455526 0.061080 0.094501
O O12 0.250000 0.596432 0.418554
O O13 0.959748 0.570865 0.345069
O O14 0.750000 0.054396 0.651562
O O15 0.000000 0.000000 0.665020
O O16 0.250000 0.234924 0.352351
#
# Coordination Sequence:
#
# PCOD8184514 Si02
#       6
#     8   8   8   8   8   8
#     4  10  23  43  66  95 129 168 211 261 319 380
#     4  11  23  44  67  92 129 171 214 265 320 379
#     4  12  24  40  65  96 127 166 211 262 320 380
#     4  11  23  44  67  92 129 171 214 265 320 379
#     4  12  26  44  65  96 131 170 217 266 320 384
#     4  10  23  43  66  95 129 168 211 261 319 380
#
# _framework density 21.330124000000001
#
# number of rings (size 3 to 8) (size 9 to 14) (size 15 to 20)
#    0.000    1.000    1.667    5.000    2.333    3.333 
#    0.000    0.000    0.000    0.000    0.000    0.000 
#    0.000    0.000    0.000    0.000    0.000    0.000 
#
# Total GULP energy -297731.660139 kJ/mol
# GULP energy per Si atom -12405.485839 kJ/mol
# Density = 2.128158 g / cm^3
# Si number density = 21.330124 Si / 1000 Ang^3
#
#
#
# Elastic Constant Matrix: (Units=GPa)
#
#
# Indices 1 2 3 4 5 6 
#
# 1 66.0575 35.7867 7.3673 0.0000 0.0000 0.0000
# 2 35.7867 83.7526 10.8679 0.0000 0.0000 0.0000
# 3 7.3673 10.8679 71.6689 0.0000 0.0000 0.0000
# 4 0.0000 0.0000 0.0000 39.1115 0.0000 0.0000
# 5 0.0000 0.0000 0.0000 0.0000 33.5071 0.0000
# 6 0.0000 0.0000 0.0000 0.0000 0.0000 28.0686
#
#
#
# Elastic Compliance Matrix: (Units=1/GPa)
#
#
# Indices 1 2 3 4 5 6 
#
# 1 0.019739 -0.008335 -0.000765 0.000000 0.000000 0.000000
# 2 -0.008335 0.015699 -0.001524 0.000000 0.000000 0.000000
# 3 -0.000765 -0.001524 0.014263 0.000000 0.000000 0.000000
# 4 0.000000 0.000000 0.000000 0.025568 0.000000 0.000000
# 5 0.000000 0.000000 0.000000 0.000000 0.029844 0.000000
# 6 0.000000 0.000000 0.000000 0.000000 0.000000 0.035627
#
#
# Mechanical properties :
#
#
# Convention : Reuss Voigt Hill
#
# Bulk Modulus (GPa) = 35.14568 36.61363 35.87965
# Shear Modulus (GPa) = 29.15911 31.30124 30.23017
#
# Velocity S-wave (km/s) = 3.70136 3.83491 3.76873
# Velocity P-wave (km/s) = 5.89742 6.06722 5.98292
#
# Compressibility (1/GPa) = 0.02845300
#
# Stress axis : x y z
#
# Youngs Moduli (GPa) = 50.66065 63.69765 70.11259
#
# Poissons Ratio (x) = 0.53092 0.05365
# Poissons Ratio (y) = 0.42226 0.10684
# Poissons Ratio (z) = 0.03876 0.09706
#
# Static dielectric constant tensor:
#      x y z
#    x 3.721030 0.000000 0.000000 
#    y 0.000000 3.978010 0.000000 
#    z 0.000000 0.000000 3.911500 
# 
# 
# High freq. dielectric constant tensor:
#      x y z
#    x 1.830330 0.000000 0.000000 
#    y 0.000000 1.847860 0.000000 
#    z 0.000000 0.000000 1.843670 
# 
# From -- ./inp_files/4582.got.cif
#   From: 2010.03.12/outbox.cif.g09.slc.cpg/sg40_3_cif.got.tgz:4582.got - 2010.04.14 01:38:03.
