data_PCOD8184058
_publ_section_title
;
Structure prediction by ZEFSAII (Michael W. Deem and Ramdas Pophale) SiO2 
 PCOD8184058
Probable space group: A M A 2
;
_chemical_formula_sum "Si O2"
_cell_formula_units_Z 56
_cell_length_a 9.060538
_cell_length_b 19.643570
_cell_length_c 15.248504
_cell_angle_alpha 90.000000
_cell_angle_beta 90.000000
_cell_angle_gamma 90.000000
_cell_volume 2713.948755
_symmetry_space_group_name_H-M "A M A 2"
_symmetry_group_IT_number 40
_symmetry_cell_setting 'orthorhombic'
loop_
_space_group_symop_operation_xyz
x,y,z
-x,-y,z
1/2-x,y,z
1/2+x,-y,z
x,1/2+y,1/2+z
-x,1/2-y,1/2+z
1/2-x,1/2+y,1/2+z
1/2+x,1/2-y,1/2+z
loop_
_atom_site_type_symbol
_atom_site_label
_atom_site_fract_x
_atom_site_fract_y
_atom_site_fract_z
Si Si1 0.411891 0.061075 0.295000
Si Si2 0.574487 0.073777 0.894440
Si Si3 0.075121 0.819516 0.227969
Si Si4 0.917724 0.183062 0.747966
Si Si5 0.092778 0.059386 0.493531
Si Si6 0.075196 0.162805 0.044197
Si Si7 0.585106 0.682144 0.044152
O O1 0.250000 0.073590 0.250499
O O2 0.517101 0.126967 0.298827
O O3 0.382770 0.037431 0.393809
O O4 0.500000 0.000000 0.245429
O O5 0.750000 0.065209 0.907460
O O6 0.537707 0.118820 0.808169
O O7 0.500000 0.000000 0.882863
O O8 0.505738 0.111660 0.978376
O O9 0.250000 0.821174 0.215373
O O10 0.027787 0.745825 0.264395
O O11 0.993783 0.845223 0.140105
O O12 0.750000 0.206327 0.768952
O O13 0.932610 0.164011 0.646441
O O14 0.250000 0.063361 0.542574
O O15 0.022282 0.133516 0.492245
O O16 0.000000 0.000000 0.542185
O O17 0.250000 0.147474 0.046582
O O18 0.043782 0.240926 0.017702
O O19 0.750000 0.666451 0.013065
#
# Coordination Sequence:
#
# PCOD8184058 Si02
#       7
#     8   8   8   8   8   8   8
#     4  10  21  37  55  81 116 153 191 237 290 345
#     4  11  24  42  64  90 123 160 205 253 306 365
#     4  11  22  37  61  90 118 154 199 244 295 355
#     4   9  21  41  61  86 119 156 196 246 297 349
#     4  10  21  35  54  81 115 152 191 234 284 341
#     4  10  22  41  62  87 119 154 196 246 299 353
#     4   9  19  37  60  85 117 153 192 240 295 348
#
# _framework density 20.634141
#
# number of rings (size 3 to 8) (size 9 to 14) (size 15 to 20)
#    0.000    2.000    0.000    3.857    2.000    6.857 
#    0.000    4.286    0.000    0.000    0.000    0.000 
#    0.000    0.000    0.000    0.000    0.000    0.000 
#
# Total GULP energy -347047.960973 kJ/mol
# GULP energy per Si atom -12394.570035 kJ/mol
# Density = 2.058718 g / cm^3
# Si number density = 20.634141 Si / 1000 Ang^3
#
#
#
# Elastic Constant Matrix: (Units=GPa)
#
#
# Indices 1 2 3 4 5 6 
#
# 1 157.2046 83.7852 29.4813 0.0000 0.0000 0.0000
# 2 83.7852 144.5429 38.7815 0.0000 0.0000 0.0000
# 3 29.4813 38.7815 50.6604 0.0000 0.0000 0.0000
# 4 0.0000 0.0000 0.0000 23.8650 0.0000 0.0000
# 5 0.0000 0.0000 0.0000 0.0000 24.9458 0.0000
# 6 0.0000 0.0000 0.0000 0.0000 0.0000 41.4212
#
#
#
# Elastic Compliance Matrix: (Units=1/GPa)
#
#
# Indices 1 2 3 4 5 6 
#
# 1 0.009309 -0.004962 -0.001619 0.000000 0.000000 0.000000
# 2 -0.004962 0.011351 -0.005802 0.000000 0.000000 0.000000
# 3 -0.001619 -0.005802 0.025123 0.000000 0.000000 0.000000
# 4 0.000000 0.000000 0.000000 0.041902 0.000000 0.000000
# 5 0.000000 0.000000 0.000000 0.000000 0.040087 0.000000
# 6 0.000000 0.000000 0.000000 0.000000 0.000000 0.024142
#
#
# Mechanical properties :
#
#
# Convention : Reuss Voigt Hill
#
# Bulk Modulus (GPa) = 47.57911 72.94489 60.26200
# Shear Modulus (GPa) = 27.22023 31.40373 29.31198
#
# Velocity S-wave (km/s) = 3.63600 3.90543 3.77312
# Velocity P-wave (km/s) = 6.38246 7.46758 6.94624
#
# Compressibility (1/GPa) = 0.02101763
#
# Stress axis : x y z
#
# Youngs Moduli (GPa) = 107.42031 88.09640 39.80395
#
# Poissons Ratio (x) = 0.43711 0.06445
# Poissons Ratio (y) = 0.53299 0.23095
# Poissons Ratio (z) = 0.17392 0.51115
#
# Static dielectric constant tensor:
#      x y z
#    x 4.117960 0.000000 0.000000 
#    y 0.000000 3.701650 0.000000 
#    z 0.000000 0.000000 3.507080 
# 
# 
# High freq. dielectric constant tensor:
#      x y z
#    x 1.822970 0.000000 0.000000 
#    y 0.000000 1.812810 0.000000 
#    z 0.000000 0.000000 1.784320 
# 
# From -- ./inp_files/15333.got.cif
#   From: 2010.03.12/outbox.cif.g09.slc.cpg/sg40_8_cif.got.tgz:15333.got - 2010.04.14 01:38:03.
