data_PCOD8184155
_publ_section_title
;
Structure prediction by ZEFSAII (Michael W. Deem and Ramdas Pophale) SiO2 
 PCOD8184155
Probable space group: A M A 2
;
_chemical_formula_sum "Si O2"
_cell_formula_units_Z 64
_cell_length_a 8.886739
_cell_length_b 24.495211
_cell_length_c 15.065885
_cell_angle_alpha 90.000000
_cell_angle_beta 90.000000
_cell_angle_gamma 90.000000
_cell_volume 3279.580218
_symmetry_space_group_name_H-M "A M A 2"
_symmetry_group_IT_number 40
_symmetry_cell_setting 'orthorhombic'
loop_
_space_group_symop_operation_xyz
x,y,z
-x,-y,z
1/2-x,y,z
1/2+x,-y,z
x,1/2+y,1/2+z
-x,1/2-y,1/2+z
1/2-x,1/2+y,1/2+z
1/2+x,1/2-y,1/2+z
loop_
_atom_site_type_symbol
_atom_site_label
_atom_site_fract_x
_atom_site_fract_y
_atom_site_fract_z
Si Si1 0.920085 0.284116 0.117390
Si Si2 0.925970 0.360943 0.422198
Si Si3 0.422928 0.891837 0.596531
Si Si4 0.420089 0.243727 0.815992
Si Si5 0.074998 0.942554 0.407685
Si Si6 0.572030 0.441609 0.267589
Si Si7 0.572566 0.660917 0.598290
Si Si8 0.072750 0.145985 0.282715
O O1 0.750000 0.295247 0.085406
O O2 0.931472 0.288649 0.223575
O O3 0.974501 0.224306 0.086929
O O4 0.027252 0.329774 0.074514
O O5 0.750000 0.368272 0.440466
O O6 0.963170 0.299313 0.391725
O O7 0.982287 0.403391 0.348281
O O8 0.016306 0.372445 0.512731
O O9 0.250000 0.891935 0.626161
O O10 0.449445 0.928542 0.510515
O O11 0.522747 0.916473 0.674422
O O12 0.250000 0.266238 0.827679
O O13 0.533396 0.294198 0.820649
O O14 0.250000 0.944566 0.382928
O O15 0.994232 0.898080 0.348236
O O16 0.000000 0.000000 0.386389
O O17 0.500000 0.500000 0.283529
O O18 0.750000 0.447314 0.265436
O O19 0.750000 0.655027 0.610515
O O20 0.495066 0.636215 0.685226
O O21 0.250000 0.139487 0.277753
#
# Coordination Sequence:
#
# PCOD8184155 Si02
#       8
#     8   8   8   8   8   8   8   8
#     4   9  18  35  56  83 121 161 196 239 297 352
#     4  10  21  38  60  87 122 161 202 249 303 359
#     4  11  23  37  59  90 122 160 201 244 296 359
#     4   9  18  36  58  85 121 160 196 244 300 354
#     4  11  25  44  63  88 119 157 203 256 307 360
#     4  11  23  41  62  87 122 163 203 250 301 354
#     4  10  22  39  60  88 124 161 200 252 306 359
#     4  11  23  40  63  90 119 158 203 251 304 364
#
# _framework density 19.514692
#
# number of rings (size 3 to 8) (size 9 to 14) (size 15 to 20)
#    0.000    1.750    1.250    3.750    1.750    7.000 
#    0.000    0.625    0.000    1.500    0.000    0.000 
#    0.000    0.000    0.000    0.000    0.000    0.000 
#
# Total GULP energy -396927.177819 kJ/mol
# GULP energy per Si atom -12403.974307 kJ/mol
# Density = 1.947028 g / cm^3
# Si number density = 19.514692 Si / 1000 Ang^3
#
#
#
# Elastic Constant Matrix: (Units=GPa)
#
#
# Indices 1 2 3 4 5 6 
#
# 1 108.4806 48.0315 54.5021 0.0000 0.0000 0.0000
# 2 48.0315 81.0486 36.9503 0.0000 0.0000 0.0000
# 3 54.5021 36.9503 93.4095 0.0000 0.0000 0.0000
# 4 0.0000 0.0000 0.0000 26.9348 0.0000 0.0000
# 5 0.0000 0.0000 0.0000 0.0000 41.8458 0.0000
# 6 0.0000 0.0000 0.0000 0.0000 0.0000 34.9033
#
#
#
# Elastic Compliance Matrix: (Units=1/GPa)
#
#
# Indices 1 2 3 4 5 6 
#
# 1 0.015121 -0.006026 -0.006439 0.000000 0.000000 0.000000
# 2 -0.006026 0.017454 -0.003389 0.000000 0.000000 0.000000
# 3 -0.006439 -0.003389 0.015803 0.000000 0.000000 0.000000
# 4 0.000000 0.000000 0.000000 0.037127 0.000000 0.000000
# 5 0.000000 0.000000 0.000000 0.000000 0.023897 0.000000
# 6 0.000000 0.000000 0.000000 0.000000 0.000000 0.028651
#
#
# Mechanical properties :
#
#
# Convention : Reuss Voigt Hill
#
# Bulk Modulus (GPa) = 59.98248 62.43406 61.20827
# Shear Modulus (GPa) = 28.51968 30.30042 29.41005
#
# Velocity S-wave (km/s) = 3.82703 3.94470 3.88631
# Velocity P-wave (km/s) = 7.09451 7.26708 7.18131
#
# Compressibility (1/GPa) = 0.01667153
#
# Stress axis : x y z
#
# Youngs Moduli (GPa) = 66.13147 57.29324 63.27830
#
# Poissons Ratio (x) = 0.34523 0.40747
# Poissons Ratio (y) = 0.39848 0.21442
# Poissons Ratio (z) = 0.42585 0.19414
#
# Static dielectric constant tensor:
#      x y z
#    x 3.446220 0.000000 0.000000 
#    y 0.000000 3.526970 0.000000 
#    z 0.000000 0.000000 3.540530 
# 
# 
# High freq. dielectric constant tensor:
#      x y z
#    x 1.764590 0.000000 0.000000 
#    y 0.000000 1.753050 0.000000 
#    z 0.000000 0.000000 1.761910 
# 
# From -- ./inp_files/15551.got.cif
#   From: 2010.03.12/outbox.cif.g09.slc.cpg/sg40_8_cif.got.tgz:15551.got - 2010.04.14 01:38:03.
