data_PCOD8184431
_publ_section_title
;
Structure prediction by ZEFSAII (Michael W. Deem and Ramdas Pophale) SiO2 
 PCOD8184431
Probable space group: A M A 2
;
_chemical_formula_sum "Si O2"
_cell_formula_units_Z 64
_cell_length_a 28.550826
_cell_length_b 12.097839
_cell_length_c 8.655013
_cell_angle_alpha 90.000000
_cell_angle_beta 90.000000
_cell_angle_gamma 90.000000
_cell_volume 2989.470019
_symmetry_space_group_name_H-M "A M A 2"
_symmetry_group_IT_number 40
_symmetry_cell_setting 'orthorhombic'
loop_
_space_group_symop_operation_xyz
x,y,z
-x,-y,z
1/2-x,y,z
1/2+x,-y,z
x,1/2+y,1/2+z
-x,1/2-y,1/2+z
1/2-x,1/2+y,1/2+z
1/2+x,1/2-y,1/2+z
loop_
_atom_site_type_symbol
_atom_site_label
_atom_site_fract_x
_atom_site_fract_y
_atom_site_fract_z
Si Si1 0.859673 0.903338 0.076950
Si Si2 0.491138 0.822794 0.413938
Si Si3 0.137066 0.288414 0.297234
Si Si4 0.603106 0.577767 0.016931
Si Si5 0.195784 0.877285 0.056526
Si Si6 0.029558 0.607905 0.582061
Si Si7 0.085279 0.165622 0.551724
Si Si8 0.854492 0.749191 0.803865
O O1 0.842980 0.816587 0.205723
O O2 0.915507 0.921437 0.092729
O O3 0.834322 0.017832 0.110344
O O4 0.842827 0.854532 0.911380
O O5 0.448487 0.905112 0.447446
O O6 0.475918 0.696164 0.444033
O O7 0.510966 0.840468 0.242118
O O8 0.530243 0.855705 0.540593
O O9 0.109011 0.372799 0.187955
O O10 0.181182 0.344678 0.382513
O O11 0.098666 0.254531 0.422451
O O12 0.614183 0.447898 0.024777
O O13 0.639811 0.638973 0.905721
O O14 0.250000 0.907289 0.059268
O O15 0.185443 0.775889 0.175738
O O16 0.000000 0.500000 0.537812
O O17 0.097008 0.219810 0.717130
#
# Coordination Sequence:
#
# PCOD8184431 Si02
#       8
#     8   8   8   8   8   8   8   8
#     4  11  23  45  67  97 132 179 216 270 335 387
#     4  12  23  39  61  96 136 177 231 262 305 378
#     4  10  22  42  65  92 131 165 215 265 330 391
#     4  11  21  40  60  92 130 174 215 258 317 376
#     4  11  26  45  72  99 122 164 219 283 350 403
#     4  12  27  41  63  98 139 185 227 267 309 380
#     4  11  21  35  60  90 127 178 209 267 304 367
#     4  10  23  41  65  91 129 164 215 265 331 392
#
# _framework density 21.408477000000001
#
# number of rings (size 3 to 8) (size 9 to 14) (size 15 to 20)
#    0.000    1.000    3.750    3.375    5.250    1.000 
#    2.250    2.500    0.000    0.000    0.000    0.000 
#    0.000    0.000    0.000    0.000    0.000    0.000 
#
# Total GULP energy -396830.440977 kJ/mol
# GULP energy per Si atom -12400.951281 kJ/mol
# Density = 2.135975 g / cm^3
# Si number density = 21.408477 Si / 1000 Ang^3
#
#
#
# Elastic Constant Matrix: (Units=GPa)
#
#
# Indices 1 2 3 4 5 6 
#
# 1 103.1834 34.9110 29.1608 0.0000 0.0000 0.0000
# 2 34.9110 83.4045 16.5287 0.0000 0.0000 0.0000
# 3 29.1608 16.5287 90.1345 0.0000 0.0000 0.0000
# 4 0.0000 0.0000 0.0000 26.0353 0.0000 0.0000
# 5 0.0000 0.0000 0.0000 0.0000 22.4842 0.0000
# 6 0.0000 0.0000 0.0000 0.0000 0.0000 22.8547
#
#
#
# Elastic Compliance Matrix: (Units=1/GPa)
#
#
# Indices 1 2 3 4 5 6 
#
# 1 0.012066 -0.004438 -0.003090 0.000000 0.000000 0.000000
# 2 -0.004438 0.014074 -0.001145 0.000000 0.000000 0.000000
# 3 -0.003090 -0.001145 0.012304 0.000000 0.000000 0.000000
# 4 0.000000 0.000000 0.000000 0.038409 0.000000 0.000000
# 5 0.000000 0.000000 0.000000 0.000000 0.044476 0.000000
# 6 0.000000 0.000000 0.000000 0.000000 0.000000 0.043755
#
#
# Mechanical properties :
#
#
# Convention : Reuss Voigt Hill
#
# Bulk Modulus (GPa) = 47.39679 48.65817 48.02748
# Shear Modulus (GPa) = 26.39024 27.34964 26.86994
#
# Velocity S-wave (km/s) = 3.51479 3.57811 3.54659
# Velocity P-wave (km/s) = 6.21764 6.31255 6.26527
#
# Compressibility (1/GPa) = 0.02109847
#
# Stress axis : x y z
#
# Youngs Moduli (GPa) = 82.87479 71.05073 81.27329
#
# Poissons Ratio (x) = 0.31535 0.25113
# Poissons Ratio (y) = 0.36783 0.09306
# Poissons Ratio (z) = 0.25607 0.08135
#
# Static dielectric constant tensor:
#      x y z
#    x 3.503850 0.000000 0.000000 
#    y 0.000000 3.964020 0.000000 
#    z 0.000000 0.000000 4.101170 
# 
# 
# High freq. dielectric constant tensor:
#      x y z
#    x 1.801560 0.000000 0.000000 
#    y 0.000000 1.848660 0.000000 
#    z 0.000000 0.000000 1.856050 
# 
# From -- ./inp_files/9441.got.cif
#   From: 2010.03.12/outbox.cif.g09.slc.cpg/sg40_5_cif.got.tgz:9441.got - 2010.04.14 01:38:03.
