data_PCOD8184736
_publ_section_title
;
Structure prediction by ZEFSAII (Michael W. Deem and Ramdas Pophale) SiO2 
 PCOD8184736
Probable space group: A B A 2
;
_chemical_formula_sum "Si O2"
_cell_formula_units_Z 56
_cell_length_a 15.249257
_cell_length_b 21.702228
_cell_length_c 8.468610
_cell_angle_alpha 90.000000
_cell_angle_beta 90.000000
_cell_angle_gamma 90.000000
_cell_volume 2802.625948
_symmetry_space_group_name_H-M "A B A 2"
_symmetry_group_IT_number 41
_symmetry_cell_setting 'orthorhombic'
loop_
_space_group_symop_operation_xyz
x,y,z
-x,-y,z
1/2-x,y,1/2+z
1/2+x,-y,1/2+z
x,1/2+y,1/2+z
-x,1/2-y,1/2+z
1/2-x,1/2+y,z
1/2+x,1/2-y,z
loop_
_atom_site_type_symbol
_atom_site_label
_atom_site_fract_x
_atom_site_fract_y
_atom_site_fract_z
Si Si1 0.557506 0.143267 0.226610
Si Si2 0.166484 0.853550 0.014769
Si Si3 0.743697 0.323817 0.383336
Si Si4 0.630384 0.882081 0.143801
Si Si5 0.694371 0.237268 0.120613
Si Si6 0.860646 0.021032 0.609793
Si Si7 0.705714 0.068852 0.796585
O O1 0.578026 0.157085 0.412370
O O2 0.456012 0.157081 0.190402
O O3 0.617288 0.186671 0.113748
O O4 0.576458 0.072027 0.185928
O O5 0.209680 0.791966 0.085524
O O6 0.145327 0.897411 0.164631
O O7 0.235918 0.881269 0.889299
O O8 0.667865 0.360219 0.476087
O O9 0.794028 0.372053 0.273019
O O10 0.696092 0.268033 0.292221
O O11 0.817571 0.292572 0.495559
O O12 0.601153 0.953234 0.136349
O O13 0.766544 0.022707 0.696073
O O14 0.853302 0.031789 0.420807
#
# Coordination Sequence:
#
# PCOD8184736 Si02
#       7
#     8   8   8   8   8   8   8
#     4  11  22  35  66  95 118 156 206 270 306 351
#     4  10  16  32  59  97 119 145 194 260 311 352
#     4  10  24  40  61  80 125 174 201 241 312 376
#     4  11  24  43  57  86 126 172 205 245 312 382
#     4  11  18  38  63  90 120 153 204 259 304 362
#     4  10  19  35  60  89 125 158 203 253 303 364
#     4   9  16  29  58  92 114 157 198 236 312 361
#
# _framework density 19.981259999999999
#
# number of rings (size 3 to 8) (size 9 to 14) (size 15 to 20)
#    0.000    1.714    5.714    1.286    0.000    1.143 
#    0.000    2.857    0.000    5.143    0.000    0.000 
#    0.000    0.000    0.000    0.000    0.000    0.000 
#
# Total GULP energy -347077.424640 kJ/mol
# GULP energy per Si atom -12395.622309 kJ/mol
# Density = 1.993578 g / cm^3
# Si number density = 19.981260 Si / 1000 Ang^3
#
#
#
# Elastic Constant Matrix: (Units=GPa)
#
#
# Indices 1 2 3 4 5 6 
#
# 1 85.3301 20.9016 33.5455 0.0000 0.0000 0.0000
# 2 20.9016 87.0012 23.9044 0.0000 0.0000 0.0000
# 3 33.5455 23.9044 118.0937 0.0000 0.0000 0.0000
# 4 0.0000 0.0000 0.0000 25.3589 0.0000 0.0000
# 5 0.0000 0.0000 0.0000 0.0000 24.7192 0.0000
# 6 0.0000 0.0000 0.0000 0.0000 0.0000 15.3156
#
#
#
# Elastic Compliance Matrix: (Units=1/GPa)
#
#
# Indices 1 2 3 4 5 6 
#
# 1 0.013628 -0.002341 -0.003397 0.000000 0.000000 0.000000
# 2 -0.002341 0.012573 -0.001880 0.000000 0.000000 0.000000
# 3 -0.003397 -0.001880 0.009813 0.000000 0.000000 0.000000
# 4 0.000000 0.000000 0.000000 0.039434 0.000000 0.000000
# 5 0.000000 0.000000 0.000000 0.000000 0.040454 0.000000
# 6 0.000000 0.000000 0.000000 0.000000 0.000000 0.065293
#
#
# Mechanical properties :
#
#
# Convention : Reuss Voigt Hill
#
# Bulk Modulus (GPa) = 48.12714 49.68090 48.90402
# Shear Modulus (GPa) = 24.58715 27.21697 25.90206
#
# Velocity S-wave (km/s) = 3.51167 3.69470 3.60435
# Velocity P-wave (km/s) = 6.37031 6.56649 6.46914
#
# Compressibility (1/GPa) = 0.02077830
#
# Stress axis : x y z
#
# Youngs Moduli (GPa) = 73.37755 79.53551 101.90051
#
# Poissons Ratio (x) = 0.18616 0.34620
# Poissons Ratio (y) = 0.17175 0.19159
# Poissons Ratio (z) = 0.24929 0.14954
#
# Static dielectric constant tensor:
#      x y z
#    x 3.215400 0.000000 0.000000 
#    y 0.000000 3.541100 0.000000 
#    z 0.000000 0.000000 3.969010 
# 
# 
# High freq. dielectric constant tensor:
#      x y z
#    x 1.732630 0.000000 0.000000 
#    y 0.000000 1.779190 0.000000 
#    z 0.000000 0.000000 1.794520 
# 
# From -- ./inp_files/3192.got.cif
#   From: 2010.03.12/outbox.cif.g09.slc.cpg/sg41_2_cif.got.tgz:3192.got - 2010.04.14 01:55:53.
