data_PCOD8184322
_publ_section_title
;
Structure prediction by ZEFSAII (Michael W. Deem and Ramdas Pophale) SiO2 
 PCOD8184322
Probable space group: A M A 2
;
_chemical_formula_sum "Si O2"
_cell_formula_units_Z 24
_cell_length_a 9.560597
_cell_length_b 10.641023
_cell_length_c 9.099359
_cell_angle_alpha 90.000000
_cell_angle_beta 90.000000
_cell_angle_gamma 90.000000
_cell_volume 925.719035
_symmetry_space_group_name_H-M "A M A 2"
_symmetry_group_IT_number 40
_symmetry_cell_setting 'orthorhombic'
loop_
_space_group_symop_operation_xyz
x,y,z
-x,-y,z
1/2-x,y,z
1/2+x,-y,z
x,1/2+y,1/2+z
-x,1/2-y,1/2+z
1/2-x,1/2+y,1/2+z
1/2+x,1/2-y,1/2+z
loop_
_atom_site_type_symbol
_atom_site_label
_atom_site_fract_x
_atom_site_fract_y
_atom_site_fract_z
Si Si1 0.054351 0.209934 0.929950
Si Si2 0.750000 0.411511 0.640695
Si Si3 0.250000 0.936757 0.428431
Si Si4 0.250000 0.605976 0.211451
Si Si5 0.250000 0.322968 0.501045
O O1 0.111760 0.351792 0.905958
O O2 0.112337 0.106618 0.814016
O O3 0.888171 0.213066 0.909090
O O4 0.109997 0.166718 0.093010
O O5 0.750000 0.447121 0.812917
O O6 0.750000 0.533003 0.538775
O O7 0.250000 0.995783 0.592368
O O8 0.250000 0.745821 0.148806
#
# Coordination Sequence:
#
# PCOD8184322 Si02
#       5
#     8   4   4   4   4
#     4  10  25  49  74 112 150 192 244 306 367 436
#     4  10  21  50  80 101 148 197 242 303 367 436
#     4  10  22  52  76 111 145 188 257 295 369 438
#     4  10  24  50  75 110 144 195 249 300 361 439
#     4  12  23  48  77 106 151 194 240 304 373 435
#
# _framework density 25.925791
#
# number of rings (size 3 to 8) (size 9 to 14) (size 15 to 20)
#    0.000    2.000    3.333    1.000    0.000    4.000 
#   42.000    1.667    0.000    0.000    0.000    0.000 
#    0.000    0.000    0.000    0.000    0.000    0.000 
#
# Total GULP energy -148710.400746 kJ/mol
# GULP energy per Si atom -12392.533395 kJ/mol
# Density = 2.586678 g / cm^3
# Si number density = 25.925791 Si / 1000 Ang^3
#
#
#
# Elastic Constant Matrix: (Units=GPa)
#
#
# Indices 1 2 3 4 5 6 
#
# 1 244.1834 26.5625 53.8169 0.0000 0.0000 0.0000
# 2 26.5625 89.2564 34.3472 0.0000 0.0000 0.0000
# 3 53.8169 34.3472 137.2776 0.0000 0.0000 0.0000
# 4 0.0000 0.0000 0.0000 63.0051 0.0000 0.0000
# 5 0.0000 0.0000 0.0000 0.0000 -24.7379 0.0000
# 6 0.0000 0.0000 0.0000 0.0000 0.0000 -9.7129
#
#
#
# Elastic Compliance Matrix: (Units=1/GPa)
#
#
# Indices 1 2 3 4 5 6 
#
# 1 0.004526 -0.000735 -0.001590 0.000000 0.000000 0.000000
# 2 -0.000735 0.012517 -0.002844 0.000000 0.000000 0.000000
# 3 -0.001590 -0.002844 0.008619 0.000000 0.000000 0.000000
# 4 0.000000 0.000000 0.000000 0.015872 0.000000 0.000000
# 5 0.000000 0.000000 0.000000 0.000000 -0.040424 0.000000
# 6 0.000000 0.000000 0.000000 0.000000 0.000000 -0.102956
#
#
# Mechanical properties :
#
#
# Convention : Reuss Voigt Hill
#
# Bulk Modulus (GPa) = 65.25637 77.79674 71.52656
# Shear Modulus (GPa) = -57.87001 29.44359 -14.21321
#
# Velocity S-wave (km/s) = -4.72968 3.37365 -2.34396
# Velocity P-wave (km/s) = 2.14509 6.72666 4.50814
#
# Compressibility (1/GPa) = 0.01532417
#
# Stress axis : x y z
#
# Youngs Moduli (GPa) = 220.95891 79.89370 116.01660
#
# Poissons Ratio (x) = 0.05871 0.18451
# Poissons Ratio (y) = 0.16237 0.32991
# Poissons Ratio (z) = 0.35140 0.22719
#
# Static dielectric constant tensor:
#      x y z
#    x 4.501550 0.000000 0.000000 
#    y 0.000000 4.656070 0.000000 
#    z 0.000000 0.000000 4.619450 
# 
# 
# High freq. dielectric constant tensor:
#      x y z
#    x 2.023530 0.000000 0.000000 
#    y 0.000000 2.047290 0.000000 
#    z 0.000000 0.000000 2.036420 
# 
# From -- ./inp_files/4847.got.cif
#   From: 2010.03.12/outbox.cif.g09.slc.cpg/sg40_3_cif.got.tgz:4847.got - 2010.04.14 01:38:03.
