data_PCOD8184248
_publ_section_title
;
Structure prediction by ZEFSAII (Michael W. Deem and Ramdas Pophale) SiO2 
 PCOD8184248
Probable space group: A M A 2
;
_chemical_formula_sum "Si O2"
_cell_formula_units_Z 64
_cell_length_a 29.745196
_cell_length_b 8.850735
_cell_length_c 11.325873
_cell_angle_alpha 90.000000
_cell_angle_beta 90.000000
_cell_angle_gamma 90.000000
_cell_volume 2981.726878
_symmetry_space_group_name_H-M "A M A 2"
_symmetry_group_IT_number 40
_symmetry_cell_setting 'orthorhombic'
loop_
_space_group_symop_operation_xyz
x,y,z
-x,-y,z
1/2-x,y,z
1/2+x,-y,z
x,1/2+y,1/2+z
-x,1/2-y,1/2+z
1/2-x,1/2+y,1/2+z
1/2+x,1/2-y,1/2+z
loop_
_atom_site_type_symbol
_atom_site_label
_atom_site_fract_x
_atom_site_fract_y
_atom_site_fract_z
Si Si1 0.141046 0.736613 0.715120
Si Si2 0.505746 0.171718 0.942625
Si Si3 0.697037 0.738983 0.990910
Si Si4 0.058832 0.149871 0.740447
Si Si5 0.401321 0.299519 0.537991
Si Si6 0.562911 0.628657 0.071234
Si Si7 0.639190 0.481684 0.382106
Si Si8 0.133664 0.019916 0.424563
O O1 0.181844 0.719073 0.623390
O O2 0.094737 0.761051 0.645821
O O3 0.136085 0.584371 0.792038
O O4 0.152832 0.881647 0.796325
O O5 0.487055 0.190348 0.809145
O O6 0.558581 0.212376 0.939424
O O7 0.500000 0.000000 0.986897
O O8 0.482035 0.283310 0.035502
O O9 0.750000 0.732128 0.984459
O O10 0.680184 0.866561 0.898548
O O11 0.678133 0.576224 0.951691
O O12 0.077422 0.296335 0.669028
O O13 0.095689 0.107015 0.837047
O O14 0.049203 0.016853 0.647407
O O15 0.373957 0.452822 0.512413
O O16 0.368097 0.157079 0.519549
O O17 0.589262 0.581829 0.950309
#
# Coordination Sequence:
#
# PCOD8184248 Si02
#       8
#     8   8   8   8   8   8   8   8
#     4   9  20  40  68  87 121 164 198 242 311 363
#     4  12  24  36  55  92 125 163 214 261 295 342
#     4  11  24  41  65  96 122 149 195 251 309 377
#     4  10  21  40  64  80 122 170 200 256 303 342
#     4  10  23  38  64  89 119 167 212 247 301 357
#     4   9  21  39  60  88 122 164 210 251 296 353
#     4  10  21  42  64  90 121 156 204 246 304 368
#     4   9  20  41  62  90 119 159 204 245 296 371
#
# _framework density 21.464071000000001
#
# number of rings (size 3 to 8) (size 9 to 14) (size 15 to 20)
#    0.000    2.000    1.250    2.250    1.750    4.500 
#    0.000    1.875    0.000    0.000    0.000    0.000 
#    0.000    0.000    0.000    0.000    0.000    0.000 
#
# Total GULP energy -396784.740658 kJ/mol
# GULP energy per Si atom -12399.523146 kJ/mol
# Density = 2.141522 g / cm^3
# Si number density = 21.464071 Si / 1000 Ang^3
#
#
#
# Elastic Constant Matrix: (Units=GPa)
#
#
# Indices 1 2 3 4 5 6 
#
# 1 95.3117 46.2227 18.3771 0.0000 0.0000 0.0000
# 2 46.2227 86.1467 49.6696 0.0000 0.0000 0.0000
# 3 18.3771 49.6696 91.9653 0.0000 0.0000 0.0000
# 4 0.0000 0.0000 0.0000 40.6034 0.0000 0.0000
# 5 0.0000 0.0000 0.0000 0.0000 18.7056 0.0000
# 6 0.0000 0.0000 0.0000 0.0000 0.0000 23.4337
#
#
#
# Elastic Compliance Matrix: (Units=1/GPa)
#
#
# Indices 1 2 3 4 5 6 
#
# 1 0.014403 -0.008813 0.001882 0.000000 0.000000 0.000000
# 2 -0.008813 0.022250 -0.010256 0.000000 0.000000 0.000000
# 3 0.001882 -0.010256 0.016037 0.000000 0.000000 0.000000
# 4 0.000000 0.000000 0.000000 0.024628 0.000000 0.000000
# 5 0.000000 0.000000 0.000000 0.000000 0.053460 0.000000
# 6 0.000000 0.000000 0.000000 0.000000 0.000000 0.042674
#
#
# Mechanical properties :
#
#
# Convention : Reuss Voigt Hill
#
# Bulk Modulus (GPa) = 54.59890 55.77360 55.18625
# Shear Modulus (GPa) = 23.37195 27.15883 25.26539
#
# Velocity S-wave (km/s) = 3.30341 3.56099 3.43461
# Velocity P-wave (km/s) = 6.32792 6.55351 6.44170
#
# Compressibility (1/GPa) = 0.01831539
#
# Stress axis : x y z
#
# Youngs Moduli (GPa) = 69.42965 44.94366 62.35652
#
# Poissons Ratio (x) = 0.39609 -0.11734
# Poissons Ratio (y) = 0.61188 0.63953
# Poissons Ratio (z) = -0.13065 0.46094
#
# Static dielectric constant tensor:
#      x y z
#    x 3.498810 0.000000 0.000000 
#    y 0.000000 4.029590 0.000000 
#    z 0.000000 0.000000 3.971780 
# 
# 
# High freq. dielectric constant tensor:
#      x y z
#    x 1.806610 0.000000 0.000000 
#    y 0.000000 1.850020 0.000000 
#    z 0.000000 0.000000 1.845470 
# 
# From -- ./inp_files/14432.got.cif
#   From: 2010.03.12/outbox.cif.g09.slc.cpg/sg40_8_cif.got.tgz:14432.got - 2010.04.14 01:38:03.
