data_PCOD8184760
_publ_section_title
;
Structure prediction by ZEFSAII (Michael W. Deem and Ramdas Pophale) SiO2 
 PCOD8184760
Probable space group: A B A 2
;
_chemical_formula_sum "Si O2"
_cell_formula_units_Z 48
_cell_length_a 20.799176
_cell_length_b 18.970465
_cell_length_c 5.287424
_cell_angle_alpha 90.000000
_cell_angle_beta 90.000000
_cell_angle_gamma 90.000000
_cell_volume 2086.259101
_symmetry_space_group_name_H-M "A B A 2"
_symmetry_group_IT_number 41
_symmetry_cell_setting 'orthorhombic'
loop_
_space_group_symop_operation_xyz
x,y,z
-x,-y,z
1/2-x,y,1/2+z
1/2+x,-y,1/2+z
x,1/2+y,1/2+z
-x,1/2-y,1/2+z
1/2-x,1/2+y,z
1/2+x,1/2-y,z
loop_
_atom_site_type_symbol
_atom_site_label
_atom_site_fract_x
_atom_site_fract_y
_atom_site_fract_z
Si Si1 0.430287 0.802896 0.671130
Si Si2 0.768462 0.361459 0.171127
Si Si3 0.389634 0.554370 0.671128
Si Si4 0.787477 0.651222 0.671131
Si Si5 0.499474 0.342916 0.671130
Si Si6 0.830212 0.993504 0.171128
O O1 0.353870 0.806057 0.671129
O O2 0.450912 0.721731 0.671130
O O3 0.456055 0.842105 0.421347
O O4 0.456054 0.842105 0.920914
O O5 0.750000 0.316919 0.421127
O O6 0.843318 0.377579 0.171128
O O7 0.724784 0.433346 0.171127
O O8 0.462061 0.583381 0.671129
O O9 0.375896 0.509749 0.418070
O O10 0.375895 0.509748 0.924184
O O11 0.749999 0.674899 0.421132
O O12 0.794723 0.567307 0.671130
#
# Coordination Sequence:
#
# PCOD8184760 Si02
#       6
#     8   8   8   8   8   8
#     4  10  23  42  63  86 115 162 204 244 304 353
#     4   8  14  25  42  69 102 137 174 211 270 330
#     4  10  18  32  56  84 112 151 197 235 284 353
#     4  12  23  40  64  89 121 156 199 246 293 361
#     4  10  21  42  64  83 119 160 202 248 297 357
#     4  10  19  33  54  85 121 156 188 236 304 354
#
# _framework density 23.007688000000002
#
# number of rings (size 3 to 8) (size 9 to 14) (size 15 to 20)
#    0.000    2.000    0.000    6.000    0.000    0.000 
#    0.000   10.000    0.000    0.000    0.000    0.000 
#    0.000    0.000    0.000    0.000    0.000    0.000 
#
# Total GULP energy -297536.254608 kJ/mol
# GULP energy per Si atom -12397.343942 kJ/mol
# Density = 2.295532 g / cm^3
# Si number density = 23.007688 Si / 1000 Ang^3
#
#
#
# Elastic Constant Matrix: (Units=GPa)
#
#
# Indices 1 2 3 4 5 6 
#
# 1 135.7212 22.6195 69.2950 0.0000 0.0000 0.0000
# 2 22.6195 49.7376 10.2887 0.0000 0.0000 0.0000
# 3 69.2950 10.2887 252.1389 0.0000 0.0000 0.0000
# 4 0.0000 0.0000 0.0000 -53.3157 0.0000 0.0000
# 5 0.0000 0.0000 0.0000 0.0000 33.3286 0.0000
# 6 0.0000 0.0000 0.0000 0.0000 0.0000 -26.0965
#
#
#
# Elastic Compliance Matrix: (Units=1/GPa)
#
#
# Indices 1 2 3 4 5 6 
#
# 1 0.009197 -0.003691 -0.002377 0.000000 0.000000 0.000000
# 2 -0.003691 0.021758 0.000126 0.000000 0.000000 0.000000
# 3 -0.002377 0.000126 0.004614 0.000000 0.000000 0.000000
# 4 0.000000 0.000000 0.000000 -0.018756 0.000000 0.000000
# 5 0.000000 0.000000 0.000000 0.000000 0.030004 0.000000
# 6 0.000000 0.000000 0.000000 0.000000 0.000000 -0.038319
#
#
# Mechanical properties :
#
#
# Convention : Reuss Voigt Hill
#
# Bulk Modulus (GPa) = 42.21849 71.33378 56.77614
# Shear Modulus (GPa) = 176.83272 13.14292 94.98782
#
# Velocity S-wave (km/s) = 8.77639 2.39266 6.43233
# Velocity P-wave (km/s) = 11.00407 6.22131 8.93852
#
# Compressibility (1/GPa) = 0.02368630
#
# Stress axis : x y z
#
# Youngs Moduli (GPa) = 108.73423 45.96049 216.72446
#
# Poissons Ratio (x) = 0.16963 0.51514
# Poissons Ratio (y) = 0.40131 -0.02741
# Poissons Ratio (z) = 0.25845 -0.00581
#
# Static dielectric constant tensor:
#      x y z
#    x 3.921430 0.000000 0.000000 
#    y 0.000000 3.624570 0.000000 
#    z 0.000000 0.000000 5.286060 
# 
# 
# High freq. dielectric constant tensor:
#      x y z
#    x 1.903700 0.000000 0.000000 
#    y 0.000000 1.881450 0.000000 
#    z 0.000000 0.000000 1.941390 
# 
# From -- ./inp_files/697.got.cif
#   From: 2010.03.12/outbox.cif.g09.slc.cpg/sg41_1_cif.got.tgz:697.got - 2010.04.14 01:55:53.
