data_PCOD8184755
_publ_section_title
;
Structure prediction by ZEFSAII (Michael W. Deem and Ramdas Pophale) SiO2 
 PCOD8184755
Probable space group: A B A 2
;
_chemical_formula_sum "Si O2"
_cell_formula_units_Z 64
_cell_length_a 19.927086
_cell_length_b 28.428840
_cell_length_c 5.368498
_cell_angle_alpha 90.000000
_cell_angle_beta 90.000000
_cell_angle_gamma 90.000000
_cell_volume 3041.275267
_symmetry_space_group_name_H-M "A B A 2"
_symmetry_group_IT_number 41
_symmetry_cell_setting 'orthorhombic'
loop_
_space_group_symop_operation_xyz
x,y,z
-x,-y,z
1/2-x,y,1/2+z
1/2+x,-y,1/2+z
x,1/2+y,1/2+z
-x,1/2-y,1/2+z
1/2-x,1/2+y,z
1/2+x,1/2-y,z
loop_
_atom_site_type_symbol
_atom_site_label
_atom_site_fract_x
_atom_site_fract_y
_atom_site_fract_z
Si Si1 0.784030 0.609579 0.867970
Si Si2 0.573268 0.213823 0.368111
Si Si3 0.530768 0.551767 0.868042
Si Si4 0.285388 0.501951 0.367996
Si Si5 0.572168 0.525144 0.368040
Si Si6 0.447752 0.143938 0.368077
Si Si7 0.058856 0.175965 0.368076
Si Si8 0.095009 0.828272 0.368110
O O1 0.750021 0.630240 0.617931
O O2 0.779589 0.553851 0.867988
O O3 0.861556 0.624517 0.868053
O O4 0.506562 0.182583 0.368128
O O5 0.554124 0.268207 0.368039
O O6 0.613796 0.202173 0.621059
O O7 0.613806 0.202155 0.115207
O O8 0.500000 0.500000 0.868049
O O9 0.576781 0.556981 0.620009
O O10 0.472607 0.590467 0.868038
O O11 0.576779 0.556984 0.116078
O O12 0.249995 0.522846 0.617987
O O13 0.365909 0.512437 0.368025
O O14 0.500000 0.500000 0.368045
O O15 0.405049 0.154688 0.620338
O O16 0.405046 0.154699 0.115835
O O17 0.982628 0.155794 0.368123
#
# Coordination Sequence:
#
# PCOD8184755 Si02
#       8
#     8   8   8   8   8   8   8   8
#     4  10  21  33  44  67 100 135 187 223 240 307
#     4  10  19  29  46  71  97 124 170 211 250 313
#     4  10  21  33  48  75 103 141 181 222 266 331
#     4  10  21  35  52  75 104 142 186 234 269 326
#     4  10  21  36  54  74 106 143 183 236 280 326
#     4  10  18  28  46  64  94 138 165 198 259 313
#     4  10  19  31  44  73  97 124 173 210 250 314
#     4  10  18  29  46  63  90 137 166 206 253 288
#
# _framework density 21.043804000000002
#
# number of rings (size 3 to 8) (size 9 to 14) (size 15 to 20)
#    0.000    2.000    0.000    6.000    7.000    0.000 
#    0.000    0.000    0.000    0.000    0.000    0.000 
#    0.000    0.000    0.000  522.000    0.000    0.000 
#
# Total GULP energy -396451.089490 kJ/mol
# GULP energy per Si atom -12389.096547 kJ/mol
# Density = 2.099591 g / cm^3
# Si number density = 21.043804 Si / 1000 Ang^3
#
#
#
# Elastic Constant Matrix: (Units=GPa)
#
#
# Indices 1 2 3 4 5 6 
#
# 1 63.4660 -17.0452 19.5143 0.0000 0.0000 0.0000
# 2 -17.0452 47.8397 26.4691 0.0000 0.0000 0.0000
# 3 19.5143 26.4691 244.8700 0.0000 0.0000 0.0000
# 4 0.0000 0.0000 0.0000 16.3351 0.0000 0.0000
# 5 0.0000 0.0000 0.0000 0.0000 19.8878 0.0000
# 6 0.0000 0.0000 0.0000 0.0000 0.0000 12.2860
#
#
#
# Elastic Compliance Matrix: (Units=1/GPa)
#
#
# Indices 1 2 3 4 5 6 
#
# 1 0.018603 0.007922 -0.002339 0.000000 0.000000 0.000000
# 2 0.007922 0.025607 -0.003399 0.000000 0.000000 0.000000
# 3 -0.002339 -0.003399 0.004638 0.000000 0.000000 0.000000
# 4 0.000000 0.000000 0.000000 0.061218 0.000000 0.000000
# 5 0.000000 0.000000 0.000000 0.000000 0.050282 0.000000
# 6 0.000000 0.000000 0.000000 0.000000 0.000000 0.081394
#
#
# Mechanical properties :
#
#
# Convention : Reuss Voigt Hill
#
# Bulk Modulus (GPa) = 18.79130 46.00579 32.39854
# Shear Modulus (GPa) = 19.59926 31.51760 25.55843
#
# Velocity S-wave (km/s) = 3.05512 3.87423 3.48880
# Velocity P-wave (km/s) = 4.62537 6.47474 5.62656
#
# Compressibility (1/GPa) = 0.05321612
#
# Stress axis : x y z
#
# Youngs Moduli (GPa) = 53.75365 39.05234 215.62692
#
# Poissons Ratio (x) = -0.30939 0.50434
# Poissons Ratio (y) = -0.42586 0.73298
# Poissons Ratio (z) = 0.12573 0.13275
#
# Static dielectric constant tensor:
#      x y z
#    x 3.387370 0.000000 0.000000 
#    y 0.000000 3.394030 0.000000 
#    z 0.000000 0.000000 6.826450 
# 
# 
# High freq. dielectric constant tensor:
#      x y z
#    x 1.746350 0.000000 0.000000 
#    y 0.000000 1.789820 0.000000 
#    z 0.000000 0.000000 1.881050 
# 
# From -- ./inp_files/825.got.cif
#   From: 2010.03.12/outbox.cif.g09.slc.cpg/sg41_1_cif.got.tgz:825.got - 2010.04.14 01:55:53.
