data_PCOD8184937
_publ_section_title
;
Structure prediction by ZEFSAII (Michael W. Deem and Ramdas Pophale) SiO2 
 PCOD8184937
Probable space group: A B A 2
;
_chemical_formula_sum "Si O2"
_cell_formula_units_Z 56
_cell_length_a 14.611311
_cell_length_b 13.450054
_cell_length_c 13.839711
_cell_angle_alpha 90.000000
_cell_angle_beta 90.000000
_cell_angle_gamma 90.000000
_cell_volume 2719.820445
_symmetry_space_group_name_H-M "A B A 2"
_symmetry_group_IT_number 41
_symmetry_cell_setting 'orthorhombic'
loop_
_space_group_symop_operation_xyz
x,y,z
-x,-y,z
1/2-x,y,1/2+z
1/2+x,-y,1/2+z
x,1/2+y,1/2+z
-x,1/2-y,1/2+z
1/2-x,1/2+y,z
1/2+x,1/2-y,z
loop_
_atom_site_type_symbol
_atom_site_label
_atom_site_fract_x
_atom_site_fract_y
_atom_site_fract_z
Si Si1 0.475933 0.277400 0.754640
Si Si2 0.289581 0.078512 0.360426
Si Si3 0.742262 0.929182 0.066822
Si Si4 0.942979 0.908572 0.141365
Si Si5 0.689465 0.272529 0.704229
Si Si6 0.816304 0.587724 0.209424
Si Si7 0.519341 0.385326 0.934747
O O1 0.434145 0.169982 0.728361
O O2 0.581106 0.279524 0.721984
O O3 0.413403 0.357013 0.698117
O O4 0.463912 0.306140 0.868241
O O5 0.222904 0.060109 0.451852
O O6 0.254350 0.158026 0.281110
O O7 0.375490 0.132164 0.409714
O O8 0.310648 0.973552 0.309418
O O9 0.846811 0.947273 0.100604
O O10 0.709202 0.819560 0.099083
O O11 0.683824 0.015089 0.117926
O O12 0.998807 0.863437 0.048340
O O13 0.000000 0.000000 0.185076
O O14 0.728997 0.161760 0.708621
O O15 0.500000 0.500000 0.907923
#
# Coordination Sequence:
#
# PCOD8184937 Si02
#       7
#     8   8   8   8   8   8   8
#     4  11  21  38  62  89 119 153 202 250 286 359
#     4   9  20  36  58  82 119 152 191 239 294 351
#     4  10  21  38  57  87 117 152 196 245 291 350
#     4  10  20  37  60  85 117 155 197 241 294 350
#     4  10  22  38  59  87 119 154 197 243 303 344
#     4  11  21  38  63  87 114 159 198 242 296 343
#     4   9  17  34  59  85 109 154 199 234 285 353
#
# _framework density 20.589594000000002
#
# number of rings (size 3 to 8) (size 9 to 14) (size 15 to 20)
#    0.000    2.000    2.857    0.857    0.000    1.143 
#    5.143    0.000    0.000    2.571    0.000    0.000 
#    0.000    0.000    0.000    0.000    0.000    0.000 
#
# Total GULP energy -346960.045939 kJ/mol
# GULP energy per Si atom -12391.430212 kJ/mol
# Density = 2.054273 g / cm^3
# Si number density = 20.589594 Si / 1000 Ang^3
#
#
#
# Elastic Constant Matrix: (Units=GPa)
#
#
# Indices 1 2 3 4 5 6 
#
# 1 53.6428 2.0037 8.8204 0.0000 0.0000 0.0000
# 2 2.0037 97.4375 45.3063 0.0000 0.0000 0.0000
# 3 8.8204 45.3063 104.3776 0.0000 0.0000 0.0000
# 4 0.0000 0.0000 0.0000 25.9519 0.0000 0.0000
# 5 0.0000 0.0000 0.0000 0.0000 21.4128 0.0000
# 6 0.0000 0.0000 0.0000 0.0000 0.0000 29.3338
#
#
#
# Elastic Compliance Matrix: (Units=1/GPa)
#
#
# Indices 1 2 3 4 5 6 
#
# 1 0.018920 0.000444 -0.001792 0.000000 0.000000 0.000000
# 2 0.000444 0.012869 -0.005623 0.000000 0.000000 0.000000
# 3 -0.001792 -0.005623 0.012173 0.000000 0.000000 0.000000
# 4 0.000000 0.000000 0.000000 0.038533 0.000000 0.000000
# 5 0.000000 0.000000 0.000000 0.000000 0.046701 0.000000
# 6 0.000000 0.000000 0.000000 0.000000 0.000000 0.034090
#
#
# Mechanical properties :
#
#
# Convention : Reuss Voigt Hill
#
# Bulk Modulus (GPa) = 33.31160 40.85762 37.08461
# Shear Modulus (GPa) = 26.70459 28.62819 27.66639
#
# Velocity S-wave (km/s) = 3.60529 3.73288 3.66964
# Velocity P-wave (km/s) = 5.79179 6.20210 6.00045
#
# Compressibility (1/GPa) = 0.03001958
#
# Stress axis : x y z
#
# Youngs Moduli (GPa) = 52.85459 77.70875 82.15010
#
# Poissons Ratio (x) = -0.03450 0.14717
# Poissons Ratio (y) = -0.02347 0.46195
# Poissons Ratio (z) = 0.09469 0.43698
#
# Static dielectric constant tensor:
#      x y z
#    x 3.618230 0.000000 0.000000 
#    y 0.000000 3.668320 0.000000 
#    z 0.000000 0.000000 4.083850 
# 
# 
# High freq. dielectric constant tensor:
#      x y z
#    x 1.793820 0.000000 0.000000 
#    y 0.000000 1.796590 0.000000 
#    z 0.000000 0.000000 1.799740 
# 
# From -- ./inp_files/8407.got.cif
#   From: 2010.03.12/outbox.cif.g09.slc.cpg/sg41_5_cif.got.tgz:8407.got - 2010.04.14 01:55:53.
