data_PCOD8184907
_publ_section_title
;
Structure prediction by ZEFSAII (Michael W. Deem and Ramdas Pophale) SiO2 
 PCOD8184907
Probable space group: A B A 2
;
_chemical_formula_sum "Si O2"
_cell_formula_units_Z 64
_cell_length_a 8.223399
_cell_length_b 20.094557
_cell_length_c 18.934095
_cell_angle_alpha 90.000000
_cell_angle_beta 90.000000
_cell_angle_gamma 90.000000
_cell_volume 3128.775130
_symmetry_space_group_name_H-M "A B A 2"
_symmetry_group_IT_number 41
_symmetry_cell_setting 'orthorhombic'
loop_
_space_group_symop_operation_xyz
x,y,z
-x,-y,z
1/2-x,y,1/2+z
1/2+x,-y,1/2+z
x,1/2+y,1/2+z
-x,1/2-y,1/2+z
1/2-x,1/2+y,z
1/2+x,1/2-y,z
loop_
_atom_site_type_symbol
_atom_site_label
_atom_site_fract_x
_atom_site_fract_y
_atom_site_fract_z
Si Si1 0.389939 0.447018 0.127460
Si Si2 0.208801 0.820300 0.639282
Si Si3 0.238223 0.164380 0.320180
Si Si4 0.340067 0.324293 0.473794
Si Si5 0.154197 0.676398 0.167572
Si Si6 0.285861 0.068559 0.561164
Si Si7 0.459083 0.778457 0.392763
Si Si8 0.417220 0.568742 0.423494
O O1 0.500000 0.500000 0.175143
O O2 0.314401 0.383823 0.167844
O O3 0.248291 0.493706 0.092296
O O4 0.518077 0.419871 0.067093
O O5 0.189778 0.827482 0.556262
O O6 0.301763 0.752605 0.653456
O O7 0.038891 0.823953 0.680113
O O8 0.248935 0.152291 0.236517
O O9 0.419458 0.175088 0.349458
O O10 0.124997 0.227528 0.338074
O O11 0.159695 0.098247 0.352377
O O12 0.444824 0.259006 0.455303
O O13 0.172923 0.324629 0.430302
O O14 0.434526 0.389347 0.452634
O O15 0.195979 0.627938 0.102926
O O16 0.227295 0.068174 0.480826
O O17 0.500000 0.500000 0.403806
#
# Coordination Sequence:
#
# PCOD8184907 Si02
#       8
#     8   8   8   8   8   8   8   8
#     4   8  22  40  61  92 128 165 204 269 325 393
#     4  12  22  36  64  99 131 165 218 274 336 392
#     4  10  23  41  60  92 129 174 209 266 334 397
#     4  10  20  34  62  95 120 160 209 272 320 380
#     4  12  24  37  65  98 134 167 221 277 333 402
#     4   9  21  40  64  93 124 172 213 271 327 382
#     4   9  20  38  61  84 130 159 209 262 330 389
#     4  11  22  41  65  91 128 173 223 270 318 396
#
# _framework density 20.455290999999999
#
# number of rings (size 3 to 8) (size 9 to 14) (size 15 to 20)
#    0.750    1.000    1.250    3.000    5.250    0.000 
#    2.250    1.250    2.750    0.000    0.000    0.000 
#    0.000    0.000    0.000    0.000    0.000    0.000 
#
# Total GULP energy -396550.921149 kJ/mol
# GULP energy per Si atom -12392.216286 kJ/mol
# Density = 2.040873 g / cm^3
# Si number density = 20.455291 Si / 1000 Ang^3
#
#
#
# Elastic Constant Matrix: (Units=GPa)
#
#
# Indices 1 2 3 4 5 6 
#
# 1 82.6944 47.1350 28.0190 0.0000 0.0000 0.0000
# 2 47.1350 133.7745 40.7786 0.0000 0.0000 0.0000
# 3 28.0190 40.7786 78.9513 0.0000 0.0000 0.0000
# 4 0.0000 0.0000 0.0000 7.9924 0.0000 0.0000
# 5 0.0000 0.0000 0.0000 0.0000 21.0991 0.0000
# 6 0.0000 0.0000 0.0000 0.0000 0.0000 35.0570
#
#
#
# Elastic Compliance Matrix: (Units=1/GPa)
#
#
# Indices 1 2 3 4 5 6 
#
# 1 0.015801 -0.004579 -0.003243 0.000000 0.000000 0.000000
# 2 -0.004579 0.010199 -0.003643 0.000000 0.000000 0.000000
# 3 -0.003243 -0.003643 0.015698 0.000000 0.000000 0.000000
# 4 0.000000 0.000000 0.000000 0.125118 0.000000 0.000000
# 5 0.000000 0.000000 0.000000 0.000000 0.047395 0.000000
# 6 0.000000 0.000000 0.000000 0.000000 0.000000 0.028525
#
#
# Mechanical properties :
#
#
# Convention : Reuss Voigt Hill
#
# Bulk Modulus (GPa) = 53.27711 58.58728 55.93220
# Shear Modulus (GPa) = 18.38754 24.79554 21.59154
#
# Velocity S-wave (km/s) = 3.00144 3.48542 3.25244
# Velocity P-wave (km/s) = 6.17363 6.70084 6.44263
#
# Compressibility (1/GPa) = 0.01876979
#
# Stress axis : x y z
#
# Youngs Moduli (GPa) = 63.28524 98.04733 63.70095
#
# Poissons Ratio (x) = 0.44897 0.20656
# Poissons Ratio (y) = 0.28979 0.23205
# Poissons Ratio (z) = 0.20521 0.35717
#
# Static dielectric constant tensor:
#      x y z
#    x 3.890750 0.000000 0.000000 
#    y 0.000000 3.819590 0.000000 
#    z 0.000000 0.000000 5.158910 
# 
# 
# High freq. dielectric constant tensor:
#      x y z
#    x 1.812670 0.000000 0.000000 
#    y 0.000000 1.802570 0.000000 
#    z 0.000000 0.000000 1.769880 
# 
# From -- ./inp_files/9847.got.cif
#   From: 2010.03.12/outbox.cif.g09.slc.cpg/sg41_5_cif.got.tgz:9847.got - 2010.04.14 01:55:53.
