data_PCOD8184650
_publ_section_title
;
Structure prediction by ZEFSAII (Michael W. Deem and Ramdas Pophale) SiO2 
 PCOD8184650
Probable space group: A M A 2
;
_chemical_formula_sum "Si O2"
_cell_formula_units_Z 48
_cell_length_a 22.101949
_cell_length_b 11.333177
_cell_length_c 8.875262
_cell_angle_alpha 90.000000
_cell_angle_beta 90.000000
_cell_angle_gamma 90.000000
_cell_volume 2223.122665
_symmetry_space_group_name_H-M "A M A 2"
_symmetry_group_IT_number 40
_symmetry_cell_setting 'orthorhombic'
loop_
_space_group_symop_operation_xyz
x,y,z
-x,-y,z
1/2-x,y,z
1/2+x,-y,z
x,1/2+y,1/2+z
-x,1/2-y,1/2+z
1/2-x,1/2+y,1/2+z
1/2+x,1/2-y,1/2+z
loop_
_atom_site_type_symbol
_atom_site_label
_atom_site_fract_x
_atom_site_fract_y
_atom_site_fract_z
Si Si1 0.112006 0.135150 0.482590
Si Si2 0.538802 0.642636 0.465936
Si Si3 0.879764 0.488460 0.662215
Si Si4 0.817698 0.219971 0.188237
Si Si5 0.062753 0.434639 0.145325
Si Si6 0.905616 0.293741 0.453691
O O1 0.053585 0.220477 0.497760
O O2 0.170473 0.215519 0.526745
O O3 0.110525 0.073077 0.321879
O O4 0.112951 0.032267 0.607187
O O5 0.560229 0.562328 0.607932
O O6 0.574240 0.601481 0.317094
O O7 0.467558 0.630807 0.426324
O O8 0.823694 0.578927 0.667141
O O9 0.863350 0.380719 0.551002
O O10 0.750000 0.247602 0.245271
O O11 0.869617 0.262028 0.303590
O O12 0.000000 0.500000 0.107923
O O13 0.074043 0.322136 0.041039
#
# Coordination Sequence:
#
# PCOD8184650 Si02
#       6
#     8   8   8   8   8   8
#     4  11  23  42  67  99 137 178 225 279 341 418
#     4  11  24  39  66 104 144 176 215 277 352 422
#     4  11  24  43  69  99 135 174 229 285 346 410
#     4  11  27  48  69  93 130 187 240 288 337 398
#     4  12  22  38  64  99 144 180 213 269 345 420
#     4  12  24  41  69 100 139 181 223 277 350 414
#
# _framework density 21.591251
#
# number of rings (size 3 to 8) (size 9 to 14) (size 15 to 20)
#    0.000    0.667    5.000    3.500    2.333    4.000 
#    0.000    0.000    0.000    0.000    0.000    0.000 
#    0.000    0.000    0.000    0.000    0.000    0.000 
#
# Total GULP energy -297426.131050 kJ/mol
# GULP energy per Si atom -12392.755460 kJ/mol
# Density = 2.154211 g / cm^3
# Si number density = 21.591251 Si / 1000 Ang^3
#
#
#
# Elastic Constant Matrix: (Units=GPa)
#
#
# Indices 1 2 3 4 5 6 
#
# 1 98.5632 25.2194 45.3723 0.0000 0.0000 0.0000
# 2 25.2194 137.7831 68.0384 0.0000 0.0000 0.0000
# 3 45.3723 68.0384 127.5253 0.0000 0.0000 0.0000
# 4 0.0000 0.0000 0.0000 54.5671 0.0000 0.0000
# 5 0.0000 0.0000 0.0000 0.0000 18.6924 0.0000
# 6 0.0000 0.0000 0.0000 0.0000 0.0000 17.0541
#
#
#
# Elastic Compliance Matrix: (Units=1/GPa)
#
#
# Indices 1 2 3 4 5 6 
#
# 1 0.012134 -0.000121 -0.004253 0.000000 0.000000 0.000000
# 2 -0.000121 0.009855 -0.005215 0.000000 0.000000 0.000000
# 3 -0.004253 -0.005215 0.012137 0.000000 0.000000 0.000000
# 4 0.000000 0.000000 0.000000 0.018326 0.000000 0.000000
# 5 0.000000 0.000000 0.000000 0.000000 0.053498 0.000000
# 6 0.000000 0.000000 0.000000 0.000000 0.000000 0.058637
#
#
# Mechanical properties :
#
#
# Convention : Reuss Voigt Hill
#
# Bulk Modulus (GPa) = 66.89344 71.23685 69.06514
# Shear Modulus (GPa) = 26.49038 33.07881 29.78459
#
# Velocity S-wave (km/s) = 3.50652 3.91838 3.71816
# Velocity P-wave (km/s) = 6.88790 7.31687 7.10563
#
# Compressibility (1/GPa) = 0.01494915
#
# Stress axis : x y z
#
# Youngs Moduli (GPa) = 82.41013 101.47020 82.39277
#
# Poissons Ratio (x) = 0.01228 0.35040
# Poissons Ratio (y) = 0.00997 0.42967
# Poissons Ratio (z) = 0.35047 0.52916
#
# Static dielectric constant tensor:
#      x y z
#    x 3.400820 0.000000 0.000000 
#    y 0.000000 4.461050 0.000000 
#    z 0.000000 0.000000 3.925580 
# 
# 
# High freq. dielectric constant tensor:
#      x y z
#    x 1.789010 0.000000 0.000000 
#    y 0.000000 1.890700 0.000000 
#    z 0.000000 0.000000 1.853010 
# 
# From -- ./inp_files/8742.got.cif
#   From: 2010.03.12/outbox.cif.g09.slc.cpg/sg40_5_cif.got.tgz:8742.got - 2010.04.14 01:38:03.
