data_PCOD8184283
_publ_section_title
;
Structure prediction by ZEFSAII (Michael W. Deem and Ramdas Pophale) SiO2 
 PCOD8184283
Probable space group: A M A 2
;
_chemical_formula_sum "Si O2"
_cell_formula_units_Z 64
_cell_length_a 17.314193
_cell_length_b 9.417041
_cell_length_c 19.968731
_cell_angle_alpha 90.000000
_cell_angle_beta 90.000000
_cell_angle_gamma 90.000000
_cell_volume 3255.870945
_symmetry_space_group_name_H-M "A M A 2"
_symmetry_group_IT_number 40
_symmetry_cell_setting 'orthorhombic'
loop_
_space_group_symop_operation_xyz
x,y,z
-x,-y,z
1/2-x,y,z
1/2+x,-y,z
x,1/2+y,1/2+z
-x,1/2-y,1/2+z
1/2-x,1/2+y,1/2+z
1/2+x,1/2-y,1/2+z
loop_
_atom_site_type_symbol
_atom_site_label
_atom_site_fract_x
_atom_site_fract_y
_atom_site_fract_z
Si Si1 0.658524 0.711695 0.688350
Si Si2 0.545546 0.130393 0.930917
Si Si3 0.341492 0.286667 0.068696
Si Si4 0.914014 0.522646 0.575303
Si Si5 0.158160 0.466937 0.194052
Si Si6 0.161267 0.463041 0.817257
Si Si7 0.661612 0.211598 0.818969
Si Si8 0.564473 0.612004 0.947432
O O1 0.750000 0.711276 0.683975
O O2 0.627899 0.634232 0.622758
O O3 0.631320 0.631680 0.755540
O O4 0.625904 0.872524 0.690416
O O5 0.613920 0.189590 0.886117
O O6 0.477374 0.240366 0.939647
O O7 0.500000 0.000000 0.897034
O O8 0.583749 0.088437 0.001307
O O9 0.250000 0.285030 0.065533
O O10 0.372932 0.374846 0.132144
O O11 0.369636 0.125762 0.073771
O O12 0.371295 0.371245 0.004217
O O13 0.000000 0.500000 0.603296
O O14 0.250000 0.467476 0.193759
O O15 0.128395 0.391477 0.261657
O O16 0.250000 0.425776 0.835964
O O17 0.154066 0.626377 0.794465
O O18 0.106245 0.434551 0.879608
O O19 0.750000 0.173999 0.835951
O O20 0.500000 0.500000 0.969713
#
# Coordination Sequence:
#
# PCOD8184283 Si02
#       8
#     8   8   8   8   8   8   8   8
#     4  10  22  40  64  92 122 158 207 262 309 369
#     4  11  24  44  59  89 126 160 204 254 305 369
#     4  11  23  42  67  92 123 169 213 257 311 376
#     4  11  23  42  61  88 128 164 207 255 316 376
#     4   9  21  39  63  94 120 151 205 260 304 359
#     4  10  22  41  65  92 122 163 209 252 309 377
#     4  10  21  41  65  90 121 161 203 249 307 372
#     4  12  24  42  64  90 129 165 203 260 315 367
#
# _framework density 19.6568
#
# number of rings (size 3 to 8) (size 9 to 14) (size 15 to 20)
#    0.000    1.500    3.750    1.500    3.500    3.500 
#    2.250    0.625    0.000    0.000    0.000    0.000 
#    0.000    0.000    0.000    0.000    0.000    0.000 
#
# Total GULP energy -396855.905276 kJ/mol
# GULP energy per Si atom -12401.747040 kJ/mol
# Density = 1.961206 g / cm^3
# Si number density = 19.656800 Si / 1000 Ang^3
#
#
#
# Elastic Constant Matrix: (Units=GPa)
#
#
# Indices 1 2 3 4 5 6 
#
# 1 68.2673 33.9456 39.0812 0.0000 0.0000 0.0000
# 2 33.9456 129.2964 47.7588 0.0000 0.0000 0.0000
# 3 39.0812 47.7588 106.9921 0.0000 0.0000 0.0000
# 4 0.0000 0.0000 0.0000 39.1605 0.0000 0.0000
# 5 0.0000 0.0000 0.0000 0.0000 3.6922 0.0000
# 6 0.0000 0.0000 0.0000 0.0000 0.0000 36.1638
#
#
#
# Elastic Compliance Matrix: (Units=1/GPa)
#
#
# Indices 1 2 3 4 5 6 
#
# 1 0.019429 -0.002969 -0.005771 0.000000 0.000000 0.000000
# 2 -0.002969 0.009715 -0.003252 0.000000 0.000000 0.000000
# 3 -0.005771 -0.003252 0.012906 0.000000 0.000000 0.000000
# 4 0.000000 0.000000 0.000000 0.025536 0.000000 0.000000
# 5 0.000000 0.000000 0.000000 0.000000 0.270843 0.000000
# 6 0.000000 0.000000 0.000000 0.000000 0.000000 0.027652
#
#
# Mechanical properties :
#
#
# Convention : Reuss Voigt Hill
#
# Bulk Modulus (GPa) = 55.35606 60.68077 58.01842
# Shear Modulus (GPa) = 12.62349 28.05465 20.33907
#
# Velocity S-wave (km/s) = 2.53690 3.78196 3.22018
# Velocity P-wave (km/s) = 6.06660 7.07164 6.58831
#
# Compressibility (1/GPa) = 0.01806487
#
# Stress axis : x y z
#
# Youngs Moduli (GPa) = 51.47046 102.93516 77.48183
#
# Poissons Ratio (x) = 0.30561 0.44718
# Poissons Ratio (y) = 0.15281 0.25197
# Poissons Ratio (z) = 0.29706 0.33475
#
# Static dielectric constant tensor:
#      x y z
#    x 3.526510 0.000000 0.000000 
#    y 0.000000 3.939600 0.000000 
#    z 0.000000 0.000000 3.720330 
# 
# 
# High freq. dielectric constant tensor:
#      x y z
#    x 1.760340 0.000000 0.000000 
#    y 0.000000 1.786010 0.000000 
#    z 0.000000 0.000000 1.769730 
# 
# From -- ./inp_files/21387.got.cif
#   From: 2010.03.12/outbox.cif.g09.slc.cpg/sg40_11_cif.got.tgz:21387.got - 2010.04.14 01:38:03.
