data_PCOD8184407
_publ_section_title
;
Structure prediction by ZEFSAII (Michael W. Deem and Ramdas Pophale) SiO2 
 PCOD8184407
Probable space group: A M A 2
;
_chemical_formula_sum "Si O2"
_cell_formula_units_Z 48
_cell_length_a 28.375763
_cell_length_b 13.143048
_cell_length_c 5.032973
_cell_angle_alpha 90.000000
_cell_angle_beta 90.000000
_cell_angle_gamma 90.000000
_cell_volume 1877.017159
_symmetry_space_group_name_H-M "A M A 2"
_symmetry_group_IT_number 40
_symmetry_cell_setting 'orthorhombic'
loop_
_space_group_symop_operation_xyz
x,y,z
-x,-y,z
1/2-x,y,z
1/2+x,-y,z
x,1/2+y,1/2+z
-x,1/2-y,1/2+z
1/2-x,1/2+y,1/2+z
1/2+x,1/2-y,1/2+z
loop_
_atom_site_type_symbol
_atom_site_label
_atom_site_fract_x
_atom_site_fract_y
_atom_site_fract_z
Si Si1 0.396526 0.260107 0.769170
Si Si2 0.099212 0.047217 0.511962
Si Si3 0.199649 0.711554 0.419134
Si Si4 0.979639 0.300384 0.596721
Si Si5 0.053534 0.457331 0.529690
Si Si6 0.800982 0.428823 0.916064
O O1 0.343965 0.288749 0.872759
O O2 0.425778 0.219998 0.024002
O O3 0.419725 0.357068 0.635131
O O4 0.394600 0.166170 0.566386
O O5 0.065855 0.043415 0.250737
O O6 0.152143 0.000855 0.459879
O O7 0.073772 0.983104 0.741761
O O8 0.250000 0.769318 0.468718
O O9 0.187262 0.638316 0.660658
O O10 0.205765 0.642623 0.164681
O O11 0.989014 0.273588 0.903546
O O12 0.997697 0.417504 0.519089
O O13 0.750000 0.487404 0.876400
#
# Coordination Sequence:
#
# PCOD8184407 Si02
#       6
#     8   8   8   8   8   8
#     4  10  23  43  65  87 126 165 196 252 313 355
#     4  11  23  40  64  92 119 162 205 248 309 359
#     4   9  18  34  60  89 115 154 202 244 297 362
#     4  10  22  41  64  89 123 166 202 248 310 359
#     4  11  24  41  61  92 126 155 209 256 291 369
#     4   9  18  35  58  86 121 157 198 248 302 362
#
# _framework density 25.572486999999999
#
# number of rings (size 3 to 8) (size 9 to 14) (size 15 to 20)
#    0.000    2.000    0.000    4.000    0.000   12.667 
#    0.000    8.333    0.000    0.000    0.000    1.167 
#    0.000    0.000    0.000    0.000    0.000    0.000 
#
# Total GULP energy -297421.523224 kJ/mol
# GULP energy per Si atom -12392.563468 kJ/mol
# Density = 2.551428 g / cm^3
# Si number density = 25.572487 Si / 1000 Ang^3
#
#
#
# Elastic Constant Matrix: (Units=GPa)
#
#
# Indices 1 2 3 4 5 6 
#
# 1 252.9769 4.9042 40.2861 0.0000 0.0000 0.0000
# 2 4.9042 63.5092 1.0043 0.0000 0.0000 0.0000
# 3 40.2861 1.0043 131.0978 0.0000 0.0000 0.0000
# 4 0.0000 0.0000 0.0000 33.6985 0.0000 0.0000
# 5 0.0000 0.0000 0.0000 0.0000 37.3373 0.0000
# 6 0.0000 0.0000 0.0000 0.0000 0.0000 17.2384
#
#
#
# Elastic Compliance Matrix: (Units=1/GPa)
#
#
# Indices 1 2 3 4 5 6 
#
# 1 0.004162 -0.000301 -0.001277 0.000000 0.000000 0.000000
# 2 -0.000301 0.015769 -0.000028 0.000000 0.000000 0.000000
# 3 -0.001277 -0.000028 0.008020 0.000000 0.000000 0.000000
# 4 0.000000 0.000000 0.000000 0.029675 0.000000 0.000000
# 5 0.000000 0.000000 0.000000 0.000000 0.026783 0.000000
# 6 0.000000 0.000000 0.000000 0.000000 0.000000 0.058010
#
#
# Mechanical properties :
#
#
# Convention : Reuss Voigt Hill
#
# Bulk Modulus (GPa) = 40.42091 59.99702 50.20896
# Shear Modulus (GPa) = 32.49311 44.41411 38.45361
#
# Velocity S-wave (km/s) = 3.56845 4.17201 3.88198
# Velocity P-wave (km/s) = 5.72880 6.83520 6.30631
#
# Compressibility (1/GPa) = 0.02473967
#
# Stress axis : x y z
#
# Youngs Moduli (GPa) = 240.26452 63.41373 124.68153
#
# Poissons Ratio (x) = 0.01910 0.15918
# Poissons Ratio (y) = 0.07237 0.00352
# Poissons Ratio (z) = 0.30674 0.00179
#
# Static dielectric constant tensor:
#      x y z
#    x 6.201900 0.000000 0.000000 
#    y 0.000000 4.556940 0.000000 
#    z 0.000000 0.000000 4.519760 
# 
# 
# High freq. dielectric constant tensor:
#      x y z
#    x 2.070110 0.000000 0.000000 
#    y 0.000000 1.997970 0.000000 
#    z 0.000000 0.000000 2.032140 
# 
# From -- ./inp_files/3366.got.cif
#   From: 2010.03.12/outbox.cif.g09.slc.cpg/sg40_2_cif.got.tgz:3366.got - 2010.04.14 01:38:03.
