data_PCOD8184241
_publ_section_title
;
Structure prediction by ZEFSAII (Michael W. Deem and Ramdas Pophale) SiO2 
 PCOD8184241
Probable space group: A M A 2
;
_chemical_formula_sum "Si O2"
_cell_formula_units_Z 48
_cell_length_a 8.509431
_cell_length_b 13.855593
_cell_length_c 18.939420
_cell_angle_alpha 90.000000
_cell_angle_beta 90.000000
_cell_angle_gamma 90.000000
_cell_volume 2233.018463
_symmetry_space_group_name_H-M "A M A 2"
_symmetry_group_IT_number 40
_symmetry_cell_setting 'orthorhombic'
loop_
_space_group_symop_operation_xyz
x,y,z
-x,-y,z
1/2-x,y,z
1/2+x,-y,z
x,1/2+y,1/2+z
-x,1/2-y,1/2+z
1/2-x,1/2+y,1/2+z
1/2+x,1/2-y,1/2+z
loop_
_atom_site_type_symbol
_atom_site_label
_atom_site_fract_x
_atom_site_fract_y
_atom_site_fract_z
Si Si1 0.434760 0.906169 0.628300
Si Si2 0.932903 0.103968 0.985357
Si Si3 0.934454 0.606412 0.769129
Si Si4 0.932279 0.403954 0.279812
Si Si5 0.933726 0.206972 0.125194
Si Si6 0.569517 0.250603 0.869992
O O1 0.250000 0.915945 0.643426
O O2 0.546230 0.911227 0.696704
O O3 0.472789 0.801318 0.595986
O O4 0.500000 0.000000 0.583317
O O5 0.750000 0.100655 0.968383
O O6 0.003450 0.192377 0.937322
O O7 0.968891 0.124357 0.067356
O O8 0.000000 0.000000 0.964185
O O9 0.750000 0.600626 0.765461
O O10 0.994354 0.669741 0.701606
O O11 0.000000 0.500000 0.761851
O O12 0.983979 0.650522 0.845632
O O13 0.750000 0.386246 0.299310
O O14 0.000000 0.500000 0.317490
O O15 0.043715 0.317483 0.302932
O O16 0.750000 0.232229 0.127909
O O17 0.750000 0.276619 0.882783
#
# Coordination Sequence:
#
# PCOD8184241 Si02
#       6
#     8   8   8   8   8   8
#     4  11  21  34  56  86 119 156 198 247 301 356
#     4  10  23  41  63  91 125 164 202 250 303 365
#     4  11  23  39  63  90 120 158 203 254 307 366
#     4  11  20  32  52  81 116 153 192 240 296 351
#     4  10  21  40  62  89 125 162 203 249 305 362
#     4  11  22  38  59  87 121 157 202 250 302 360
#
# _framework density 21.495567999999999
#
# number of rings (size 3 to 8) (size 9 to 14) (size 15 to 20)
#    0.000    1.333    1.667    6.000    0.000    4.000 
#    0.000    0.833    0.000    0.000    0.000    0.000 
#    0.000    0.000    0.000    0.000    0.000    0.000 
#
# Total GULP energy -297366.899372 kJ/mol
# GULP energy per Si atom -12390.287474 kJ/mol
# Density = 2.144664 g / cm^3
# Si number density = 21.495568 Si / 1000 Ang^3
#
#
#
# Elastic Constant Matrix: (Units=GPa)
#
#
# Indices 1 2 3 4 5 6 
#
# 1 73.6590 41.0431 25.3996 0.0000 0.0000 0.0000
# 2 41.0431 138.6947 35.5543 0.0000 0.0000 0.0000
# 3 25.3996 35.5543 82.2747 0.0000 0.0000 0.0000
# 4 0.0000 0.0000 0.0000 25.1048 0.0000 0.0000
# 5 0.0000 0.0000 0.0000 0.0000 17.7272 0.0000
# 6 0.0000 0.0000 0.0000 0.0000 0.0000 40.4077
#
#
#
# Elastic Compliance Matrix: (Units=1/GPa)
#
#
# Indices 1 2 3 4 5 6 
#
# 1 0.017098 -0.004168 -0.003477 0.000000 0.000000 0.000000
# 2 -0.004168 0.009124 -0.002656 0.000000 0.000000 0.000000
# 3 -0.003477 -0.002656 0.014376 0.000000 0.000000 0.000000
# 4 0.000000 0.000000 0.000000 0.039833 0.000000 0.000000
# 5 0.000000 0.000000 0.000000 0.000000 0.056411 0.000000
# 6 0.000000 0.000000 0.000000 0.000000 0.000000 0.024748
#
#
# Mechanical properties :
#
#
# Convention : Reuss Voigt Hill
#
# Bulk Modulus (GPa) = 50.01325 55.40247 52.70786
# Shear Modulus (GPa) = 26.47502 29.49003 27.98253
#
# Velocity S-wave (km/s) = 3.51329 3.70795 3.61193
# Velocity P-wave (km/s) = 6.30674 6.64543 6.47830
#
# Compressibility (1/GPa) = 0.01999470
#
# Stress axis : x y z
#
# Youngs Moduli (GPa) = 58.48765 109.59513 69.56175
#
# Poissons Ratio (x) = 0.45682 0.24187
# Poissons Ratio (y) = 0.24379 0.18477
# Poissons Ratio (z) = 0.20337 0.29111
#
# Static dielectric constant tensor:
#      x y z
#    x 3.748120 0.000000 0.000000 
#    y 0.000000 4.506970 0.000000 
#    z 0.000000 0.000000 3.691070 
# 
# 
# High freq. dielectric constant tensor:
#      x y z
#    x 1.835280 0.000000 0.000000 
#    y 0.000000 1.860810 0.000000 
#    z 0.000000 0.000000 1.812370 
# 
# From -- ./inp_files/19207.got.cif
#   From: 2010.03.12/outbox.cif.g09.slc.cpg/sg40_10_cif.got.tgz:19207.got - 2010.04.14 01:38:03.
