data_PCOD8184493
_publ_section_title
;
Structure prediction by ZEFSAII (Michael W. Deem and Ramdas Pophale) SiO2 
 PCOD8184493
Probable space group: A M A 2
;
_chemical_formula_sum "Si O2"
_cell_formula_units_Z 64
_cell_length_a 18.980004
_cell_length_b 11.396622
_cell_length_c 14.210194
_cell_angle_alpha 90.000000
_cell_angle_beta 90.000000
_cell_angle_gamma 90.000000
_cell_volume 3073.777665
_symmetry_space_group_name_H-M "A M A 2"
_symmetry_group_IT_number 40
_symmetry_cell_setting 'orthorhombic'
loop_
_space_group_symop_operation_xyz
x,y,z
-x,-y,z
1/2-x,y,z
1/2+x,-y,z
x,1/2+y,1/2+z
-x,1/2-y,1/2+z
1/2-x,1/2+y,1/2+z
1/2+x,1/2-y,1/2+z
loop_
_atom_site_type_symbol
_atom_site_label
_atom_site_fract_x
_atom_site_fract_y
_atom_site_fract_z
Si Si1 0.418113 0.166439 0.872510
Si Si2 0.827148 0.619105 0.597237
Si Si3 0.174071 0.858537 0.315751
Si Si4 0.562766 0.916118 0.073154
Si Si5 0.079529 0.485512 0.228686
Si Si6 0.165280 0.620963 0.075328
Si Si7 0.950330 0.766627 0.261803
Si Si8 0.578735 0.458478 0.904103
O O1 0.343772 0.230519 0.857120
O O2 0.473898 0.229227 0.802026
O O3 0.415041 0.032150 0.836615
O O4 0.433204 0.172530 0.984296
O O5 0.750000 0.597396 0.552377
O O6 0.818863 0.647571 0.705521
O O7 0.869231 0.499612 0.579164
O O8 0.859059 0.743034 0.559243
O O9 0.250000 0.897844 0.358426
O O10 0.109548 0.942537 0.337588
O O11 0.545005 0.845770 0.168114
O O12 0.500000 0.000000 0.048651
O O13 0.135654 0.560821 0.169777
O O14 0.097141 0.346740 0.234596
O O15 0.000000 0.500000 0.187485
O O16 0.250000 0.609556 0.073948
O O17 0.128574 0.546576 0.993901
O O18 0.914730 0.838252 0.346125
O O19 0.500000 0.500000 0.931502
#
# Coordination Sequence:
#
# PCOD8184493 Si02
#       8
#     8   8   8   8   8   8   8   8
#     4  11  24  41  65  97 132 174 217 272 331 390
#     4  10  23  44  68  95 132 177 222 270 328 390
#     4  11  22  42  67  94 131 177 224 273 328 394
#     4  12  25  40  70  98 130 168 219 279 329 391
#     4  10  23  41  64  96 134 170 217 270 326 396
#     4  11  25  44  67  97 134 179 221 268 331 401
#     4  11  24  42  64 100 131 167 218 274 336 386
#     4  12  24  41  69  98 133 172 220 278 332 393
#
# _framework density 20.821286000000001
#
# number of rings (size 3 to 8) (size 9 to 14) (size 15 to 20)
#    0.000    1.000    3.750    3.000    7.000    0.500 
#    0.000    1.875    0.000    0.000    0.000    0.000 
#    0.000    0.000    0.000    0.000    0.000    0.000 
#
# Total GULP energy -396559.257134 kJ/mol
# GULP energy per Si atom -12392.476785 kJ/mol
# Density = 2.077390 g / cm^3
# Si number density = 20.821286 Si / 1000 Ang^3
#
#
#
# Elastic Constant Matrix: (Units=GPa)
#
#
# Indices 1 2 3 4 5 6 
#
# 1 100.7724 42.3628 22.7336 0.0000 0.0000 0.0000
# 2 42.3628 112.0626 27.6232 0.0000 0.0000 0.0000
# 3 22.7336 27.6232 89.5010 0.0000 0.0000 0.0000
# 4 0.0000 0.0000 0.0000 75.1461 0.0000 0.0000
# 5 0.0000 0.0000 0.0000 0.0000 9309.6602 0.0000
# 6 0.0000 0.0000 0.0000 0.0000 0.0000 25.8172
#
#
#
# Elastic Compliance Matrix: (Units=1/GPa)
#
#
# Indices 1 2 3 4 5 6 
#
# 1 0.012058 -0.004117 -0.001792 0.000000 0.000000 0.000000
# 2 -0.004117 0.011064 -0.002369 0.000000 0.000000 0.000000
# 3 -0.001792 -0.002369 0.012359 0.000000 0.000000 0.000000
# 4 0.000000 0.000000 0.000000 0.013307 0.000000 0.000000
# 5 0.000000 0.000000 0.000000 0.000000 0.000107 0.000000
# 6 0.000000 0.000000 0.000000 0.000000 0.000000 0.038734
#
#
# Mechanical properties :
#
#
# Convention : Reuss Voigt Hill
#
# Bulk Modulus (GPa) = 52.83846 54.19724 53.51785
# Shear Modulus (GPa) = 45.25119 1896.09914 970.67516
#
# Velocity S-wave (km/s) = 4.66694 30.20979 21.61494
# Velocity P-wave (km/s) = 7.38056 35.25518 25.46959
#
# Compressibility (1/GPa) = 0.01892561
#
# Stress axis : x y z
#
# Youngs Moduli (GPa) = 82.93112 90.38561 80.90954
#
# Poissons Ratio (x) = 0.37208 0.14502
# Poissons Ratio (y) = 0.34139 0.19168
# Poissons Ratio (z) = 0.14864 0.21413
#
# Static dielectric constant tensor:
#      x y z
#    x 3.550030 0.000000 0.000000 
#    y 0.000000 3.644860 0.000000 
#    z 0.000000 0.000000 3.660020 
# 
# 
# High freq. dielectric constant tensor:
#      x y z
#    x 1.806410 0.000000 0.000000 
#    y 0.000000 1.826560 0.000000 
#    z 0.000000 0.000000 1.813460 
# 
# From -- ./inp_files/17895.got.cif
#   From: 2010.03.12/outbox.cif.g09.slc.cpg/sg40_9_cif.got.tgz:17895.got - 2010.04.14 01:38:03.
