data_PCOD8184069
_publ_section_title
;
Structure prediction by ZEFSAII (Michael W. Deem and Ramdas Pophale) SiO2 
 PCOD8184069
Probable space group: A M A 2
;
_chemical_formula_sum "Si O2"
_cell_formula_units_Z 48
_cell_length_a 17.555094
_cell_length_b 15.346482
_cell_length_c 8.466592
_cell_angle_alpha 90.000000
_cell_angle_beta 90.000000
_cell_angle_gamma 90.000000
_cell_volume 2280.975526
_symmetry_space_group_name_H-M "A M A 2"
_symmetry_group_IT_number 40
_symmetry_cell_setting 'orthorhombic'
loop_
_space_group_symop_operation_xyz
x,y,z
-x,-y,z
1/2-x,y,z
1/2+x,-y,z
x,1/2+y,1/2+z
-x,1/2-y,1/2+z
1/2-x,1/2+y,1/2+z
1/2+x,1/2-y,1/2+z
loop_
_atom_site_type_symbol
_atom_site_label
_atom_site_fract_x
_atom_site_fract_y
_atom_site_fract_z
Si Si1 0.070554 0.882150 0.389460
Si Si2 0.577368 0.800724 0.739084
Si Si3 0.094516 0.359354 0.249143
Si Si4 0.907668 0.440801 0.764763
Si Si5 0.916959 0.470222 0.399428
Si Si6 0.165316 0.208257 0.421189
O O1 0.098382 0.788512 0.327711
O O2 0.096088 0.889808 0.569473
O O3 0.981640 0.902631 0.356470
O O4 0.115374 0.960207 0.304151
O O5 0.489211 0.818955 0.776501
O O6 0.619268 0.887923 0.804748
O O7 0.600937 0.787397 0.557549
O O8 0.125779 0.439269 0.360479
O O9 0.152919 0.283378 0.292038
O O10 0.921653 0.438203 0.578518
O O11 0.838476 0.381017 0.821247
O O12 0.000000 0.500000 0.335094
O O13 0.250000 0.215778 0.494639
#
# Coordination Sequence:
#
# PCOD8184069 Si02
#       6
#     8   8   8   8   8   8
#     4  11  21  35  66  97 125 161 223 270 314 371
#     4  11  21  38  64  97 125 171 214 272 316 387
#     4  11  21  39  64  96 127 171 216 270 317 388
#     4  11  21  38  61  99 129 165 210 271 324 386
#     4  10  21  35  65  98 129 154 215 271 324 372
#     4  12  26  43  64  96 137 175 214 271 340 393
#
# _framework density 21.043628999999999
#
# number of rings (size 3 to 8) (size 9 to 14) (size 15 to 20)
#    0.000    1.000    5.000    3.000    7.000    0.000 
#    0.000   10.000    0.000    0.000    0.000    0.000 
#    0.000    0.000    0.000    0.000    0.000    0.000 
#
# Total GULP energy -297340.801299 kJ/mol
# GULP energy per Si atom -12389.200054 kJ/mol
# Density = 2.099573 g / cm^3
# Si number density = 21.043629 Si / 1000 Ang^3
#
#
#
# Elastic Constant Matrix: (Units=GPa)
#
#
# Indices 1 2 3 4 5 6 
#
# 1 44.5544 33.1163 19.5256 0.0000 0.0000 0.0000
# 2 33.1163 174.6238 40.2688 0.0000 0.0000 0.0000
# 3 19.5256 40.2688 104.7975 0.0000 0.0000 0.0000
# 4 0.0000 0.0000 0.0000 46.6149 0.0000 0.0000
# 5 0.0000 0.0000 0.0000 0.0000 6.9923 0.0000
# 6 0.0000 0.0000 0.0000 0.0000 0.0000 9.1427
#
#
#
# Elastic Compliance Matrix: (Units=1/GPa)
#
#
# Indices 1 2 3 4 5 6 
#
# 1 0.027178 -0.004374 -0.003383 0.000000 0.000000 0.000000
# 2 -0.004374 0.006987 -0.001870 0.000000 0.000000 0.000000
# 3 -0.003383 -0.001870 0.010891 0.000000 0.000000 0.000000
# 4 0.000000 0.000000 0.000000 0.021452 0.000000 0.000000
# 5 0.000000 0.000000 0.000000 0.000000 0.143015 0.000000
# 6 0.000000 0.000000 0.000000 0.000000 0.000000 0.109377
#
#
# Mechanical properties :
#
#
# Convention : Reuss Voigt Hill
#
# Bulk Modulus (GPa) = 38.75589 56.64413 47.70001
# Shear Modulus (GPa) = 14.41939 27.95431 21.18685
#
# Velocity S-wave (km/s) = 2.62050 3.64867 3.17646
# Velocity P-wave (km/s) = 5.25480 6.68777 6.01412
#
# Compressibility (1/GPa) = 0.02580253
#
# Stress axis : x y z
#
# Youngs Moduli (GPa) = 36.79424 143.11645 91.81842
#
# Poissons Ratio (x) = 0.62600 0.31063
# Poissons Ratio (y) = 0.16094 0.17170
# Poissons Ratio (z) = 0.12448 0.26762
#
# Static dielectric constant tensor:
#      x y z
#    x 3.221700 0.000000 0.000000 
#    y 0.000000 4.460840 0.000000 
#    z 0.000000 0.000000 3.685010 
# 
# 
# High freq. dielectric constant tensor:
#      x y z
#    x 1.752330 0.000000 0.000000 
#    y 0.000000 1.860280 0.000000 
#    z 0.000000 0.000000 1.830140 
# 
# From -- ./inp_files/7473.got.cif
#   From: 2010.03.12/outbox.cif.g09.slc.cpg/sg40_4_cif.got.tgz:7473.got - 2010.04.14 01:38:03.
