data_PCOD8184726
_publ_section_title
;
Structure prediction by ZEFSAII (Michael W. Deem and Ramdas Pophale) SiO2 
 PCOD8184726
Probable space group: A B A 2
;
_chemical_formula_sum "Si O2"
_cell_formula_units_Z 48
_cell_length_a 16.925363
_cell_length_b 28.138054
_cell_length_c 5.217458
_cell_angle_alpha 90.000000
_cell_angle_beta 90.000000
_cell_angle_gamma 90.000000
_cell_volume 2484.797562
_symmetry_space_group_name_H-M "A B A 2"
_symmetry_group_IT_number 41
_symmetry_cell_setting 'orthorhombic'
loop_
_space_group_symop_operation_xyz
x,y,z
-x,-y,z
1/2-x,y,1/2+z
1/2+x,-y,1/2+z
x,1/2+y,1/2+z
-x,1/2-y,1/2+z
1/2-x,1/2+y,z
1/2+x,1/2-y,z
loop_
_atom_site_type_symbol
_atom_site_label
_atom_site_fract_x
_atom_site_fract_y
_atom_site_fract_z
Si Si1 0.299573 0.795630 0.404090
Si Si2 0.406445 0.490757 0.848178
Si Si3 0.406726 0.881134 0.351034
Si Si4 0.579635 0.969087 0.847960
Si Si5 0.506643 0.868585 0.851288
Si Si6 0.454411 0.735296 0.412564
O O1 0.263929 0.785778 0.683200
O O2 0.328132 0.850182 0.386585
O O3 0.371618 0.760041 0.358702
O O4 0.500000 0.500000 0.814266
O O5 0.384338 0.435998 0.882853
O O6 0.368758 0.511965 0.587572
O O7 0.371644 0.520519 0.087636
O O8 0.469589 0.866636 0.567978
O O9 0.439170 0.871301 0.066944
O O10 0.563776 0.913489 0.880052
O O11 0.500000 0.000000 0.814222
O O12 0.557979 0.821347 0.892883
O O13 0.483662 0.748048 0.697155
#
# Coordination Sequence:
#
# PCOD8184726 Si02
#       6
#     8   8   8   8   8   8
#     4  12  26  43  59  84 121 167 202 247 317 387
#     4  10  16  28  46  82 118 147 166 226 291 331
#     4  12  20  33  58  82 119 150 193 241 297 369
#     4  10  16  26  46  78 126 139 170 223 302 334
#     4  12  19  32  55  88 115 146 191 246 306 335
#     4  12  23  40  62  88 116 151 205 265 303 347
#
# _framework density 19.31747
#
# number of rings (size 3 to 8) (size 9 to 14) (size 15 to 20)
#    0.000    0.667   10.000    2.000    0.000    0.000 
#    0.000    0.000    0.000    0.000    0.000    7.000 
#    0.000    0.000    0.000    0.000    0.000    0.000 
#
# Total GULP energy -297571.378004 kJ/mol
# GULP energy per Si atom -12398.807417 kJ/mol
# Density = 1.927350 g / cm^3
# Si number density = 19.317470 Si / 1000 Ang^3
#
#
#
# Elastic Constant Matrix: (Units=GPa)
#
#
# Indices 1 2 3 4 5 6 
#
# 1 40.3512 26.1999 7.4225 0.0000 0.0000 0.0000
# 2 26.1999 138.5135 8.4745 0.0000 0.0000 0.0000
# 3 7.4225 8.4745 124.4324 0.0000 0.0000 0.0000
# 4 0.0000 0.0000 0.0000 28.4869 0.0000 0.0000
# 5 0.0000 0.0000 0.0000 0.0000 21.9481 0.0000
# 6 0.0000 0.0000 0.0000 0.0000 0.0000 18.9504
#
#
#
# Elastic Compliance Matrix: (Units=1/GPa)
#
#
# Indices 1 2 3 4 5 6 
#
# 1 0.028472 -0.005304 -0.001337 0.000000 0.000000 0.000000
# 2 -0.005304 0.008238 -0.000245 0.000000 0.000000 0.000000
# 3 -0.001337 -0.000245 0.008133 0.000000 0.000000 0.000000
# 4 0.000000 0.000000 0.000000 0.035104 0.000000 0.000000
# 5 0.000000 0.000000 0.000000 0.000000 0.045562 0.000000
# 6 0.000000 0.000000 0.000000 0.000000 0.000000 0.052769
#
#
# Mechanical properties :
#
#
# Convention : Reuss Voigt Hill
#
# Bulk Modulus (GPa) = 32.18376 43.05455 37.61916
# Shear Modulus (GPa) = 24.70281 31.29043 27.99662
#
# Velocity S-wave (km/s) = 3.57988 4.02904 3.81108
# Velocity P-wave (km/s) = 5.81240 6.63178 6.23556
#
# Compressibility (1/GPa) = 0.03107157
#
# Stress axis : x y z
#
# Youngs Moduli (GPa) = 35.12219 121.39347 122.95707
#
# Poissons Ratio (x) = 0.64383 0.16442
# Poissons Ratio (y) = 0.18628 0.03008
# Poissons Ratio (z) = 0.04696 0.02970
#
# Static dielectric constant tensor:
#      x y z
#    x 2.980560 0.000000 0.000000 
#    y 0.000000 3.827690 0.000000 
#    z 0.000000 0.000000 4.813970 
# 
# 
# High freq. dielectric constant tensor:
#      x y z
#    x 1.675280 0.000000 0.000000 
#    y 0.000000 1.766020 0.000000 
#    z 0.000000 0.000000 1.792440 
# 
# From -- ./inp_files/295.got.cif
#   From: 2010.03.12/outbox.cif.g09.slc.cpg/sg41_1_cif.got.tgz:295.got - 2010.04.14 01:55:53.
