data_PCOD8184892
_publ_section_title
;
Structure prediction by ZEFSAII (Michael W. Deem and Ramdas Pophale) SiO2 
 PCOD8184892
Probable space group: A B A 2
;
_chemical_formula_sum "Si O2"
_cell_formula_units_Z 64
_cell_length_a 20.674523
_cell_length_b 13.043865
_cell_length_c 12.986567
_cell_angle_alpha 90.000000
_cell_angle_beta 90.000000
_cell_angle_gamma 90.000000
_cell_volume 3502.161377
_symmetry_space_group_name_H-M "A B A 2"
_symmetry_group_IT_number 41
_symmetry_cell_setting 'orthorhombic'
loop_
_space_group_symop_operation_xyz
x,y,z
-x,-y,z
1/2-x,y,1/2+z
1/2+x,-y,1/2+z
x,1/2+y,1/2+z
-x,1/2-y,1/2+z
1/2-x,1/2+y,z
1/2+x,1/2-y,z
loop_
_atom_site_type_symbol
_atom_site_label
_atom_site_fract_x
_atom_site_fract_y
_atom_site_fract_z
Si Si1 0.805979 0.600877 0.120230
Si Si2 0.806757 0.938574 0.115811
Si Si3 0.817149 0.271148 0.449244
Si Si4 0.429573 0.983958 0.712770
Si Si5 0.081547 0.155913 0.385586
Si Si6 0.295379 0.232360 0.787645
Si Si7 0.570091 0.505077 0.547155
Si Si8 0.059088 0.323662 0.874610
O O1 0.750777 0.517958 0.106820
O O2 0.797212 0.661434 0.226093
O O3 0.875072 0.543047 0.125783
O O4 0.802321 0.675022 0.022183
O O5 0.873613 0.001004 0.128631
O O6 0.794328 0.863890 0.211457
O O7 0.810695 0.877142 0.009515
O O8 0.768909 0.270156 0.354169
O O9 0.889903 0.264290 0.404092
O O10 0.422080 0.067520 0.801328
O O11 0.500000 0.000000 0.659952
O O12 0.423796 0.870156 0.762002
O O13 0.142189 0.229341 0.362415
O O14 0.090582 0.104990 0.498621
O O15 0.014351 0.220793 0.378465
O O16 0.500000 0.500000 0.604522
O O17 0.561436 0.583767 0.454454
#
# Coordination Sequence:
#
# PCOD8184892 Si02
#       8
#     8   8   8   8   8   8   8   8
#     4  10  20  33  50  73 100 131 166 202 242 288
#     4  10  20  33  50  73 100 131 166 202 242 288
#     4  10  20  33  50  73 100 131 166 202 242 288
#     4   8  14  27  48  70  92 123 162 201 242 289
#     4   8  14  27  48  70  92 123 162 201 242 289
#     4  10  20  33  50  73 100 131 166 202 242 288
#     4   8  14  27  48  70  92 123 162 201 242 289
#     4   8  14  27  48  70  92 123 162 201 242 289
#
# _framework density 18.274428
#
# number of rings (size 3 to 8) (size 9 to 14) (size 15 to 20)
#    0.000    3.000    0.000    3.000    0.000    3.000 
#    0.000    2.500    0.000    9.000    0.000    0.000 
#    0.000    0.000    0.000    0.000    0.000    0.000 
#
# Total GULP energy -396657.068997 kJ/mol
# GULP energy per Si atom -12395.533406 kJ/mol
# Density = 1.823283 g / cm^3
# Si number density = 18.274428 Si / 1000 Ang^3
#
#
#
# Elastic Constant Matrix: (Units=GPa)
#
#
# Indices 1 2 3 4 5 6 
#
# 1 58.4431 11.5293 -3.5173 0.0000 0.0000 0.0000
# 2 11.5293 52.6915 6.6428 0.0000 0.0000 0.0000
# 3 -3.5173 6.6428 38.7453 0.0000 0.0000 0.0000
# 4 0.0000 0.0000 0.0000 80.2747 0.0000 0.0000
# 5 0.0000 0.0000 0.0000 0.0000 31.1078 0.0000
# 6 0.0000 0.0000 0.0000 0.0000 0.0000 31.3753
#
#
#
# Elastic Compliance Matrix: (Units=1/GPa)
#
#
# Indices 1 2 3 4 5 6 
#
# 1 0.018093 -0.004258 0.002373 0.000000 0.000000 0.000000
# 2 -0.004258 0.020400 -0.003884 0.000000 0.000000 0.000000
# 3 0.002373 -0.003884 0.026691 0.000000 0.000000 0.000000
# 4 0.000000 0.000000 0.000000 0.012457 0.000000 0.000000
# 5 0.000000 0.000000 0.000000 0.000000 0.032146 0.000000
# 6 0.000000 0.000000 0.000000 0.000000 0.000000 0.031872
#
#
# Mechanical properties :
#
#
# Convention : Reuss Voigt Hill
#
# Bulk Modulus (GPa) = 18.64109 19.90994 19.27551
# Shear Modulus (GPa) = 29.22599 37.56655 33.39627
#
# Velocity S-wave (km/s) = 4.00344 4.53889 4.27955
# Velocity P-wave (km/s) = 5.62075 6.19575 5.91524
#
# Compressibility (1/GPa) = 0.05364494
#
# Stress axis : x y z
#
# Youngs Moduli (GPa) = 55.26862 49.02018 37.46603
#
# Poissons Ratio (x) = 0.20873 -0.08889
# Poissons Ratio (y) = 0.23534 0.14552
# Poissons Ratio (z) = -0.13113 0.19040
#
# Static dielectric constant tensor:
#      x y z
#    x 3.859590 0.000000 0.000000 
#    y 0.000000 0.291060 0.000000 
#    z 0.000000 0.000000 3.170230 
# 
# 
# High freq. dielectric constant tensor:
#      x y z
#    x 1.728920 0.000000 0.000000 
#    y 0.000000 1.679110 0.000000 
#    z 0.000000 0.000000 1.677610 
# 
# From -- ./inp_files/8901.got.cif
#   From: 2010.03.12/outbox.cif.g09.slc.cpg/sg41_5_cif.got.tgz:8901.got - 2010.04.14 01:55:53.
