data_PCOD8184950
_publ_section_title
;
Structure prediction by ZEFSAII (Michael W. Deem and Ramdas Pophale) SiO2 
 PCOD8184950
Probable space group: A B A 2
;
_chemical_formula_sum "Si O2"
_cell_formula_units_Z 56
_cell_length_a 14.319577
_cell_length_b 8.730373
_cell_length_c 20.942892
_cell_angle_alpha 90.000000
_cell_angle_beta 90.000000
_cell_angle_gamma 90.000000
_cell_volume 2618.180846
_symmetry_space_group_name_H-M "A B A 2"
_symmetry_group_IT_number 41
_symmetry_cell_setting 'orthorhombic'
loop_
_space_group_symop_operation_xyz
x,y,z
-x,-y,z
1/2-x,y,1/2+z
1/2+x,-y,1/2+z
x,1/2+y,1/2+z
-x,1/2-y,1/2+z
1/2-x,1/2+y,z
1/2+x,1/2-y,z
loop_
_atom_site_type_symbol
_atom_site_label
_atom_site_fract_x
_atom_site_fract_y
_atom_site_fract_z
Si Si1 0.371512 0.086628 0.424540
Si Si2 0.800991 0.512203 0.686866
Si Si3 0.000000 0.500000 0.532465
Si Si4 0.119038 0.297393 0.219928
Si Si5 0.242343 0.838689 0.477480
Si Si6 0.307692 0.583000 0.569923
Si Si7 0.946857 0.231524 0.135687
Si Si8 0.000000 0.000000 0.814094
O O1 0.434181 0.101159 0.487448
O O2 0.310860 0.239936 0.424493
O O3 0.425975 0.087315 0.358234
O O4 0.313051 0.931567 0.432804
O O5 0.702372 0.582572 0.709483
O O6 0.834720 0.371020 0.732693
O O7 0.782842 0.448675 0.614838
O O8 0.881568 0.642839 0.687789
O O9 0.946391 0.620887 0.575327
O O10 0.050661 0.270063 0.159497
O O11 0.052020 0.366874 0.274432
O O12 0.292722 0.737094 0.530389
O O13 0.174599 0.949435 0.518550
O O14 0.397653 0.608761 0.615442
#
# Coordination Sequence:
#
# PCOD8184950 Si02
#       8
#     8   8   4   8   8   8   8   4
#     4  10  23  44  69  92 133 180 232 287 347 405
#     4  12  23  42  67 102 146 184 224 285 361 424
#     4  11  20  38  64 100 140 179 206 286 358 411
#     4  12  27  44  68 100 134 190 238 286 348 417
#     4  10  20  37  68 101 129 176 224 276 353 416
#     4  11  19  35  65 106 144 171 215 269 349 443
#     4  12  22  39  68 104 149 179 220 285 351 429
#     4  11  28  50  68  90 134 187 254 294 342 413
#
# _framework density 21.388897
#
# number of rings (size 3 to 8) (size 9 to 14) (size 15 to 20)
#    0.000    0.857    5.714    1.714    2.000    1.143 
#    0.000    0.000    6.286    0.000    0.000    0.000 
#    0.000    0.000    0.000    0.000    0.000    0.000 
#
# Total GULP energy -347005.876476 kJ/mol
# GULP energy per Si atom -12393.067017 kJ/mol
# Density = 2.134021 g / cm^3
# Si number density = 21.388897 Si / 1000 Ang^3
#
#
#
# Elastic Constant Matrix: (Units=GPa)
#
#
# Indices 1 2 3 4 5 6 
#
# 1 124.5380 60.6345 36.2014 0.0000 0.0000 0.0000
# 2 60.6345 114.0575 37.7956 0.0000 0.0000 0.0000
# 3 36.2014 37.7956 79.3623 0.0000 0.0000 0.0000
# 4 0.0000 0.0000 0.0000 -5.6283 0.0000 0.0000
# 5 0.0000 0.0000 0.0000 0.0000 36.1856 0.0000
# 6 0.0000 0.0000 0.0000 0.0000 0.0000 41.1945
#
#
#
# Elastic Compliance Matrix: (Units=1/GPa)
#
#
# Indices 1 2 3 4 5 6 
#
# 1 0.011309 -0.005109 -0.002726 0.000000 0.000000 0.000000
# 2 -0.005109 0.012718 -0.003727 0.000000 0.000000 0.000000
# 3 -0.002726 -0.003727 0.015619 0.000000 0.000000 0.000000
# 4 0.000000 0.000000 0.000000 -0.177673 0.000000 0.000000
# 5 0.000000 0.000000 0.000000 0.000000 0.027635 0.000000
# 6 0.000000 0.000000 0.000000 0.000000 0.000000 0.024275
#
#
# Mechanical properties :
#
#
# Convention : Reuss Voigt Hill
#
# Bulk Modulus (GPa) = 60.51865 65.24674 62.88270
# Shear Modulus (GPa) = -86.97800 26.57210 -30.20295
#
# Velocity S-wave (km/s) = -6.38383 3.52850 -3.76185
# Velocity P-wave (km/s) = 5.09724 6.86816 3.25497
#
# Compressibility (1/GPa) = 0.01652383
#
# Stress axis : x y z
#
# Youngs Moduli (GPa) = 88.42145 78.62615 64.02655
#
# Poissons Ratio (x) = 0.40170 0.17452
# Poissons Ratio (y) = 0.45175 0.23860
# Poissons Ratio (z) = 0.24101 0.29300
#
# Static dielectric constant tensor:
#      x y z
#    x 3.683670 0.000000 0.000000 
#    y 0.000000 4.309180 0.000000 
#    z 0.000000 0.000000 3.563150 
# 
# 
# High freq. dielectric constant tensor:
#      x y z
#    x 1.849960 0.000000 0.000000 
#    y 0.000000 1.851430 0.000000 
#    z 0.000000 0.000000 1.804220 
# 
# From -- ./inp_files/11575.got.cif
#   From: 2010.03.12/outbox.cif.g09.slc.cpg/sg41_6_cif.got.tgz:11575.got - 2010.04.14 01:55:53.
