data_PCOD8184966
_publ_section_title
;
Structure prediction by ZEFSAII (Michael W. Deem and Ramdas Pophale) SiO2 
 PCOD8184966
Probable space group: A B A 2
;
_chemical_formula_sum "Si O2"
_cell_formula_units_Z 64
_cell_length_a 9.386252
_cell_length_b 20.121448
_cell_length_c 16.805608
_cell_angle_alpha 90.000000
_cell_angle_beta 90.000000
_cell_angle_gamma 90.000000
_cell_volume 3173.990845
_symmetry_space_group_name_H-M "A B A 2"
_symmetry_group_IT_number 41
_symmetry_cell_setting 'orthorhombic'
loop_
_space_group_symop_operation_xyz
x,y,z
-x,-y,z
1/2-x,y,1/2+z
1/2+x,-y,1/2+z
x,1/2+y,1/2+z
-x,1/2-y,1/2+z
1/2-x,1/2+y,z
1/2+x,1/2-y,z
loop_
_atom_site_type_symbol
_atom_site_label
_atom_site_fract_x
_atom_site_fract_y
_atom_site_fract_z
Si Si1 0.161476 0.986209 0.670320
Si Si2 0.907432 0.066790 0.077691
Si Si3 0.544868 0.702259 0.665122
Si Si4 0.732564 0.368453 0.659651
Si Si5 0.404185 0.326374 0.948567
Si Si6 0.492920 0.339749 0.219171
Si Si7 0.825100 0.271611 0.521018
Si Si8 0.783502 0.126081 0.783433
O O1 0.254195 0.052912 0.665918
O O2 0.243416 0.941758 0.605420
O O3 0.171731 0.948827 0.756696
O O4 0.000000 0.000000 0.644754
O O5 0.984718 0.115169 0.139852
O O6 0.891612 0.104950 0.995311
O O7 0.000000 0.000000 0.066011
O O8 0.435028 0.641624 0.673460
O O9 0.455337 0.763502 0.701821
O O10 0.591991 0.718552 0.575801
O O11 0.683198 0.678801 0.713324
O O12 0.834411 0.340514 0.731766
O O13 0.768996 0.332952 0.575010
O O14 0.366111 0.348807 0.859886
O O15 0.566167 0.299298 0.954030
O O16 0.302092 0.267021 0.977726
O O17 0.391146 0.368648 0.289333
#
# Coordination Sequence:
#
# PCOD8184966 Si02
#       8
#     8   8   8   8   8   8   8   8
#     4  11  22  39  65  93 123 165 225 269 310 379
#     4  11  20  40  66  90 123 171 218 263 316 390
#     4  11  20  39  66  94 120 159 222 269 318 371
#     4  11  19  37  70  95 115 162 228 274 308 367
#     4  12  25  42  62  98 140 174 206 268 347 397
#     4  10  20  38  63  93 117 160 218 263 314 376
#     4  11  22  42  67  96 126 170 222 268 321 389
#     4  11  26  38  60  95 133 173 201 267 332 396
#
# _framework density 20.163888
#
# number of rings (size 3 to 8) (size 9 to 14) (size 15 to 20)
#    0.000    1.000    6.250    3.000    1.750    0.500 
#    0.000    0.000    2.750    0.000    0.000    0.000 
#    0.000    0.000    0.000    0.000    0.000    0.000 
#
# Total GULP energy -396431.346961 kJ/mol
# GULP energy per Si atom -12388.479593 kJ/mol
# Density = 2.011799 g / cm^3
# Si number density = 20.163888 Si / 1000 Ang^3
#
#
#
# Elastic Constant Matrix: (Units=GPa)
#
#
# Indices 1 2 3 4 5 6 
#
# 1 92.1356 23.9175 21.4231 0.0000 0.0000 0.0000
# 2 23.9175 126.4594 36.2823 0.0000 0.0000 0.0000
# 3 21.4231 36.2823 68.4402 0.0000 0.0000 0.0000
# 4 0.0000 0.0000 0.0000 27.7811 0.0000 0.0000
# 5 0.0000 0.0000 0.0000 0.0000 20.9804 0.0000
# 6 0.0000 0.0000 0.0000 0.0000 0.0000 34.0286
#
#
#
# Elastic Compliance Matrix: (Units=1/GPa)
#
#
# Indices 1 2 3 4 5 6 
#
# 1 0.011911 -0.001395 -0.002989 0.000000 0.000000 0.000000
# 2 -0.001395 0.009490 -0.004594 0.000000 0.000000 0.000000
# 3 -0.002989 -0.004594 0.017982 0.000000 0.000000 0.000000
# 4 0.000000 0.000000 0.000000 0.035996 0.000000 0.000000
# 5 0.000000 0.000000 0.000000 0.000000 0.047664 0.000000
# 6 0.000000 0.000000 0.000000 0.000000 0.000000 0.029387
#
#
# Mechanical properties :
#
#
# Convention : Reuss Voigt Hill
#
# Bulk Modulus (GPa) = 46.67052 50.03121 48.35086
# Shear Modulus (GPa) = 28.16478 30.25218 29.20848
#
# Velocity S-wave (km/s) = 3.74142 3.87759 3.81012
# Velocity P-wave (km/s) = 6.46994 6.70177 6.58688
#
# Compressibility (1/GPa) = 0.02142680
#
# Stress axis : x y z
#
# Youngs Moduli (GPa) = 83.95844 105.37827 55.61053
#
# Poissons Ratio (x) = 0.14703 0.16620
# Poissons Ratio (y) = 0.11714 0.25548
# Poissons Ratio (z) = 0.25092 0.48411
#
# Static dielectric constant tensor:
#      x y z
#    x 3.881280 0.000000 0.000000 
#    y 0.000000 3.979710 0.000000 
#    z 0.000000 0.000000 3.187070 
# 
# 
# High freq. dielectric constant tensor:
#      x y z
#    x 1.815240 0.000000 0.000000 
#    y 0.000000 1.806850 0.000000 
#    z 0.000000 0.000000 1.727670 
# 
# From -- ./inp_files/9845.got.cif
#   From: 2010.03.12/outbox.cif.g09.slc.cpg/sg41_5_cif.got.tgz:9845.got - 2010.04.14 01:55:53.
