data_PCOD8184356
_publ_section_title
;
Structure prediction by ZEFSAII (Michael W. Deem and Ramdas Pophale) SiO2 
 PCOD8184356
Probable space group: A M A 2
;
_chemical_formula_sum "Si O2"
_cell_formula_units_Z 60
_cell_length_a 9.074835
_cell_length_b 12.017747
_cell_length_c 25.859455
_cell_angle_alpha 90.000000
_cell_angle_beta 90.000000
_cell_angle_gamma 90.000000
_cell_volume 2820.208141
_symmetry_space_group_name_H-M "A M A 2"
_symmetry_group_IT_number 40
_symmetry_cell_setting 'orthorhombic'
loop_
_space_group_symop_operation_xyz
x,y,z
-x,-y,z
1/2-x,y,z
1/2+x,-y,z
x,1/2+y,1/2+z
-x,1/2-y,1/2+z
1/2-x,1/2+y,1/2+z
1/2+x,1/2-y,1/2+z
loop_
_atom_site_type_symbol
_atom_site_label
_atom_site_fract_x
_atom_site_fract_y
_atom_site_fract_z
Si Si1 0.416722 0.691716 0.451900
Si Si2 0.500000 0.000000 0.024651
Si Si3 0.074173 0.832337 0.847611
Si Si4 0.086812 0.602114 0.802771
Si Si5 0.923721 0.398068 0.247712
Si Si6 0.583006 0.798582 0.196766
Si Si7 0.088652 0.312890 0.597431
Si Si8 0.074604 0.623137 0.017296
O O1 0.250000 0.726010 0.437219
O O2 0.405134 0.587481 0.491112
O O3 0.506601 0.642966 0.403370
O O4 0.500249 0.802857 0.472004
O O5 0.399138 0.918737 0.059292
O O6 0.250000 0.850292 0.847335
O O7 0.023480 0.710012 0.830272
O O8 0.998015 0.907347 0.804410
O O9 0.250000 0.583928 0.822202
O O10 0.077595 0.605462 0.740143
O O11 0.000000 0.500000 0.825759
O O12 0.750000 0.409677 0.252350
O O13 0.000000 0.500000 0.216884
O O14 0.965174 0.291835 0.214368
O O15 0.750000 0.751104 0.193712
O O16 0.533044 0.841923 0.140768
O O17 0.250000 0.298988 0.622739
O O18 0.047097 0.196113 0.569186
O O19 0.250000 0.610005 0.006566
O O20 0.000000 0.500000 0.021696
#
# Coordination Sequence:
#
# PCOD8184356 Si02
#       8
#     8   4   8   8   8   8   8   8
#     4  11  23  40  64  92 123 164 209 256 316 376
#     4  10  24  42  62  92 130 162 212 268 314 376
#     4  10  22  40  59  86 123 159 203 253 304 364
#     4   9  20  37  57  83 116 155 195 245 297 353
#     4  11  22  39  62  88 120 159 202 251 304 366
#     4  10  22  39  58  87 122 157 199 249 305 364
#     4  10  22  40  62  89 121 162 207 256 315 376
#     4  10  22  41  63  88 120 157 203 258 313 371
#
# _framework density 21.275024999999999
#
# number of rings (size 3 to 8) (size 9 to 14) (size 15 to 20)
#    0.000    1.867    0.000    4.000    1.867    9.067 
#    0.000    2.667    0.000    0.000    0.000    0.000 
#    0.000    0.000    0.000    0.000    0.000    0.000 
#
# Total GULP energy -371731.692155 kJ/mol
# GULP energy per Si atom -12391.056405 kJ/mol
# Density = 2.122660 g / cm^3
# Si number density = 21.275025 Si / 1000 Ang^3
#
#
#
# Elastic Constant Matrix: (Units=GPa)
#
#
# Indices 1 2 3 4 5 6 
#
# 1 139.0223 38.2400 29.6124 0.0000 0.0000 0.0000
# 2 38.2400 119.8665 12.3918 0.0000 0.0000 0.0000
# 3 29.6124 12.3918 79.0849 0.0000 0.0000 0.0000
# 4 0.0000 0.0000 0.0000 -1.2299 0.0000 0.0000
# 5 0.0000 0.0000 0.0000 0.0000 23.3070 0.0000
# 6 0.0000 0.0000 0.0000 0.0000 0.0000 29.9643
#
#
#
# Elastic Compliance Matrix: (Units=1/GPa)
#
#
# Indices 1 2 3 4 5 6 
#
# 1 0.008449 -0.002407 -0.002786 0.000000 0.000000 0.000000
# 2 -0.002407 0.009166 -0.000535 0.000000 0.000000 0.000000
# 3 -0.002786 -0.000535 0.013772 0.000000 0.000000 0.000000
# 4 0.000000 0.000000 0.000000 -0.813080 0.000000 0.000000
# 5 0.000000 0.000000 0.000000 0.000000 0.042906 0.000000
# 6 0.000000 0.000000 0.000000 0.000000 0.000000 0.033373
#
#
# Mechanical properties :
#
#
# Convention : Reuss Voigt Hill
#
# Bulk Modulus (GPa) = 50.17689 55.38469 52.78079
# Shear Modulus (GPa) = -7.27468 27.59025 10.15778
#
# Velocity S-wave (km/s) = -1.85116 3.60507 2.18744
# Velocity P-wave (km/s) = 4.36658 6.58923 5.58950
#
# Compressibility (1/GPa) = 0.01992949
#
# Stress axis : x y z
#
# Youngs Moduli (GPa) = 118.36073 109.10024 72.61245
#
# Poissons Ratio (x) = 0.26264 0.20232
# Poissons Ratio (y) = 0.28493 0.03883
# Poissons Ratio (z) = 0.32979 0.05835
#
# Static dielectric constant tensor:
#      x y z
#    x 3.805260 0.000000 0.000000 
#    y 0.000000 3.572950 0.000000 
#    z 0.000000 0.000000 3.755100 
# 
# 
# High freq. dielectric constant tensor:
#      x y z
#    x 1.840920 0.000000 0.000000 
#    y 0.000000 1.840310 0.000000 
#    z 0.000000 0.000000 1.822950 
# 
# From -- ./inp_files/25390.got.cif
#   From: 2010.03.12/outbox.cif.g09.slc.cpg/sg40_13_cif.got.tgz:25390.got - 2010.04.14 01:38:03.
