data_PCOD8184474
_publ_section_title
;
Structure prediction by ZEFSAII (Michael W. Deem and Ramdas Pophale) SiO2 
 PCOD8184474
Probable space group: A M A 2
;
_chemical_formula_sum "Si O2"
_cell_formula_units_Z 48
_cell_length_a 23.947441
_cell_length_b 17.241454
_cell_length_c 5.173278
_cell_angle_alpha 90.000000
_cell_angle_beta 90.000000
_cell_angle_gamma 90.000000
_cell_volume 2135.988041
_symmetry_space_group_name_H-M "A M A 2"
_symmetry_group_IT_number 40
_symmetry_cell_setting 'orthorhombic'
loop_
_space_group_symop_operation_xyz
x,y,z
-x,-y,z
1/2-x,y,z
1/2+x,-y,z
x,1/2+y,1/2+z
-x,1/2-y,1/2+z
1/2-x,1/2+y,1/2+z
1/2+x,1/2-y,1/2+z
loop_
_atom_site_type_symbol
_atom_site_label
_atom_site_fract_x
_atom_site_fract_y
_atom_site_fract_z
Si Si1 0.399625 0.893332 0.021730
Si Si2 0.313275 0.280627 0.279988
Si Si3 0.865804 0.473081 0.221332
Si Si4 0.624154 0.374486 0.715301
Si Si5 0.506109 0.300570 0.604690
Si Si6 0.309770 0.414273 0.906097
O O1 0.363387 0.938353 0.237579
O O2 0.360122 0.819762 0.959506
O O3 0.458302 0.865303 0.134419
O O4 0.410236 0.956984 0.794592
O O5 0.250000 0.285609 0.395778
O O6 0.329328 0.191334 0.249637
O O7 0.315085 0.326000 0.007779
O O8 0.852358 0.425014 0.478777
O O9 0.886181 0.418982 0.985805
O O10 0.810693 0.522323 0.139523
O O11 0.565335 0.340406 0.627940
O O12 0.498653 0.235120 0.819734
O O13 0.250000 0.423219 0.762069
#
# Coordination Sequence:
#
# PCOD8184474 Si02
#       6
#     8   8   8   8   8   8
#     4  11  23  47  72 101 141 186 238 282 349 422
#     4  10  23  42  72 104 139 183 237 290 341 414
#     4  11  26  46  67 100 144 179 230 285 350 422
#     4  12  25  47  68 108 139 182 235 289 360 408
#     4  12  26  45  75 103 139 181 234 300 348 416
#     4  10  22  45  73 101 139 190 238 281 345 423
#
# _framework density 22.472035999999999
#
# number of rings (size 3 to 8) (size 9 to 14) (size 15 to 20)
#    0.000    1.000    3.333    2.500    4.667    2.667 
#    3.000    0.000    0.000    0.000    0.000    0.000 
#    0.000    0.000    0.000    0.000    0.000    0.000 
#
# Total GULP energy -297376.324914 kJ/mol
# GULP energy per Si atom -12390.680205 kJ/mol
# Density = 2.242089 g / cm^3
# Si number density = 22.472036 Si / 1000 Ang^3
#
#
#
# Elastic Constant Matrix: (Units=GPa)
#
#
# Indices 1 2 3 4 5 6 
#
# 1 97.0467 34.4094 17.8234 0.0000 0.0000 0.0000
# 2 34.4094 127.6612 43.3807 0.0000 0.0000 0.0000
# 3 17.8234 43.3807 102.2985 0.0000 0.0000 0.0000
# 4 0.0000 0.0000 0.0000 34.0795 0.0000 0.0000
# 5 0.0000 0.0000 0.0000 0.0000 28.3211 0.0000
# 6 0.0000 0.0000 0.0000 0.0000 0.0000 7.8188
#
#
#
# Elastic Compliance Matrix: (Units=1/GPa)
#
#
# Indices 1 2 3 4 5 6 
#
# 1 0.011449 -0.002814 -0.000802 0.000000 0.000000 0.000000
# 2 -0.002814 0.009843 -0.003684 0.000000 0.000000 0.000000
# 3 -0.000802 -0.003684 0.011477 0.000000 0.000000 0.000000
# 4 0.000000 0.000000 0.000000 0.029343 0.000000 0.000000
# 5 0.000000 0.000000 0.000000 0.000000 0.035309 0.000000
# 6 0.000000 0.000000 0.000000 0.000000 0.000000 0.127897
#
#
# Mechanical properties :
#
#
# Convention : Reuss Voigt Hill
#
# Bulk Modulus (GPa) = 55.03160 57.58148 56.30654
# Shear Modulus (GPa) = 20.32725 29.47006 24.89866
#
# Velocity S-wave (km/s) = 3.01085 3.62527 3.33225
# Velocity P-wave (km/s) = 6.05219 6.57287 6.31790
#
# Compressibility (1/GPa) = 0.01817138
#
# Stress axis : x y z
#
# Youngs Moduli (GPa) = 87.34280 101.59028 87.12904
#
# Poissons Ratio (x) = 0.28583 0.06985
# Poissons Ratio (y) = 0.24574 0.32098
# Poissons Ratio (z) = 0.07002 0.37426
#
# Static dielectric constant tensor:
#      x y z
#    x 4.040000 0.000000 0.000000 
#    y 0.000000 4.313570 0.000000 
#    z 0.000000 0.000000 4.213820 
# 
# 
# High freq. dielectric constant tensor:
#      x y z
#    x 1.870360 0.000000 0.000000 
#    y 0.000000 1.900770 0.000000 
#    z 0.000000 0.000000 1.890180 
# 
# From -- ./inp_files/2736.got.cif
#   From: 2010.03.12/outbox.cif.g09.slc.cpg/sg40_2_cif.got.tgz:2736.got - 2010.04.14 01:38:03.
