data_PCOD8184120
_publ_section_title
;
Structure prediction by ZEFSAII (Michael W. Deem and Ramdas Pophale) SiO2 
 PCOD8184120
Probable space group: A M A 2
;
_chemical_formula_sum "Si O2"
_cell_formula_units_Z 64
_cell_length_a 19.908174
_cell_length_b 18.354893
_cell_length_c 8.866162
_cell_angle_alpha 90.000000
_cell_angle_beta 90.000000
_cell_angle_gamma 90.000000
_cell_volume 3239.805567
_symmetry_space_group_name_H-M "A M A 2"
_symmetry_group_IT_number 40
_symmetry_cell_setting 'orthorhombic'
loop_
_space_group_symop_operation_xyz
x,y,z
-x,-y,z
1/2-x,y,z
1/2+x,-y,z
x,1/2+y,1/2+z
-x,1/2-y,1/2+z
1/2-x,1/2+y,1/2+z
1/2+x,1/2-y,1/2+z
loop_
_atom_site_type_symbol
_atom_site_label
_atom_site_fract_x
_atom_site_fract_y
_atom_site_fract_z
Si Si1 0.050638 0.705813 0.983590
Si Si2 0.060283 0.699357 0.334311
Si Si3 0.328657 0.962911 0.477407
Si Si4 0.327313 0.947131 0.824830
Si Si5 0.066407 0.044046 0.977759
Si Si6 0.173333 0.813974 0.317963
Si Si7 0.440609 0.054306 0.330651
Si Si8 0.325331 0.798750 0.973706
O O1 0.037057 0.631274 0.897654
O O2 0.126253 0.730807 0.945088
O O3 0.000321 0.767966 0.929571
O O4 0.039895 0.696925 0.160533
O O5 0.072902 0.617434 0.383998
O O6 0.127479 0.745957 0.365225
O O7 0.250000 0.977824 0.449150
O O8 0.346981 0.963374 0.653246
O O9 0.350279 0.885534 0.407342
O O10 0.370392 0.027457 0.400273
O O11 0.250000 0.965445 0.857452
O O12 0.341915 0.862257 0.855422
O O13 0.369445 0.995497 0.939535
O O14 0.066843 0.063094 0.152917
O O15 0.000000 0.000000 0.930141
O O16 0.250000 0.793552 0.359086
O O17 0.164860 0.831551 0.141216
O O18 0.500000 0.000000 0.375201
O O19 0.250000 0.768932 0.951507
#
# Coordination Sequence:
#
# PCOD8184120 Si02
#       8
#     8   8   8   8   8   8   8   8
#     4  11  23  38  58  84 114 148 187 234 285 338
#     4  11  23  38  58  84 114 148 187 234 285 338
#     4  10  21  37  59  87 116 147 186 231 279 334
#     4  10  21  37  59  87 116 147 186 231 279 334
#     4  11  24  40  58  82 113 150 192 236 283 336
#     4   9  19  37  59  82 111 147 184 224 274 331
#     4  11  24  40  58  82 113 150 192 236 283 336
#     4   9  19  37  59  82 111 147 184 224 274 331
#
# _framework density 19.754270999999999
#
# number of rings (size 3 to 8) (size 9 to 14) (size 15 to 20)
#    0.000    1.750    0.000    3.750    0.000   12.500 
#    0.000    2.500    0.000    0.000    0.000    0.000 
#    0.000    0.000    0.000    0.000    0.000    0.000 
#
# Total GULP energy -396990.432446 kJ/mol
# GULP energy per Si atom -12405.951014 kJ/mol
# Density = 1.970931 g / cm^3
# Si number density = 19.754271 Si / 1000 Ang^3
#
#
#
# Elastic Constant Matrix: (Units=GPa)
#
#
# Indices 1 2 3 4 5 6 
#
# 1 77.9669 26.1361 30.2760 0.0000 0.0000 0.0000
# 2 26.1361 55.9363 13.2824 0.0000 0.0000 0.0000
# 3 30.2760 13.2824 63.1299 0.0000 0.0000 0.0000
# 4 0.0000 0.0000 0.0000 35.9738 0.0000 0.0000
# 5 0.0000 0.0000 0.0000 0.0000 30.9314 0.0000
# 6 0.0000 0.0000 0.0000 0.0000 0.0000 38.0163
#
#
#
# Elastic Compliance Matrix: (Units=1/GPa)
#
#
# Indices 1 2 3 4 5 6 
#
# 1 0.017827 -0.006631 -0.007154 0.000000 0.000000 0.000000
# 2 -0.006631 0.021284 -0.001298 0.000000 0.000000 0.000000
# 3 -0.007154 -0.001298 0.019545 0.000000 0.000000 0.000000
# 4 0.000000 0.000000 0.000000 0.027798 0.000000 0.000000
# 5 0.000000 0.000000 0.000000 0.000000 0.032330 0.000000
# 6 0.000000 0.000000 0.000000 0.000000 0.000000 0.026304
#
#
# Mechanical properties :
#
#
# Convention : Reuss Voigt Hill
#
# Bulk Modulus (GPa) = 35.10132 37.38025 36.24079
# Shear Modulus (GPa) = 27.06358 29.47356 28.26857
#
# Velocity S-wave (km/s) = 3.70538 3.86684 3.78697
# Velocity P-wave (km/s) = 6.00949 6.23701 6.12431
#
# Compressibility (1/GPa) = 0.02848896
#
# Stress axis : x y z
#
# Youngs Moduli (GPa) = 56.09508 46.98381 51.16511
#
# Poissons Ratio (x) = 0.31154 0.36605
# Poissons Ratio (y) = 0.37195 0.06642
# Poissons Ratio (z) = 0.40132 0.06099
#
# Static dielectric constant tensor:
#      x y z
#    x 3.764760 0.000000 0.000000 
#    y 0.000000 3.478780 0.000000 
#    z 0.000000 0.000000 3.668300 
# 
# 
# High freq. dielectric constant tensor:
#      x y z
#    x 1.781620 0.000000 0.000000 
#    y 0.000000 1.767990 0.000000 
#    z 0.000000 0.000000 1.778770 
# 
# From -- ./inp_files/8456.got.cif
#   From: 2010.03.12/outbox.cif.g09.slc.cpg/sg40_5_cif.got.tgz:8456.got - 2010.04.14 01:38:03.
