data_PCOD8184140
_publ_section_title
;
Structure prediction by ZEFSAII (Michael W. Deem and Ramdas Pophale) SiO2 
 PCOD8184140
Probable space group: A M A 2
;
_chemical_formula_sum "Si O2"
_cell_formula_units_Z 56
_cell_length_a 18.812909
_cell_length_b 8.496928
_cell_length_c 17.076146
_cell_angle_alpha 90.000000
_cell_angle_beta 90.000000
_cell_angle_gamma 90.000000
_cell_volume 2729.654950
_symmetry_space_group_name_H-M "A M A 2"
_symmetry_group_IT_number 40
_symmetry_cell_setting 'orthorhombic'
loop_
_space_group_symop_operation_xyz
x,y,z
-x,-y,z
1/2-x,y,z
1/2+x,-y,z
x,1/2+y,1/2+z
-x,1/2-y,1/2+z
1/2-x,1/2+y,1/2+z
1/2+x,1/2-y,1/2+z
loop_
_atom_site_type_symbol
_atom_site_label
_atom_site_fract_x
_atom_site_fract_y
_atom_site_fract_z
Si Si1 0.458443 0.652710 0.720150
Si Si2 0.332719 0.040947 0.137017
Si Si3 0.328977 0.240596 0.989493
Si Si4 0.951421 0.732041 0.383803
Si Si5 0.579452 0.457825 0.025205
Si Si6 0.603978 0.402077 0.350975
Si Si7 0.402737 0.207630 0.678600
O O1 0.500000 0.500000 0.690098
O O2 0.379427 0.668765 0.684906
O O3 0.449337 0.643117 0.813403
O O4 0.510864 0.789938 0.689202
O O5 0.250000 0.049623 0.160980
O O6 0.345618 0.093558 0.047417
O O7 0.364125 0.871513 0.158990
O O8 0.250000 0.304668 0.005228
O O9 0.380738 0.388835 0.995045
O O10 0.332744 0.168480 0.902760
O O11 0.922075 0.816926 0.461378
O O12 0.899249 0.589637 0.360592
O O13 0.032341 0.671802 0.388740
O O14 0.500000 0.500000 0.045778
O O15 0.617089 0.402470 0.105476
O O16 0.623901 0.360657 0.261432
#
# Coordination Sequence:
#
# PCOD8184140 Si02
#       7
#     8   8   8   8   8   8   8
#     4   9  19  36  61  95 126 155 200 257 311 365
#     4  10  22  41  63  86 124 167 209 253 311 381
#     4  11  25  43  62  89 130 171 210 259 319 382
#     4  10  21  37  65  91 128 157 206 262 311 371
#     4  12  23  38  65  98 126 162 210 265 316 376
#     4  10  22  41  62  92 126 166 207 258 318 377
#     4  10  23  38  65  93 123 161 210 265 315 368
#
# _framework density 20.515414
#
# number of rings (size 3 to 8) (size 9 to 14) (size 15 to 20)
#    0.000    1.714    1.429    2.143   10.000    1.143 
#    0.000    1.429    0.000    0.000    0.000    0.000 
#    0.000    0.000    0.000    0.000    0.000    0.000 
#
# Total GULP energy -346974.129417 kJ/mol
# GULP energy per Si atom -12391.933193 kJ/mol
# Density = 2.046872 g / cm^3
# Si number density = 20.515414 Si / 1000 Ang^3
#
#
#
# Elastic Constant Matrix: (Units=GPa)
#
#
# Indices 1 2 3 4 5 6 
#
# 1 85.3608 24.5672 32.2399 0.0000 0.0000 0.0000
# 2 24.5672 74.6574 45.9003 0.0000 0.0000 0.0000
# 3 32.2399 45.9003 146.2145 0.0000 0.0000 0.0000
# 4 0.0000 0.0000 0.0000 38.5165 0.0000 0.0000
# 5 0.0000 0.0000 0.0000 0.0000 22.4045 0.0000
# 6 0.0000 0.0000 0.0000 0.0000 0.0000 16.5924
#
#
#
# Elastic Compliance Matrix: (Units=1/GPa)
#
#
# Indices 1 2 3 4 5 6 
#
# 1 0.013371 -0.003206 -0.001942 0.000000 0.000000 0.000000
# 2 -0.003206 0.017367 -0.004745 0.000000 0.000000 0.000000
# 3 -0.001942 -0.004745 0.008757 0.000000 0.000000 0.000000
# 4 0.000000 0.000000 0.000000 0.025963 0.000000 0.000000
# 5 0.000000 0.000000 0.000000 0.000000 0.044634 0.000000
# 6 0.000000 0.000000 0.000000 0.000000 0.000000 0.060268
#
#
# Mechanical properties :
#
#
# Convention : Reuss Voigt Hill
#
# Bulk Modulus (GPa) = 50.73782 56.84971 53.79377
# Shear Modulus (GPa) = 25.41742 29.07104 27.24423
#
# Velocity S-wave (km/s) = 3.52368 3.76843 3.64811
# Velocity P-wave (km/s) = 6.42965 6.83416 6.63498
#
# Compressibility (1/GPa) = 0.01970916
#
# Stress axis : x y z
#
# Youngs Moduli (GPa) = 74.78806 57.58122 114.19466
#
# Poissons Ratio (x) = 0.18461 0.22174
# Poissons Ratio (y) = 0.23978 0.54184
# Poissons Ratio (z) = 0.14522 0.27322
#
# Static dielectric constant tensor:
#      x y z
#    x 3.619210 0.000000 0.000000 
#    y 0.000000 3.709930 0.000000 
#    z 0.000000 0.000000 3.788750 
# 
# 
# High freq. dielectric constant tensor:
#      x y z
#    x 1.779300 0.000000 0.000000 
#    y 0.000000 1.802970 0.000000 
#    z 0.000000 0.000000 1.812120 
# 
# From -- ./inp_files/18207.got.cif
#   From: 2010.03.12/outbox.cif.g09.slc.cpg/sg40_10_cif.got.tgz:18207.got - 2010.04.14 01:38:03.
