data_PCOD8184492
_publ_section_title
;
Structure prediction by ZEFSAII (Michael W. Deem and Ramdas Pophale) SiO2 
 PCOD8184492
Probable space group: A M A 2
;
_chemical_formula_sum "Si O2"
_cell_formula_units_Z 48
_cell_length_a 25.798176
_cell_length_b 10.046089
_cell_length_c 9.891841
_cell_angle_alpha 90.000000
_cell_angle_beta 90.000000
_cell_angle_gamma 90.000000
_cell_volume 2563.676070
_symmetry_space_group_name_H-M "A M A 2"
_symmetry_group_IT_number 40
_symmetry_cell_setting 'orthorhombic'
loop_
_space_group_symop_operation_xyz
x,y,z
-x,-y,z
1/2-x,y,z
1/2+x,-y,z
x,1/2+y,1/2+z
-x,1/2-y,1/2+z
1/2-x,1/2+y,1/2+z
1/2+x,1/2-y,1/2+z
loop_
_atom_site_type_symbol
_atom_site_label
_atom_site_fract_x
_atom_site_fract_y
_atom_site_fract_z
Si Si1 0.851211 0.407887 0.071270
Si Si2 0.017753 0.857284 0.837014
Si Si3 0.862055 0.629232 0.287574
Si Si4 0.189309 0.874104 0.070725
Si Si5 0.971423 0.863344 0.554018
Si Si6 0.689630 0.405138 0.782998
O O1 0.841935 0.520216 0.182222
O O2 0.825818 0.271542 0.125451
O O3 0.910645 0.381923 0.034597
O O4 0.822794 0.453168 0.934320
O O5 0.076313 0.867681 0.786115
O O6 0.983129 0.818320 0.707150
O O7 0.008235 0.749185 0.952370
O O8 0.000000 0.000000 0.895418
O O9 0.841387 0.590253 0.434833
O O10 0.841233 0.772651 0.242416
O O11 0.250000 0.880502 0.039318
O O12 0.171758 0.978774 0.183056
O O13 0.000000 0.000000 0.517337
O O14 0.750000 0.373493 0.769257
#
# Coordination Sequence:
#
# PCOD8184492 Si02
#       6
#     8   8   8   8   8   8
#     4  11  21  41  63  86 127 163 198 254 310 359
#     4  11  23  42  60  90 123 158 209 254 301 367
#     4  11  21  41  63  86 127 163 198 254 310 359
#     4  10  23  41  64  95 125 160 209 253 306 374
#     4  11  23  42  60  90 123 158 209 254 301 367
#     4  10  23  41  64  95 125 160 209 253 306 374
#
# _framework density 18.723115
#
# number of rings (size 3 to 8) (size 9 to 14) (size 15 to 20)
#    0.000    1.333    6.667    2.000    0.000    7.333 
#    0.000    3.333    0.000    0.000    0.000    0.000 
#    0.000    0.000    0.000    0.000    0.000    0.000 
#
# Total GULP energy -297688.185221 kJ/mol
# GULP energy per Si atom -12403.674384 kJ/mol
# Density = 1.868050 g / cm^3
# Si number density = 18.723115 Si / 1000 Ang^3
#
#
#
# Elastic Constant Matrix: (Units=GPa)
#
#
# Indices 1 2 3 4 5 6 
#
# 1 61.6172 11.5986 1.4456 0.0000 0.0000 0.0000
# 2 11.5986 122.7999 88.2190 0.0000 0.0000 0.0000
# 3 1.4456 88.2190 92.4860 0.0000 0.0000 0.0000
# 4 0.0000 0.0000 0.0000 34.6264 0.0000 0.0000
# 5 0.0000 0.0000 0.0000 0.0000 -176.9284 0.0000
# 6 0.0000 0.0000 0.0000 0.0000 0.0000 -39.1160
#
#
#
# Elastic Compliance Matrix: (Units=1/GPa)
#
#
# Indices 1 2 3 4 5 6 
#
# 1 0.016980 -0.004490 0.004017 0.000000 0.000000 0.000000
# 2 -0.004490 0.027060 -0.025741 0.000000 0.000000 0.000000
# 3 0.004017 -0.025741 0.035303 0.000000 0.000000 0.000000
# 4 0.000000 0.000000 0.000000 0.028880 0.000000 0.000000
# 5 0.000000 0.000000 0.000000 0.000000 -0.005652 0.000000
# 6 0.000000 0.000000 0.000000 0.000000 0.000000 -0.025565
#
#
# Mechanical properties :
#
#
# Convention : Reuss Voigt Hill
#
# Bulk Modulus (GPa) = 37.15304 53.26994 45.21149
# Shear Modulus (GPa) = 36.12590 -24.57427 5.77582
#
# Velocity S-wave (km/s) = 4.39735 -3.62679 1.75828
# Velocity P-wave (km/s) = 6.75787 3.31287 5.32183
#
# Compressibility (1/GPa) = 0.02691570
#
# Stress axis : x y z
#
# Youngs Moduli (GPa) = 58.89241 36.95530 28.32607
#
# Poissons Ratio (x) = 0.16592 -0.11379
# Poissons Ratio (y) = 0.26441 0.72914
# Poissons Ratio (z) = -0.23658 0.95127
#
# Static dielectric constant tensor:
#      x y z
#    x 3.898630 0.000000 0.000000 
#    y 0.000000 3.676690 0.000000 
#    z 0.000000 0.000000 3.438780 
# 
# 
# High freq. dielectric constant tensor:
#      x y z
#    x 1.741690 0.000000 0.000000 
#    y 0.000000 1.733420 0.000000 
#    z 0.000000 0.000000 1.727080 
# 
# From -- ./inp_files/8716.got.cif
#   From: 2010.03.12/outbox.cif.g09.slc.cpg/sg40_5_cif.got.tgz:8716.got - 2010.04.14 01:38:03.
