data_PCOD8184174
_publ_section_title
;
Structure prediction by ZEFSAII (Michael W. Deem and Ramdas Pophale) SiO2 
 PCOD8184174
Probable space group: A M A 2
;
_chemical_formula_sum "Si O2"
_cell_formula_units_Z 48
_cell_length_a 8.598020
_cell_length_b 15.124664
_cell_length_c 18.306367
_cell_angle_alpha 90.000000
_cell_angle_beta 90.000000
_cell_angle_gamma 90.000000
_cell_volume 2380.599572
_symmetry_space_group_name_H-M "A M A 2"
_symmetry_group_IT_number 40
_symmetry_cell_setting 'orthorhombic'
loop_
_space_group_symop_operation_xyz
x,y,z
-x,-y,z
1/2-x,y,z
1/2+x,-y,z
x,1/2+y,1/2+z
-x,1/2-y,1/2+z
1/2-x,1/2+y,1/2+z
1/2+x,1/2-y,1/2+z
loop_
_atom_site_type_symbol
_atom_site_label
_atom_site_fract_x
_atom_site_fract_y
_atom_site_fract_z
Si Si1 0.432057 0.240564 0.647600
Si Si2 0.931826 0.094251 0.751673
Si Si3 0.933636 0.093669 0.375735
Si Si4 0.432816 0.763450 0.494217
Si Si5 0.431788 0.905821 0.921480
Si Si6 0.933006 0.906406 0.218973
O O1 0.250000 0.257068 0.653172
O O2 0.480425 0.168961 0.707087
O O3 0.479020 0.207369 0.567499
O O4 0.520044 0.332727 0.660708
O O5 0.750000 0.096639 0.733522
O O6 0.965315 0.112664 0.836525
O O7 0.000000 0.000000 0.727820
O O8 0.750000 0.086640 0.368738
O O9 0.986751 0.167480 0.432870
O O10 0.001315 0.121378 0.297668
O O11 0.000000 0.000000 0.402386
O O12 0.250000 0.767643 0.508248
O O13 0.480193 0.665836 0.469819
O O14 0.250000 0.902966 0.939208
O O15 0.500000 0.000000 0.944843
O O16 0.750000 0.914322 0.224764
O O17 0.000000 0.000000 0.192495
#
# Coordination Sequence:
#
# PCOD8184174 Si02
#       6
#     8   8   8   8   8   8
#     4  12  25  40  59  85 119 157 197 240 291 348
#     4  10  21  39  63  90 119 153 195 241 289 342
#     4  10  21  38  62  89 117 151 193 239 287 341
#     4  11  24  40  58  84 119 156 195 239 289 345
#     4  10  21  38  62  89 116 150 192 238 288 343
#     4  11  22  39  63  89 118 151 193 241 290 345
#
# _framework density 20.162987000000001
#
# number of rings (size 3 to 8) (size 9 to 14) (size 15 to 20)
#    0.000    1.333    0.000    7.000    0.000    8.667 
#    0.000    5.000    0.000    0.000    0.000    0.000 
#    0.000    0.000    0.000    0.000    0.000    0.000 
#
# Total GULP energy -297774.263208 kJ/mol
# GULP energy per Si atom -12407.260967 kJ/mol
# Density = 2.011710 g / cm^3
# Si number density = 20.162987 Si / 1000 Ang^3
#
#
#
# Elastic Constant Matrix: (Units=GPa)
#
#
# Indices 1 2 3 4 5 6 
#
# 1 88.4870 23.9327 21.3623 0.0000 0.0000 0.0000
# 2 23.9327 80.5714 17.4385 0.0000 0.0000 0.0000
# 3 21.3623 17.4385 45.2493 0.0000 0.0000 0.0000
# 4 0.0000 0.0000 0.0000 -1.8875 0.0000 0.0000
# 5 0.0000 0.0000 0.0000 0.0000 34.7418 0.0000
# 6 0.0000 0.0000 0.0000 0.0000 0.0000 34.5101
#
#
#
# Elastic Compliance Matrix: (Units=1/GPa)
#
#
# Indices 1 2 3 4 5 6 
#
# 1 0.013322 -0.002832 -0.005198 0.000000 0.000000 0.000000
# 2 -0.002832 0.014143 -0.004113 0.000000 0.000000 0.000000
# 3 -0.005198 -0.004113 0.026139 0.000000 0.000000 0.000000
# 4 0.000000 0.000000 0.000000 -0.529789 0.000000 0.000000
# 5 0.000000 0.000000 0.000000 0.000000 0.028784 0.000000
# 6 0.000000 0.000000 0.000000 0.000000 0.000000 0.028977
#
#
# Mechanical properties :
#
#
# Convention : Reuss Voigt Hill
#
# Bulk Modulus (GPa) = 34.10992 37.75275 35.93134
# Shear Modulus (GPa) = -13.00845 23.57782 5.28469
#
# Velocity S-wave (km/s) = -2.54276 3.42330 1.62070
# Velocity P-wave (km/s) = 2.88669 5.86428 4.62184
#
# Compressibility (1/GPa) = 0.02931698
#
# Stress axis : x y z
#
# Youngs Moduli (GPa) = 75.06416 70.70690 38.25700
#
# Poissons Ratio (x) = 0.20025 0.19885
# Poissons Ratio (y) = 0.21259 0.15737
# Poissons Ratio (z) = 0.39017 0.29085
#
# Static dielectric constant tensor:
#      x y z
#    x 3.742280 0.000000 0.000000 
#    y 0.000000 3.783910 0.000000 
#    z 0.000000 0.000000 3.641790 
# 
# 
# High freq. dielectric constant tensor:
#      x y z
#    x 1.805370 0.000000 0.000000 
#    y 0.000000 1.798540 0.000000 
#    z 0.000000 0.000000 1.784660 
# 
# From -- ./inp_files/19192.got.cif
#   From: 2010.03.12/outbox.cif.g09.slc.cpg/sg40_10_cif.got.tgz:19192.got - 2010.04.14 01:38:03.
