data_PCOD8184000
_publ_section_title
;
Structure prediction by ZEFSAII (Michael W. Deem and Ramdas Pophale) SiO2 
 PCOD8184000
Probable space group: A M A 2
;
_chemical_formula_sum "Si O2"
_cell_formula_units_Z 36
_cell_length_a 9.671097
_cell_length_b 22.239707
_cell_length_c 7.887215
_cell_angle_alpha 90.000000
_cell_angle_beta 90.000000
_cell_angle_gamma 90.000000
_cell_volume 1696.400845
_symmetry_space_group_name_H-M "A M A 2"
_symmetry_group_IT_number 40
_symmetry_cell_setting 'orthorhombic'
loop_
_space_group_symop_operation_xyz
x,y,z
-x,-y,z
1/2-x,y,z
1/2+x,-y,z
x,1/2+y,1/2+z
-x,1/2-y,1/2+z
1/2-x,1/2+y,1/2+z
1/2+x,1/2-y,1/2+z
loop_
_atom_site_type_symbol
_atom_site_label
_atom_site_fract_x
_atom_site_fract_y
_atom_site_fract_z
Si Si1 0.750000 0.128644 0.944281
Si Si2 0.515380 0.640084 0.886550
Si Si3 0.250000 0.043253 0.801573
Si Si4 0.750000 0.583559 0.099988
Si Si5 0.982815 0.935374 0.074945
Si Si6 0.750000 0.340304 0.091208
Si Si7 0.250000 0.782972 0.235100
O O1 0.750000 0.137428 0.740783
O O2 0.623081 0.087632 0.995963
O O3 0.750000 0.192388 0.040681
O O4 0.439024 0.609189 0.725873
O O5 0.613608 0.694677 0.830983
O O6 0.610969 0.591174 0.986965
O O7 0.391964 0.669789 0.990417
O O8 0.250000 0.092244 0.655304
O O9 0.250000 0.979472 0.703237
O O10 0.119170 0.055882 0.918363
O O11 0.000000 0.000000 0.163483
O O12 0.750000 0.289313 0.236867
#
# Coordination Sequence:
#
# PCOD8184000 Si02
#       7
#     4   8   4   4   8   4   4
#     4  10  20  39  67  85 124 173 221 257 323 397
#     4  10  25  42  68  95 134 174 220 272 331 387
#     4  12  26  37  64 101 138 163 218 274 334 389
#     4  11  22  43  62 101 131 174 209 273 342 392
#     4  11  21  40  61  93 129 178 208 258 335 405
#     4  12  26  41  68 105 128 167 229 288 305 380
#     4   9  24  48  63  92 131 185 217 256 344 392
#
# _framework density 21.221399000000002
#
# number of rings (size 3 to 8) (size 9 to 14) (size 15 to 20)
#    0.000    1.333    2.222    2.667    3.111    5.333 
#    0.000    3.333    0.000    0.000    0.000    0.000 
#    0.000    0.000    0.000    0.000    0.000    0.000 
#
# Total GULP energy -223104.282017 kJ/mol
# GULP energy per Si atom -12394.682334 kJ/mol
# Density = 2.117310 g / cm^3
# Si number density = 21.221399 Si / 1000 Ang^3
#
#
#
# Elastic Constant Matrix: (Units=GPa)
#
#
# Indices 1 2 3 4 5 6 
#
# 1 133.4844 41.4185 41.2028 0.0000 0.0000 0.0000
# 2 41.4185 84.7863 34.1803 0.0000 0.0000 0.0000
# 3 41.2028 34.1803 104.0417 0.0000 0.0000 0.0000
# 4 0.0000 0.0000 0.0000 30.2357 0.0000 0.0000
# 5 0.0000 0.0000 0.0000 0.0000 64.2364 0.0000
# 6 0.0000 0.0000 0.0000 0.0000 0.0000 21.1919
#
#
#
# Elastic Compliance Matrix: (Units=1/GPa)
#
#
# Indices 1 2 3 4 5 6 
#
# 1 0.009381 -0.003556 -0.002547 0.000000 0.000000 0.000000
# 2 -0.003556 0.014943 -0.003501 0.000000 0.000000 0.000000
# 3 -0.002547 -0.003501 0.011770 0.000000 0.000000 0.000000
# 4 0.000000 0.000000 0.000000 0.033073 0.000000 0.000000
# 5 0.000000 0.000000 0.000000 0.000000 0.015567 0.000000
# 6 0.000000 0.000000 0.000000 0.000000 0.000000 0.047188
#
#
# Mechanical properties :
#
#
# Convention : Reuss Voigt Hill
#
# Bulk Modulus (GPa) = 59.21806 61.76839 60.49323
# Shear Modulus (GPa) = 31.89609 36.83354 34.36481
#
# Velocity S-wave (km/s) = 3.88108 4.17067 4.02848
# Velocity P-wave (km/s) = 6.93175 7.23619 7.08561
#
# Compressibility (1/GPa) = 0.01688674
#
# Stress axis : x y z
#
# Youngs Moduli (GPa) = 106.59822 66.92209 84.95989
#
# Poissons Ratio (x) = 0.23797 0.21638
# Poissons Ratio (y) = 0.37906 0.29743
# Poissons Ratio (z) = 0.27149 0.23428
#
# Static dielectric constant tensor:
#      x y z
#    x 2.157810 0.000000 0.000000 
#    y 0.000000 3.701580 0.000000 
#    z 0.000000 0.000000 4.168970 
# 
# 
# High freq. dielectric constant tensor:
#      x y z
#    x 1.844400 0.000000 0.000000 
#    y 0.000000 1.819340 0.000000 
#    z 0.000000 0.000000 1.840420 
# 
# From -- ./inp_files/4155.got.cif
#   From: 2010.03.12/outbox.cif.g09.slc.cpg/sg40_3_cif.got.tgz:4155.got - 2010.04.14 01:38:03.
