data_PCOD8184671
_publ_section_title
;
Structure prediction by ZEFSAII (Michael W. Deem and Ramdas Pophale) SiO2 
 PCOD8184671
Probable space group: A M A 2
;
_chemical_formula_sum "Si O2"
_cell_formula_units_Z 40
_cell_length_a 16.153739
_cell_length_b 4.837526
_cell_length_c 22.059455
_cell_angle_alpha 90.000000
_cell_angle_beta 90.000000
_cell_angle_gamma 90.000000
_cell_volume 1723.816972
_symmetry_space_group_name_H-M "A M A 2"
_symmetry_group_IT_number 40
_symmetry_cell_setting 'orthorhombic'
loop_
_space_group_symop_operation_xyz
x,y,z
-x,-y,z
1/2-x,y,z
1/2+x,-y,z
x,1/2+y,1/2+z
-x,1/2-y,1/2+z
1/2-x,1/2+y,1/2+z
1/2+x,1/2-y,1/2+z
loop_
_atom_site_type_symbol
_atom_site_label
_atom_site_fract_x
_atom_site_fract_y
_atom_site_fract_z
Si Si1 0.094938 0.432213 0.832180
Si Si2 0.946452 0.250000 0.651004
Si Si3 0.594938 0.432213 0.969829
Si Si4 0.656145 0.420305 0.538432
Si Si5 0.156145 0.920305 0.763577
O O1 0.118685 0.500000 0.901004
O O2 0.154988 0.613796 0.790613
O O3 0.000000 0.500000 0.819212
O O4 0.888285 0.883780 0.813236
O O5 0.892157 0.413332 0.601755
O O6 0.892157 0.086668 0.700253
O O7 0.000000 0.500000 0.681136
O O8 0.000000 0.000000 0.620873
O O9 0.500000 0.500000 0.982797
O O10 0.611715 0.116220 0.988773
O O11 0.654988 0.613796 0.011395
O O12 0.750000 0.514685 0.550638
O O13 0.250000 0.014685 0.751370
#
# Coordination Sequence:
#
# PCOD8184671 Si02
#       5
#     8   8   8   8   8
#     4  11  24  43  67  95 130 174 221 266 321 394
#     4  12  25  44  69  94 130 178 226 270 325 398
#     4  11  24  43  67  95 130 174 221 266 321 394
#     4  12  25  42  66  98 133 168 216 275 333 387
#     4  12  25  42  66  98 133 168 216 275 333 387
#
# _framework density 23.204319000000002
#
# number of rings (size 3 to 8) (size 9 to 14) (size 15 to 20)
#    0.000    0.400    0.000   10.200    0.000    8.000 
#    0.000    6.000    0.000    0.000    0.000    0.000 
#    0.000    0.000    0.000    0.000    0.000    0.000 
#
# Total GULP energy -248085.043120 kJ/mol
# GULP energy per Si atom -12404.252156 kJ/mol
# Density = 2.315151 g / cm^3
# Si number density = 23.204319 Si / 1000 Ang^3
#
#
#
# Elastic Constant Matrix: (Units=GPa)
#
#
# Indices 1 2 3 4 5 6 
#
# 1 130.3555 23.5480 42.3095 0.0000 0.0000 0.0000
# 2 23.5480 93.6802 30.0695 0.0000 0.0000 0.0000
# 3 42.3095 30.0695 139.8611 0.0000 0.0000 0.0000
# 4 0.0000 0.0000 0.0000 51.5343 0.0000 0.0000
# 5 0.0000 0.0000 0.0000 0.0000 -25.0684 0.0000
# 6 0.0000 0.0000 0.0000 0.0000 0.0000 33.9620
#
#
#
# Elastic Compliance Matrix: (Units=1/GPa)
#
#
# Indices 1 2 3 4 5 6 
#
# 1 0.008683 -0.001439 -0.002317 0.000000 0.000000 0.000000
# 2 -0.001439 0.011704 -0.002081 0.000000 0.000000 0.000000
# 3 -0.002317 -0.002081 0.008298 0.000000 0.000000 0.000000
# 4 0.000000 0.000000 0.000000 0.019405 0.000000 0.000000
# 5 0.000000 0.000000 0.000000 0.000000 -0.039891 0.000000
# 6 0.000000 0.000000 0.000000 0.000000 0.000000 0.029445
#
#
# Mechanical properties :
#
#
# Convention : Reuss Voigt Hill
#
# Bulk Modulus (GPa) = 58.78449 61.75008 60.26729
# Shear Modulus (GPa) = 90.92591 29.95023 60.43807
#
# Velocity S-wave (km/s) = 6.26658 3.59655 5.10907
# Velocity P-wave (km/s) = 8.81750 6.62693 7.79950
#
# Compressibility (1/GPa) = 0.01701129
#
# Stress axis : x y z
#
# Youngs Moduli (GPa) = 115.16176 85.43880 120.50451
#
# Poissons Ratio (x) = 0.12293 0.27927
# Poissons Ratio (y) = 0.16570 0.25078
# Poissons Ratio (z) = 0.26689 0.17781
#
# Static dielectric constant tensor:
#      x y z
#    x 4.107720 0.000000 0.000000 
#    y 0.000000 4.129710 0.000000 
#    z 0.000000 0.000000 4.067310 
# 
# 
# High freq. dielectric constant tensor:
#      x y z
#    x 1.918460 0.000000 0.000000 
#    y 0.000000 1.931250 0.000000 
#    z 0.000000 0.000000 1.920240 
# 
# From -- ./inp_files/24679.got.cif
#   From: 2010.03.12/outbox.cif.g09.slc.cpg/sg40_13_cif.got.tgz:24679.got - 2010.04.14 01:38:03.
