data_PCOD8184083
_publ_section_title
;
Structure prediction by ZEFSAII (Michael W. Deem and Ramdas Pophale) SiO2 
 PCOD8184083
Probable space group: A M A 2
;
_chemical_formula_sum "Si O2"
_cell_formula_units_Z 56
_cell_length_a 17.788224
_cell_length_b 4.986143
_cell_length_c 30.416492
_cell_angle_alpha 90.000000
_cell_angle_beta 90.000000
_cell_angle_gamma 90.000000
_cell_volume 2697.779461
_symmetry_space_group_name_H-M "A M A 2"
_symmetry_group_IT_number 40
_symmetry_cell_setting 'orthorhombic'
loop_
_space_group_symop_operation_xyz
x,y,z
-x,-y,z
1/2-x,y,z
1/2+x,-y,z
x,1/2+y,1/2+z
-x,1/2-y,1/2+z
1/2-x,1/2+y,1/2+z
1/2+x,1/2-y,1/2+z
loop_
_atom_site_type_symbol
_atom_site_label
_atom_site_fract_x
_atom_site_fract_y
_atom_site_fract_z
Si Si1 0.587750 0.485031 0.340250
Si Si2 0.588691 0.487330 0.894188
Si Si3 0.915009 0.463770 0.524162
Si Si4 0.660776 0.959542 0.485378
Si Si5 0.834248 0.339898 0.251176
Si Si6 0.050713 0.235368 0.120016
Si Si7 0.834460 0.354242 0.694059
O O1 0.500000 0.500000 0.332439
O O2 0.612703 0.283358 0.379110
O O3 0.620804 0.365383 0.295872
O O4 0.612405 0.781997 0.355097
O O5 0.500000 0.500000 0.904606
O O6 0.634228 0.386244 0.936516
O O7 0.873010 0.749271 0.520601
O O8 0.914760 0.359097 0.573889
O O9 0.000000 0.500000 0.506562
O O10 0.870524 0.254825 0.494462
O O11 0.750000 0.958072 0.489204
O O12 0.750000 0.241711 0.262131
O O13 0.834179 0.632615 0.231197
O O14 0.869240 0.122880 0.216724
O O15 0.118752 0.268315 0.153691
O O16 0.000000 0.500000 0.114223
O O17 0.000000 0.000000 0.139805
O O18 0.750000 0.413090 0.676624
#
# Coordination Sequence:
#
# PCOD8184083 Si02
#       7
#     8   8   8   8   8   8   8
#     4  10  21  36  57  84 114 153 204 251 295 353
#     4  10  21  38  58  83 117 159 201 247 306 365
#     4  11  23  43  65  88 124 167 203 248 313 378
#     4  12  25  40  63  96 125 157 208 260 308 367
#     4  10  21  37  57  83 117 158 198 239 298 361
#     4  11  23  41  64  92 119 153 204 250 294 355
#     4  10  22  39  59  86 121 159 195 239 301 361
#
# _framework density 20.757812000000001
#
# number of rings (size 3 to 8) (size 9 to 14) (size 15 to 20)
#    0.000    1.429    0.000    6.000    0.000    5.143 
#    0.000    1.429    0.000    0.000    0.000    0.000 
#    0.000    0.000    0.000    0.000    0.000    0.000 
#
# Total GULP energy -347176.397899 kJ/mol
# GULP energy per Si atom -12399.157068 kJ/mol
# Density = 2.071057 g / cm^3
# Si number density = 20.757812 Si / 1000 Ang^3
#
#
#
# Elastic Constant Matrix: (Units=GPa)
#
#
# Indices 1 2 3 4 5 6 
#
# 1 102.3813 42.3551 56.6646 0.0000 0.0000 0.0000
# 2 42.3551 109.2135 23.4722 0.0000 0.0000 0.0000
# 3 56.6646 23.4722 102.1898 0.0000 0.0000 0.0000
# 4 0.0000 0.0000 0.0000 29.4589 0.0000 0.0000
# 5 0.0000 0.0000 0.0000 0.0000 -100.2864 0.0000
# 6 0.0000 0.0000 0.0000 0.0000 0.0000 31.8995
#
#
#
# Elastic Compliance Matrix: (Units=1/GPa)
#
#
# Indices 1 2 3 4 5 6 
#
# 1 0.015957 -0.004509 -0.007812 0.000000 0.000000 0.000000
# 2 -0.004509 0.010906 -0.000005 0.000000 0.000000 0.000000
# 3 -0.007812 -0.000005 0.014119 0.000000 0.000000 0.000000
# 4 0.000000 0.000000 0.000000 0.033946 0.000000 0.000000
# 5 0.000000 0.000000 0.000000 0.000000 -0.009971 0.000000
# 6 0.000000 0.000000 0.000000 0.000000 0.000000 0.031348
#
#
# Mechanical properties :
#
#
# Convention : Reuss Voigt Hill
#
# Bulk Modulus (GPa) = 61.24024 62.08537 61.66281
# Shear Modulus (GPa) = 39.55698 4.96724 22.26211
#
# Velocity S-wave (km/s) = 4.37010 1.54859 3.27841
# Velocity P-wave (km/s) = 7.41822 5.75950 6.64085
#
# Compressibility (1/GPa) = 0.01632913
#
# Stress axis : x y z
#
# Youngs Moduli (GPa) = 62.66930 91.69118 70.82781
#
# Poissons Ratio (x) = 0.41346 0.55333
# Poissons Ratio (y) = 0.28260 0.00033
# Poissons Ratio (z) = 0.48959 0.00042
#
# Static dielectric constant tensor:
#      x y z
#    x 3.897970 0.000000 0.000000 
#    y 0.000000 4.081950 0.000000 
#    z 0.000000 0.000000 3.573560 
# 
# 
# High freq. dielectric constant tensor:
#      x y z
#    x 1.801150 0.000000 0.000000 
#    y 0.000000 1.834080 0.000000 
#    z 0.000000 0.000000 1.810820 
# 
# From -- ./inp_files/26600.got.cif
#   From: 2010.03.12/outbox.cif.g09.slc.cpg/sg40_14_cif.got.tgz:26600.got - 2010.04.14 01:38:03.
