data_PCOD8184850
_publ_section_title
;
Structure prediction by ZEFSAII (Michael W. Deem and Ramdas Pophale) SiO2 
 PCOD8184850
Probable space group: A B A 2
;
_chemical_formula_sum "Si O2"
_cell_formula_units_Z 52
_cell_length_a 17.195836
_cell_length_b 9.104139
_cell_length_c 16.784269
_cell_angle_alpha 90.000000
_cell_angle_beta 90.000000
_cell_angle_gamma 90.000000
_cell_volume 2627.632384
_symmetry_space_group_name_H-M "A B A 2"
_symmetry_group_IT_number 41
_symmetry_cell_setting 'orthorhombic'
loop_
_space_group_symop_operation_xyz
x,y,z
-x,-y,z
1/2-x,y,1/2+z
1/2+x,-y,1/2+z
x,1/2+y,1/2+z
-x,1/2-y,1/2+z
1/2-x,1/2+y,z
1/2+x,1/2-y,z
loop_
_atom_site_type_symbol
_atom_site_label
_atom_site_fract_x
_atom_site_fract_y
_atom_site_fract_z
Si Si1 0.033043 0.259010 0.043170
Si Si2 0.742680 0.280694 0.469060
Si Si3 0.830165 0.509378 0.374683
Si Si4 0.611906 0.442009 0.553069
Si Si5 0.713003 0.033840 0.197082
Si Si6 0.175717 0.180615 0.130731
Si Si7 0.500000 0.000000 0.422802
O O1 0.076806 0.408364 0.015948
O O2 0.082933 0.179463 0.114018
O O3 0.948918 0.311609 0.072355
O O4 0.021896 0.142631 0.973502
O O5 0.810483 0.358163 0.418924
O O6 0.711827 0.138060 0.423869
O O7 0.671168 0.390490 0.485014
O O8 0.782076 0.245473 0.553845
O O9 0.796179 0.484094 0.287301
O O10 0.923484 0.535443 0.370149
O O11 0.646872 0.467167 0.640449
O O12 0.795793 0.980096 0.159088
O O13 0.703513 0.209714 0.200466
#
# Coordination Sequence:
#
# PCOD8184850 Si02
#       7
#     8   8   8   8   8   8   4
#     4  10  19  36  60  90 112 153 207 256 297 360
#     4  11  21  38  61  89 116 162 206 254 296 370
#     4  12  24  38  58  92 129 158 203 257 316 368
#     4   9  20  38  62  85 113 159 206 247 306 369
#     4  10  22  37  57  89 119 157 193 250 308 362
#     4  10  20  38  62  84 113 156 206 246 292 363
#     4  12  24  36  58  96 126 158 202 268 308 360
#
# _framework density 19.789677999999999
#
# number of rings (size 3 to 8) (size 9 to 14) (size 15 to 20)
#    0.000    1.538    3.077    3.692    0.000    2.462 
#    0.000    0.000    0.000    0.000    8.000    0.000 
#    0.000    0.000    0.000    0.000    0.000    0.000 
#
# Total GULP energy -322203.286628 kJ/mol
# GULP energy per Si atom -12392.434101 kJ/mol
# Density = 1.974464 g / cm^3
# Si number density = 19.789678 Si / 1000 Ang^3
#
#
#
# Elastic Constant Matrix: (Units=GPa)
#
#
# Indices 1 2 3 4 5 6 
#
# 1 94.7999 8.7732 20.7238 0.0000 0.0000 0.0000
# 2 8.7732 44.0955 17.7286 0.0000 0.0000 0.0000
# 3 20.7238 17.7286 79.3043 0.0000 0.0000 0.0000
# 4 0.0000 0.0000 0.0000 18.0561 0.0000 0.0000
# 5 0.0000 0.0000 0.0000 0.0000 19.1576 0.0000
# 6 0.0000 0.0000 0.0000 0.0000 0.0000 34.2566
#
#
#
# Elastic Compliance Matrix: (Units=1/GPa)
#
#
# Indices 1 2 3 4 5 6 
#
# 1 0.011241 -0.001160 -0.002678 0.000000 0.000000 0.000000
# 2 -0.001160 0.025037 -0.005294 0.000000 0.000000 0.000000
# 3 -0.002678 -0.005294 0.014493 0.000000 0.000000 0.000000
# 4 0.000000 0.000000 0.000000 0.055383 0.000000 0.000000
# 5 0.000000 0.000000 0.000000 0.000000 0.052199 0.000000
# 6 0.000000 0.000000 0.000000 0.000000 0.000000 0.029191
#
#
# Mechanical properties :
#
#
# Convention : Reuss Voigt Hill
#
# Bulk Modulus (GPa) = 30.76223 34.73900 32.75061
# Shear Modulus (GPa) = 23.07924 25.69232 24.38578
#
# Velocity S-wave (km/s) = 3.41871 3.60706 3.51415
# Velocity P-wave (km/s) = 5.58227 5.91101 5.74899
#
# Compressibility (1/GPa) = 0.03250740
#
# Stress axis : x y z
#
# Youngs Moduli (GPa) = 88.95717 39.94047 68.99857
#
# Poissons Ratio (x) = 0.04632 0.18480
# Poissons Ratio (y) = 0.10317 0.36528
# Poissons Ratio (z) = 0.23826 0.21145
#
# Static dielectric constant tensor:
#      x y z
#    x 4.032220 0.000000 0.000000 
#    y 0.000000 3.754070 0.000000 
#    z 0.000000 0.000000 3.256110 
# 
# 
# High freq. dielectric constant tensor:
#      x y z
#    x 1.782680 0.000000 0.000000 
#    y 0.000000 1.781620 0.000000 
#    z 0.000000 0.000000 1.740810 
# 
# From -- ./inp_files/10541.got.cif
#   From: 2010.03.12/outbox.cif.g09.slc.cpg/sg41_6_cif.got.tgz:10541.got - 2010.04.14 01:55:53.
