data_PCOD8184643
_publ_section_title
;
Structure prediction by ZEFSAII (Michael W. Deem and Ramdas Pophale) SiO2 
 PCOD8184643
Probable space group: A M A 2
;
_chemical_formula_sum "Si O2"
_cell_formula_units_Z 40
_cell_length_a 22.882434
_cell_length_b 7.327954
_cell_length_c 11.867376
_cell_angle_alpha 90.000000
_cell_angle_beta 90.000000
_cell_angle_gamma 90.000000
_cell_volume 1989.938504
_symmetry_space_group_name_H-M "A M A 2"
_symmetry_group_IT_number 40
_symmetry_cell_setting 'orthorhombic'
loop_
_space_group_symop_operation_xyz
x,y,z
-x,-y,z
1/2-x,y,z
1/2+x,-y,z
x,1/2+y,1/2+z
-x,1/2-y,1/2+z
1/2-x,1/2+y,1/2+z
1/2+x,1/2-y,1/2+z
loop_
_atom_site_type_symbol
_atom_site_label
_atom_site_fract_x
_atom_site_fract_y
_atom_site_fract_z
Si Si1 0.402890 0.866199 0.054260
Si Si2 0.681549 0.088751 0.252794
Si Si3 0.007182 0.209428 0.714435
Si Si4 0.391221 0.138378 0.872042
Si Si5 0.112704 0.247661 0.317310
O O1 0.349254 0.837449 0.139857
O O2 0.464383 0.829023 0.115262
O O3 0.396584 0.720443 0.952132
O O4 0.400584 0.073117 0.001866
O O5 0.750000 0.108433 0.238184
O O6 0.659288 0.209852 0.359052
O O7 0.665150 0.878226 0.274187
O O8 0.047617 0.216440 0.826165
O O9 0.946049 0.304337 0.748340
O O10 0.000000 0.000000 0.674843
O O11 0.372246 0.961290 0.796550
#
# Coordination Sequence:
#
# PCOD8184643 Si02
#       5
#     8   8   8   8   8
#     4   9  21  41  60  90 123 156 196 242 300 361
#     4  11  23  40  61  85 118 161 210 252 291 342
#     4   9  17  37  62  92 122 155 191 237 303 373
#     4   8  20  40  59  84 122 155 195 246 298 357
#     4   9  21  39  61  89 123 154 194 250 300 356
#
# _framework density 20.101123999999999
#
# number of rings (size 3 to 8) (size 9 to 14) (size 15 to 20)
#    1.200    1.600    0.000    0.000    0.000    8.800 
#   18.000    0.000    0.000    0.000    0.000    0.000 
#    0.000    0.000    0.000    0.000    0.000    0.000 
#
# Total GULP energy -247834.756381 kJ/mol
# GULP energy per Si atom -12391.737819 kJ/mol
# Density = 2.005537 g / cm^3
# Si number density = 20.101124 Si / 1000 Ang^3
#
#
#
# Elastic Constant Matrix: (Units=GPa)
#
#
# Indices 1 2 3 4 5 6 
#
# 1 84.4268 35.1698 14.3647 0.0000 0.0000 0.0000
# 2 35.1698 63.1741 14.5986 0.0000 0.0000 0.0000
# 3 14.3647 14.5986 81.6404 0.0000 0.0000 0.0000
# 4 0.0000 0.0000 0.0000 26.7752 0.0000 0.0000
# 5 0.0000 0.0000 0.0000 0.0000 15.8950 0.0000
# 6 0.0000 0.0000 0.0000 0.0000 0.0000 30.5536
#
#
#
# Elastic Compliance Matrix: (Units=1/GPa)
#
#
# Indices 1 2 3 4 5 6 
#
# 1 0.015540 -0.008365 -0.001238 0.000000 0.000000 0.000000
# 2 -0.008365 0.021014 -0.002286 0.000000 0.000000 0.000000
# 3 -0.001238 -0.002286 0.012875 0.000000 0.000000 0.000000
# 4 0.000000 0.000000 0.000000 0.037348 0.000000 0.000000
# 5 0.000000 0.000000 0.000000 0.000000 0.062913 0.000000
# 6 0.000000 0.000000 0.000000 0.000000 0.000000 0.032729
#
#
# Mechanical properties :
#
#
# Convention : Reuss Voigt Hill
#
# Bulk Modulus (GPa) = 38.98473 39.72304 39.35388
# Shear Modulus (GPa) = 23.28298 25.65198 24.46748
#
# Velocity S-wave (km/s) = 3.40706 3.57619 3.49265
# Velocity P-wave (km/s) = 5.90879 6.07097 5.99043
#
# Compressibility (1/GPa) = 0.02565107
#
# Stress axis : x y z
#
# Youngs Moduli (GPa) = 64.35022 47.58629 77.66690
#
# Poissons Ratio (x) = 0.39806 0.09619
# Poissons Ratio (y) = 0.53830 0.17754
# Poissons Ratio (z) = 0.07970 0.10878
#
# Static dielectric constant tensor:
#      x y z
#    x 3.330020 0.000000 0.000000 
#    y 0.000000 3.524690 0.000000 
#    z 0.000000 0.000000 3.535610 
# 
# 
# High freq. dielectric constant tensor:
#      x y z
#    x 1.759760 0.000000 0.000000 
#    y 0.000000 1.779700 0.000000 
#    z 0.000000 0.000000 1.775030 
# 
# From -- ./inp_files/13434.got.cif
#   From: 2010.03.12/outbox.cif.g09.slc.cpg/sg40_7_cif.got.tgz:13434.got - 2010.04.14 01:38:03.
