data_PCOD8184879
_publ_section_title
;
Structure prediction by ZEFSAII (Michael W. Deem and Ramdas Pophale) SiO2 
 PCOD8184879
Probable space group: A B A 2
;
_chemical_formula_sum "Si O2"
_cell_formula_units_Z 56
_cell_length_a 13.541383
_cell_length_b 5.267488
_cell_length_c 34.535327
_cell_angle_alpha 90.000000
_cell_angle_beta 90.000000
_cell_angle_gamma 90.000000
_cell_volume 2463.372842
_symmetry_space_group_name_H-M "A B A 2"
_symmetry_group_IT_number 41
_symmetry_cell_setting 'orthorhombic'
loop_
_space_group_symop_operation_xyz
x,y,z
-x,-y,z
1/2-x,y,1/2+z
1/2+x,-y,1/2+z
x,1/2+y,1/2+z
-x,1/2-y,1/2+z
1/2-x,1/2+y,z
1/2+x,1/2-y,z
loop_
_atom_site_type_symbol
_atom_site_label
_atom_site_fract_x
_atom_site_fract_y
_atom_site_fract_z
Si Si1 0.500000 0.000000 0.610981
Si Si2 0.500000 0.000000 0.161262
Si Si3 0.382101 0.503458 0.800165
Si Si4 0.642928 0.912182 0.009858
Si Si5 0.690649 0.014169 0.923259
Si Si6 0.689806 0.990152 0.213123
Si Si7 0.133960 0.589035 0.541784
Si Si8 0.887967 0.495056 0.841281
O O1 0.482722 0.750129 0.635999
O O2 0.601074 0.961878 0.585970
O O3 0.594103 0.043151 0.187886
O O4 0.500000 0.500000 0.798288
O O5 0.337609 0.503291 0.757824
O O6 0.340554 0.747180 0.823959
O O7 0.339579 0.255136 0.822185
O O8 0.588586 0.644385 0.016903
O O9 0.749619 0.883156 0.031591
O O10 0.583844 0.144627 0.029270
O O11 0.641004 0.966574 0.964427
O O12 0.722922 0.306784 0.920291
O O13 0.616798 0.972996 0.887712
O O14 0.733981 0.714951 0.202921
O O15 0.000000 0.500000 0.828229
#
# Coordination Sequence:
#
# PCOD8184879 Si02
#       8
#     4   4   8   8   8   8   8   8
#     4  12  26  46  72 102 137 174 215 288 380 404
#     4  12  28  54  68 112 157 172 227 312 346 432
#     4  10  21  43  67  91 139 182 225 294 339 407
#     4  10  19  40  61  88 125 170 223 268 329 397
#     4  12  21  37  59  85 130 174 218 289 339 383
#     4  12  26  47  78 108 139 194 240 276 361 434
#     4  10  20  40  63  89 119 167 214 267 329 430
#     4  10  23  38  59  95 133 181 227 278 355 389
#
# _framework density 22.733056999999999
#
# number of rings (size 3 to 8) (size 9 to 14) (size 15 to 20)
#    0.000    1.143    3.571    3.429    0.000    3.429 
#   18.000    0.000    0.000    0.000    0.000    0.000 
#    0.000    0.000    0.000    0.000    0.000    0.000 
#
# Total GULP energy -347006.130591 kJ/mol
# GULP energy per Si atom -12393.076093 kJ/mol
# Density = 2.268132 g / cm^3
# Si number density = 22.733057 Si / 1000 Ang^3
#
#
#
# Elastic Constant Matrix: (Units=GPa)
#
#
# Indices 1 2 3 4 5 6 
#
# 1 44.9252 8.3014 25.3822 0.0000 0.0000 0.0000
# 2 8.3014 208.5163 52.2978 0.0000 0.0000 0.0000
# 3 25.3822 52.2978 143.4518 0.0000 0.0000 0.0000
# 4 0.0000 0.0000 0.0000 44.8869 0.0000 0.0000
# 5 0.0000 0.0000 0.0000 0.0000 -4.5650 0.0000
# 6 0.0000 0.0000 0.0000 0.0000 0.0000 -0.1662
#
#
#
# Elastic Compliance Matrix: (Units=1/GPa)
#
#
# Indices 1 2 3 4 5 6 
#
# 1 0.024735 0.000124 -0.004422 0.000000 0.000000 0.000000
# 2 0.000124 0.005279 -0.001947 0.000000 0.000000 0.000000
# 3 -0.004422 -0.001947 0.008463 0.000000 0.000000 0.000000
# 4 0.000000 0.000000 0.000000 0.022278 0.000000 0.000000
# 5 0.000000 0.000000 0.000000 0.000000 -0.219056 0.000000
# 6 0.000000 0.000000 0.000000 0.000000 0.000000 -6.018314
#
#
# Mechanical properties :
#
#
# Convention : Reuss Voigt Hill
#
# Bulk Modulus (GPa) = 38.47862 63.20623 50.84243
# Shear Modulus (GPa) = -0.81229 28.75860 13.97316
#
# Velocity S-wave (km/s) = -0.59841 3.56062 2.48193
# Velocity P-wave (km/s) = 4.06024 6.69089 5.53415
#
# Compressibility (1/GPa) = 0.02598846
#
# Stress axis : x y z
#
# Youngs Moduli (GPa) = 40.42932 189.42787 118.16106
#
# Poissons Ratio (x) = -0.02355 0.52249
# Poissons Ratio (y) = -0.00503 0.23001
# Poissons Ratio (z) = 0.17877 0.36873
#
# Static dielectric constant tensor:
#      x y z
#    x 3.879300 0.000000 0.000000 
#    y 0.000000 5.170570 0.000000 
#    z 0.000000 0.000000 4.088370 
# 
# 
# High freq. dielectric constant tensor:
#      x y z
#    x 1.889800 0.000000 0.000000 
#    y 0.000000 1.934480 0.000000 
#    z 0.000000 0.000000 1.894450 
# 
# From -- ./inp_files/12740.got.cif
#   From: 2010.03.12/outbox.cif.g09.slc.cpg/sg41_7_cif.got.tgz:12740.got - 2010.04.14 01:55:53.
