data_PCOD8184842
_publ_section_title
;
Structure prediction by ZEFSAII (Michael W. Deem and Ramdas Pophale) SiO2 
 PCOD8184842
Probable space group: A B A 2
;
_chemical_formula_sum "Si O2"
_cell_formula_units_Z 60
_cell_length_a 29.089587
_cell_length_b 8.077561
_cell_length_c 12.438250
_cell_angle_alpha 90.000000
_cell_angle_beta 90.000000
_cell_angle_gamma 90.000000
_cell_volume 2922.651841
_symmetry_space_group_name_H-M "A B A 2"
_symmetry_group_IT_number 41
_symmetry_cell_setting 'orthorhombic'
loop_
_space_group_symop_operation_xyz
x,y,z
-x,-y,z
1/2-x,y,1/2+z
1/2+x,-y,1/2+z
x,1/2+y,1/2+z
-x,1/2-y,1/2+z
1/2-x,1/2+y,z
1/2+x,1/2-y,z
loop_
_atom_site_type_symbol
_atom_site_label
_atom_site_fract_x
_atom_site_fract_y
_atom_site_fract_z
Si Si1 0.500000 0.500000 0.504050
Si Si2 0.911132 0.122728 0.549237
Si Si3 0.495168 0.189401 0.342865
Si Si4 0.195836 0.314898 0.821683
Si Si5 0.904941 0.165831 0.304255
Si Si6 0.808729 0.610316 0.072465
Si Si7 0.759593 0.897545 0.195654
Si Si8 0.454458 0.604259 0.174201
O O1 0.546012 0.499019 0.578881
O O2 0.498959 0.329531 0.435667
O O3 0.903593 0.093566 0.423795
O O4 0.862422 0.079198 0.604647
O O5 0.928371 0.311180 0.573652
O O6 0.444014 0.194956 0.292022
O O7 0.532231 0.243379 0.253417
O O8 0.500000 0.000000 0.384391
O O9 0.145190 0.256730 0.782891
O O10 0.232201 0.170507 0.799355
O O11 0.207656 0.462945 0.741347
O O12 0.197960 0.362078 0.946107
O O13 0.916493 0.012794 0.227036
O O14 0.792849 0.768494 0.139154
O O15 0.777668 0.455862 0.107303
O O16 0.500000 0.500000 0.140639
#
# Coordination Sequence:
#
# PCOD8184842 Si02
#       8
#     4   8   8   8   8   8   8   8
#     4  10  20  42  56  84 128 158 206 252 300 354
#     4  10  20  34  60  82 116 163 193 243 305 357
#     4  10  19  35  61  81 118 166 197 249 300 349
#     4  10  20  37  62  81 119 158 184 248 310 342
#     4   9  19  38  56  81 119 156 198 251 299 353
#     4  10  21  38  60  87 119 148 201 244 299 367
#     4  10  21  37  60  89 113 151 199 246 297 370
#     4  10  19  36  56  84 118 159 205 246 298 353
#
# _framework density 20.529302000000001
#
# number of rings (size 3 to 8) (size 9 to 14) (size 15 to 20)
#    0.000    2.133    3.333    1.600    0.933    3.200 
#    2.400    0.000   20.533    0.000    0.000    0.000 
#    0.000    0.000    0.000    0.000    0.000    0.000 
#
# Total GULP energy -371659.797841 kJ/mol
# GULP energy per Si atom -12388.659928 kJ/mol
# Density = 2.048258 g / cm^3
# Si number density = 20.529302 Si / 1000 Ang^3
#
#
#
# Elastic Constant Matrix: (Units=GPa)
#
#
# Indices 1 2 3 4 5 6 
#
# 1 144.4747 28.2111 30.8519 0.0000 0.0000 0.0000
# 2 28.2111 88.7464 12.6724 0.0000 0.0000 0.0000
# 3 30.8519 12.6724 60.4598 0.0000 0.0000 0.0000
# 4 0.0000 0.0000 0.0000 25.2526 0.0000 0.0000
# 5 0.0000 0.0000 0.0000 0.0000 315.0033 0.0000
# 6 0.0000 0.0000 0.0000 0.0000 0.0000 21.5118
#
#
#
# Elastic Compliance Matrix: (Units=1/GPa)
#
#
# Indices 1 2 3 4 5 6 
#
# 1 0.008114 -0.002050 -0.003711 0.000000 0.000000 0.000000
# 2 -0.002050 0.012133 -0.001497 0.000000 0.000000 0.000000
# 3 -0.003711 -0.001497 0.018747 0.000000 0.000000 0.000000
# 4 0.000000 0.000000 0.000000 0.039600 0.000000 0.000000
# 5 0.000000 0.000000 0.000000 0.000000 0.003175 0.000000
# 6 0.000000 0.000000 0.000000 0.000000 0.000000 0.046486
#
#
# Mechanical properties :
#
#
# Convention : Reuss Voigt Hill
#
# Bulk Modulus (GPa) = 40.85069 48.57240 44.71155
# Shear Modulus (GPa) = 33.12766 87.14991 60.13878
#
# Velocity S-wave (km/s) = 4.02142 6.52255 5.41828
# Velocity P-wave (km/s) = 6.44238 8.96863 7.80835
#
# Compressibility (1/GPa) = 0.02447939
#
# Stress axis : x y z
#
# Youngs Moduli (GPa) = 123.23912 82.41731 53.34056
#
# Poissons Ratio (x) = 0.16891 0.19795
# Poissons Ratio (y) = 0.25258 0.07987
# Poissons Ratio (z) = 0.45735 0.12340
#
# Static dielectric constant tensor:
#      x y z
#    x 3.939870 0.000000 0.000000 
#    y 0.000000 3.534260 0.000000 
#    z 0.000000 0.000000 3.573440 
# 
# 
# High freq. dielectric constant tensor:
#      x y z
#    x 1.819770 0.000000 0.000000 
#    y 0.000000 1.785770 0.000000 
#    z 0.000000 0.000000 1.793780 
# 
# From -- ./inp_files/6646.got.cif
#   From: 2010.03.12/outbox.cif.g09.slc.cpg/sg41_4_cif.got.tgz:6646.got - 2010.04.14 01:55:53.
