data_PCOD8184761
_publ_section_title
;
Structure prediction by ZEFSAII (Michael W. Deem and Ramdas Pophale) SiO2 
 PCOD8184761
Probable space group: A B A 2
;
_chemical_formula_sum "Si O2"
_cell_formula_units_Z 52
_cell_length_a 19.566229
_cell_length_b 8.208490
_cell_length_c 15.433232
_cell_angle_alpha 90.000000
_cell_angle_beta 90.000000
_cell_angle_gamma 90.000000
_cell_volume 2478.718969
_symmetry_space_group_name_H-M "A B A 2"
_symmetry_group_IT_number 41
_symmetry_cell_setting 'orthorhombic'
loop_
_space_group_symop_operation_xyz
x,y,z
-x,-y,z
1/2-x,y,1/2+z
1/2+x,-y,1/2+z
x,1/2+y,1/2+z
-x,1/2-y,1/2+z
1/2-x,1/2+y,z
1/2+x,1/2-y,z
loop_
_atom_site_type_symbol
_atom_site_label
_atom_site_fract_x
_atom_site_fract_y
_atom_site_fract_z
Si Si1 0.362462 0.942029 0.401240
Si Si2 0.602628 0.697594 0.386704
Si Si3 0.000000 0.500000 0.998439
Si Si4 0.657701 0.600175 0.212895
Si Si5 0.615805 0.780907 0.045067
Si Si6 0.293118 0.722969 0.274453
Si Si7 0.780561 0.979744 0.447758
O O1 0.406927 0.814883 0.457259
O O2 0.343789 0.867847 0.306292
O O3 0.296279 0.962433 0.465690
O O4 0.403235 0.107685 0.387765
O O5 0.538136 0.626597 0.436224
O O6 0.602508 0.635530 0.287803
O O7 0.673237 0.639157 0.431072
O O8 0.946223 0.407444 0.060894
O O9 0.623559 0.658603 0.124388
O O10 0.671446 0.404772 0.208116
O O11 0.727507 0.699173 0.229205
O O12 0.686866 0.878245 0.026946
O O13 0.272582 0.623689 0.359841
#
# Coordination Sequence:
#
# PCOD8184761 Si02
#       7
#     8   8   4   8   8   8   8
#     4  11  18  37  61  94 115 162 192 250 305 398
#     4  10  19  38  68  79 120 160 211 240 306 359
#     4  10  24  48  56  82 112 182 218 262 278 382
#     4  11  20  37  57  95 120 158 182 267 308 369
#     4  10  24  36  60  86 129 153 212 250 315 343
#     4  10  18  32  59  90 131 144 194 229 321 391
#     4   9  17  35  59  92 121 156 185 246 301 395
#
# _framework density 20.978577999999999
#
# number of rings (size 3 to 8) (size 9 to 14) (size 15 to 20)
#    0.000    1.846    4.615    1.846    2.154    0.615 
#    0.000    4.615    0.000    0.000    0.000    0.000 
#    0.000    0.000    0.000    0.000    0.000    0.000 
#
# Total GULP energy -322292.141151 kJ/mol
# GULP energy per Si atom -12395.851583 kJ/mol
# Density = 2.093083 g / cm^3
# Si number density = 20.978578 Si / 1000 Ang^3
#
#
#
# Elastic Constant Matrix: (Units=GPa)
#
#
# Indices 1 2 3 4 5 6 
#
# 1 69.3545 38.0916 24.7741 0.0000 0.0000 0.0000
# 2 38.0916 132.1935 26.5628 0.0000 0.0000 0.0000
# 3 24.7741 26.5628 71.3941 0.0000 0.0000 0.0000
# 4 0.0000 0.0000 0.0000 34.4678 0.0000 0.0000
# 5 0.0000 0.0000 0.0000 0.0000 17.7593 0.0000
# 6 0.0000 0.0000 0.0000 0.0000 0.0000 30.3361
#
#
#
# Elastic Compliance Matrix: (Units=1/GPa)
#
#
# Indices 1 2 3 4 5 6 
#
# 1 0.018539 -0.004376 -0.004805 0.000000 0.000000 0.000000
# 2 -0.004376 0.009209 -0.001908 0.000000 0.000000 0.000000
# 3 -0.004805 -0.001908 0.016384 0.000000 0.000000 0.000000
# 4 0.000000 0.000000 0.000000 0.029013 0.000000 0.000000
# 5 0.000000 0.000000 0.000000 0.000000 0.056309 0.000000
# 6 0.000000 0.000000 0.000000 0.000000 0.000000 0.032964
#
#
# Mechanical properties :
#
#
# Convention : Reuss Voigt Hill
#
# Bulk Modulus (GPa) = 45.55013 50.19990 47.87502
# Shear Modulus (GPa) = 26.05357 28.74689 27.40023
#
# Velocity S-wave (km/s) = 3.52790 3.70577 3.61793
# Velocity P-wave (km/s) = 6.19311 6.50318 6.35004
#
# Compressibility (1/GPa) = 0.02195383
#
# Stress axis : x y z
#
# Youngs Moduli (GPa) = 53.94139 108.58858 61.03599
#
# Poissons Ratio (x) = 0.47523 0.29326
# Poissons Ratio (y) = 0.23607 0.11644
# Poissons Ratio (z) = 0.25917 0.20715
#
# Static dielectric constant tensor:
#      x y z
#    x 3.557950 0.000000 0.000000 
#    y 0.000000 4.196590 0.000000 
#    z 0.000000 0.000000 3.423890 
# 
# 
# High freq. dielectric constant tensor:
#      x y z
#    x 1.789930 0.000000 0.000000 
#    y 0.000000 1.846900 0.000000 
#    z 0.000000 0.000000 1.786170 
# 
# From -- ./inp_files/8972.got.cif
#   From: 2010.03.12/outbox.cif.g09.slc.cpg/sg41_5_cif.got.tgz:8972.got - 2010.04.14 01:55:53.
