data_PCOD8184557
_publ_section_title
;
Structure prediction by ZEFSAII (Michael W. Deem and Ramdas Pophale) SiO2 
 PCOD8184557
Probable space group: A M A 2
;
_chemical_formula_sum "Si O2"
_cell_formula_units_Z 40
_cell_length_a 19.552269
_cell_length_b 17.801449
_cell_length_c 4.846620
_cell_angle_alpha 90.000000
_cell_angle_beta 90.000000
_cell_angle_gamma 90.000000
_cell_volume 1686.908351
_symmetry_space_group_name_H-M "A M A 2"
_symmetry_group_IT_number 40
_symmetry_cell_setting 'orthorhombic'
loop_
_space_group_symop_operation_xyz
x,y,z
-x,-y,z
1/2-x,y,z
1/2+x,-y,z
x,1/2+y,1/2+z
-x,1/2-y,1/2+z
1/2-x,1/2+y,1/2+z
1/2+x,1/2-y,1/2+z
loop_
_atom_site_type_symbol
_atom_site_label
_atom_site_fract_x
_atom_site_fract_y
_atom_site_fract_z
Si Si1 0.676613 0.750564 0.299200
Si Si2 0.030697 0.715567 0.736554
Si Si3 0.537225 0.077158 0.488571
Si Si4 0.250000 0.125428 0.559299
Si Si5 0.369574 0.907059 0.996049
Si Si6 0.250000 0.021974 0.048020
O O1 0.750000 0.746919 0.129775
O O2 0.608263 0.770124 0.125976
O O3 0.683538 0.820797 0.512894
O O4 0.668557 0.671745 0.455326
O O5 0.983918 0.718391 0.463119
O O6 0.018713 0.639894 0.908596
O O7 0.564264 0.081298 0.800675
O O8 0.500000 0.000000 0.427557
O O9 0.604914 0.089849 0.309173
O O10 0.250000 0.098488 0.872403
O O11 0.250000 0.051005 0.363215
O O12 0.316656 0.974974 0.964798
#
# Coordination Sequence:
#
# PCOD8184557 Si02
#       6
#     8   8   8   4   8   4
#     4  10  24  49  67 107 131 191 222 287 334 419
#     4  12  24  45  70 100 139 176 232 284 336 403
#     4  12  27  45  68 104 136 185 225 284 344 403
#     4  10  27  44  71 100 144 168 234 282 345 404
#     4  12  25  47  71  97 142 178 233 274 342 418
#     4  12  25  46  67 106 132 184 218 294 345 400
#
# _framework density 23.712019999999999
#
# number of rings (size 3 to 8) (size 9 to 14) (size 15 to 20)
#    0.600    0.000    5.000    1.800    5.600    3.200 
#    0.000    0.000    0.000    0.000    0.000    0.000 
#    0.000    0.000    0.000    0.000    0.000    0.000 
#
# Total GULP energy -247848.711144 kJ/mol
# GULP energy per Si atom -12392.435557 kJ/mol
# Density = 2.365805 g / cm^3
# Si number density = 23.712020 Si / 1000 Ang^3
#
#
#
# Elastic Constant Matrix: (Units=GPa)
#
#
# Indices 1 2 3 4 5 6 
#
# 1 141.7794 34.7338 9.7260 0.0000 0.0000 0.0000
# 2 34.7338 131.3266 -1.4293 0.0000 0.0000 0.0000
# 3 9.7260 -1.4293 56.2854 0.0000 0.0000 0.0000
# 4 0.0000 0.0000 0.0000 23.2544 0.0000 0.0000
# 5 0.0000 0.0000 0.0000 0.0000 19.5013 0.0000
# 6 0.0000 0.0000 0.0000 0.0000 0.0000 36.2162
#
#
#
# Elastic Compliance Matrix: (Units=1/GPa)
#
#
# Indices 1 2 3 4 5 6 
#
# 1 0.007647 -0.002037 -0.001373 0.000000 0.000000 0.000000
# 2 -0.002037 0.008160 0.000559 0.000000 0.000000 0.000000
# 3 -0.001373 0.000559 0.018018 0.000000 0.000000 0.000000
# 4 0.000000 0.000000 0.000000 0.043003 0.000000 0.000000
# 5 0.000000 0.000000 0.000000 0.000000 0.051279 0.000000
# 6 0.000000 0.000000 0.000000 0.000000 0.000000 0.027612
#
#
# Mechanical properties :
#
#
# Convention : Reuss Voigt Hill
#
# Bulk Modulus (GPa) = 35.55950 46.16136 40.86043
# Shear Modulus (GPa) = 29.27510 34.88509 32.08009
#
# Velocity S-wave (km/s) = 3.51751 3.83978 3.68218
# Velocity P-wave (km/s) = 5.61482 6.25846 5.94535
#
# Compressibility (1/GPa) = 0.02812188
#
# Stress axis : x y z
#
# Youngs Moduli (GPa) = 130.77857 122.55606 55.49987
#
# Poissons Ratio (x) = 0.24969 0.07620
# Poissons Ratio (y) = 0.26644 -0.03104
# Poissons Ratio (z) = 0.17956 -0.06854
#
# Static dielectric constant tensor:
#      x y z
#    x 4.244290 0.000000 0.000000 
#    y 0.000000 4.404640 0.000000 
#    z 0.000000 0.000000 3.838040 
# 
# 
# High freq. dielectric constant tensor:
#      x y z
#    x 1.944160 0.000000 0.000000 
#    y 0.000000 1.959880 0.000000 
#    z 0.000000 0.000000 1.915710 
# 
# From -- ./inp_files/2258.got.cif
#   From: 2010.03.12/outbox.cif.g09.slc.cpg/sg40_2_cif.got.tgz:2258.got - 2010.04.14 01:38:03.
