data_PCOD8184173
_publ_section_title
;
Structure prediction by ZEFSAII (Michael W. Deem and Ramdas Pophale) SiO2 
 PCOD8184173
Probable space group: A M A 2
;
_chemical_formula_sum "Si O2"
_cell_formula_units_Z 56
_cell_length_a 21.722578
_cell_length_b 21.507006
_cell_length_c 6.099699
_cell_angle_alpha 90.000000
_cell_angle_beta 90.000000
_cell_angle_gamma 90.000000
_cell_volume 2849.703830
_symmetry_space_group_name_H-M "A M A 2"
_symmetry_group_IT_number 40
_symmetry_cell_setting 'orthorhombic'
loop_
_space_group_symop_operation_xyz
x,y,z
-x,-y,z
1/2-x,y,z
1/2+x,-y,z
x,1/2+y,1/2+z
-x,1/2-y,1/2+z
1/2-x,1/2+y,1/2+z
1/2+x,1/2-y,1/2+z
loop_
_atom_site_type_symbol
_atom_site_label
_atom_site_fract_x
_atom_site_fract_y
_atom_site_fract_z
Si Si1 0.924973 0.691446 0.468760
Si Si2 0.992736 0.099745 0.273606
Si Si3 0.584031 0.427864 0.414073
Si Si4 0.320951 0.392811 0.365246
Si Si5 0.319355 0.008881 0.167876
Si Si6 0.600318 0.524293 0.055184
Si Si7 0.963805 0.317255 0.152645
O O1 0.854545 0.673654 0.407754
O O2 0.926224 0.754010 0.611935
O O3 0.945914 0.633325 0.612557
O O4 0.969063 0.697828 0.255535
O O5 0.029803 0.149277 0.419627
O O6 0.956918 0.053925 0.431721
O O7 0.039893 0.060554 0.123334
O O8 0.653602 0.441340 0.493602
O O9 0.568197 0.477602 0.226150
O O10 0.576258 0.357993 0.323189
O O11 0.250000 0.379891 0.299894
O O12 0.324070 0.438731 0.574173
O O13 0.357396 0.423253 0.164011
O O14 0.250000 0.029026 0.213079
O O15 0.356102 0.014538 0.393879
#
# Coordination Sequence:
#
# PCOD8184173 Si02
#       7
#     8   8   8   8   8   8   8
#     4  11  21  39  61  89 120 160 208 251 311 367
#     4  11  22  38  58  92 124 159 201 256 313 366
#     4  10  25  38  56  93 124 158 202 255 307 372
#     4  10  21  38  61  93 124 154 206 259 305 368
#     4  10  21  39  61  86 123 165 202 250 310 374
#     4  11  21  39  62  89 123 162 198 254 317 374
#     4  11  22  38  61  88 123 164 203 253 308 375
#
# _framework density 19.651164999999999
#
# number of rings (size 3 to 8) (size 9 to 14) (size 15 to 20)
#    0.000    1.429    4.286    1.286    0.000    4.000 
#    0.000    0.714    0.000    0.857    0.000    0.000 
#    0.000    0.000    0.000    0.000    0.000    0.000 
#
# Total GULP energy -347225.091270 kJ/mol
# GULP energy per Si atom -12400.896117 kJ/mol
# Density = 1.960644 g / cm^3
# Si number density = 19.651165 Si / 1000 Ang^3
#
#
#
# Elastic Constant Matrix: (Units=GPa)
#
#
# Indices 1 2 3 4 5 6 
#
# 1 104.7629 72.3528 36.2363 0.0000 0.0000 0.0000
# 2 72.3528 91.4269 37.7640 0.0000 0.0000 0.0000
# 3 36.2363 37.7640 94.7690 0.0000 0.0000 0.0000
# 4 0.0000 0.0000 0.0000 37.8542 0.0000 0.0000
# 5 0.0000 0.0000 0.0000 0.0000 23.1233 0.0000
# 6 0.0000 0.0000 0.0000 0.0000 0.0000 26.8958
#
#
#
# Elastic Compliance Matrix: (Units=1/GPa)
#
#
# Indices 1 2 3 4 5 6 
#
# 1 0.021279 -0.016134 -0.001707 0.000000 0.000000 0.000000
# 2 -0.016134 0.025326 -0.003923 0.000000 0.000000 0.000000
# 3 -0.001707 -0.003923 0.012768 0.000000 0.000000 0.000000
# 4 0.000000 0.000000 0.000000 0.026417 0.000000 0.000000
# 5 0.000000 0.000000 0.000000 0.000000 0.043246 0.000000
# 6 0.000000 0.000000 0.000000 0.000000 0.000000 0.037181
#
#
# Mechanical properties :
#
#
# Convention : Reuss Voigt Hill
#
# Bulk Modulus (GPa) = 63.11353 64.85169 63.98261
# Shear Modulus (GPa) = 23.25288 27.21503 25.23396
#
# Velocity S-wave (km/s) = 3.44362 3.72547 3.58731
# Velocity P-wave (km/s) = 6.92806 7.18182 7.05608
#
# Compressibility (1/GPa) = 0.01584446
#
# Stress axis : x y z
#
# Youngs Moduli (GPa) = 46.99534 39.48449 78.32149
#
# Poissons Ratio (x) = 0.63706 0.13369
# Poissons Ratio (y) = 0.75824 0.30725
# Poissons Ratio (z) = 0.08022 0.15490
#
# Static dielectric constant tensor:
#      x y z
#    x 3.538310 0.000000 0.000000 
#    y 0.000000 3.449690 0.000000 
#    z 0.000000 0.000000 3.853090 
# 
# 
# High freq. dielectric constant tensor:
#      x y z
#    x 1.751480 0.000000 0.000000 
#    y 0.000000 1.747890 0.000000 
#    z 0.000000 0.000000 1.783750 
# 
# From -- ./inp_files/2392.got.cif
#   From: 2010.03.12/outbox.cif.g09.slc.cpg/sg40_2_cif.got.tgz:2392.got - 2010.04.14 01:38:03.
