data_PCOD8184822
_publ_section_title
;
Structure prediction by ZEFSAII (Michael W. Deem and Ramdas Pophale) SiO2 
 PCOD8184822
Probable space group: A B A 2
;
_chemical_formula_sum "Si O2"
_cell_formula_units_Z 48
_cell_length_a 8.665540
_cell_length_b 18.022730
_cell_length_c 15.636706
_cell_angle_alpha 90.000000
_cell_angle_beta 90.000000
_cell_angle_gamma 90.000000
_cell_volume 2442.088950
_symmetry_space_group_name_H-M "A B A 2"
_symmetry_group_IT_number 41
_symmetry_cell_setting 'orthorhombic'
loop_
_space_group_symop_operation_xyz
x,y,z
-x,-y,z
1/2-x,y,1/2+z
1/2+x,-y,1/2+z
x,1/2+y,1/2+z
-x,1/2-y,1/2+z
1/2-x,1/2+y,z
1/2+x,1/2-y,z
loop_
_atom_site_type_symbol
_atom_site_label
_atom_site_fract_x
_atom_site_fract_y
_atom_site_fract_z
Si Si1 0.440498 0.078970 0.122500
Si Si2 0.365159 0.792218 0.198961
Si Si3 0.549077 0.656599 0.269262
Si Si4 0.145991 0.212739 0.024828
Si Si5 0.926353 0.924389 0.115974
Si Si6 0.540336 0.342373 0.455140
O O1 0.508274 0.143733 0.182217
O O2 0.256919 0.075709 0.128281
O O3 0.500000 0.000000 0.154290
O O4 0.500011 0.095365 0.025943
O O5 0.447992 0.729410 0.253585
O O6 0.229091 0.825276 0.256857
O O7 0.297569 0.756616 0.110718
O O8 0.507285 0.589299 0.206572
O O9 0.505883 0.625598 0.363056
O O10 0.034547 0.144097 0.052474
O O11 0.282342 0.179728 0.967756
O O12 0.053551 0.266627 0.964173
O O13 0.000000 0.000000 0.077876
#
# Coordination Sequence:
#
# PCOD8184822 Si02
#       6
#     8   8   8   8   8   8
#     4  10  21  37  55  76 106 144 183 219 261 320
#     4  10  19  34  55  79 107 142 181 218 263 323
#     4  11  20  33  55  82 108 135 173 224 274 317
#     4   9  18  34  53  77 105 139 177 213 259 319
#     4  10  20  35  56  78 105 142 183 220 261 321
#     4  10  20  33  54  80 107 134 170 222 270 314
#
# _framework density 19.655303
#
# number of rings (size 3 to 8) (size 9 to 14) (size 15 to 20)
#    0.000    2.000    0.000    7.000    0.000    2.000 
#    0.000    0.000    0.000    7.000    0.000    0.000 
#    0.000    0.000    0.000    0.000    0.000    0.000 
#
# Total GULP energy -297542.339745 kJ/mol
# GULP energy per Si atom -12397.597489 kJ/mol
# Density = 1.961057 g / cm^3
# Si number density = 19.655303 Si / 1000 Ang^3
#
#
#
# Elastic Constant Matrix: (Units=GPa)
#
#
# Indices 1 2 3 4 5 6 
#
# 1 81.0398 4.9721 8.6288 0.0000 0.0000 0.0000
# 2 4.9721 66.6280 -9.1844 0.0000 0.0000 0.0000
# 3 8.6288 -9.1844 58.3184 0.0000 0.0000 0.0000
# 4 0.0000 0.0000 0.0000 17.7192 0.0000 0.0000
# 5 0.0000 0.0000 0.0000 0.0000 15.3030 0.0000
# 6 0.0000 0.0000 0.0000 0.0000 0.0000 27.1309
#
#
#
# Elastic Compliance Matrix: (Units=1/GPa)
#
#
# Indices 1 2 3 4 5 6 
#
# 1 0.012635 -0.001227 -0.002063 0.000000 0.000000 0.000000
# 2 -0.001227 0.015461 0.002616 0.000000 0.000000 0.000000
# 3 -0.002063 0.002616 0.017864 0.000000 0.000000 0.000000
# 4 0.000000 0.000000 0.000000 0.056436 0.000000 0.000000
# 5 0.000000 0.000000 0.000000 0.000000 0.065346 0.000000
# 6 0.000000 0.000000 0.000000 0.000000 0.000000 0.036858
#
#
# Mechanical properties :
#
#
# Convention : Reuss Voigt Hill
#
# Bulk Modulus (GPa) = 22.41488 23.86881 23.14184
# Shear Modulus (GPa) = 22.64301 25.46860 24.05580
#
# Velocity S-wave (km/s) = 3.39780 3.60357 3.50220
# Velocity P-wave (km/s) = 5.17901 5.42995 5.30597
#
# Compressibility (1/GPa) = 0.04461322
#
# Stress axis : x y z
#
# Youngs Moduli (GPa) = 79.14813 64.67908 55.97694
#
# Poissons Ratio (x) = 0.07937 0.11546
# Poissons Ratio (y) = 0.09713 -0.14646
# Poissons Ratio (z) = 0.16326 -0.16923
#
# Static dielectric constant tensor:
#      x y z
#    x 3.497280 0.000000 0.000000 
#    y 0.000000 3.772110 0.000000 
#    z 0.000000 0.000000 3.392560 
# 
# 
# High freq. dielectric constant tensor:
#      x y z
#    x 1.769420 0.000000 0.000000 
#    y 0.000000 1.766370 0.000000 
#    z 0.000000 0.000000 1.742120 
# 
# From -- ./inp_files/7306.got.cif
#   From: 2010.03.12/outbox.cif.g09.slc.cpg/sg41_4_cif.got.tgz:7306.got - 2010.04.14 01:55:53.
