data_PCOD8184404
_publ_section_title
;
Structure prediction by ZEFSAII (Michael W. Deem and Ramdas Pophale) SiO2 
 PCOD8184404
Probable space group: A M A 2
;
_chemical_formula_sum "Si O2"
_cell_formula_units_Z 48
_cell_length_a 31.484666
_cell_length_b 7.520319
_cell_length_c 7.174959
_cell_angle_alpha 90.000000
_cell_angle_beta 90.000000
_cell_angle_gamma 90.000000
_cell_volume 1698.848994
_symmetry_space_group_name_H-M "A M A 2"
_symmetry_group_IT_number 40
_symmetry_cell_setting 'orthorhombic'
loop_
_space_group_symop_operation_xyz
x,y,z
-x,-y,z
1/2-x,y,z
1/2+x,-y,z
x,1/2+y,1/2+z
-x,1/2-y,1/2+z
1/2-x,1/2+y,1/2+z
1/2+x,1/2-y,1/2+z
loop_
_atom_site_type_symbol
_atom_site_label
_atom_site_fract_x
_atom_site_fract_y
_atom_site_fract_z
Si Si1 0.070891 0.199690 0.193940
Si Si2 0.300037 0.022634 0.555771
Si Si3 0.007021 0.700688 0.996170
Si Si4 0.339870 0.666942 0.429465
Si Si5 0.641812 0.216075 0.923454
Si Si6 0.579913 0.712706 0.739115
O O1 0.037412 0.289820 0.341053
O O2 0.116258 0.304391 0.224076
O O3 0.042668 0.223643 0.001738
O O4 0.080919 0.998544 0.243642
O O5 0.250000 0.027619 0.540423
O O6 0.315170 0.816192 0.551609
O O7 0.315629 0.138761 0.733147
O O8 0.321124 0.136714 0.387865
O O9 0.030900 0.724172 0.198430
O O10 0.000000 0.500000 0.938167
O O11 0.339178 0.466612 0.511196
O O12 0.391219 0.713533 0.415405
O O13 0.606896 0.291909 0.066379
#
# Coordination Sequence:
#
# PCOD8184404 Si02
#       6
#     8   8   8   8   8   8
#     4  11  23  42  63  94 138 182 234 293 348 417
#     4  11  25  45  70 106 142 177 235 297 358 441
#     4  11  23  37  59  93 131 183 234 289 346 411
#     4  11  24  44  72 103 139 186 230 292 360 437
#     4  10  24  43  70  98 134 188 230 285 358 430
#     4  10  22  41  63  93 133 179 234 288 348 419
#
# _framework density 28.254425000000001
#
# number of rings (size 3 to 8) (size 9 to 14) (size 15 to 20)
#    0.000    1.333    1.667    3.000    2.333    6.667 
#    0.000    0.000    0.000    0.000    0.000    0.000 
#    0.000    0.000    0.000    0.000    0.000    0.000 
#
# Total GULP energy -297321.211696 kJ/mol
# GULP energy per Si atom -12388.383821 kJ/mol
# Density = 2.819012 g / cm^3
# Si number density = 28.254425 Si / 1000 Ang^3
#
#
#
# Elastic Constant Matrix: (Units=GPa)
#
#
# Indices 1 2 3 4 5 6 
#
# 1 263.3715 50.4694 29.3561 0.0000 0.0000 0.0000
# 2 50.4694 138.4425 -7.4722 0.0000 0.0000 0.0000
# 3 29.3561 -7.4722 51.9018 0.0000 0.0000 0.0000
# 4 0.0000 0.0000 0.0000 30.6508 0.0000 0.0000
# 5 0.0000 0.0000 0.0000 0.0000 36.9743 0.0000
# 6 0.0000 0.0000 0.0000 0.0000 0.0000 48.5362
#
#
#
# Elastic Compliance Matrix: (Units=1/GPa)
#
#
# Indices 1 2 3 4 5 6 
#
# 1 0.004445 -0.001770 -0.002769 0.000000 0.000000 0.000000
# 2 -0.001770 0.007984 0.002150 0.000000 0.000000 0.000000
# 3 -0.002769 0.002150 0.021143 0.000000 0.000000 0.000000
# 4 0.000000 0.000000 0.000000 0.032626 0.000000 0.000000
# 5 0.000000 0.000000 0.000000 0.000000 0.027046 0.000000
# 6 0.000000 0.000000 0.000000 0.000000 0.000000 0.020603
#
#
# Mechanical properties :
#
#
# Convention : Reuss Voigt Hill
#
# Bulk Modulus (GPa) = 34.72713 66.49136 50.60924
# Shear Modulus (GPa) = 38.99515 48.65643 43.82579
#
# Velocity S-wave (km/s) = 3.71906 4.15430 3.94269
# Velocity P-wave (km/s) = 5.54612 6.82606 6.21910
#
# Compressibility (1/GPa) = 0.02879593
#
# Stress axis : x y z
#
# Youngs Moduli (GPa) = 224.98914 125.24349 47.29748
#
# Poissons Ratio (x) = 0.22165 0.13095
# Poissons Ratio (y) = 0.39817 -0.10171
# Poissons Ratio (z) = 0.62293 -0.26934
#
# Static dielectric constant tensor:
#      x y z
#    x 5.696070 0.000000 0.000000 
#    y 0.000000 4.805660 0.000000 
#    z 0.000000 0.000000 6.023000 
# 
# 
# High freq. dielectric constant tensor:
#      x y z
#    x 2.165940 0.000000 0.000000 
#    y 0.000000 2.119810 0.000000 
#    z 0.000000 0.000000 2.185390 
# 
# From -- ./inp_files/9305.got.cif
#   From: 2010.03.12/outbox.cif.g09.slc.cpg/sg40_5_cif.got.tgz:9305.got - 2010.04.14 01:38:03.
