data_PCOD8184200
_publ_section_title
;
Structure prediction by ZEFSAII (Michael W. Deem and Ramdas Pophale) SiO2 
 PCOD8184200
Probable space group: A M A 2
;
_chemical_formula_sum "Si O2"
_cell_formula_units_Z 56
_cell_length_a 9.003467
_cell_length_b 19.226018
_cell_length_c 17.110268
_cell_angle_alpha 90.000000
_cell_angle_beta 90.000000
_cell_angle_gamma 90.000000
_cell_volume 2961.801397
_symmetry_space_group_name_H-M "A M A 2"
_symmetry_group_IT_number 40
_symmetry_cell_setting 'orthorhombic'
loop_
_space_group_symop_operation_xyz
x,y,z
-x,-y,z
1/2-x,y,z
1/2+x,-y,z
x,1/2+y,1/2+z
-x,1/2-y,1/2+z
1/2-x,1/2+y,1/2+z
1/2+x,1/2-y,1/2+z
loop_
_atom_site_type_symbol
_atom_site_label
_atom_site_fract_x
_atom_site_fract_y
_atom_site_fract_z
Si Si1 0.910155 0.437449 0.333240
Si Si2 0.073426 0.198781 0.299680
Si Si3 0.075611 0.700408 0.407523
Si Si4 0.918589 0.786984 0.671556
Si Si5 0.911117 0.437011 0.151347
Si Si6 0.572518 0.575505 0.711556
Si Si7 0.585064 0.162304 0.060809
O O1 0.750000 0.439401 0.374526
O O2 0.974067 0.360050 0.346403
O O3 0.896817 0.453665 0.242435
O O4 0.000000 0.500000 0.374378
O O5 0.250000 0.188798 0.303169
O O6 0.013138 0.229393 0.382637
O O7 0.028723 0.255273 0.234976
O O8 0.996025 0.125197 0.278923
O O9 0.250000 0.717636 0.406765
O O10 0.031443 0.668224 0.491079
O O11 0.750000 0.797574 0.707222
O O12 0.985166 0.860876 0.641928
O O13 0.908019 0.738457 0.597253
O O14 0.750000 0.436278 0.110960
O O15 0.000000 0.500000 0.110158
O O16 0.500000 0.500000 0.719965
O O17 0.750000 0.572496 0.722922
O O18 0.532152 0.606468 0.626039
O O19 0.750000 0.142119 0.030143
#
# Coordination Sequence:
#
# PCOD8184200 Si02
#       7
#     8   8   8   8   8   8   8
#     4   9  18  30  45  67  98 133 166 201 246 298
#     4  11  21  33  55  82 106 137 183 230 274 325
#     4  11  21  35  52  74 108 146 182 223 271 324
#     4   9  17  34  53  71 102 137 171 215 268 319
#     4   9  16  28  46  69  97 128 162 200 247 298
#     4  10  21  39  61  84 114 147 185 231 281 336
#     4   9  20  35  53  77 105 140 178 220 270 326
#
# _framework density 18.907411
#
# number of rings (size 3 to 8) (size 9 to 14) (size 15 to 20)
#    0.000    2.286    1.429    3.000    0.000    5.143 
#    0.000    2.857    0.000    0.857    0.000    4.000 
#    0.000    0.000    0.000    0.000    0.000    0.000 
#
# Total GULP energy -346944.159613 kJ/mol
# GULP energy per Si atom -12390.862843 kJ/mol
# Density = 1.886438 g / cm^3
# Si number density = 18.907411 Si / 1000 Ang^3
#
#
#
# Elastic Constant Matrix: (Units=GPa)
#
#
# Indices 1 2 3 4 5 6 
#
# 1 100.0922 54.0518 26.8082 0.0000 0.0000 0.0000
# 2 54.0518 155.5192 15.7552 0.0000 0.0000 0.0000
# 3 26.8082 15.7552 35.4109 0.0000 0.0000 0.0000
# 4 0.0000 0.0000 0.0000 15.9959 0.0000 0.0000
# 5 0.0000 0.0000 0.0000 0.0000 17.9181 0.0000
# 6 0.0000 0.0000 0.0000 0.0000 0.0000 34.1898
#
#
#
# Elastic Compliance Matrix: (Units=1/GPa)
#
#
# Indices 1 2 3 4 5 6 
#
# 1 0.014739 -0.004181 -0.009298 0.000000 0.000000 0.000000
# 2 -0.004181 0.007919 -0.000359 0.000000 0.000000 0.000000
# 3 -0.009298 -0.000359 0.035439 0.000000 0.000000 0.000000
# 4 0.000000 0.000000 0.000000 0.062516 0.000000 0.000000
# 5 0.000000 0.000000 0.000000 0.000000 0.055809 0.000000
# 6 0.000000 0.000000 0.000000 0.000000 0.000000 0.029248
#
#
# Mechanical properties :
#
#
# Convention : Reuss Voigt Hill
#
# Bulk Modulus (GPa) = 32.87061 53.80585 43.33823
# Shear Modulus (GPa) = 20.53507 26.58125 23.55816
#
# Velocity S-wave (km/s) = 3.29916 3.75355 3.53367
# Velocity P-wave (km/s) = 5.65114 6.87785 6.29445
#
# Compressibility (1/GPa) = 0.03042232
#
# Stress axis : x y z
#
# Youngs Moduli (GPa) = 67.84831 126.27226 28.21776
#
# Poissons Ratio (x) = 0.52789 0.26237
# Poissons Ratio (y) = 0.28365 0.01012
# Poissons Ratio (z) = 0.63086 0.04528
#
# Static dielectric constant tensor:
#      x y z
#    x 3.659150 0.000000 0.000000 
#    y 0.000000 3.677240 0.000000 
#    z 0.000000 0.000000 3.092170 
# 
# 
# High freq. dielectric constant tensor:
#      x y z
#    x 1.732890 0.000000 0.000000 
#    y 0.000000 1.745230 0.000000 
#    z 0.000000 0.000000 1.687910 
# 
# From -- ./inp_files/19518.got.cif
#   From: 2010.03.12/outbox.cif.g09.slc.cpg/sg40_10_cif.got.tgz:19518.got - 2010.04.14 01:38:03.
