data_PCOD8184432
_publ_section_title
;
Structure prediction by ZEFSAII (Michael W. Deem and Ramdas Pophale) SiO2 
 PCOD8184432
Probable space group: A M A 2
;
_chemical_formula_sum "Si O2"
_cell_formula_units_Z 64
_cell_length_a 28.154233
_cell_length_b 11.534538
_cell_length_c 9.289499
_cell_angle_alpha 90.000000
_cell_angle_beta 90.000000
_cell_angle_gamma 90.000000
_cell_volume 3016.728296
_symmetry_space_group_name_H-M "A M A 2"
_symmetry_group_IT_number 40
_symmetry_cell_setting 'orthorhombic'
loop_
_space_group_symop_operation_xyz
x,y,z
-x,-y,z
1/2-x,y,z
1/2+x,-y,z
x,1/2+y,1/2+z
-x,1/2-y,1/2+z
1/2-x,1/2+y,1/2+z
1/2+x,1/2-y,1/2+z
loop_
_atom_site_type_symbol
_atom_site_label
_atom_site_fract_x
_atom_site_fract_y
_atom_site_fract_z
Si Si1 0.885732 0.399768 0.221160
Si Si2 0.948383 0.251009 0.011355
Si Si3 0.945952 0.491141 0.476467
Si Si4 0.803599 0.559659 0.884960
Si Si5 0.304838 0.701341 0.849636
Si Si6 0.044250 0.208035 0.177716
Si Si7 0.302747 0.256819 0.665408
Si Si8 0.864412 0.653689 0.127392
O O1 0.912810 0.340586 0.086801
O O2 0.918102 0.411721 0.362160
O O3 0.839364 0.323155 0.253503
O O4 0.866056 0.525363 0.187373
O O5 0.995164 0.248833 0.108072
O O6 0.925486 0.121153 0.999772
O O7 0.959217 0.294127 0.850076
O O8 0.943917 0.423158 0.628138
O O9 0.000000 0.500000 0.418766
O O10 0.750000 0.559225 0.949925
O O11 0.823250 0.429539 0.875298
O O12 0.803996 0.612671 0.725183
O O13 0.837382 0.644265 0.976473
O O14 0.250000 0.702891 0.801679
O O15 0.335989 0.759277 0.728401
O O16 0.314492 0.769243 0.997153
O O17 0.082527 0.297819 0.113970
O O18 0.250000 0.201899 0.685281
#
# Coordination Sequence:
#
# PCOD8184432 Si02
#       8
#     8   8   8   8   8   8   8   8
#     4  12  24  41  70  92 134 172 207 269 320 380
#     4  11  24  46  63  93 129 165 214 268 322 379
#     4  10  23  45  64  93 126 168 213 268 317 380
#     4  10  22  42  65  93 131 168 215 268 317 378
#     4  10  22  43  65  89 129 169 211 266 319 374
#     4  11  24  44  68  92 129 168 214 267 323 386
#     4  10  22  42  66  95 127 167 212 260 318 378
#     4  12  24  40  65  97 126 172 213 259 326 383
#
# _framework density 21.215036000000001
#
# number of rings (size 3 to 8) (size 9 to 14) (size 15 to 20)
#    0.000    1.250    2.500    3.375    0.000    1.500 
#   11.250    0.000    0.000    0.000    0.000    0.000 
#    0.000    0.000    0.000    0.000    0.000    0.000 
#
# Total GULP energy -396788.151500 kJ/mol
# GULP energy per Si atom -12399.629734 kJ/mol
# Density = 2.116675 g / cm^3
# Si number density = 21.215036 Si / 1000 Ang^3
#
#
#
# Elastic Constant Matrix: (Units=GPa)
#
#
# Indices 1 2 3 4 5 6 
#
# 1 83.2481 25.3342 39.6545 0.0000 0.0000 0.0000
# 2 25.3342 67.0031 58.8595 0.0000 0.0000 0.0000
# 3 39.6545 58.8595 126.2498 0.0000 0.0000 0.0000
# 4 0.0000 0.0000 0.0000 39.0638 0.0000 0.0000
# 5 0.0000 0.0000 0.0000 0.0000 15.9661 0.0000
# 6 0.0000 0.0000 0.0000 0.0000 0.0000 29.0503
#
#
#
# Elastic Compliance Matrix: (Units=1/GPa)
#
#
# Indices 1 2 3 4 5 6 
#
# 1 0.014366 -0.002486 -0.003353 0.000000 0.000000 0.000000
# 2 -0.002486 0.025707 -0.011204 0.000000 0.000000 0.000000
# 3 -0.003353 -0.011204 0.014198 0.000000 0.000000 0.000000
# 4 0.000000 0.000000 0.000000 0.025599 0.000000 0.000000
# 5 0.000000 0.000000 0.000000 0.000000 0.062633 0.000000
# 6 0.000000 0.000000 0.000000 0.000000 0.000000 0.034423
#
#
# Mechanical properties :
#
#
# Convention : Reuss Voigt Hill
#
# Bulk Modulus (GPa) = 49.54499 58.24414 53.89456
# Shear Modulus (GPa) = 22.96308 26.99288 24.97798
#
# Velocity S-wave (km/s) = 3.29355 3.57087 3.43501
# Velocity P-wave (km/s) = 6.15367 6.67197 6.41806
#
# Compressibility (1/GPa) = 0.02018368
#
# Stress axis : x y z
#
# Youngs Moduli (GPa) = 69.60790 38.89974 70.43464
#
# Poissons Ratio (x) = 0.09671 0.23618
# Poissons Ratio (y) = 0.17306 0.78916
# Poissons Ratio (z) = 0.23341 0.43584
#
# Static dielectric constant tensor:
#      x y z
#    x 4.165250 0.000000 0.000000 
#    y 0.000000 3.960030 0.000000 
#    z 0.000000 0.000000 3.825130 
# 
# 
# High freq. dielectric constant tensor:
#      x y z
#    x 1.843900 0.000000 0.000000 
#    y 0.000000 1.836990 0.000000 
#    z 0.000000 0.000000 1.827120 
# 
# From -- ./inp_files/9448.got.cif
#   From: 2010.03.12/outbox.cif.g09.slc.cpg/sg40_5_cif.got.tgz:9448.got - 2010.04.14 01:38:03.
