data_PCOD8184790
_publ_section_title
;
Structure prediction by ZEFSAII (Michael W. Deem and Ramdas Pophale) SiO2 
 PCOD8184790
Probable space group: A B A 2
;
_chemical_formula_sum "Si O2"
_cell_formula_units_Z 60
_cell_length_a 16.714743
_cell_length_b 13.365188
_cell_length_c 13.817690
_cell_angle_alpha 90.000000
_cell_angle_beta 90.000000
_cell_angle_gamma 90.000000
_cell_volume 3086.812289
_symmetry_space_group_name_H-M "A B A 2"
_symmetry_group_IT_number 41
_symmetry_cell_setting 'orthorhombic'
loop_
_space_group_symop_operation_xyz
x,y,z
-x,-y,z
1/2-x,y,1/2+z
1/2+x,-y,1/2+z
x,1/2+y,1/2+z
-x,1/2-y,1/2+z
1/2-x,1/2+y,z
1/2+x,1/2-y,z
loop_
_atom_site_type_symbol
_atom_site_label
_atom_site_fract_x
_atom_site_fract_y
_atom_site_fract_z
Si Si1 0.280939 0.878755 0.460010
Si Si2 0.269063 0.498491 0.635369
Si Si3 0.500000 0.500000 0.368375
Si Si4 0.460411 0.394018 0.887506
Si Si5 0.508883 0.302316 0.495501
Si Si6 0.187526 0.166207 0.494390
Si Si7 0.057019 0.409808 0.165651
Si Si8 0.825247 0.989759 0.329654
O O1 0.281770 0.927167 0.566050
O O2 0.366881 0.897475 0.412258
O O3 0.258712 0.762975 0.474343
O O4 0.209665 0.918798 0.392302
O O5 0.277512 0.603917 0.582383
O O6 0.352503 0.447431 0.662167
O O7 0.220778 0.522549 0.730872
O O8 0.494422 0.399618 0.430795
O O9 0.580688 0.502353 0.304582
O O10 0.500000 0.500000 0.916734
O O11 0.508368 0.303256 0.940563
O O12 0.467714 0.374833 0.772727
O O13 0.600595 0.297619 0.528060
O O14 0.454674 0.315986 0.592094
O O15 0.185777 0.108994 0.392972
O O16 0.000000 0.500000 0.130074
#
# Coordination Sequence:
#
# PCOD8184790 Si02
#       8
#     8   8   4   8   8   8   8   8
#     4  10  21  41  58  90 128 159 203 261 309 368
#     4  11  21  39  62  92 119 164 206 258 307 375
#     4  10  20  42  64  96 120 164 214 266 308 378
#     4  10  23  41  60  93 133 162 204 262 316 373
#     4  10  18  39  67  89 122 163 209 258 299 373
#     4   9  20  38  63  87 120 158 203 255 305 365
#     4  11  19  39  68  90 114 165 221 248 301 383
#     4  10  21  40  64  87 124 159 209 260 311 363
#
# _framework density 19.437528
#
# number of rings (size 3 to 8) (size 9 to 14) (size 15 to 20)
#    0.000    1.867    3.333    1.600    0.000    1.067 
#   18.000    0.000    0.000    0.000    0.000    0.000 
#    0.000    0.000    0.000    0.000    0.000    0.000 
#
# Total GULP energy -371924.354726 kJ/mol
# GULP energy per Si atom -12397.478491 kJ/mol
# Density = 1.939329 g / cm^3
# Si number density = 19.437528 Si / 1000 Ang^3
#
#
#
# Elastic Constant Matrix: (Units=GPa)
#
#
# Indices 1 2 3 4 5 6 
#
# 1 94.7008 44.4362 54.5449 0.0000 0.0000 0.0000
# 2 44.4362 154.0056 60.7694 0.0000 0.0000 0.0000
# 3 54.5449 60.7694 129.5163 0.0000 0.0000 0.0000
# 4 0.0000 0.0000 0.0000 74.7430 0.0000 0.0000
# 5 0.0000 0.0000 0.0000 0.0000 5.4263 0.0000
# 6 0.0000 0.0000 0.0000 0.0000 0.0000 18.3445
#
#
#
# Elastic Compliance Matrix: (Units=1/GPa)
#
#
# Indices 1 2 3 4 5 6 
#
# 1 0.014514 -0.002179 -0.005090 0.000000 0.000000 0.000000
# 2 -0.002179 0.008296 -0.002975 0.000000 0.000000 0.000000
# 3 -0.005090 -0.002975 0.011260 0.000000 0.000000 0.000000
# 4 0.000000 0.000000 0.000000 0.013379 0.000000 0.000000
# 5 0.000000 0.000000 0.000000 0.000000 0.184289 0.000000
# 6 0.000000 0.000000 0.000000 0.000000 0.000000 0.054512
#
#
# Mechanical properties :
#
#
# Convention : Reuss Voigt Hill
#
# Bulk Modulus (GPa) = 73.62505 77.52483 75.57494
# Shear Modulus (GPa) = 16.06347 34.26757 25.16552
#
# Velocity S-wave (km/s) = 2.87786 4.20332 3.60208
# Velocity P-wave (km/s) = 7.00020 7.97044 7.50102
#
# Compressibility (1/GPa) = 0.01358233
#
# Stress axis : x y z
#
# Youngs Moduli (GPa) = 68.90011 120.54218 88.80781
#
# Poissons Ratio (x) = 0.26270 0.45202
# Poissons Ratio (y) = 0.15016 0.26417
# Poissons Ratio (z) = 0.35069 0.35857
#
# Static dielectric constant tensor:
#      x y z
#    x 3.744970 0.000000 0.000000 
#    y 0.000000 3.204460 0.000000 
#    z 0.000000 0.000000 3.514810 
# 
# 
# High freq. dielectric constant tensor:
#      x y z
#    x 1.757010 0.000000 0.000000 
#    y 0.000000 1.757280 0.000000 
#    z 0.000000 0.000000 1.753310 
# 
# From -- ./inp_files/8524.got.cif
#   From: 2010.03.12/outbox.cif.g09.slc.cpg/sg41_5_cif.got.tgz:8524.got - 2010.04.14 01:55:53.
