data_PCOD8184006
_publ_section_title
;
Structure prediction by ZEFSAII (Michael W. Deem and Ramdas Pophale) SiO2 
 PCOD8184006
Probable space group: A M A 2
;
_chemical_formula_sum "Si O2"
_cell_formula_units_Z 48
_cell_length_a 10.116245
_cell_length_b 8.671655
_cell_length_c 28.150842
_cell_angle_alpha 90.000000
_cell_angle_beta 90.000000
_cell_angle_gamma 90.000000
_cell_volume 2469.520975
_symmetry_space_group_name_H-M "A M A 2"
_symmetry_group_IT_number 40
_symmetry_cell_setting 'orthorhombic'
loop_
_space_group_symop_operation_xyz
x,y,z
-x,-y,z
1/2-x,y,z
1/2+x,-y,z
x,1/2+y,1/2+z
-x,1/2-y,1/2+z
1/2-x,1/2+y,1/2+z
1/2+x,1/2-y,1/2+z
loop_
_atom_site_type_symbol
_atom_site_label
_atom_site_fract_x
_atom_site_fract_y
_atom_site_fract_z
Si Si1 0.250000 0.672754 0.543170
Si Si2 0.599136 0.141397 0.283333
Si Si3 0.485037 0.815476 0.485885
Si Si4 0.399472 0.361500 0.887277
Si Si5 0.750000 0.208127 0.645001
Si Si6 0.014680 0.679609 0.193141
Si Si7 0.250000 0.811335 0.025049
Si Si8 0.750000 0.345233 0.126858
O O1 0.380027 0.758398 0.524374
O O2 0.250000 0.681759 0.599816
O O3 0.250000 0.493671 0.531049
O O4 0.750000 0.083980 0.275717
O O5 0.586484 0.221669 0.335805
O O6 0.560812 0.265493 0.244406
O O7 0.500000 0.000000 0.278173
O O8 0.436241 0.759245 0.433401
O O9 0.623383 0.734235 0.494628
O O10 0.500000 0.000000 0.489543
O O11 0.500000 0.500000 0.886927
O O12 0.250000 0.423664 0.893761
O O13 0.624009 0.252274 0.677086
O O14 0.750000 0.030943 0.627447
O O15 0.121557 0.721965 0.153072
O O16 0.000000 0.500000 0.198571
O O17 0.250000 0.716113 0.073695
#
# Coordination Sequence:
#
# PCOD8184006 Si02
#       8
#     4   8   8   8   4   8   4   4
#     4  12  24  42  59  92 127 157 194 261 311 358
#     4  10  21  38  61  90 122 154 194 248 301 353
#     4  11  22  40  65  89 117 163 211 242 291 366
#     4   9  19  36  62  90 117 152 203 252 290 349
#     4  10  22  36  61  84 117 157 210 245 287 362
#     4  10  21  38  60  87 117 157 200 245 291 352
#     4  12  26  38  61  92 127 155 196 257 317 352
#     4  10  20  40  59  84 115 163 208 243 289 362
#
# _framework density 19.436969000000001
#
# number of rings (size 3 to 8) (size 9 to 14) (size 15 to 20)
#    0.000    1.667    1.667    3.000    4.667    2.667 
#    0.000    1.667    0.000    0.000    0.000    0.000 
#    0.000    0.000    0.000    0.000    0.000    0.000 
#
# Total GULP energy -297514.473367 kJ/mol
# GULP energy per Si atom -12396.436390 kJ/mol
# Density = 1.939273 g / cm^3
# Si number density = 19.436969 Si / 1000 Ang^3
#
#
#
# Elastic Constant Matrix: (Units=GPa)
#
#
# Indices 1 2 3 4 5 6 
#
# 1 179.9762 32.5156 70.4276 0.0000 0.0000 0.0000
# 2 32.5156 56.9356 28.9903 0.0000 0.0000 0.0000
# 3 70.4276 28.9903 144.8559 0.0000 0.0000 0.0000
# 4 0.0000 0.0000 0.0000 14.4511 0.0000 0.0000
# 5 0.0000 0.0000 0.0000 0.0000 42.6328 0.0000
# 6 0.0000 0.0000 0.0000 0.0000 0.0000 27.2015
#
#
#
# Elastic Compliance Matrix: (Units=1/GPa)
#
#
# Indices 1 2 3 4 5 6 
#
# 1 0.007189 -0.002590 -0.002977 0.000000 0.000000 0.000000
# 2 -0.002590 0.020490 -0.002841 0.000000 0.000000 0.000000
# 3 -0.002977 -0.002841 0.008919 0.000000 0.000000 0.000000
# 4 0.000000 0.000000 0.000000 0.069199 0.000000 0.000000
# 5 0.000000 0.000000 0.000000 0.000000 0.023456 0.000000
# 6 0.000000 0.000000 0.000000 0.000000 0.000000 0.036763
#
#
# Mechanical properties :
#
#
# Convention : Reuss Voigt Hill
#
# Bulk Modulus (GPa) = 50.55210 71.73718 61.14464
# Shear Modulus (GPa) = 26.39548 33.51269 29.95408
#
# Velocity S-wave (km/s) = 3.68911 4.15682 3.92993
# Velocity P-wave (km/s) = 6.64911 7.74768 7.21933
#
# Compressibility (1/GPa) = 0.01978157
#
# Stress axis : x y z
#
# Youngs Moduli (GPa) = 139.09886 48.80534 112.11448
#
# Poissons Ratio (x) = 0.12640 0.33376
# Poissons Ratio (y) = 0.36025 0.31857
# Poissons Ratio (z) = 0.41409 0.13868
#
# Static dielectric constant tensor:
#      x y z
#    x 4.084570 0.000000 0.000000 
#    y 0.000000 3.179860 0.000000 
#    z 0.000000 0.000000 4.150540 
# 
# 
# High freq. dielectric constant tensor:
#      x y z
#    x 1.784590 0.000000 0.000000 
#    y 0.000000 1.715790 0.000000 
#    z 0.000000 0.000000 1.778450 
# 
# From -- ./inp_files/26219.got.cif
#   From: 2010.03.12/outbox.cif.g09.slc.cpg/sg40_14_cif.got.tgz:26219.got - 2010.04.14 01:38:03.
