data_PCOD8184220
_publ_section_title
;
Structure prediction by ZEFSAII (Michael W. Deem and Ramdas Pophale) SiO2 
 PCOD8184220
Probable space group: A M A 2
;
_chemical_formula_sum "Si O2"
_cell_formula_units_Z 48
_cell_length_a 8.708656
_cell_length_b 22.989126
_cell_length_c 11.655968
_cell_angle_alpha 90.000000
_cell_angle_beta 90.000000
_cell_angle_gamma 90.000000
_cell_volume 2333.575964
_symmetry_space_group_name_H-M "A M A 2"
_symmetry_group_IT_number 40
_symmetry_cell_setting 'orthorhombic'
loop_
_space_group_symop_operation_xyz
x,y,z
-x,-y,z
1/2-x,y,z
1/2+x,-y,z
x,1/2+y,1/2+z
-x,1/2-y,1/2+z
1/2-x,1/2+y,1/2+z
1/2+x,1/2-y,1/2+z
loop_
_atom_site_type_symbol
_atom_site_label
_atom_site_fract_x
_atom_site_fract_y
_atom_site_fract_z
Si Si1 0.929937 0.224906 0.884200
Si Si2 0.566252 0.866474 0.040991
Si Si3 0.916954 0.443021 0.337101
Si Si4 0.070997 0.435348 0.750690
Si Si5 0.578608 0.340297 0.174418
Si Si6 0.073185 0.342563 0.935729
O O1 0.750000 0.212734 0.876880
O O2 0.997177 0.196205 0.002269
O O3 0.011549 0.202081 0.770202
O O4 0.963355 0.293413 0.883153
O O5 0.750000 0.860663 0.043337
O O6 0.502957 0.910490 0.943542
O O7 0.504825 0.890696 0.160627
O O8 0.750000 0.461108 0.381580
O O9 0.907699 0.404229 0.225033
O O10 0.000000 0.500000 0.297068
O O11 0.250000 0.441741 0.722136
O O12 0.042294 0.404700 0.873762
O O13 0.000000 0.500000 0.748362
O O14 0.750000 0.318480 0.137600
O O15 0.463670 0.347013 0.069337
O O16 0.250000 0.324151 0.919396
#
# Coordination Sequence:
#
# PCOD8184220 Si02
#       6
#     8   8   8   8   8   8
#     4  11  23  40  65  94 125 162 206 259 322 382
#     4  10  21  39  63  92 127 164 209 263 315 372
#     4   9  19  34  56  86 118 155 195 247 302 358
#     4  11  25  43  64  92 129 172 219 265 318 383
#     4  10  22  41  61  87 122 158 204 256 310 374
#     4  11  25  43  63  89 123 165 211 260 316 381
#
# _framework density 20.569289000000001
#
# number of rings (size 3 to 8) (size 9 to 14) (size 15 to 20)
#    0.000    1.667    0.000    5.000    2.333    8.667 
#    0.000    3.333    0.000    0.000    0.000    0.000 
#    0.000    0.000    0.000    0.000    0.000    0.000 
#
# Total GULP energy -297540.413538 kJ/mol
# GULP energy per Si atom -12397.517231 kJ/mol
# Density = 2.052247 g / cm^3
# Si number density = 20.569289 Si / 1000 Ang^3
#
#
#
# Elastic Constant Matrix: (Units=GPa)
#
#
# Indices 1 2 3 4 5 6 
#
# 1 104.9398 39.5298 21.4881 0.0000 0.0000 0.0000
# 2 39.5298 91.9283 24.9172 0.0000 0.0000 0.0000
# 3 21.4881 24.9172 96.1943 0.0000 0.0000 0.0000
# 4 0.0000 0.0000 0.0000 15.7128 0.0000 0.0000
# 5 0.0000 0.0000 0.0000 0.0000 39.3641 0.0000
# 6 0.0000 0.0000 0.0000 0.0000 0.0000 34.6966
#
#
#
# Elastic Compliance Matrix: (Units=1/GPa)
#
#
# Indices 1 2 3 4 5 6 
#
# 1 0.011541 -0.004586 -0.001390 0.000000 0.000000 0.000000
# 2 -0.004586 0.013522 -0.002478 0.000000 0.000000 0.000000
# 3 -0.001390 -0.002478 0.011348 0.000000 0.000000 0.000000
# 4 0.000000 0.000000 0.000000 0.063642 0.000000 0.000000
# 5 0.000000 0.000000 0.000000 0.000000 0.025404 0.000000
# 6 0.000000 0.000000 0.000000 0.000000 0.000000 0.028821
#
#
# Mechanical properties :
#
#
# Convention : Reuss Voigt Hill
#
# Bulk Modulus (GPa) = 51.27545 51.65919 51.46732
# Shear Modulus (GPa) = 28.13912 31.76317 29.95114
#
# Velocity S-wave (km/s) = 3.70268 3.93390 3.82004
# Velocity P-wave (km/s) = 6.57739 6.76781 6.67328
#
# Compressibility (1/GPa) = 0.01950251
#
# Stress axis : x y z
#
# Youngs Moduli (GPa) = 86.64395 73.95469 88.12068
#
# Poissons Ratio (x) = 0.33916 0.12251
# Poissons Ratio (y) = 0.39736 0.21837
# Poissons Ratio (z) = 0.12045 0.18327
#
# Static dielectric constant tensor:
#      x y z
#    x 3.814600 0.000000 0.000000 
#    y 0.000000 3.757630 0.000000 
#    z 0.000000 0.000000 3.681940 
# 
# 
# High freq. dielectric constant tensor:
#      x y z
#    x 1.814920 0.000000 0.000000 
#    y 0.000000 1.806260 0.000000 
#    z 0.000000 0.000000 1.802860 
# 
# From -- ./inp_files/10248.got.cif
#   From: 2010.03.12/outbox.cif.g09.slc.cpg/sg40_6_cif.got.tgz:10248.got - 2010.04.14 01:38:03.
