data_PCOD8184681
_publ_section_title
;
Structure prediction by ZEFSAII (Michael W. Deem and Ramdas Pophale) SiO2 
 PCOD8184681
Probable space group: A M A 2
;
_chemical_formula_sum "Si O2"
_cell_formula_units_Z 40
_cell_length_a 14.538362
_cell_length_b 13.800292
_cell_length_c 9.128489
_cell_angle_alpha 90.000000
_cell_angle_beta 90.000000
_cell_angle_gamma 90.000000
_cell_volume 1831.481983
_symmetry_space_group_name_H-M "A M A 2"
_symmetry_group_IT_number 40
_symmetry_cell_setting 'orthorhombic'
loop_
_space_group_symop_operation_xyz
x,y,z
-x,-y,z
1/2-x,y,z
1/2+x,-y,z
x,1/2+y,1/2+z
-x,1/2-y,1/2+z
1/2-x,1/2+y,1/2+z
1/2+x,1/2-y,1/2+z
loop_
_atom_site_type_symbol
_atom_site_label
_atom_site_fract_x
_atom_site_fract_y
_atom_site_fract_z
Si Si1 0.394516 0.770955 0.212750
Si Si2 0.250000 0.264361 0.473919
Si Si3 0.083058 0.059348 0.804669
Si Si4 0.554240 0.905458 0.141726
Si Si5 0.250000 0.371396 0.902789
Si Si6 0.250000 0.922816 0.742484
Si Si7 0.750000 0.415218 0.787958
O O1 0.397690 0.655197 0.212749
O O2 0.496964 0.813309 0.200574
O O3 0.341137 0.811305 0.356339
O O4 0.338739 0.797512 0.066213
O O5 0.250000 0.319907 0.321473
O O6 0.250000 0.149667 0.435544
O O7 0.166283 0.986264 0.797213
O O8 0.057117 0.092334 0.967522
O O9 0.000000 0.000000 0.731490
O O10 0.657985 0.893370 0.196883
O O11 0.500000 0.000000 0.202263
O O12 0.250000 0.472263 0.819988
O O13 0.250000 0.394161 0.073521
#
# Coordination Sequence:
#
# PCOD8184681 Si02
#       7
#     8   4   8   8   4   4   4
#     4  11  25  47  72 104 145 188 242 296 359 432
#     4  11  26  45  74 100 148 189 236 297 366 432
#     4  11  26  45  72 103 143 188 233 293 359 429
#     4  11  24  44  73 105 142 190 239 292 366 432
#     4  11  25  46  73 107 139 188 242 300 356 420
#     4  12  26  49  70 105 143 188 237 297 359 427
#     4  12  25  42  69 110 138 191 239 304 353 427
#
# _framework density 21.840236999999998
#
# number of rings (size 3 to 8) (size 9 to 14) (size 15 to 20)
#    0.000    0.800    2.000    5.400   11.200    0.000 
#    3.600    0.000    0.000    0.000    0.000    0.000 
#    0.000    0.000    0.000    0.000    0.000    0.000 
#
# Total GULP energy -248049.855667 kJ/mol
# GULP energy per Si atom -12402.492783 kJ/mol
# Density = 2.179053 g / cm^3
# Si number density = 21.840237 Si / 1000 Ang^3
#
#
#
# Elastic Constant Matrix: (Units=GPa)
#
#
# Indices 1 2 3 4 5 6 
#
# 1 165.1608 41.9621 23.1807 0.0000 0.0000 0.0000
# 2 41.9621 115.9369 16.0528 0.0000 0.0000 0.0000
# 3 23.1807 16.0528 70.0981 0.0000 0.0000 0.0000
# 4 0.0000 0.0000 0.0000 35.4855 0.0000 0.0000
# 5 0.0000 0.0000 0.0000 0.0000 20.6740 0.0000
# 6 0.0000 0.0000 0.0000 0.0000 0.0000 40.2315
#
#
#
# Elastic Compliance Matrix: (Units=1/GPa)
#
#
# Indices 1 2 3 4 5 6 
#
# 1 0.006872 -0.002244 -0.001759 0.000000 0.000000 0.000000
# 2 -0.002244 0.009640 -0.001466 0.000000 0.000000 0.000000
# 3 -0.001759 -0.001466 0.015183 0.000000 0.000000 0.000000
# 4 0.000000 0.000000 0.000000 0.028181 0.000000 0.000000
# 5 0.000000 0.000000 0.000000 0.000000 0.048370 0.000000
# 6 0.000000 0.000000 0.000000 0.000000 0.000000 0.024856
#
#
# Mechanical properties :
#
#
# Convention : Reuss Voigt Hill
#
# Bulk Modulus (GPa) = 48.17179 57.06522 52.61850
# Shear Modulus (GPa) = 33.12201 37.27821 35.20011
#
# Velocity S-wave (km/s) = 3.89853 4.13590 4.01897
# Velocity P-wave (km/s) = 6.50915 6.99948 6.75876
#
# Compressibility (1/GPa) = 0.02075904
#
# Stress axis : x y z
#
# Youngs Moduli (GPa) = 145.52764 103.73037 65.86343
#
# Poissons Ratio (x) = 0.23273 0.11582
# Poissons Ratio (y) = 0.32650 0.09654
# Poissons Ratio (z) = 0.25592 0.15204
#
# Static dielectric constant tensor:
#      x y z
#    x 4.366420 0.000000 0.000000 
#    y 0.000000 4.153020 0.000000 
#    z 0.000000 0.000000 3.722080 
# 
# 
# High freq. dielectric constant tensor:
#      x y z
#    x 1.874210 0.000000 0.000000 
#    y 0.000000 1.876940 0.000000 
#    z 0.000000 0.000000 1.847940 
# 
# From -- ./inp_files/6193.got.cif
#   From: 2010.03.12/outbox.cif.g09.slc.cpg/sg40_4_cif.got.tgz:6193.got - 2010.04.14 01:38:03.
