data_PCOD8184478
_publ_section_title
;
Structure prediction by ZEFSAII (Michael W. Deem and Ramdas Pophale) SiO2 
 PCOD8184478
Probable space group: A M A 2
;
_chemical_formula_sum "Si O2"
_cell_formula_units_Z 64
_cell_length_a 18.574296
_cell_length_b 11.696864
_cell_length_c 15.062332
_cell_angle_alpha 90.000000
_cell_angle_beta 90.000000
_cell_angle_gamma 90.000000
_cell_volume 3272.457527
_symmetry_space_group_name_H-M "A M A 2"
_symmetry_group_IT_number 40
_symmetry_cell_setting 'orthorhombic'
loop_
_space_group_symop_operation_xyz
x,y,z
-x,-y,z
1/2-x,y,z
1/2+x,-y,z
x,1/2+y,1/2+z
-x,1/2-y,1/2+z
1/2-x,1/2+y,1/2+z
1/2+x,1/2-y,1/2+z
loop_
_atom_site_type_symbol
_atom_site_label
_atom_site_fract_x
_atom_site_fract_y
_atom_site_fract_z
Si Si1 0.667067 0.214593 0.165740
Si Si2 0.411725 0.683369 0.781848
Si Si3 0.415537 0.014924 0.126017
Si Si4 0.918010 0.496140 0.928660
Si Si5 0.832373 0.458437 0.101050
Si Si6 0.427914 0.779282 0.324357
Si Si7 0.577109 0.442935 0.427643
Si Si8 0.664377 0.075614 0.781748
O O1 0.750000 0.180186 0.178181
O O2 0.658666 0.321009 0.098533
O O3 0.634949 0.259736 0.258250
O O4 0.622221 0.107342 0.132434
O O5 0.386887 0.603282 0.699864
O O6 0.399163 0.619862 0.875873
O O7 0.496082 0.714009 0.772536
O O8 0.362682 0.794753 0.780738
O O9 0.500000 0.000000 0.140818
O O10 0.395848 0.060216 0.028699
O O11 0.903475 0.598835 0.861323
O O12 0.000000 0.500000 0.960512
O O13 0.871742 0.511141 0.016679
O O14 0.750000 0.494594 0.092468
O O15 0.863144 0.513234 0.192028
O O16 0.431951 0.688956 0.403007
O O17 0.500000 0.500000 0.417803
O O18 0.633532 0.509740 0.366791
O O19 0.750000 0.073587 0.789607
#
# Coordination Sequence:
#
# PCOD8184478 Si02
#       8
#     8   8   8   8   8   8   8   8
#     4  11  23  41  66  91 125 172 214 259 319 380
#     4  11  22  42  65  92 129 166 209 264 321 378
#     4  11  23  41  66  96 129 165 210 268 318 379
#     4  10  23  39  65  95 122 160 211 260 312 376
#     4  10  24  43  62  91 127 167 212 258 318 381
#     4  11  21  42  66  93 126 164 212 264 315 376
#     4  11  24  40  66  98 126 169 218 261 322 386
#     4  11  25  43  61  90 132 170 208 263 321 380
#
# _framework density 19.557168000000001
#
# number of rings (size 3 to 8) (size 9 to 14) (size 15 to 20)
#    0.000    1.250    5.000    0.375    3.500    4.500 
#    0.000    0.000    0.000    0.000    0.000    0.000 
#    0.000    0.000    0.000    0.000    0.000    0.000 
#
# Total GULP energy -396891.735502 kJ/mol
# GULP energy per Si atom -12402.866734 kJ/mol
# Density = 1.951265 g / cm^3
# Si number density = 19.557168 Si / 1000 Ang^3
#
#
#
# Elastic Constant Matrix: (Units=GPa)
#
#
# Indices 1 2 3 4 5 6 
#
# 1 79.6807 28.5662 39.1365 0.0000 0.0000 0.0000
# 2 28.5662 92.3121 20.0352 0.0000 0.0000 0.0000
# 3 39.1365 20.0352 106.6482 0.0000 0.0000 0.0000
# 4 0.0000 0.0000 0.0000 20.1141 0.0000 0.0000
# 5 0.0000 0.0000 0.0000 0.0000 18.7144 0.0000
# 6 0.0000 0.0000 0.0000 0.0000 0.0000 34.2021
#
#
#
# Elastic Compliance Matrix: (Units=1/GPa)
#
#
# Indices 1 2 3 4 5 6 
#
# 1 0.016601 -0.003977 -0.005345 0.000000 0.000000 0.000000
# 2 -0.003977 0.012246 -0.000841 0.000000 0.000000 0.000000
# 3 -0.005345 -0.000841 0.011496 0.000000 0.000000 0.000000
# 4 0.000000 0.000000 0.000000 0.049716 0.000000 0.000000
# 5 0.000000 0.000000 0.000000 0.000000 0.053435 0.000000
# 6 0.000000 0.000000 0.000000 0.000000 0.000000 0.029238
#
#
# Mechanical properties :
#
#
# Convention : Reuss Voigt Hill
#
# Bulk Modulus (GPa) = 49.95778 50.45741 50.20760
# Shear Modulus (GPa) = 25.03363 27.33300 26.18331
#
# Velocity S-wave (km/s) = 3.58162 3.74250 3.66294
# Velocity P-wave (km/s) = 6.53483 6.67316 6.60435
#
# Compressibility (1/GPa) = 0.02001690
#
# Stress axis : x y z
#
# Youngs Moduli (GPa) = 60.23658 81.65851 86.98638
#
# Poissons Ratio (x) = 0.32477 0.46494
# Poissons Ratio (y) = 0.23957 0.07316
# Poissons Ratio (z) = 0.32196 0.06868
#
# Static dielectric constant tensor:
#      x y z
#    x 3.487500 0.000000 0.000000 
#    y 0.000000 3.643850 0.000000 
#    z 0.000000 0.000000 3.614000 
# 
# 
# High freq. dielectric constant tensor:
#      x y z
#    x 1.754170 0.000000 0.000000 
#    y 0.000000 1.775260 0.000000 
#    z 0.000000 0.000000 1.766950 
# 
# From -- ./inp_files/17837.got.cif
#   From: 2010.03.12/outbox.cif.g09.slc.cpg/sg40_9_cif.got.tgz:17837.got - 2010.04.14 01:38:03.
