data_PCOD8184186
_publ_section_title
;
Structure prediction by ZEFSAII (Michael W. Deem and Ramdas Pophale) SiO2 
 PCOD8184186
Probable space group: A M A 2
;
_chemical_formula_sum "Si O2"
_cell_formula_units_Z 64
_cell_length_a 19.052560
_cell_length_b 11.872572
_cell_length_c 14.186630
_cell_angle_alpha 90.000000
_cell_angle_beta 90.000000
_cell_angle_gamma 90.000000
_cell_volume 3209.056711
_symmetry_space_group_name_H-M "A M A 2"
_symmetry_group_IT_number 40
_symmetry_cell_setting 'orthorhombic'
loop_
_space_group_symop_operation_xyz
x,y,z
-x,-y,z
1/2-x,y,z
1/2+x,-y,z
x,1/2+y,1/2+z
-x,1/2-y,1/2+z
1/2-x,1/2+y,1/2+z
1/2+x,1/2-y,1/2+z
loop_
_atom_site_type_symbol
_atom_site_label
_atom_site_fract_x
_atom_site_fract_y
_atom_site_fract_z
Si Si1 0.170826 0.583107 0.091790
Si Si2 0.060467 0.586718 0.355911
Si Si3 0.923188 0.522756 0.767674
Si Si4 0.934830 0.789286 0.054319
Si Si5 0.428554 0.950275 0.479767
Si Si6 0.670807 0.068797 0.772188
Si Si7 0.834023 0.318913 0.715973
Si Si8 0.071825 0.254520 0.682229
O O1 0.250000 0.616990 0.068758
O O2 0.164588 0.485905 0.169461
O O3 0.130729 0.694991 0.121006
O O4 0.135384 0.535802 0.997419
O O5 0.052859 0.634258 0.461820
O O6 0.130170 0.509688 0.346735
O O7 0.054805 0.684825 0.277591
O O8 0.000000 0.500000 0.332154
O O9 0.939306 0.569696 0.870542
O O10 0.869390 0.418690 0.776706
O O11 0.891646 0.626832 0.709008
O O12 0.000000 0.500000 0.721428
O O13 0.869185 0.837242 0.113486
O O14 0.003249 0.778551 0.119698
O O15 0.909431 0.667140 0.025265
O O16 0.500000 0.000000 0.526027
O O17 0.750000 0.069357 0.809033
O O18 0.644472 0.198726 0.762927
O O19 0.750000 0.332135 0.708835
#
# Coordination Sequence:
#
# PCOD8184186 Si02
#       8
#     8   8   8   8   8   8   8   8
#     4  10  21  38  64  95 127 166 214 272 326 378
#     4  11  25  38  66  98 125 166 216 268 327 384
#     4  11  24  41  64  94 133 171 212 268 321 388
#     4  12  23  40  64  97 129 168 217 271 320 385
#     4  11  22  38  64  96 126 168 226 272 317 382
#     4   9  20  41  65  90 123 164 212 264 319 382
#     4  11  24  42  67  93 129 177 215 260 329 392
#     4  11  23  42  66  95 131 169 215 272 325 388
#
# _framework density 19.943556000000001
#
# number of rings (size 3 to 8) (size 9 to 14) (size 15 to 20)
#    0.000    1.250    5.000    0.750    3.500    1.500 
#    0.000    0.000    0.000    0.000    0.000    0.000 
#    0.000    0.000    0.000    0.000    0.000    0.000 
#
# Total GULP energy -396652.033181 kJ/mol
# GULP energy per Si atom -12395.376037 kJ/mol
# Density = 1.989816 g / cm^3
# Si number density = 19.943556 Si / 1000 Ang^3
#
#
#
# Elastic Constant Matrix: (Units=GPa)
#
#
# Indices 1 2 3 4 5 6 
#
# 1 125.2184 50.7810 30.5566 0.0000 0.0000 0.0000
# 2 50.7810 122.3118 38.2621 0.0000 0.0000 0.0000
# 3 30.5566 38.2621 70.0523 0.0000 0.0000 0.0000
# 4 0.0000 0.0000 0.0000 30.6256 0.0000 0.0000
# 5 0.0000 0.0000 0.0000 0.0000 14.1209 0.0000
# 6 0.0000 0.0000 0.0000 0.0000 0.0000 31.5429
#
#
#
# Elastic Compliance Matrix: (Units=1/GPa)
#
#
# Indices 1 2 3 4 5 6 
#
# 1 0.009957 -0.003347 -0.002515 0.000000 0.000000 0.000000
# 2 -0.003347 0.010986 -0.004540 0.000000 0.000000 0.000000
# 3 -0.002515 -0.004540 0.017852 0.000000 0.000000 0.000000
# 4 0.000000 0.000000 0.000000 0.032652 0.000000 0.000000
# 5 0.000000 0.000000 0.000000 0.000000 0.070817 0.000000
# 6 0.000000 0.000000 0.000000 0.000000 0.000000 0.031703
#
#
# Mechanical properties :
#
#
# Convention : Reuss Voigt Hill
#
# Bulk Modulus (GPa) = 55.58710 61.86467 58.72589
# Shear Modulus (GPa) = 24.90422 28.45674 26.68048
#
# Velocity S-wave (km/s) = 3.53758 3.78148 3.66156
# Velocity P-wave (km/s) = 6.67972 7.08190 6.88375
#
# Compressibility (1/GPa) = 0.01798978
#
# Stress axis : x y z
#
# Youngs Moduli (GPa) = 100.42953 91.02619 56.01609
#
# Poissons Ratio (x) = 0.30469 0.14088
# Poissons Ratio (y) = 0.33616 0.25433
# Poissons Ratio (z) = 0.25259 0.41329
#
# Static dielectric constant tensor:
#      x y z
#    x 3.775350 0.000000 0.000000 
#    y 0.000000 3.854540 0.000000 
#    z 0.000000 0.000000 3.487470 
# 
# 
# High freq. dielectric constant tensor:
#      x y z
#    x 1.772630 0.000000 0.000000 
#    y 0.000000 1.792680 0.000000 
#    z 0.000000 0.000000 1.767290 
# 
# From -- ./inp_files/17866.got.cif
#   From: 2010.03.12/outbox.cif.g09.slc.cpg/sg40_9_cif.got.tgz:17866.got - 2010.04.14 01:38:03.
