data_PCOD8184717
_publ_section_title
;
Structure prediction by ZEFSAII (Michael W. Deem and Ramdas Pophale) SiO2 
 PCOD8184717
Probable space group: A M A 2
;
_chemical_formula_sum "Si O2"
_cell_formula_units_Z 40
_cell_length_a 27.339085
_cell_length_b 9.368649
_cell_length_c 9.389089
_cell_angle_alpha 90.000000
_cell_angle_beta 90.000000
_cell_angle_gamma 90.000000
_cell_volume 2404.830101
_symmetry_space_group_name_H-M "A M A 2"
_symmetry_group_IT_number 40
_symmetry_cell_setting 'orthorhombic'
loop_
_space_group_symop_operation_xyz
x,y,z
-x,-y,z
1/2-x,y,z
1/2+x,-y,z
x,1/2+y,1/2+z
-x,1/2-y,1/2+z
1/2-x,1/2+y,1/2+z
1/2+x,1/2-y,1/2+z
loop_
_atom_site_type_symbol
_atom_site_label
_atom_site_fract_x
_atom_site_fract_y
_atom_site_fract_z
Si Si1 0.875063 0.184469 0.726300
Si Si2 0.557704 0.997917 0.913263
Si Si3 0.374747 0.258982 0.904280
Si Si4 0.375220 0.492181 0.669699
Si Si5 0.307711 0.001631 0.913706
O O1 0.922869 0.111747 0.796848
O O2 0.874363 0.160893 0.556358
O O3 0.875667 0.354901 0.748555
O O4 0.827326 0.113944 0.799327
O O5 0.500000 0.000000 0.909715
O O6 0.577271 0.838700 0.881009
O O7 0.577156 0.034577 0.071395
O O8 0.375014 0.379145 0.790513
O O9 0.327060 0.160531 0.878593
O O10 0.327223 0.468117 0.572389
O O11 0.250000 0.997585 0.910320
#
# Coordination Sequence:
#
# PCOD8184717 Si02
#       5
#     8   8   8   8   8
#     4   8  18  33  51  73 100 129 161 202 243 286
#     4   9  19  35  52  72 100 131 163 201 244 290
#     4   9  19  34  51  73 100 128 162 203 243 288
#     4   9  19  35  52  72 100 131 163 201 244 290
#     4   9  19  35  52  72 100 131 163 201 244 290
#
# _framework density 16.633191
#
# number of rings (size 3 to 8) (size 9 to 14) (size 15 to 20)
#    0.000    4.000    0.000    0.000    0.000   13.600 
#    0.000    1.000    0.000    0.000    0.000    0.000 
#    0.000    0.000    0.000    0.000    0.000    0.000 
#
# Total GULP energy -247794.324675 kJ/mol
# GULP energy per Si atom -12389.716234 kJ/mol
# Density = 1.659533 g / cm^3
# Si number density = 16.633191 Si / 1000 Ang^3
#
#
#
# Elastic Constant Matrix: (Units=GPa)
#
#
# Indices 1 2 3 4 5 6 
#
# 1 185.0263 60.0155 61.0194 0.0000 0.0000 0.0000
# 2 60.0155 127.0972 114.6994 0.0000 0.0000 0.0000
# 3 61.0194 114.6994 131.6381 0.0000 0.0000 0.0000
# 4 0.0000 0.0000 0.0000 53.5054 0.0000 0.0000
# 5 0.0000 0.0000 0.0000 0.0000 10.5489 0.0000
# 6 0.0000 0.0000 0.0000 0.0000 0.0000 10.5394
#
#
#
# Elastic Compliance Matrix: (Units=1/GPa)
#
#
# Indices 1 2 3 4 5 6 
#
# 1 0.006451 -0.001627 -0.001573 0.000000 0.000000 0.000000
# 2 -0.001627 0.037233 -0.031688 0.000000 0.000000 0.000000
# 3 -0.001573 -0.031688 0.035936 0.000000 0.000000 0.000000
# 4 0.000000 0.000000 0.000000 0.018690 0.000000 0.000000
# 5 0.000000 0.000000 0.000000 0.000000 0.094797 0.000000
# 6 0.000000 0.000000 0.000000 0.000000 0.000000 0.094882
#
#
# Mechanical properties :
#
#
# Convention : Reuss Voigt Hill
#
# Bulk Modulus (GPa) = 101.57403 101.69224 101.63313
# Shear Modulus (GPa) = 13.84864 28.78723 21.31793
#
# Velocity S-wave (km/s) = 2.88859 4.16469 3.58390
# Velocity P-wave (km/s) = 8.50441 9.18679 8.85218
#
# Compressibility (1/GPa) = 0.00984504
#
# Stress axis : x y z
#
# Youngs Moduli (GPa) = 155.01465 26.85781 27.82707
#
# Poissons Ratio (x) = 0.04369 0.04377
# Poissons Ratio (y) = 0.25216 0.88179
# Poissons Ratio (z) = 0.24383 0.85107
#
# Static dielectric constant tensor:
#      x y z
#    x 2.940390 0.000000 0.000000 
#    y 0.000000 3.145510 0.000000 
#    z 0.000000 0.000000 3.155020 
# 
# 
# High freq. dielectric constant tensor:
#      x y z
#    x 1.626520 0.000000 0.000000 
#    y 0.000000 1.645660 0.000000 
#    z 0.000000 0.000000 1.646280 
# 
# From -- ./inp_files/9043.got.cif
#   From: 2010.03.12/outbox.cif.g09.slc.cpg/sg40_5_cif.got.tgz:9043.got - 2010.04.14 01:38:03.
