data_PCOD8184134
_publ_section_title
;
Structure prediction by ZEFSAII (Michael W. Deem and Ramdas Pophale) SiO2 
 PCOD8184134
Probable space group: A M A 2
;
_chemical_formula_sum "Si O2"
_cell_formula_units_Z 64
_cell_length_a 8.655575
_cell_length_b 15.293933
_cell_length_c 23.378778
_cell_angle_alpha 90.000000
_cell_angle_beta 90.000000
_cell_angle_gamma 90.000000
_cell_volume 3094.830827
_symmetry_space_group_name_H-M "A M A 2"
_symmetry_group_IT_number 40
_symmetry_cell_setting 'orthorhombic'
loop_
_space_group_symop_operation_xyz
x,y,z
-x,-y,z
1/2-x,y,z
1/2+x,-y,z
x,1/2+y,1/2+z
-x,1/2-y,1/2+z
1/2-x,1/2+y,1/2+z
1/2+x,1/2-y,1/2+z
loop_
_atom_site_type_symbol
_atom_site_label
_atom_site_fract_x
_atom_site_fract_y
_atom_site_fract_z
Si Si1 0.571723 0.907896 0.522940
Si Si2 0.567842 0.237313 0.601587
Si Si3 0.932191 0.908806 0.037202
Si Si4 0.069093 0.146435 0.912355
Si Si5 0.068157 0.742117 0.222941
Si Si6 0.068860 0.910361 0.798231
Si Si7 0.073208 0.668883 0.901710
Si Si8 0.068470 0.593176 0.780470
O O1 0.750000 0.903900 0.541980
O O2 0.475774 0.832921 0.553985
O O3 0.553932 0.895987 0.454975
O O4 0.500000 0.000000 0.541132
O O5 0.750000 0.234826 0.612364
O O6 0.511990 0.332211 0.579531
O O7 0.480007 0.213739 0.659580
O O8 0.750000 0.914099 0.037248
O O9 0.991292 0.888642 0.973227
O O10 0.000000 0.000000 0.059698
O O11 0.250000 0.128736 0.902785
O O12 0.971536 0.094597 0.865176
O O13 0.039659 0.249601 0.909007
O O14 0.250000 0.744254 0.228881
O O15 0.003643 0.672791 0.267717
O O16 0.000414 0.836982 0.236549
O O17 0.250000 0.909642 0.788277
O O18 0.000000 0.000000 0.772290
O O19 0.250000 0.702533 0.896118
O O20 0.022131 0.616465 0.845384
O O21 0.250000 0.590874 0.771723
O O22 0.000000 0.500000 0.763792
#
# Coordination Sequence:
#
# PCOD8184134 Si02
#       8
#     8   8   8   8   8   8   8   8
#     4  11  23  40  64  96 129 168 211 259 314 376
#     4  11  24  45  66  90 124 166 213 267 317 372
#     4  10  23  40  63  94 127 165 207 254 310 368
#     4  11  21  37  63  96 130 169 208 254 313 375
#     4  12  26  45  67  94 124 165 214 267 320 377
#     4  12  25  43  66  96 130 168 209 259 315 379
#     4  10  21  37  62  94 130 169 208 255 314 374
#     4  11  23  41  65  96 130 170 212 259 315 375
#
# _framework density 20.679642999999999
#
# number of rings (size 3 to 8) (size 9 to 14) (size 15 to 20)
#    0.000    1.000    2.500    4.500    0.000    5.000 
#    0.000    3.750    0.000    0.000    0.000    0.000 
#    0.000    0.000    0.000    0.000    0.000    0.000 
#
# Total GULP energy -397038.283021 kJ/mol
# GULP energy per Si atom -12407.446344 kJ/mol
# Density = 2.063258 g / cm^3
# Si number density = 20.679643 Si / 1000 Ang^3
#
#
#
# Elastic Constant Matrix: (Units=GPa)
#
#
# Indices 1 2 3 4 5 6 
#
# 1 90.6808 39.4639 20.3242 0.0000 0.0000 0.0000
# 2 39.4639 122.1120 5.0854 0.0000 0.0000 0.0000
# 3 20.3242 5.0854 68.2996 0.0000 0.0000 0.0000
# 4 0.0000 0.0000 0.0000 9.8723 0.0000 0.0000
# 5 0.0000 0.0000 0.0000 0.0000 11.0686 0.0000
# 6 0.0000 0.0000 0.0000 0.0000 0.0000 38.8175
#
#
#
# Elastic Compliance Matrix: (Units=1/GPa)
#
#
# Indices 1 2 3 4 5 6 
#
# 1 0.013736 -0.004282 -0.003769 0.000000 0.000000 0.000000
# 2 -0.004282 0.009550 0.000563 0.000000 0.000000 0.000000
# 3 -0.003769 0.000563 0.015721 0.000000 0.000000 0.000000
# 4 0.000000 0.000000 0.000000 0.101293 0.000000 0.000000
# 5 0.000000 0.000000 0.000000 0.000000 0.090346 0.000000
# 6 0.000000 0.000000 0.000000 0.000000 0.000000 0.025762
#
#
# Mechanical properties :
#
#
# Convention : Reuss Voigt Hill
#
# Bulk Modulus (GPa) = 41.61243 45.64884 43.63063
# Shear Modulus (GPa) = 17.89593 26.36627 22.13110
#
# Velocity S-wave (km/s) = 2.94494 3.57457 3.27492
# Velocity P-wave (km/s) = 5.63291 6.25771 5.95351
#
# Compressibility (1/GPa) = 0.02403128
#
# Stress axis : x y z
#
# Youngs Moduli (GPa) = 72.80164 104.71572 63.60966
#
# Poissons Ratio (x) = 0.44841 0.23972
# Poissons Ratio (y) = 0.31175 -0.03583
# Poissons Ratio (z) = 0.27436 -0.05898
#
# Static dielectric constant tensor:
#      x y z
#    x 3.760180 0.000000 0.000000 
#    y 0.000000 4.022750 0.000000 
#    z 0.000000 0.000000 3.773530 
# 
# 
# High freq. dielectric constant tensor:
#      x y z
#    x 1.815240 0.000000 0.000000 
#    y 0.000000 1.819970 0.000000 
#    z 0.000000 0.000000 1.808110 
# 
# From -- ./inp_files/24324.got.cif
#   From: 2010.03.12/outbox.cif.g09.slc.cpg/sg40_13_cif.got.tgz:24324.got - 2010.04.14 01:38:03.
