data_PCOD8184071
_publ_section_title
;
Structure prediction by ZEFSAII (Michael W. Deem and Ramdas Pophale) SiO2 
 PCOD8184071
Probable space group: A M A 2
;
_chemical_formula_sum "Si O2"
_cell_formula_units_Z 48
_cell_length_a 9.029387
_cell_length_b 9.122237
_cell_length_c 30.388302
_cell_angle_alpha 90.000000
_cell_angle_beta 90.000000
_cell_angle_gamma 90.000000
_cell_volume 2503.029985
_symmetry_space_group_name_H-M "A M A 2"
_symmetry_group_IT_number 40
_symmetry_cell_setting 'orthorhombic'
loop_
_space_group_symop_operation_xyz
x,y,z
-x,-y,z
1/2-x,y,z
1/2+x,-y,z
x,1/2+y,1/2+z
-x,1/2-y,1/2+z
1/2-x,1/2+y,1/2+z
1/2+x,1/2-y,1/2+z
loop_
_atom_site_type_symbol
_atom_site_label
_atom_site_fract_x
_atom_site_fract_y
_atom_site_fract_z
Si Si1 0.578316 0.346414 0.682380
Si Si2 0.424573 0.845438 0.763571
Si Si3 0.924705 0.656347 0.522532
Si Si4 0.921779 0.852608 0.441982
Si Si5 0.075644 0.344975 0.096921
Si Si6 0.076223 0.148821 0.343097
O O1 0.500000 0.500000 0.676493
O O2 0.750000 0.379443 0.687873
O O3 0.517743 0.262545 0.725352
O O4 0.544354 0.249889 0.639903
O O5 0.250000 0.868309 0.759915
O O6 0.472317 0.779421 0.810752
O O7 0.500000 0.000000 0.757048
O O8 0.750000 0.642564 0.531845
O O9 0.958139 0.716477 0.473596
O O10 0.000000 0.500000 0.527987
O O11 0.997492 0.769008 0.555933
O O12 0.750000 0.890017 0.442529
O O13 0.974728 0.810080 0.392683
O O14 0.000000 0.000000 0.459011
O O15 0.250000 0.363812 0.087534
O O16 0.000000 0.500000 0.104937
O O17 0.250000 0.122031 0.340156
O O18 0.000000 0.000000 0.327053
#
# Coordination Sequence:
#
# PCOD8184071 Si02
#       6
#     8   8   8   8   8   8
#     4  10  22  38  57  82 110 141 178 221 267 317
#     4  10  21  36  54  79 110 142 178 219 264 316
#     4  11  23  38  56  80 111 145 183 226 272 322
#     4   9  19  35  55  79 107 140 178 222 269 319
#     4  11  23  39  59  83 111 143 181 223 270 322
#     4   9  18  34  55  79 107 139 178 221 266 318
#
# _framework density 19.176756999999998
#
# number of rings (size 3 to 8) (size 9 to 14) (size 15 to 20)
#    0.000    2.000    0.000    3.000    0.000    7.333 
#    0.000    0.000    0.000    0.000    0.000    0.000 
#    0.000    0.000    0.000    0.000    0.000    0.000 
#
# Total GULP energy -297669.306080 kJ/mol
# GULP energy per Si atom -12402.887753 kJ/mol
# Density = 1.913311 g / cm^3
# Si number density = 19.176757 Si / 1000 Ang^3
#
#
#
# Elastic Constant Matrix: (Units=GPa)
#
#
# Indices 1 2 3 4 5 6 
#
# 1 69.9368 66.0820 52.5703 0.0000 0.0000 0.0000
# 2 66.0820 153.1892 61.9852 0.0000 0.0000 0.0000
# 3 52.5703 61.9852 108.5058 0.0000 0.0000 0.0000
# 4 0.0000 0.0000 0.0000 19.0063 0.0000 0.0000
# 5 0.0000 0.0000 0.0000 0.0000 25.8119 0.0000
# 6 0.0000 0.0000 0.0000 0.0000 0.0000 39.8517
#
#
#
# Elastic Compliance Matrix: (Units=1/GPa)
#
#
# Indices 1 2 3 4 5 6 
#
# 1 0.029911 -0.009155 -0.009262 0.000000 0.000000 0.000000
# 2 -0.009155 0.011293 -0.002015 0.000000 0.000000 0.000000
# 3 -0.009262 -0.002015 0.014855 0.000000 0.000000 0.000000
# 4 0.000000 0.000000 0.000000 0.052614 0.000000 0.000000
# 5 0.000000 0.000000 0.000000 0.000000 0.038742 0.000000
# 6 0.000000 0.000000 0.000000 0.000000 0.000000 0.025093
#
#
# Mechanical properties :
#
#
# Convention : Reuss Voigt Hill
#
# Bulk Modulus (GPa) = 65.81669 76.98965 71.40317
# Shear Modulus (GPa) = 22.88992 27.00029 24.94511
#
# Velocity S-wave (km/s) = 3.45864 3.75636 3.61057
# Velocity P-wave (km/s) = 7.09543 7.68428 7.39572
#
# Compressibility (1/GPa) = 0.01519371
#
# Stress axis : x y z
#
# Youngs Moduli (GPa) = 33.43237 88.55226 67.31914
#
# Poissons Ratio (x) = 0.81073 0.62348
# Poissons Ratio (y) = 0.30609 0.13568
# Poissons Ratio (z) = 0.30964 0.17847
#
# Static dielectric constant tensor:
#      x y z
#    x 3.510730 0.000000 0.000000 
#    y 0.000000 3.422220 0.000000 
#    z 0.000000 0.000000 3.904410 
# 
# 
# High freq. dielectric constant tensor:
#      x y z
#    x 1.744550 0.000000 0.000000 
#    y 0.000000 1.749290 0.000000 
#    z 0.000000 0.000000 1.763740 
# 
# From -- ./inp_files/26110.got.cif
#   From: 2010.03.12/outbox.cif.g09.slc.cpg/sg40_14_cif.got.tgz:26110.got - 2010.04.14 01:38:03.
