data_PCOD8184801
_publ_section_title
;
Structure prediction by ZEFSAII (Michael W. Deem and Ramdas Pophale) SiO2 
 PCOD8184801
Probable space group: A B A 2
;
_chemical_formula_sum "Si O2"
_cell_formula_units_Z 60
_cell_length_a 28.661488
_cell_length_b 21.178999
_cell_length_c 5.161874
_cell_angle_alpha 90.000000
_cell_angle_beta 90.000000
_cell_angle_gamma 90.000000
_cell_volume 3133.369147
_symmetry_space_group_name_H-M "A B A 2"
_symmetry_group_IT_number 41
_symmetry_cell_setting 'orthorhombic'
loop_
_space_group_symop_operation_xyz
x,y,z
-x,-y,z
1/2-x,y,1/2+z
1/2+x,-y,1/2+z
x,1/2+y,1/2+z
-x,1/2-y,1/2+z
1/2-x,1/2+y,z
1/2+x,1/2-y,z
loop_
_atom_site_type_symbol
_atom_site_label
_atom_site_fract_x
_atom_site_fract_y
_atom_site_fract_z
Si Si1 0.500671 0.709071 0.202550
Si Si2 0.878992 0.429845 0.080594
Si Si3 0.771230 0.432020 0.973463
Si Si4 0.070442 0.399363 0.808157
Si Si5 0.931578 0.397376 0.558104
Si Si6 0.231594 0.927217 0.886368
Si Si7 0.000000 0.500000 0.682185
Si Si8 0.877141 0.066603 0.786245
O O1 0.487895 0.743337 0.470167
O O2 0.546160 0.666603 0.246172
O O3 0.455938 0.668253 0.123530
O O4 0.900568 0.384015 0.301217
O O5 0.891893 0.498211 0.187908
O O6 0.824027 0.421663 0.055713
O O7 0.900408 0.419064 0.799740
O O8 0.760108 0.399329 0.698802
O O9 0.756091 0.505359 0.953830
O O10 0.032332 0.454779 0.861323
O O11 0.101929 0.419552 0.565827
O O12 0.102081 0.387414 0.063931
O O13 0.969438 0.452893 0.502251
O O14 0.260441 0.891033 0.659141
O O15 0.178168 0.929745 0.807438
#
# Coordination Sequence:
#
# PCOD8184801 Si02
#       8
#     8   8   8   8   8   8   4   8
#     4  11  24  47  64  77 108 147 202 254 286 333
#     4  12  20  33  51  81 125 153 181 224 265 346
#     4  10  19  29  46  71 112 172 186 201 256 326
#     4  11  24  35  56  85 109 153 184 232 293 335
#     4  11  24  35  56  85 109 153 184 232 293 335
#     4  10  19  29  46  71 112 172 186 201 256 326
#     4  10  20  34  48  78 116 136 172 208 284 368
#     4  12  20  33  51  81 125 153 181 224 265 346
#
# _framework density 19.148717000000001
#
# number of rings (size 3 to 8) (size 9 to 14) (size 15 to 20)
#    0.000    1.067    5.333    3.200    3.733    4.267 
#    0.000    0.000    0.000    0.000    0.000    0.000 
#    0.000   74.667    0.000    0.000    0.000    0.000 
#
# Total GULP energy -371783.258215 kJ/mol
# GULP energy per Si atom -12392.775274 kJ/mol
# Density = 1.910513 g / cm^3
# Si number density = 19.148717 Si / 1000 Ang^3
#
#
#
# Elastic Constant Matrix: (Units=GPa)
#
#
# Indices 1 2 3 4 5 6 
#
# 1 134.2894 24.2540 53.9638 0.0000 0.0000 0.0000
# 2 24.2540 44.7278 2.8689 0.0000 0.0000 0.0000
# 3 53.9638 2.8689 145.5886 0.0000 0.0000 0.0000
# 4 0.0000 0.0000 0.0000 22.2058 0.0000 0.0000
# 5 0.0000 0.0000 0.0000 0.0000 31.2719 0.0000
# 6 0.0000 0.0000 0.0000 0.0000 0.0000 10.1765
#
#
#
# Elastic Compliance Matrix: (Units=1/GPa)
#
#
# Indices 1 2 3 4 5 6 
#
# 1 0.009780 -0.005077 -0.003525 0.000000 0.000000 0.000000
# 2 -0.005077 0.025022 0.001389 0.000000 0.000000 0.000000
# 3 -0.003525 0.001389 0.008148 0.000000 0.000000 0.000000
# 4 0.000000 0.000000 0.000000 0.045033 0.000000 0.000000
# 5 0.000000 0.000000 0.000000 0.000000 0.031978 0.000000
# 6 0.000000 0.000000 0.000000 0.000000 0.000000 0.098266
#
#
# Mechanical properties :
#
#
# Convention : Reuss Voigt Hill
#
# Bulk Modulus (GPa) = 35.05975 54.08657 44.57316
# Shear Modulus (GPa) = 20.64746 28.96546 24.80646
#
# Velocity S-wave (km/s) = 3.28726 3.89351 3.60316
# Velocity P-wave (km/s) = 5.72338 6.96559 6.37481
#
# Compressibility (1/GPa) = 0.02852273
#
# Stress axis : x y z
#
# Youngs Moduli (GPa) = 102.24801 39.96553 122.73109
#
# Poissons Ratio (x) = 0.20292 0.43263
# Poissons Ratio (y) = 0.51914 -0.17046
# Poissons Ratio (z) = 0.36043 -0.05551
#
# Static dielectric constant tensor:
#      x y z
#    x 3.632220 0.000000 0.000000 
#    y 0.000000 3.091030 0.000000 
#    z 0.000000 0.000000 4.897740 
# 
# 
# High freq. dielectric constant tensor:
#      x y z
#    x 1.757820 0.000000 0.000000 
#    y 0.000000 1.675160 0.000000 
#    z 0.000000 0.000000 1.775160 
# 
# From -- ./inp_files/1195.got.cif
#   From: 2010.03.12/outbox.cif.g09.slc.cpg/sg41_1_cif.got.tgz:1195.got - 2010.04.14 01:55:53.
