data_PCOD8184271
_publ_section_title
;
Structure prediction by ZEFSAII (Michael W. Deem and Ramdas Pophale) SiO2 
 PCOD8184271
Probable space group: A M A 2
;
_chemical_formula_sum "Si O2"
_cell_formula_units_Z 64
_cell_length_a 17.623869
_cell_length_b 12.565838
_cell_length_c 14.509134
_cell_angle_alpha 90.000000
_cell_angle_beta 90.000000
_cell_angle_gamma 90.000000
_cell_volume 3213.173704
_symmetry_space_group_name_H-M "A M A 2"
_symmetry_group_IT_number 40
_symmetry_cell_setting 'orthorhombic'
loop_
_space_group_symop_operation_xyz
x,y,z
-x,-y,z
1/2-x,y,z
1/2+x,-y,z
x,1/2+y,1/2+z
-x,1/2-y,1/2+z
1/2-x,1/2+y,1/2+z
1/2+x,1/2-y,1/2+z
loop_
_atom_site_type_symbol
_atom_site_label
_atom_site_fract_x
_atom_site_fract_y
_atom_site_fract_z
Si Si1 0.164402 0.134939 0.071420
Si Si2 0.838488 0.971383 0.601041
Si Si3 0.164956 0.343961 0.961925
Si Si4 0.929176 0.784650 0.515390
Si Si5 0.522619 0.121660 0.350622
Si Si6 0.161593 0.422096 0.463629
Si Si7 0.419271 0.452383 0.274821
Si Si8 0.461739 0.236238 0.182291
O O1 0.250000 0.137824 0.110963
O O2 0.107337 0.158890 0.154473
O O3 0.155128 0.221904 0.990939
O O4 0.144446 0.021112 0.029516
O O5 0.750000 0.954210 0.619854
O O6 0.869017 0.875984 0.538527
O O7 0.855115 0.082755 0.549930
O O8 0.882619 0.971259 0.697723
O O9 0.250000 0.368384 0.927558
O O10 0.110674 0.368868 0.876877
O O11 0.885453 0.674691 0.505259
O O12 0.970345 0.811486 0.420074
O O13 0.992584 0.776677 0.593888
O O14 0.516190 0.168816 0.248568
O O15 0.500000 0.000000 0.353478
O O16 0.250000 0.392506 0.461516
O O17 0.136163 0.451983 0.361330
O O18 0.500000 0.500000 0.304814
O O19 0.426441 0.334071 0.236970
#
# Coordination Sequence:
#
# PCOD8184271 Si02
#       8
#     8   8   8   8   8   8   8   8
#     4  10  23  43  67  94 130 176 220 265 327 397
#     4  11  22  40  68  98 130 172 219 276 332 384
#     4  10  21  40  68  96 127 170 218 267 325 387
#     4  12  24  44  68  96 139 172 220 275 328 398
#     4  12  25  44  66 100 131 172 222 273 324 389
#     4  11  27  46  66  96 136 179 222 276 336 396
#     4  12  24  41  66 102 132 169 224 279 332 396
#     4  12  26  42  67 100 131 175 220 269 330 393
#
# _framework density 19.918002999999999
#
# number of rings (size 3 to 8) (size 9 to 14) (size 15 to 20)
#    0.000    0.750    6.250    0.750    5.250    0.500 
#    0.000    1.875    0.000    0.000    0.000    0.000 
#    0.000    0.000    0.000    0.000    0.000    0.000 
#
# Total GULP energy -397022.686117 kJ/mol
# GULP energy per Si atom -12406.958941 kJ/mol
# Density = 1.987267 g / cm^3
# Si number density = 19.918003 Si / 1000 Ang^3
#
#
#
# Elastic Constant Matrix: (Units=GPa)
#
#
# Indices 1 2 3 4 5 6 
#
# 1 74.9547 25.6080 19.8612 0.0000 0.0000 0.0000
# 2 25.6080 98.3147 11.5571 0.0000 0.0000 0.0000
# 3 19.8612 11.5571 62.3679 0.0000 0.0000 0.0000
# 4 0.0000 0.0000 0.0000 25.6643 0.0000 0.0000
# 5 0.0000 0.0000 0.0000 0.0000 35.5424 0.0000
# 6 0.0000 0.0000 0.0000 0.0000 0.0000 32.6697
#
#
#
# Elastic Compliance Matrix: (Units=1/GPa)
#
#
# Indices 1 2 3 4 5 6 
#
# 1 0.015716 -0.003583 -0.004341 0.000000 0.000000 0.000000
# 2 -0.003583 0.011215 -0.000937 0.000000 0.000000 0.000000
# 3 -0.004341 -0.000937 0.017590 0.000000 0.000000 0.000000
# 4 0.000000 0.000000 0.000000 0.038965 0.000000 0.000000
# 5 0.000000 0.000000 0.000000 0.000000 0.028135 0.000000
# 6 0.000000 0.000000 0.000000 0.000000 0.000000 0.030609
#
#
# Mechanical properties :
#
#
# Convention : Reuss Voigt Hill
#
# Bulk Modulus (GPa) = 37.31562 38.85443 38.08503
# Shear Modulus (GPa) = 29.60595 30.68267 30.14431
#
# Velocity S-wave (km/s) = 3.85956 3.92911 3.89449
# Velocity P-wave (km/s) = 6.21586 6.33510 6.27576
#
# Compressibility (1/GPa) = 0.02679843
#
# Stress axis : x y z
#
# Youngs Moduli (GPa) = 63.63028 89.16711 56.85096
#
# Poissons Ratio (x) = 0.31951 0.24678
# Poissons Ratio (y) = 0.22800 0.05327
# Poissons Ratio (z) = 0.27620 0.08356
#
# Static dielectric constant tensor:
#      x y z
#    x 3.805690 0.000000 0.000000 
#    y 0.000000 3.692640 0.000000 
#    z 0.000000 0.000000 3.614100 
# 
# 
# High freq. dielectric constant tensor:
#      x y z
#    x 1.791450 0.000000 0.000000 
#    y 0.000000 1.789080 0.000000 
#    z 0.000000 0.000000 1.767290 
# 
# From -- ./inp_files/17855.got.cif
#   From: 2010.03.12/outbox.cif.g09.slc.cpg/sg40_9_cif.got.tgz:17855.got - 2010.04.14 01:38:03.
