data_PCOD8184692
_publ_section_title
;
Structure prediction by ZEFSAII (Michael W. Deem and Ramdas Pophale) SiO2 
 PCOD8184692
Probable space group: A M A 2
;
_chemical_formula_sum "Si O2"
_cell_formula_units_Z 60
_cell_length_a 26.543946
_cell_length_b 14.127661
_cell_length_c 6.558047
_cell_angle_alpha 90.000000
_cell_angle_beta 90.000000
_cell_angle_gamma 90.000000
_cell_volume 2459.293009
_symmetry_space_group_name_H-M "A M A 2"
_symmetry_group_IT_number 40
_symmetry_cell_setting 'orthorhombic'
loop_
_space_group_symop_operation_xyz
x,y,z
-x,-y,z
1/2-x,y,z
1/2+x,-y,z
x,1/2+y,1/2+z
-x,1/2-y,1/2+z
1/2-x,1/2+y,1/2+z
1/2+x,1/2-y,1/2+z
loop_
_atom_site_type_symbol
_atom_site_label
_atom_site_fract_x
_atom_site_fract_y
_atom_site_fract_z
Si Si1 0.395828 0.555277 0.436320
Si Si2 0.193530 0.220515 0.620635
Si Si3 0.693969 0.998905 0.720777
Si Si4 0.140645 0.862372 0.438721
Si Si5 0.051767 0.679450 0.136545
Si Si6 0.880794 0.788533 0.269418
Si Si7 0.967088 0.138580 0.370873
Si Si8 0.000000 0.000000 0.062919
O O1 0.348716 0.483001 0.395904
O O2 0.402933 0.616171 0.227567
O O3 0.384203 0.614566 0.639747
O O4 0.448359 0.498359 0.437216
O O5 0.250000 0.260094 0.603215
O O6 0.194521 0.114133 0.704078
O O7 0.163961 0.293296 0.768652
O O8 0.171245 0.216510 0.393897
O O9 0.750000 0.033355 0.786975
O O10 0.679194 0.056280 0.514204
O O11 0.119373 0.801270 0.624907
O O12 0.088220 0.912565 0.365243
O O13 0.040716 0.751913 0.318066
O O14 0.072481 0.722947 0.925254
O O15 0.998344 0.628502 0.083456
O O16 0.002456 0.093571 0.199614
#
# Coordination Sequence:
#
# PCOD8184692 Si02
#       8
#     8   8   8   8   8   8   8   4
#     4  12  26  49  72 106 148 192 246 304 376 452
#     4  11  25  49  77 105 145 194 249 310 374 441
#     4  11  26  48  75 104 145 194 246 311 372 438
#     4  12  26  46  75 107 147 195 245 314 369 452
#     4  12  24  47  68 104 141 196 246 292 366 444
#     4  12  22  48  73 104 142 193 244 302 369 443
#     4  12  25  43  71 101 145 191 238 302 362 442
#     4  12  30  40  68 112 142 188 238 296 368 446
#
# _framework density 24.397255999999999
#
# number of rings (size 3 to 8) (size 9 to 14) (size 15 to 20)
#    0.000    0.267    6.667    2.000    7.467    1.600 
#    0.000    0.000    0.000    0.000    0.000    0.000 
#    0.000    0.000    0.000    0.000    0.000    0.000 
#
# Total GULP energy -371792.510001 kJ/mol
# GULP energy per Si atom -12393.083667 kJ/mol
# Density = 2.434173 g / cm^3
# Si number density = 24.397256 Si / 1000 Ang^3
#
#
#
# Elastic Constant Matrix: (Units=GPa)
#
#
# Indices 1 2 3 4 5 6 
#
# 1 217.8958 29.5419 56.4274 0.0000 0.0000 0.0000
# 2 29.5419 53.0589 22.8806 0.0000 0.0000 0.0000
# 3 56.4274 22.8806 103.1225 0.0000 0.0000 0.0000
# 4 0.0000 0.0000 0.0000 25.3378 0.0000 0.0000
# 5 0.0000 0.0000 0.0000 0.0000 42.4565 0.0000
# 6 0.0000 0.0000 0.0000 0.0000 0.0000 29.6985
#
#
#
# Elastic Compliance Matrix: (Units=1/GPa)
#
#
# Indices 1 2 3 4 5 6 
#
# 1 0.005525 -0.001960 -0.002589 0.000000 0.000000 0.000000
# 2 -0.001960 0.021536 -0.003706 0.000000 0.000000 0.000000
# 3 -0.002589 -0.003706 0.011936 0.000000 0.000000 0.000000
# 4 0.000000 0.000000 0.000000 0.039467 0.000000 0.000000
# 5 0.000000 0.000000 0.000000 0.000000 0.023553 0.000000
# 6 0.000000 0.000000 0.000000 0.000000 0.000000 0.033672
#
#
# Mechanical properties :
#
#
# Convention : Reuss Voigt Hill
#
# Bulk Modulus (GPa) = 44.46703 65.75301 55.11002
# Shear Modulus (GPa) = 31.30966 37.18039 34.24503
#
# Velocity S-wave (km/s) = 3.58624 3.90803 3.75059
# Velocity P-wave (km/s) = 5.95097 6.88281 6.43378
#
# Compressibility (1/GPa) = 0.02248857
#
# Stress axis : x y z
#
# Youngs Moduli (GPa) = 180.98084 46.43295 83.78100
#
# Poissons Ratio (x) = 0.09102 0.21687
# Poissons Ratio (y) = 0.35475 0.31048
# Poissons Ratio (z) = 0.46848 0.17207
#
# Static dielectric constant tensor:
#      x y z
#    x 5.232110 0.000000 0.000000 
#    y 0.000000 4.153580 0.000000 
#    z 0.000000 0.000000 4.392270 
# 
# 
# High freq. dielectric constant tensor:
#      x y z
#    x 1.996230 0.000000 0.000000 
#    y 0.000000 1.952140 0.000000 
#    z 0.000000 0.000000 1.963110 
# 
# From -- ./inp_files/3181.got.cif
#   From: 2010.03.12/outbox.cif.g09.slc.cpg/sg40_2_cif.got.tgz:3181.got - 2010.04.14 01:38:03.
