data_PCOD8184102
_publ_section_title
;
Structure prediction by ZEFSAII (Michael W. Deem and Ramdas Pophale) SiO2 
 PCOD8184102
Probable space group: A M A 2
;
_chemical_formula_sum "Si O2"
_cell_formula_units_Z 56
_cell_length_a 8.882858
_cell_length_b 23.920792
_cell_length_c 13.781455
_cell_angle_alpha 90.000000
_cell_angle_beta 90.000000
_cell_angle_gamma 90.000000
_cell_volume 2928.352446
_symmetry_space_group_name_H-M "A M A 2"
_symmetry_group_IT_number 40
_symmetry_cell_setting 'orthorhombic'
loop_
_space_group_symop_operation_xyz
x,y,z
-x,-y,z
1/2-x,y,z
1/2+x,-y,z
x,1/2+y,1/2+z
-x,1/2-y,1/2+z
1/2-x,1/2+y,1/2+z
1/2+x,1/2-y,1/2+z
loop_
_atom_site_type_symbol
_atom_site_label
_atom_site_fract_x
_atom_site_fract_y
_atom_site_fract_z
Si Si1 0.925046 0.878469 0.417000
Si Si2 0.574352 0.331561 0.400180
Si Si3 0.428786 0.941520 0.584145
Si Si4 0.429489 0.165269 0.116262
Si Si5 0.072650 0.730016 0.800301
Si Si6 0.072786 0.057332 0.789067
Si Si7 0.574941 0.942060 0.224463
O O1 0.750000 0.878933 0.446366
O O2 0.973908 0.817557 0.377796
O O3 0.958231 0.924644 0.335021
O O4 0.026260 0.892542 0.509960
O O5 0.750000 0.319141 0.398850
O O6 0.507867 0.322590 0.508563
O O7 0.499196 0.288888 0.326179
O O8 0.539772 0.394653 0.367267
O O9 0.250000 0.947179 0.589859
O O10 0.494635 0.925244 0.688587
O O11 0.500000 0.000000 0.548334
O O12 0.250000 0.162838 0.116224
O O13 0.483754 0.212732 0.192272
O O14 0.490614 0.105275 0.152502
O O15 0.250000 0.736886 0.799965
O O16 0.250000 0.048608 0.771321
O O17 0.000000 0.000000 0.829060
O O18 0.750000 0.949112 0.206864
O O19 0.500000 0.000000 0.197705
#
# Coordination Sequence:
#
# PCOD8184102 Si02
#       7
#     8   8   8   8   8   8   8
#     4   9  18  33  51  75 108 143 176 214 261 313
#     4  10  21  37  58  80 104 135 172 214 261 309
#     4  11  21  33  52  77 106 142 180 221 266 315
#     4   8  17  36  55  73 102 139 171 204 253 310
#     4   9  19  36  57  78 105 139 175 214 257 309
#     4  10  21  37  55  77 106 138 173 218 264 312
#     4   9  17  30  50  74 103 138 173 209 254 304
#
# _framework density 19.123380000000001
#
# number of rings (size 3 to 8) (size 9 to 14) (size 15 to 20)
#    0.000    2.571    0.000    4.714    0.000    5.143 
#    0.000    6.429    0.000    0.000    0.000    0.000 
#    0.000    0.000    0.000    0.000    0.000    0.000 
#
# Total GULP energy -347164.147601 kJ/mol
# GULP energy per Si atom -12398.719557 kJ/mol
# Density = 1.907985 g / cm^3
# Si number density = 19.123380 Si / 1000 Ang^3
#
#
#
# Elastic Constant Matrix: (Units=GPa)
#
#
# Indices 1 2 3 4 5 6 
#
# 1 70.3529 41.9103 43.3242 0.0000 0.0000 0.0000
# 2 41.9103 115.2496 65.0266 0.0000 0.0000 0.0000
# 3 43.3242 65.0266 121.6920 0.0000 0.0000 0.0000
# 4 0.0000 0.0000 0.0000 26.2150 0.0000 0.0000
# 5 0.0000 0.0000 0.0000 0.0000 97.8994 0.0000
# 6 0.0000 0.0000 0.0000 0.0000 0.0000 33.9288
#
#
#
# Elastic Compliance Matrix: (Units=1/GPa)
#
#
# Indices 1 2 3 4 5 6 
#
# 1 0.019780 -0.004609 -0.004579 0.000000 0.000000 0.000000
# 2 -0.004609 0.013496 -0.005571 0.000000 0.000000 0.000000
# 3 -0.004579 -0.005571 0.012824 0.000000 0.000000 0.000000
# 4 0.000000 0.000000 0.000000 0.038146 0.000000 0.000000
# 5 0.000000 0.000000 0.000000 0.000000 0.010215 0.000000
# 6 0.000000 0.000000 0.000000 0.000000 0.000000 0.029473
#
#
# Mechanical properties :
#
#
# Convention : Reuss Voigt Hill
#
# Bulk Modulus (GPa) = 60.30521 67.53519 63.92020
# Shear Modulus (GPa) = 31.45060 42.07751 36.76406
#
# Velocity S-wave (km/s) = 4.05978 4.69584 4.38935
# Velocity P-wave (km/s) = 7.31977 8.04944 7.69326
#
# Compressibility (1/GPa) = 0.01658231
#
# Stress axis : x y z
#
# Youngs Moduli (GPa) = 50.55709 74.09533 77.97673
#
# Poissons Ratio (x) = 0.34153 0.35704
# Poissons Ratio (y) = 0.23303 0.43439
# Poissons Ratio (z) = 0.23149 0.41276
#
# Static dielectric constant tensor:
#      x y z
#    x 3.245240 0.000000 0.000000 
#    y 0.000000 3.712680 0.000000 
#    z 0.000000 0.000000 3.635840 
# 
# 
# High freq. dielectric constant tensor:
#      x y z
#    x 1.724130 0.000000 0.000000 
#    y 0.000000 1.743530 0.000000 
#    z 0.000000 0.000000 1.744500 
# 
# From -- ./inp_files/15359.got.cif
#   From: 2010.03.12/outbox.cif.g09.slc.cpg/sg40_8_cif.got.tgz:15359.got - 2010.04.14 01:38:03.
