data_PCOD8184334
_publ_section_title
;
Structure prediction by ZEFSAII (Michael W. Deem and Ramdas Pophale) SiO2 
 PCOD8184334
Probable space group: A M A 2
;
_chemical_formula_sum "Si O2"
_cell_formula_units_Z 56
_cell_length_a 20.197411
_cell_length_b 16.325657
_cell_length_c 8.930749
_cell_angle_alpha 90.000000
_cell_angle_beta 90.000000
_cell_angle_gamma 90.000000
_cell_volume 2944.789490
_symmetry_space_group_name_H-M "A M A 2"
_symmetry_group_IT_number 40
_symmetry_cell_setting 'orthorhombic'
loop_
_space_group_symop_operation_xyz
x,y,z
-x,-y,z
1/2-x,y,z
1/2+x,-y,z
x,1/2+y,1/2+z
-x,1/2-y,1/2+z
1/2-x,1/2+y,1/2+z
1/2+x,1/2-y,1/2+z
loop_
_atom_site_type_symbol
_atom_site_label
_atom_site_fract_x
_atom_site_fract_y
_atom_site_fract_z
Si Si1 0.178021 0.371951 0.452550
Si Si2 0.084462 0.223239 0.441315
Si Si3 0.019402 0.808145 0.193582
Si Si4 0.446721 0.562253 0.509940
Si Si5 0.826162 0.432390 0.964141
Si Si6 0.675511 0.460083 0.311019
Si Si7 0.382567 0.945953 0.236082
O O1 0.250000 0.330944 0.446994
O O2 0.126361 0.303776 0.409179
O O3 0.170317 0.442613 0.329694
O O4 0.170043 0.412028 0.616514
O O5 0.027141 0.227562 0.319544
O O6 0.127824 0.142648 0.414054
O O7 0.056567 0.231810 0.611534
O O8 0.069440 0.870396 0.278084
O O9 0.981229 0.853217 0.056675
O O10 0.500000 0.500000 0.430328
O O11 0.382966 0.583032 0.406459
O O12 0.424341 0.519108 0.663199
O O13 0.750000 0.412674 0.924044
O O14 0.847033 0.516869 0.882192
O O15 0.836688 0.441991 0.139168
O O16 0.750000 0.429994 0.360302
#
# Coordination Sequence:
#
# PCOD8184334 Si02
#       7
#     8   8   8   8   8   8   8
#     4   9  18  37  59  78 107 150 190 225 281 348
#     4  11  23  37  55  84 116 150 186 236 286 340
#     4  10  22  37  54  80 119 152 190 230 288 345
#     4   9  17  36  57  80 108 146 194 230 271 341
#     4  11  22  37  59  89 116 141 187 245 290 332
#     4   9  20  36  57  84 113 147 190 237 288 342
#     4   9  18  36  59  80 107 148 190 233 273 340
#
# _framework density 19.016639999999999
#
# number of rings (size 3 to 8) (size 9 to 14) (size 15 to 20)
#    0.000    2.286    1.429    1.714    2.000    1.714 
#    2.571    0.000    0.000    0.000    0.000    0.000 
#    0.000    0.000    0.000    0.000    0.000    0.000 
#
# Total GULP energy -347067.772735 kJ/mol
# GULP energy per Si atom -12395.277598 kJ/mol
# Density = 1.897336 g / cm^3
# Si number density = 19.016640 Si / 1000 Ang^3
#
#
#
# Elastic Constant Matrix: (Units=GPa)
#
#
# Indices 1 2 3 4 5 6 
#
# 1 100.0181 28.2733 26.2609 0.0000 0.0000 0.0000
# 2 28.2733 65.9628 21.0193 0.0000 0.0000 0.0000
# 3 26.2609 21.0193 40.9350 0.0000 0.0000 0.0000
# 4 0.0000 0.0000 0.0000 23.7636 0.0000 0.0000
# 5 0.0000 0.0000 0.0000 0.0000 29.0803 0.0000
# 6 0.0000 0.0000 0.0000 0.0000 0.0000 21.5367
#
#
#
# Elastic Compliance Matrix: (Units=1/GPa)
#
#
# Indices 1 2 3 4 5 6 
#
# 1 0.012625 -0.003384 -0.006362 0.000000 0.000000 0.000000
# 2 -0.003384 0.019033 -0.007602 0.000000 0.000000 0.000000
# 3 -0.006362 -0.007602 0.032414 0.000000 0.000000 0.000000
# 4 0.000000 0.000000 0.000000 0.042081 0.000000 0.000000
# 5 0.000000 0.000000 0.000000 0.000000 0.034388 0.000000
# 6 0.000000 0.000000 0.000000 0.000000 0.000000 0.046432
#
#
# Mechanical properties :
#
#
# Convention : Reuss Voigt Hill
#
# Bulk Modulus (GPa) = 34.04138 39.78033 36.91085
# Shear Modulus (GPa) = 21.60196 23.63363 22.61779
#
# Velocity S-wave (km/s) = 3.37404 3.52914 3.45246
# Velocity P-wave (km/s) = 5.75487 6.12948 5.94513
#
# Compressibility (1/GPa) = 0.02937602
#
# Stress axis : x y z
#
# Youngs Moduli (GPa) = 79.20669 52.54018 30.85128
#
# Poissons Ratio (x) = 0.17781 0.19626
# Poissons Ratio (y) = 0.26806 0.23453
# Poissons Ratio (z) = 0.50388 0.39941
#
# Static dielectric constant tensor:
#      x y z
#    x 3.860650 0.000000 0.000000 
#    y 0.000000 3.384590 0.000000 
#    z 0.000000 0.000000 3.208160 
# 
# 
# High freq. dielectric constant tensor:
#      x y z
#    x 1.759480 0.000000 0.000000 
#    y 0.000000 1.726380 0.000000 
#    z 0.000000 0.000000 1.717920 
# 
# From -- ./inp_files/8293.got.cif
#   From: 2010.03.12/outbox.cif.g09.slc.cpg/sg40_5_cif.got.tgz:8293.got - 2010.04.14 01:38:03.
