data_PCOD8184797
_publ_section_title
;
Structure prediction by ZEFSAII (Michael W. Deem and Ramdas Pophale) SiO2 
 PCOD8184797
Probable space group: A B A 2
;
_chemical_formula_sum "Si O2"
_cell_formula_units_Z 56
_cell_length_a 18.215758
_cell_length_b 9.886666
_cell_length_c 13.471669
_cell_angle_alpha 90.000000
_cell_angle_beta 90.000000
_cell_angle_gamma 90.000000
_cell_volume 2426.154838
_symmetry_space_group_name_H-M "A B A 2"
_symmetry_group_IT_number 41
_symmetry_cell_setting 'orthorhombic'
loop_
_space_group_symop_operation_xyz
x,y,z
-x,-y,z
1/2-x,y,1/2+z
1/2+x,-y,1/2+z
x,1/2+y,1/2+z
-x,1/2-y,1/2+z
1/2-x,1/2+y,z
1/2+x,1/2-y,z
loop_
_atom_site_type_symbol
_atom_site_label
_atom_site_fract_x
_atom_site_fract_y
_atom_site_fract_z
Si Si1 0.843251 0.945833 0.338000
Si Si2 0.965573 0.291240 0.595006
Si Si3 0.243705 0.775476 0.115613
Si Si4 0.318170 0.105344 0.279179
Si Si5 0.140995 0.301747 0.948219
Si Si6 0.608558 0.561290 0.134709
Si Si7 0.625770 0.172632 0.260579
O O1 0.757057 0.950361 0.321770
O O2 0.871833 0.789100 0.347060
O O3 0.855407 0.034843 0.436640
O O4 0.887267 0.023012 0.250550
O O5 0.940876 0.216886 0.493795
O O6 0.918403 0.427566 0.580774
O O7 0.942475 0.201955 0.689407
O O8 0.051476 0.317933 0.609953
O O9 0.194997 0.651873 0.163485
O O10 0.187582 0.897074 0.090772
O O11 0.297178 0.817686 0.203689
O O12 0.292983 0.744332 0.018917
O O13 0.350390 0.230984 0.341502
O O14 0.377754 0.983557 0.294414
#
# Coordination Sequence:
#
# PCOD8184797 Si02
#       7
#     8   8   8   8   8   8   8
#     4  10  19  37  64  92 121 167 212 265 320 384
#     4   9  22  37  64  89 125 178 217 255 326 403
#     4  10  21  37  66  90 125 168 209 267 324 381
#     4  11  20  38  61 100 126 159 216 274 322 378
#     4  11  23  36  65  98 130 158 221 270 320 387
#     4  10  18  42  64  86 127 178 212 257 330 388
#     4   9  19  37  63  91 123 166 217 254 324 380
#
# _framework density 23.081790999999999
#
# number of rings (size 3 to 8) (size 9 to 14) (size 15 to 20)
#    0.000    2.000    2.857    1.714    2.000    1.143 
#    0.000    3.571   12.571    0.000    0.000    0.000 
#    0.000    0.000    0.000    0.000    0.000    0.000 
#
# Total GULP energy -346870.847241 kJ/mol
# GULP energy per Si atom -12388.244544 kJ/mol
# Density = 2.302926 g / cm^3
# Si number density = 23.081791 Si / 1000 Ang^3
#
#
#
# Elastic Constant Matrix: (Units=GPa)
#
#
# Indices 1 2 3 4 5 6 
#
# 1 49.9283 -5.7149 -2.0061 0.0000 0.0000 0.0000
# 2 -5.7149 97.4235 25.9348 0.0000 0.0000 0.0000
# 3 -2.0061 25.9348 48.4563 0.0000 0.0000 0.0000
# 4 0.0000 0.0000 0.0000 29.8321 0.0000 0.0000
# 5 0.0000 0.0000 0.0000 0.0000 19.7674 0.0000
# 6 0.0000 0.0000 0.0000 0.0000 0.0000 31.3441
#
#
#
# Elastic Compliance Matrix: (Units=1/GPa)
#
#
# Indices 1 2 3 4 5 6 
#
# 1 0.020166 0.001120 0.000235 0.000000 0.000000 0.000000
# 2 0.001120 0.012032 -0.006393 0.000000 0.000000 0.000000
# 3 0.000235 -0.006393 0.024069 0.000000 0.000000 0.000000
# 4 0.000000 0.000000 0.000000 0.033521 0.000000 0.000000
# 5 0.000000 0.000000 0.000000 0.000000 0.050588 0.000000
# 6 0.000000 0.000000 0.000000 0.000000 0.000000 0.031904
#
#
# Mechanical properties :
#
#
# Convention : Reuss Voigt Hill
#
# Bulk Modulus (GPa) = 21.64892 25.80395 23.72643
# Shear Modulus (GPa) = 25.28401 28.02836 26.65618
#
# Velocity S-wave (km/s) = 3.31329 3.48847 3.40201
# Velocity P-wave (km/s) = 4.90273 5.23732 5.07278
#
# Compressibility (1/GPa) = 0.04619168
#
# Stress axis : x y z
#
# Youngs Moduli (GPa) = 49.58738 83.11047 41.54755
#
# Poissons Ratio (x) = -0.09311 -0.00977
# Poissons Ratio (y) = -0.05556 0.26563
# Poissons Ratio (z) = -0.01167 0.53137
#
# Static dielectric constant tensor:
#      x y z
#    x 4.002250 0.000000 0.000000 
#    y 0.000000 4.415430 0.000000 
#    z 0.000000 0.000000 3.931130 
# 
# 
# High freq. dielectric constant tensor:
#      x y z
#    x 1.890660 0.000000 0.000000 
#    y 0.000000 1.920110 0.000000 
#    z 0.000000 0.000000 1.876820 
# 
# From -- ./inp_files/9003.got.cif
#   From: 2010.03.12/outbox.cif.g09.slc.cpg/sg41_5_cif.got.tgz:9003.got - 2010.04.14 01:55:53.
