data_PCOD8184716
_publ_section_title
;
Structure prediction by ZEFSAII (Michael W. Deem and Ramdas Pophale) SiO2 
 PCOD8184716
Probable space group: A M A 2
;
_chemical_formula_sum "Si O2"
_cell_formula_units_Z 48
_cell_length_a 9.241268
_cell_length_b 25.711253
_cell_length_c 12.071389
_cell_angle_alpha 90.000000
_cell_angle_beta 90.000000
_cell_angle_gamma 90.000000
_cell_volume 2868.217308
_symmetry_space_group_name_H-M "A M A 2"
_symmetry_group_IT_number 40
_symmetry_cell_setting 'orthorhombic'
loop_
_space_group_symop_operation_xyz
x,y,z
-x,-y,z
1/2-x,y,z
1/2+x,-y,z
x,1/2+y,1/2+z
-x,1/2-y,1/2+z
1/2-x,1/2+y,1/2+z
1/2+x,1/2-y,1/2+z
loop_
_atom_site_type_symbol
_atom_site_label
_atom_site_fract_x
_atom_site_fract_y
_atom_site_fract_z
Si Si1 0.921327 0.650879 0.652370
Si Si2 0.578525 0.259466 0.251096
Si Si3 0.919608 0.551811 0.783004
Si Si4 0.418895 0.448432 0.038637
Si Si5 0.086217 0.321532 0.412780
Si Si6 0.413958 0.851953 0.679527
O O1 0.750000 0.647318 0.656425
O O2 0.973160 0.702000 0.717796
O O3 0.984240 0.599615 0.711621
O O4 0.976905 0.653461 0.525244
O O5 0.750000 0.265033 0.253753
O O6 0.512090 0.272505 0.372838
O O7 0.512889 0.300474 0.160723
O O8 0.750000 0.543691 0.763329
O O9 0.000000 0.500000 0.742895
O O10 0.953618 0.563921 0.911045
O O11 0.500000 0.500000 0.078927
O O12 0.250000 0.457223 0.059497
O O13 0.478085 0.400468 0.111838
O O14 0.250000 0.301326 0.434304
O O15 0.084785 0.364160 0.312694
O O16 0.250000 0.840138 0.639219
#
# Coordination Sequence:
#
# PCOD8184716 Si02
#       6
#     8   8   8   8   8   8
#     4   9  17  31  51  70  93 129 158 186 234 286
#     4   9  17  29  47  73  97 120 155 194 230 270
#     4   9  18  33  50  69  95 123 158 197 234 277
#     4   9  17  30  49  72  95 124 158 193 233 277
#     4   8  16  32  48  64  94 127 157 186 228 281
#     4   8  16  31  48  66  95 128 154 185 231 279
#
# _framework density 16.735133999999999
#
# number of rings (size 3 to 8) (size 9 to 14) (size 15 to 20)
#    1.000    2.333    0.000    0.000    0.000    2.000 
#    0.000    6.667    0.000    0.000    0.000    0.000 
#    0.000    0.000    0.000    0.000    0.000    0.000 
#
# Total GULP energy -297342.864065 kJ/mol
# GULP energy per Si atom -12389.286003 kJ/mol
# Density = 1.669704 g / cm^3
# Si number density = 16.735134 Si / 1000 Ang^3
#
#
#
# Elastic Constant Matrix: (Units=GPa)
#
#
# Indices 1 2 3 4 5 6 
#
# 1 46.8713 45.1902 26.6954 0.0000 0.0000 0.0000
# 2 45.1902 159.8151 75.7876 0.0000 0.0000 0.0000
# 3 26.6954 75.7876 92.3507 0.0000 0.0000 0.0000
# 4 0.0000 0.0000 0.0000 32.5634 0.0000 0.0000
# 5 0.0000 0.0000 0.0000 0.0000 18.3028 0.0000
# 6 0.0000 0.0000 0.0000 0.0000 0.0000 26.5230
#
#
#
# Elastic Compliance Matrix: (Units=1/GPa)
#
#
# Indices 1 2 3 4 5 6 
#
# 1 0.029760 -0.007098 -0.002778 0.000000 0.000000 0.000000
# 2 -0.007098 0.011937 -0.007744 0.000000 0.000000 0.000000
# 3 -0.002778 -0.007744 0.017986 0.000000 0.000000 0.000000
# 4 0.000000 0.000000 0.000000 0.030709 0.000000 0.000000
# 5 0.000000 0.000000 0.000000 0.000000 0.054636 0.000000
# 6 0.000000 0.000000 0.000000 0.000000 0.000000 0.037703
#
#
# Mechanical properties :
#
#
# Convention : Reuss Voigt Hill
#
# Bulk Modulus (GPa) = 40.90990 66.04259 53.47625
# Shear Modulus (GPa) = 22.11216 25.56877 23.84046
#
# Velocity S-wave (km/s) = 3.63891 3.91301 3.77845
# Velocity P-wave (km/s) = 6.49263 7.74369 7.14559
#
# Compressibility (1/GPa) = 0.02444396
#
# Stress axis : x y z
#
# Youngs Moduli (GPa) = 33.60162 83.77541 55.59751
#
# Poissons Ratio (x) = 0.59463 0.15444
# Poissons Ratio (y) = 0.23850 0.43055
# Poissons Ratio (z) = 0.09334 0.64876
#
# Static dielectric constant tensor:
#      x y z
#    x 2.941980 0.000000 0.000000 
#    y 0.000000 3.133210 0.000000 
#    z 0.000000 0.000000 3.162500 
# 
# 
# High freq. dielectric constant tensor:
#      x y z
#    x 1.627150 0.000000 0.000000 
#    y 0.000000 1.631880 0.000000 
#    z 0.000000 0.000000 1.637370 
# 
# From -- ./inp_files/11290.got.cif
#   From: 2010.03.12/outbox.cif.g09.slc.cpg/sg40_6_cif.got.tgz:11290.got - 2010.04.14 01:38:03.
