data_PCOD8184871
_publ_section_title
;
Structure prediction by ZEFSAII (Michael W. Deem and Ramdas Pophale) SiO2 
 PCOD8184871
Probable space group: A B A 2
;
_chemical_formula_sum "Si O2"
_cell_formula_units_Z 52
_cell_length_a 27.065266
_cell_length_b 17.598471
_cell_length_c 5.160239
_cell_angle_alpha 90.000000
_cell_angle_beta 90.000000
_cell_angle_gamma 90.000000
_cell_volume 2457.859499
_symmetry_space_group_name_H-M "A B A 2"
_symmetry_group_IT_number 41
_symmetry_cell_setting 'orthorhombic'
loop_
_space_group_symop_operation_xyz
x,y,z
-x,-y,z
1/2-x,y,1/2+z
1/2+x,-y,1/2+z
x,1/2+y,1/2+z
-x,1/2-y,1/2+z
1/2-x,1/2+y,z
1/2+x,1/2-y,z
loop_
_atom_site_type_symbol
_atom_site_label
_atom_site_fract_x
_atom_site_fract_y
_atom_site_fract_z
Si Si1 0.560382 0.606758 0.265780
Si Si2 0.907993 0.732307 0.455511
Si Si3 0.597808 0.984242 0.397414
Si Si4 0.618702 0.313661 0.970787
Si Si5 0.644535 0.617721 0.654504
Si Si6 0.000000 0.500000 0.071918
Si Si7 0.218322 0.773112 0.493261
O O1 0.598456 0.643512 0.471851
O O2 0.510659 0.575692 0.400634
O O3 0.548291 0.673178 0.052281
O O4 0.587469 0.532754 0.152444
O O5 0.896728 0.791051 0.682688
O O6 0.862114 0.673226 0.406416
O O7 0.918578 0.780650 0.193854
O O8 0.639715 0.028917 0.227740
O O9 0.619076 0.904341 0.485075
O O10 0.546729 0.977003 0.242562
O O11 0.673942 0.286311 0.036160
O O12 0.696536 0.640160 0.521182
O O13 0.259513 0.759883 0.710529
#
# Coordination Sequence:
#
# PCOD8184871 Si02
#       7
#     8   8   8   8   8   4   8
#     4  10  19  40  68  90 125 172 216 263 313 401
#     4  10  19  38  66  89 125 167 220 247 315 403
#     4  10  23  39  69  93 133 168 217 267 330 399
#     4  11  23  40  66  98 127 174 207 266 343 379
#     4   9  20  39  65  93 122 176 212 256 317 390
#     4  10  22  40  66  96 124 166 226 268 326 372
#     4  11  22  39  65  96 128 168 222 267 313 391
#
# _framework density 21.156618999999999
#
# number of rings (size 3 to 8) (size 9 to 14) (size 15 to 20)
#    0.000    1.846    3.077    2.308    6.462    0.000 
#    0.000    1.538   13.538    0.000    0.000    0.000 
#    0.000    0.000    0.000    0.000    0.000    0.000 
#
# Total GULP energy -322121.722522 kJ/mol
# GULP energy per Si atom -12389.297020 kJ/mol
# Density = 2.110847 g / cm^3
# Si number density = 21.156619 Si / 1000 Ang^3
#
#
#
# Elastic Constant Matrix: (Units=GPa)
#
#
# Indices 1 2 3 4 5 6 
#
# 1 59.2491 27.5561 12.1577 0.0000 0.0000 0.0000
# 2 27.5561 143.8293 39.9249 0.0000 0.0000 0.0000
# 3 12.1577 39.9249 100.8715 0.0000 0.0000 0.0000
# 4 0.0000 0.0000 0.0000 35.0457 0.0000 0.0000
# 5 0.0000 0.0000 0.0000 0.0000 19.3514 0.0000
# 6 0.0000 0.0000 0.0000 0.0000 0.0000 25.7661
#
#
#
# Elastic Compliance Matrix: (Units=1/GPa)
#
#
# Indices 1 2 3 4 5 6 
#
# 1 0.018607 -0.003306 -0.000934 0.000000 0.000000 0.000000
# 2 -0.003306 0.008398 -0.002926 0.000000 0.000000 0.000000
# 3 -0.000934 -0.002926 0.011184 0.000000 0.000000 0.000000
# 4 0.000000 0.000000 0.000000 0.028534 0.000000 0.000000
# 5 0.000000 0.000000 0.000000 0.000000 0.051676 0.000000
# 6 0.000000 0.000000 0.000000 0.000000 0.000000 0.038811
#
#
# Mechanical properties :
#
#
# Convention : Reuss Voigt Hill
#
# Bulk Modulus (GPa) = 41.91395 51.46970 46.69183
# Shear Modulus (GPa) = 27.85617 30.98672 29.42145
#
# Velocity S-wave (km/s) = 3.63252 3.83121 3.73319
# Velocity P-wave (km/s) = 6.11947 6.62960 6.37964
#
# Compressibility (1/GPa) = 0.02385840
#
# Stress axis : x y z
#
# Youngs Moduli (GPa) = 53.74328 119.07478 89.41234
#
# Poissons Ratio (x) = 0.39361 0.08354
# Poissons Ratio (y) = 0.17765 0.26158
# Poissons Ratio (z) = 0.05021 0.34836
#
# Static dielectric constant tensor:
#      x y z
#    x 3.509340 0.000000 0.000000 
#    y 0.000000 3.915950 0.000000 
#    z 0.000000 0.000000 4.148820 
# 
# 
# High freq. dielectric constant tensor:
#      x y z
#    x 1.778830 0.000000 0.000000 
#    y 0.000000 1.827300 0.000000 
#    z 0.000000 0.000000 1.854400 
# 
# From -- ./inp_files/1377.got.cif
#   From: 2010.03.12/outbox.cif.g09.slc.cpg/sg41_1_cif.got.tgz:1377.got - 2010.04.14 01:55:53.
