data_PCOD8184674
_publ_section_title
;
Structure prediction by ZEFSAII (Michael W. Deem and Ramdas Pophale) SiO2 
 PCOD8184674
Probable space group: A M A 2
;
_chemical_formula_sum "Si O2"
_cell_formula_units_Z 44
_cell_length_a 14.452306
_cell_length_b 13.056661
_cell_length_c 11.231118
_cell_angle_alpha 90.000000
_cell_angle_beta 90.000000
_cell_angle_gamma 90.000000
_cell_volume 2119.299164
_symmetry_space_group_name_H-M "A M A 2"
_symmetry_group_IT_number 40
_symmetry_cell_setting 'orthorhombic'
loop_
_space_group_symop_operation_xyz
x,y,z
-x,-y,z
1/2-x,y,z
1/2+x,-y,z
x,1/2+y,1/2+z
-x,1/2-y,1/2+z
1/2-x,1/2+y,1/2+z
1/2+x,1/2-y,1/2+z
loop_
_atom_site_type_symbol
_atom_site_label
_atom_site_fract_x
_atom_site_fract_y
_atom_site_fract_z
Si Si1 0.585451 0.427206 0.360630
Si Si2 0.250000 0.367760 0.620748
Si Si3 0.097397 0.223150 0.075020
Si Si4 0.750000 0.073211 0.870737
Si Si5 0.750000 0.620653 0.095556
Si Si6 0.104947 0.210893 0.640501
Si Si7 0.750000 0.902756 0.207442
Si Si8 0.750000 0.896816 0.487682
O O1 0.500000 0.500000 0.334351
O O2 0.567340 0.341912 0.460549
O O3 0.663902 0.502979 0.401604
O O4 0.618652 0.372439 0.242051
O O5 0.250000 0.343726 0.477232
O O6 0.158281 0.315328 0.676194
O O7 0.250000 0.486271 0.649547
O O8 0.159567 0.322097 0.043256
O O9 0.156608 0.155162 0.167234
O O10 0.003021 0.265285 0.130164
O O11 0.750000 0.125753 0.740992
O O12 0.750000 0.506018 0.051863
O O13 0.156057 0.162823 0.525148
O O14 0.750000 0.912682 0.347968
#
# Coordination Sequence:
#
# PCOD8184674 Si02
#       8
#     8   4   8   4   4   8   4   4
#     4  12  24  44  70  98 135 178 239 280 332 411
#     4  11  24  43  68  95 138 176 228 281 342 401
#     4  11  26  43  68 103 135 180 234 282 343 410
#     4  12  20  44  70  90 128 186 222 280 334 402
#     4  11  24  43  68  95 138 176 228 281 342 401
#     4  11  26  43  68 103 135 180 234 282 343 410
#     4  11  26  45  67  99 141 182 223 283 357 405
#     4  11  26  45  67  99 141 182 223 283 357 405
#
# _framework density 20.761579999999999
#
# number of rings (size 3 to 8) (size 9 to 14) (size 15 to 20)
#    0.000    0.727    3.636    3.273   10.182    0.000 
#    0.000    1.818    0.000    0.000    0.000    0.000 
#    0.000    0.000    0.000    0.000    0.000    0.000 
#
# Total GULP energy -272773.479161 kJ/mol
# GULP energy per Si atom -12398.794507 kJ/mol
# Density = 2.071433 g / cm^3
# Si number density = 20.761580 Si / 1000 Ang^3
#
#
#
# Elastic Constant Matrix: (Units=GPa)
#
#
# Indices 1 2 3 4 5 6 
#
# 1 145.1750 48.2996 15.5389 0.0000 0.0000 0.0000
# 2 48.2996 112.6754 23.2518 0.0000 0.0000 0.0000
# 3 15.5389 23.2518 108.3603 0.0000 0.0000 0.0000
# 4 0.0000 0.0000 0.0000 36.3664 0.0000 0.0000
# 5 0.0000 0.0000 0.0000 0.0000 24.4650 0.0000
# 6 0.0000 0.0000 0.0000 0.0000 0.0000 45.5416
#
#
#
# Elastic Compliance Matrix: (Units=1/GPa)
#
#
# Indices 1 2 3 4 5 6 
#
# 1 0.008053 -0.003363 -0.000433 0.000000 0.000000 0.000000
# 2 -0.003363 0.010690 -0.001812 0.000000 0.000000 0.000000
# 3 -0.000433 -0.001812 0.009679 0.000000 0.000000 0.000000
# 4 0.000000 0.000000 0.000000 0.027498 0.000000 0.000000
# 5 0.000000 0.000000 0.000000 0.000000 0.040875 0.000000
# 6 0.000000 0.000000 0.000000 0.000000 0.000000 0.021958
#
#
# Mechanical properties :
#
#
# Convention : Reuss Voigt Hill
#
# Bulk Modulus (GPa) = 58.11369 60.04347 59.07858
# Shear Modulus (GPa) = 36.84457 39.88262 38.36359
#
# Velocity S-wave (km/s) = 4.21723 4.38766 4.30329
# Velocity P-wave (km/s) = 7.19480 7.39270 7.29442
#
# Compressibility (1/GPa) = 0.01720765
#
# Stress axis : x y z
#
# Youngs Moduli (GPa) = 124.17105 93.54186 103.31261
#
# Poissons Ratio (x) = 0.31456 0.04476
# Poissons Ratio (y) = 0.41756 0.18717
# Poissons Ratio (z) = 0.05380 0.16947
#
# Static dielectric constant tensor:
#      x y z
#    x 3.701730 0.000000 0.000000 
#    y 0.000000 4.003420 0.000000 
#    z 0.000000 0.000000 3.689210 
# 
# 
# High freq. dielectric constant tensor:
#      x y z
#    x 1.821110 0.000000 0.000000 
#    y 0.000000 1.836010 0.000000 
#    z 0.000000 0.000000 1.806700 
# 
# From -- ./inp_files/12133.got.cif
#   From: 2010.03.12/outbox.cif.g09.slc.cpg/sg40_7_cif.got.tgz:12133.got - 2010.04.14 01:38:03.
