data_PCOD8184345
_publ_section_title
;
Structure prediction by ZEFSAII (Michael W. Deem and Ramdas Pophale) SiO2 
 PCOD8184345
Probable space group: A M A 2
;
_chemical_formula_sum "Si O2"
_cell_formula_units_Z 64
_cell_length_a 8.836858
_cell_length_b 30.687705
_cell_length_c 11.897158
_cell_angle_alpha 90.000000
_cell_angle_beta 90.000000
_cell_angle_gamma 90.000000
_cell_volume 3226.305706
_symmetry_space_group_name_H-M "A M A 2"
_symmetry_group_IT_number 40
_symmetry_cell_setting 'orthorhombic'
loop_
_space_group_symop_operation_xyz
x,y,z
-x,-y,z
1/2-x,y,z
1/2+x,-y,z
x,1/2+y,1/2+z
-x,1/2-y,1/2+z
1/2-x,1/2+y,1/2+z
1/2+x,1/2-y,1/2+z
loop_
_atom_site_type_symbol
_atom_site_label
_atom_site_fract_x
_atom_site_fract_y
_atom_site_fract_z
Si Si1 0.925230 0.204348 0.702980
Si Si2 0.571129 0.045114 0.149777
Si Si3 0.928056 0.570720 0.400305
Si Si4 0.571175 0.126290 0.294918
Si Si5 0.574455 0.801929 0.147926
Si Si6 0.573038 0.337401 0.406127
Si Si7 0.928243 0.956876 0.679011
Si Si8 0.073613 0.377341 0.050977
O O1 0.750000 0.202010 0.739537
O O2 0.968996 0.251384 0.654983
O O3 0.960644 0.169352 0.605957
O O4 0.031860 0.197188 0.810285
O O5 0.750000 0.041632 0.159280
O O6 0.508195 0.084256 0.227441
O O7 0.500000 0.000000 0.192717
O O8 0.519336 0.054258 0.022329
O O9 0.750000 0.565017 0.380899
O O10 0.969993 0.620891 0.384327
O O11 0.018084 0.543197 0.308310
O O12 0.750000 0.127215 0.287947
O O13 0.513165 0.170922 0.241651
O O14 0.515494 0.123820 0.423080
O O15 0.750000 0.809809 0.169365
O O16 0.526070 0.817419 0.024885
O O17 0.750000 0.349559 0.400321
O O18 0.750000 0.960178 0.673058
O O19 0.980901 0.913883 0.615673
O O20 0.000000 0.000000 0.621388
O O21 0.250000 0.389321 0.058247
#
# Coordination Sequence:
#
# PCOD8184345 Si02
#       8
#     8   8   8   8   8   8   8   8
#     4  10  22  40  61  87 122 162 201 248 304 357
#     4  10  22  38  59  88 119 154 199 244 298 358
#     4  11  21  38  62  90 125 158 197 248 304 359
#     4  10  22  41  63  88 119 162 205 247 301 360
#     4  10  23  40  60  91 125 160 202 250 303 357
#     4  11  22  37  62  93 123 157 201 251 304 358
#     4  12  25  41  63  91 123 158 203 249 301 362
#     4  10  22  41  64  86 119 161 204 252 303 357
#
# _framework density 19.836929999999999
#
# number of rings (size 3 to 8) (size 9 to 14) (size 15 to 20)
#    0.000    1.500    2.500    2.250    1.750    4.500 
#    0.000    1.250    0.000    0.000    0.000    0.000 
#    0.000    0.000    0.000    0.000    0.000    0.000 
#
# Total GULP energy -396966.143699 kJ/mol
# GULP energy per Si atom -12405.191991 kJ/mol
# Density = 1.979178 g / cm^3
# Si number density = 19.836930 Si / 1000 Ang^3
#
#
#
# Elastic Constant Matrix: (Units=GPa)
#
#
# Indices 1 2 3 4 5 6 
#
# 1 63.6825 41.6188 41.4639 0.0000 0.0000 0.0000
# 2 41.6188 144.4443 49.9512 0.0000 0.0000 0.0000
# 3 41.4639 49.9512 129.0964 0.0000 0.0000 0.0000
# 4 0.0000 0.0000 0.0000 15.5938 0.0000 0.0000
# 5 0.0000 0.0000 0.0000 0.0000 20.0724 0.0000
# 6 0.0000 0.0000 0.0000 0.0000 0.0000 33.3712
#
#
#
# Elastic Compliance Matrix: (Units=1/GPa)
#
#
# Indices 1 2 3 4 5 6 
#
# 1 0.022155 -0.004529 -0.005364 0.000000 0.000000 0.000000
# 2 -0.004529 0.008918 -0.001996 0.000000 0.000000 0.000000
# 3 -0.005364 -0.001996 0.010241 0.000000 0.000000 0.000000
# 4 0.000000 0.000000 0.000000 0.064128 0.000000 0.000000
# 5 0.000000 0.000000 0.000000 0.000000 0.049820 0.000000
# 6 0.000000 0.000000 0.000000 0.000000 0.000000 0.029966
#
#
# Mechanical properties :
#
#
# Convention : Reuss Voigt Hill
#
# Bulk Modulus (GPa) = 57.02078 67.03236 62.02657
# Shear Modulus (GPa) = 23.27201 27.42010 25.34606
#
# Velocity S-wave (km/s) = 3.42887 3.72193 3.57840
# Velocity P-wave (km/s) = 6.66958 7.23432 6.95768
#
# Compressibility (1/GPa) = 0.01753747
#
# Stress axis : x y z
#
# Youngs Moduli (GPa) = 45.13705 112.12965 97.64465
#
# Poissons Ratio (x) = 0.50780 0.52372
# Poissons Ratio (y) = 0.20441 0.19492
# Poissons Ratio (z) = 0.24209 0.22383
#
# Static dielectric constant tensor:
#      x y z
#    x 3.459000 0.000000 0.000000 
#    y 0.000000 3.787290 0.000000 
#    z 0.000000 0.000000 3.795190 
# 
# 
# High freq. dielectric constant tensor:
#      x y z
#    x 1.765900 0.000000 0.000000 
#    y 0.000000 1.787790 0.000000 
#    z 0.000000 0.000000 1.777080 
# 
# From -- ./inp_files/10676.got.cif
#   From: 2010.03.12/outbox.cif.g09.slc.cpg/sg40_6_cif.got.tgz:10676.got - 2010.04.14 01:38:03.
