data_PCOD8184825
_publ_section_title
;
Structure prediction by ZEFSAII (Michael W. Deem and Ramdas Pophale) SiO2 
 PCOD8184825
Probable space group: A B A 2
;
_chemical_formula_sum "Si O2"
_cell_formula_units_Z 60
_cell_length_a 12.772379
_cell_length_b 12.784869
_cell_length_c 18.753539
_cell_angle_alpha 90.000000
_cell_angle_beta 90.000000
_cell_angle_gamma 90.000000
_cell_volume 3062.325251
_symmetry_space_group_name_H-M "A B A 2"
_symmetry_group_IT_number 41
_symmetry_cell_setting 'orthorhombic'
loop_
_space_group_symop_operation_xyz
x,y,z
-x,-y,z
1/2-x,y,1/2+z
1/2+x,-y,1/2+z
x,1/2+y,1/2+z
-x,1/2-y,1/2+z
1/2-x,1/2+y,z
1/2+x,1/2-y,z
loop_
_atom_site_type_symbol
_atom_site_label
_atom_site_fract_x
_atom_site_fract_y
_atom_site_fract_z
Si Si1 0.256448 0.722336 0.578370
Si Si2 0.885103 0.078479 0.064192
Si Si3 0.609637 0.738798 0.454829
Si Si4 0.894271 0.463177 0.410504
Si Si5 0.500000 0.000000 0.770532
Si Si6 0.916976 0.383009 0.645385
Si Si7 0.172440 0.969268 0.386451
Si Si8 0.932156 0.405500 0.013826
O O1 0.290340 0.841957 0.574439
O O2 0.182984 0.703482 0.511413
O O3 0.178298 0.701605 0.646003
O O4 0.352420 0.639879 0.573005
O O5 0.994661 0.137974 0.083779
O O6 0.862849 0.992880 0.124798
O O7 0.888700 0.023778 0.987134
O O8 0.674230 0.649734 0.413645
O O9 0.503676 0.690142 0.487298
O O10 0.586106 0.838472 0.406241
O O11 0.790104 0.494873 0.366911
O O12 0.000000 0.500000 0.370759
O O13 0.470418 0.102438 0.722828
O O14 0.600662 0.027693 0.817000
O O15 0.128269 0.048267 0.445875
O O16 0.000000 0.500000 0.048857
#
# Coordination Sequence:
#
# PCOD8184825 Si02
#       8
#     8   8   8   8   4   8   8   8
#     4  12  19  33  59  92 117 146 196 252 321 346
#     4  10  19  34  55  87 120 144 195 246 312 362
#     4  11  21  31  57  91 124 153 190 255 319 368
#     4  12  20  33  57  94 127 150 194 262 319 367
#     4  10  22  46  62  74 124 170 218 236 288 378
#     4  10  22  39  61  80 113 165 202 245 284 377
#     4  11  21  39  56  85 123 168 205 241 311 378
#     4  10  21  33  52  87 125 152 189 255 314 368
#
# _framework density 19.592953000000001
#
# number of rings (size 3 to 8) (size 9 to 14) (size 15 to 20)
#    0.000    1.333    7.333    1.600    1.867    0.000 
#    0.000    2.667    0.000    0.800    0.000    0.000 
#    0.000    0.000    0.000    0.000    0.000    0.000 
#
# Total GULP energy -371645.697845 kJ/mol
# GULP energy per Si atom -12388.189928 kJ/mol
# Density = 1.954836 g / cm^3
# Si number density = 19.592953 Si / 1000 Ang^3
#
#
#
# Elastic Constant Matrix: (Units=GPa)
#
#
# Indices 1 2 3 4 5 6 
#
# 1 136.0877 52.1583 25.1306 0.0000 0.0000 0.0000
# 2 52.1583 96.2319 6.9260 0.0000 0.0000 0.0000
# 3 25.1306 6.9260 49.3298 0.0000 0.0000 0.0000
# 4 0.0000 0.0000 0.0000 13.9175 0.0000 0.0000
# 5 0.0000 0.0000 0.0000 0.0000 11.8615 0.0000
# 6 0.0000 0.0000 0.0000 0.0000 0.0000 39.9850
#
#
#
# Elastic Compliance Matrix: (Units=1/GPa)
#
#
# Indices 1 2 3 4 5 6 
#
# 1 0.010156 -0.005185 -0.004446 0.000000 0.000000 0.000000
# 2 -0.005185 0.013145 0.000796 0.000000 0.000000 0.000000
# 3 -0.004446 0.000796 0.022425 0.000000 0.000000 0.000000
# 4 0.000000 0.000000 0.000000 0.071852 0.000000 0.000000
# 5 0.000000 0.000000 0.000000 0.000000 0.084307 0.000000
# 6 0.000000 0.000000 0.000000 0.000000 0.000000 0.025009
#
#
# Mechanical properties :
#
#
# Convention : Reuss Voigt Hill
#
# Bulk Modulus (GPa) = 35.64336 50.00881 42.82608
# Shear Modulus (GPa) = 19.69152 26.31509 23.00331
#
# Velocity S-wave (km/s) = 3.17366 3.66879 3.43017
# Velocity P-wave (km/s) = 5.62680 6.59743 6.13135
#
# Compressibility (1/GPa) = 0.02805572
#
# Stress axis : x y z
#
# Youngs Moduli (GPa) = 98.45963 76.07740 44.59300
#
# Poissons Ratio (x) = 0.39445 0.19827
# Poissons Ratio (y) = 0.51050 -0.03549
# Poissons Ratio (z) = 0.43777 -0.06055
#
# Static dielectric constant tensor:
#      x y z
#    x 4.237330 0.000000 0.000000 
#    y 0.000000 3.657430 0.000000 
#    z 0.000000 0.000000 3.139180 
# 
# 
# High freq. dielectric constant tensor:
#      x y z
#    x 1.785490 0.000000 0.000000 
#    y 0.000000 1.771420 0.000000 
#    z 0.000000 0.000000 1.692860 
# 
# From -- ./inp_files/11604.got.cif
#   From: 2010.03.12/outbox.cif.g09.slc.cpg/sg41_6_cif.got.tgz:11604.got - 2010.04.14 01:55:53.
