data_PCOD8184051
_publ_section_title
;
Structure prediction by ZEFSAII (Michael W. Deem and Ramdas Pophale) SiO2 
 PCOD8184051
Probable space group: A M A 2
;
_chemical_formula_sum "Si O2"
_cell_formula_units_Z 64
_cell_length_a 8.561189
_cell_length_b 18.767817
_cell_length_c 21.956096
_cell_angle_alpha 90.000000
_cell_angle_beta 90.000000
_cell_angle_gamma 90.000000
_cell_volume 3527.791958
_symmetry_space_group_name_H-M "A M A 2"
_symmetry_group_IT_number 40
_symmetry_cell_setting 'orthorhombic'
loop_
_space_group_symop_operation_xyz
x,y,z
-x,-y,z
1/2-x,y,z
1/2+x,-y,z
x,1/2+y,1/2+z
-x,1/2-y,1/2+z
1/2-x,1/2+y,1/2+z
1/2+x,1/2-y,1/2+z
loop_
_atom_site_type_symbol
_atom_site_label
_atom_site_fract_x
_atom_site_fract_y
_atom_site_fract_z
Si Si1 0.934902 0.925816 0.400220
Si Si2 0.064860 0.134523 0.274785
Si Si3 0.065510 0.070097 0.824439
Si Si4 0.933667 0.280582 0.953698
Si Si5 0.067381 0.428785 0.456298
Si Si6 0.936543 0.922041 0.146615
Si Si7 0.429510 0.179925 0.041162
Si Si8 0.565701 0.716216 0.324769
O O1 0.750000 0.927940 0.400098
O O2 0.997794 0.912205 0.331470
O O3 0.994422 0.861297 0.443060
O O4 0.000000 0.000000 0.425768
O O5 0.250000 0.131466 0.273437
O O6 0.997233 0.101568 0.212474
O O7 0.013553 0.216762 0.283193
O O8 0.250000 0.063249 0.835894
O O9 0.959978 0.068205 0.884821
O O10 0.024588 0.147473 0.796126
O O11 0.000000 0.000000 0.787117
O O12 0.750000 0.279607 0.957057
O O13 0.982924 0.231722 0.895295
O O14 0.996212 0.255294 0.020204
O O15 0.250000 0.417697 0.471283
O O16 0.000000 0.500000 0.487901
O O17 0.961489 0.366152 0.481508
O O18 0.750000 0.924497 0.144110
O O19 0.001621 0.861934 0.099326
O O20 0.000000 0.000000 0.129418
O O21 0.250000 0.193718 0.053720
O O22 0.750000 0.703038 0.320206
#
# Coordination Sequence:
#
# PCOD8184051 Si02
#       8
#     8   8   8   8   8   8   8   8
#     4   9  17  30  50  75  98 125 156 193 243 293
#     4   8  16  32  52  71  96 129 165 200 240 288
#     4  11  20  29  43  66  95 124 157 195 237 288
#     4   9  18  31  47  67  94 126 160 196 242 298
#     4  11  20  30  43  60  87 124 162 196 234 278
#     4  10  21  35  50  71  99 133 171 206 239 281
#     4  11  21  31  45  67  95 128 166 204 241 281
#     4   9  16  30  50  69  91 125 162 200 246 293
#
# _framework density 18.141659000000001
#
# number of rings (size 3 to 8) (size 9 to 14) (size 15 to 20)
#    0.000    2.250    1.250    5.625    0.000    2.500 
#    0.000    2.500    0.000    0.000    0.000    0.875 
#    0.000    2.000    0.000    0.000    0.000    0.000 
#
# Total GULP energy -396434.679815 kJ/mol
# GULP energy per Si atom -12388.583744 kJ/mol
# Density = 1.810037 g / cm^3
# Si number density = 18.141659 Si / 1000 Ang^3
#
#
#
# Elastic Constant Matrix: (Units=GPa)
#
#
# Indices 1 2 3 4 5 6 
#
# 1 39.4535 29.0210 12.2864 0.0000 0.0000 0.0000
# 2 29.0210 147.1102 44.7637 0.0000 0.0000 0.0000
# 3 12.2864 44.7637 73.9432 0.0000 0.0000 0.0000
# 4 0.0000 0.0000 0.0000 26.6365 0.0000 0.0000
# 5 0.0000 0.0000 0.0000 0.0000 13.5132 0.0000
# 6 0.0000 0.0000 0.0000 0.0000 0.0000 29.9175
#
#
#
# Elastic Compliance Matrix: (Units=1/GPa)
#
#
# Indices 1 2 3 4 5 6 
#
# 1 0.029824 -0.005364 -0.001708 0.000000 0.000000 0.000000
# 2 -0.005364 0.009297 -0.004737 0.000000 0.000000 0.000000
# 3 -0.001708 -0.004737 0.016676 0.000000 0.000000 0.000000
# 4 0.000000 0.000000 0.000000 0.037543 0.000000 0.000000
# 5 0.000000 0.000000 0.000000 0.000000 0.074002 0.000000
# 6 0.000000 0.000000 0.000000 0.000000 0.000000 0.033425
#
#
# Mechanical properties :
#
#
# Convention : Reuss Voigt Hill
#
# Bulk Modulus (GPa) = 31.07712 48.07214 39.57463
# Shear Modulus (GPa) = 21.26663 25.64249 23.45456
#
# Velocity S-wave (km/s) = 3.42753 3.76368 3.59953
# Velocity P-wave (km/s) = 5.72987 6.74112 6.25596
#
# Compressibility (1/GPa) = 0.03217801
#
# Stress axis : x y z
#
# Youngs Moduli (GPa) = 33.53043 107.55976 59.96815
#
# Poissons Ratio (x) = 0.57690 0.10246
# Poissons Ratio (y) = 0.17984 0.28408
# Poissons Ratio (z) = 0.05729 0.50952
#
# Static dielectric constant tensor:
#      x y z
#    x 3.204390 0.000000 0.000000 
#    y 0.000000 4.096570 0.000000 
#    z 0.000000 0.000000 3.266570 
# 
# 
# High freq. dielectric constant tensor:
#      x y z
#    x 1.686290 0.000000 0.000000 
#    y 0.000000 1.718500 0.000000 
#    z 0.000000 0.000000 1.648740 
# 
# From -- ./inp_files/22517.got.cif
#   From: 2010.03.12/outbox.cif.g09.slc.cpg/sg40_12_cif.got.tgz:22517.got - 2010.04.14 01:38:03.
