data_PCOD8184198
_publ_section_title
;
Structure prediction by ZEFSAII (Michael W. Deem and Ramdas Pophale) SiO2 
 PCOD8184198
Probable space group: A M A 2
;
_chemical_formula_sum "Si O2"
_cell_formula_units_Z 60
_cell_length_a 30.032947
_cell_length_b 10.024436
_cell_length_c 9.998319
_cell_angle_alpha 90.000000
_cell_angle_beta 90.000000
_cell_angle_gamma 90.000000
_cell_volume 3010.127463
_symmetry_space_group_name_H-M "A M A 2"
_symmetry_group_IT_number 40
_symmetry_cell_setting 'orthorhombic'
loop_
_space_group_symop_operation_xyz
x,y,z
-x,-y,z
1/2-x,y,z
1/2+x,-y,z
x,1/2+y,1/2+z
-x,1/2-y,1/2+z
1/2-x,1/2+y,1/2+z
1/2+x,1/2-y,1/2+z
loop_
_atom_site_type_symbol
_atom_site_label
_atom_site_fract_x
_atom_site_fract_y
_atom_site_fract_z
Si Si1 0.384460 0.668930 0.893030
Si Si2 0.362024 0.269502 0.123325
Si Si3 0.700443 0.758405 0.542608
Si Si4 0.072646 0.183712 0.665488
Si Si5 0.198549 0.038506 0.024335
Si Si6 0.500000 0.500000 0.066760
Si Si7 0.338489 0.040272 0.732314
Si Si8 0.578335 0.119724 0.401030
O O1 0.393829 0.742720 0.752588
O O2 0.393040 0.512316 0.875535
O O3 0.332713 0.693469 0.926731
O O4 0.414646 0.728970 0.013581
O O5 0.334137 0.404626 0.146759
O O6 0.327360 0.148822 0.108991
O O7 0.393069 0.279708 0.992889
O O8 0.750000 0.775234 0.483651
O O9 0.693181 0.606261 0.593172
O O10 0.694181 0.848132 0.673596
O O11 0.110394 0.086279 0.722715
O O12 0.067359 0.312444 0.759005
O O13 0.026815 0.101100 0.662346
O O14 0.250000 0.081511 0.010995
O O15 0.175793 0.016290 0.882069
O O16 0.532193 0.585723 0.972429
#
# Coordination Sequence:
#
# PCOD8184198 Si02
#       8
#     8   8   8   8   8   4   8   8
#     4  10  23  39  65  94 128 171 213 263 319 387
#     4  12  23  39  68  95 127 174 222 260 331 385
#     4  10  21  39  60  87 127 171 213 266 321 366
#     4  10  22  44  70  89 133 164 215 262 328 389
#     4  11  25  39  60  98 135 168 224 278 315 382
#     4  10  22  42  64 102 128 164 206 282 326 392
#     4  11  21  42  65  89 123 178 212 264 321 393
#     4  11  23  44  66  98 130 168 213 267 327 398
#
# _framework density 19.93271
#
# number of rings (size 3 to 8) (size 9 to 14) (size 15 to 20)
#    0.000    1.333    6.667    0.400    3.733    3.733 
#    0.000    0.000    0.000    0.000    0.000    0.000 
#    0.000    0.000    0.000    0.000    0.000    0.000 
#
# Total GULP energy -372008.774260 kJ/mol
# GULP energy per Si atom -12400.292475 kJ/mol
# Density = 1.988734 g / cm^3
# Si number density = 19.932710 Si / 1000 Ang^3
#
#
#
# Elastic Constant Matrix: (Units=GPa)
#
#
# Indices 1 2 3 4 5 6 
#
# 1 103.3775 54.7412 18.1897 0.0000 0.0000 0.0000
# 2 54.7412 135.3820 50.1488 0.0000 0.0000 0.0000
# 3 18.1897 50.1488 96.4383 0.0000 0.0000 0.0000
# 4 0.0000 0.0000 0.0000 43.5557 0.0000 0.0000
# 5 0.0000 0.0000 0.0000 0.0000 17.2876 0.0000
# 6 0.0000 0.0000 0.0000 0.0000 0.0000 29.8396
#
#
#
# Elastic Compliance Matrix: (Units=1/GPa)
#
#
# Indices 1 2 3 4 5 6 
#
# 1 0.012317 -0.005103 0.000330 0.000000 0.000000 0.000000
# 2 -0.005103 0.011263 -0.004894 0.000000 0.000000 0.000000
# 3 0.000330 -0.004894 0.012852 0.000000 0.000000 0.000000
# 4 0.000000 0.000000 0.000000 0.022959 0.000000 0.000000
# 5 0.000000 0.000000 0.000000 0.000000 0.057845 0.000000
# 6 0.000000 0.000000 0.000000 0.000000 0.000000 0.033513
#
#
# Mechanical properties :
#
#
# Convention : Reuss Voigt Hill
#
# Bulk Modulus (GPa) = 58.48454 64.59524 61.53989
# Shear Modulus (GPa) = 28.44436 32.27778 30.36107
#
# Velocity S-wave (km/s) = 3.78169 4.02846 3.90703
# Velocity P-wave (km/s) = 6.96225 7.35629 7.16198
#
# Compressibility (1/GPa) = 0.01709854
#
# Stress axis : x y z
#
# Youngs Moduli (GPa) = 81.18712 88.78823 77.80829
#
# Poissons Ratio (x) = 0.45307 -0.02570
# Poissons Ratio (y) = 0.41428 0.38082
# Poissons Ratio (z) = -0.02681 0.43455
#
# Static dielectric constant tensor:
#      x y z
#    x 3.598600 0.000000 0.000000 
#    y 0.000000 3.730330 0.000000 
#    z 0.000000 0.000000 3.620750 
# 
# 
# High freq. dielectric constant tensor:
#      x y z
#    x 1.770690 0.000000 0.000000 
#    y 0.000000 1.785160 0.000000 
#    z 0.000000 0.000000 1.774550 
# 
# From -- ./inp_files/14364.got.cif
#   From: 2010.03.12/outbox.cif.g09.slc.cpg/sg40_8_cif.got.tgz:14364.got - 2010.04.14 01:38:03.
