data_PCOD8184316
_publ_section_title
;
Structure prediction by ZEFSAII (Michael W. Deem and Ramdas Pophale) SiO2 
 PCOD8184316
Probable space group: A M A 2
;
_chemical_formula_sum "Si O2"
_cell_formula_units_Z 48
_cell_length_a 14.421675
_cell_length_b 8.987308
_cell_length_c 18.303964
_cell_angle_alpha 90.000000
_cell_angle_beta 90.000000
_cell_angle_gamma 90.000000
_cell_volume 2372.414024
_symmetry_space_group_name_H-M "A M A 2"
_symmetry_group_IT_number 40
_symmetry_cell_setting 'orthorhombic'
loop_
_space_group_symop_operation_xyz
x,y,z
-x,-y,z
1/2-x,y,z
1/2+x,-y,z
x,1/2+y,1/2+z
-x,1/2-y,1/2+z
1/2-x,1/2+y,1/2+z
1/2+x,1/2-y,1/2+z
loop_
_atom_site_type_symbol
_atom_site_label
_atom_site_fract_x
_atom_site_fract_y
_atom_site_fract_z
Si Si1 0.936431 0.864420 0.188700
Si Si2 0.850251 0.230772 0.972218
Si Si3 0.250000 0.801968 0.327117
Si Si4 0.250000 0.214921 0.660034
Si Si5 0.750000 0.954309 0.948510
Si Si6 0.402297 0.548356 0.849421
Si Si7 0.750000 0.941630 0.113662
Si Si8 0.555495 0.854115 0.604328
O O1 0.920521 0.863109 0.274864
O O2 0.991442 0.717879 0.166010
O O3 0.838590 0.867950 0.149676
O O4 0.000000 0.000000 0.162615
O O5 0.750000 0.267913 0.010866
O O6 0.932403 0.253140 0.030918
O O7 0.842815 0.060065 0.942293
O O8 0.854785 0.339505 0.904047
O O9 0.250000 0.728866 0.247726
O O10 0.250000 0.673709 0.388458
O O11 0.340868 0.902592 0.335822
O O12 0.250000 0.380403 0.624466
O O13 0.341757 0.121015 0.637854
O O14 0.750000 0.887772 0.029933
O O15 0.500000 0.500000 0.883790
O O16 0.500000 0.000000 0.579529
#
# Coordination Sequence:
#
# PCOD8184316 Si02
#       8
#     8   8   4   4   4   8   4   8
#     4  11  22  40  68  97 124 182 240 277 357 431
#     4  10  21  44  66  88 143 183 215 284 368 403
#     4  12  23  42  70 101 133 185 234 282 351 432
#     4  12  20  45  67  91 144 181 220 305 354 396
#     4  10  23  38  66  93 123 181 220 270 356 415
#     4  11  22  40  67  96 131 176 231 284 346 425
#     4  12  20  41  69  91 134 179 226 295 335 423
#     4  12  25  42  69 101 134 186 240 298 352 418
#
# _framework density 20.232557
#
# number of rings (size 3 to 8) (size 9 to 14) (size 15 to 20)
#    0.500    0.333    6.667    1.500    0.000    4.667 
#    0.000    2.500    0.000    0.000    0.000    0.000 
#    0.000    0.000    0.000    0.000    0.000    0.000 
#
# Total GULP energy -297460.083270 kJ/mol
# GULP energy per Si atom -12394.170136 kJ/mol
# Density = 2.018651 g / cm^3
# Si number density = 20.232557 Si / 1000 Ang^3
#
#
#
# Elastic Constant Matrix: (Units=GPa)
#
#
# Indices 1 2 3 4 5 6 
#
# 1 133.2190 34.7599 31.1393 0.0000 0.0000 0.0000
# 2 34.7599 64.5336 39.1752 0.0000 0.0000 0.0000
# 3 31.1393 39.1752 108.9655 0.0000 0.0000 0.0000
# 4 0.0000 0.0000 0.0000 37.9186 0.0000 0.0000
# 5 0.0000 0.0000 0.0000 0.0000 -28.8937 0.0000
# 6 0.0000 0.0000 0.0000 0.0000 0.0000 17.5353
#
#
#
# Elastic Compliance Matrix: (Units=1/GPa)
#
#
# Indices 1 2 3 4 5 6 
#
# 1 0.008825 -0.004122 -0.001040 0.000000 0.000000 0.000000
# 2 -0.004122 0.021747 -0.006641 0.000000 0.000000 0.000000
# 3 -0.001040 -0.006641 0.011862 0.000000 0.000000 0.000000
# 4 0.000000 0.000000 0.000000 0.026372 0.000000 0.000000
# 5 0.000000 0.000000 0.000000 0.000000 -0.034610 0.000000
# 6 0.000000 0.000000 0.000000 0.000000 0.000000 0.057028
#
#
# Mechanical properties :
#
#
# Convention : Reuss Voigt Hill
#
# Bulk Modulus (GPa) = 53.11014 57.42967 55.26990
# Shear Modulus (GPa) = 41.28600 18.75495 30.02047
#
# Velocity S-wave (km/s) = 4.52217 3.04792 3.85615
# Velocity P-wave (km/s) = 7.31939 6.39006 6.87046
#
# Compressibility (1/GPa) = 0.01882880
#
# Stress axis : x y z
#
# Youngs Moduli (GPa) = 113.31327 45.98269 84.30399
#
# Poissons Ratio (x) = 0.18955 0.08767
# Poissons Ratio (y) = 0.46710 0.55983
# Poissons Ratio (z) = 0.11784 0.30535
#
# Static dielectric constant tensor:
#      x y z
#    x 3.888560 0.000000 0.000000 
#    y 0.000000 3.677900 0.000000 
#    z 0.000000 0.000000 3.721060 
# 
# 
# High freq. dielectric constant tensor:
#      x y z
#    x 1.800050 0.000000 0.000000 
#    y 0.000000 1.761990 0.000000 
#    z 0.000000 0.000000 1.803220 
# 
# From -- ./inp_files/20628.got.cif
#   From: 2010.03.12/outbox.cif.g09.slc.cpg/sg40_11_cif.got.tgz:20628.got - 2010.04.14 01:38:03.
