data_PCOD8184141
_publ_section_title
;
Structure prediction by ZEFSAII (Michael W. Deem and Ramdas Pophale) SiO2 
 PCOD8184141
Probable space group: A M A 2
;
_chemical_formula_sum "Si O2"
_cell_formula_units_Z 56
_cell_length_a 26.475020
_cell_length_b 16.781405
_cell_length_c 6.205739
_cell_angle_alpha 90.000000
_cell_angle_beta 90.000000
_cell_angle_gamma 90.000000
_cell_volume 2757.135574
_symmetry_space_group_name_H-M "A M A 2"
_symmetry_group_IT_number 40
_symmetry_cell_setting 'orthorhombic'
loop_
_space_group_symop_operation_xyz
x,y,z
-x,-y,z
1/2-x,y,z
1/2+x,-y,z
x,1/2+y,1/2+z
-x,1/2-y,1/2+z
1/2-x,1/2+y,1/2+z
1/2+x,1/2-y,1/2+z
loop_
_atom_site_type_symbol
_atom_site_label
_atom_site_fract_x
_atom_site_fract_y
_atom_site_fract_z
Si Si1 0.122720 0.722203 0.927810
Si Si2 0.947473 0.321544 0.312613
Si Si3 0.692438 0.502103 0.300989
Si Si4 0.692752 0.651465 0.603612
Si Si5 0.621188 0.915901 0.109540
Si Si6 0.445466 0.824455 0.623879
Si Si7 0.627117 0.055494 0.418308
O O1 0.140708 0.654704 0.762727
O O2 0.087951 0.787739 0.813339
O O3 0.092405 0.681854 0.120773
O O4 0.172775 0.764216 0.017798
O O5 0.928672 0.387750 0.481984
O O6 0.953204 0.235688 0.425186
O O7 0.000955 0.349776 0.221321
O O8 0.750000 0.476694 0.256636
O O9 0.689308 0.587873 0.412540
O O10 0.667526 0.434848 0.450916
O O11 0.663036 0.505582 0.076347
O O12 0.750000 0.662456 0.683309
O O13 0.659657 0.625309 0.808213
O O14 0.605203 0.994290 0.242315
O O15 0.419808 0.905536 0.541709
#
# Coordination Sequence:
#
# PCOD8184141 Si02
#       7
#     8   8   8   8   8   8   8
#     4  11  21  41  64  94 126 162 214 268 315 381
#     4  11  22  42  65  97 123 173 213 266 321 386
#     4  10  21  41  65  92 128 173 212 256 320 386
#     4  10  21  37  66  98 125 161 212 262 314 376
#     4  10  25  41  63  91 135 163 209 267 322 379
#     4  11  22  38  73  90 125 170 215 261 326 374
#     4  11  21  42  66  96 126 169 208 266 313 382
#
# _framework density 20.310934
#
# number of rings (size 3 to 8) (size 9 to 14) (size 15 to 20)
#    0.000    1.429    4.286    1.286    0.000    1.143 
#    0.000    6.429    0.000    0.000    0.000    0.000 
#    0.000    0.000    0.000    0.000    0.000    0.000 
#
# Total GULP energy -347379.765948 kJ/mol
# GULP energy per Si atom -12406.420212 kJ/mol
# Density = 2.026471 g / cm^3
# Si number density = 20.310934 Si / 1000 Ang^3
#
#
#
# Elastic Constant Matrix: (Units=GPa)
#
#
# Indices 1 2 3 4 5 6 
#
# 1 133.1976 70.2706 54.6659 0.0000 0.0000 0.0000
# 2 70.2706 101.4391 51.8193 0.0000 0.0000 0.0000
# 3 54.6659 51.8193 114.1315 0.0000 0.0000 0.0000
# 4 0.0000 0.0000 0.0000 33.2434 0.0000 0.0000
# 5 0.0000 0.0000 0.0000 0.0000 30.0109 0.0000
# 6 0.0000 0.0000 0.0000 0.0000 0.0000 29.4760
#
#
#
# Elastic Compliance Matrix: (Units=1/GPa)
#
#
# Indices 1 2 3 4 5 6 
#
# 1 0.012422 -0.007247 -0.002660 0.000000 0.000000 0.000000
# 2 -0.007247 0.017063 -0.004276 0.000000 0.000000 0.000000
# 3 -0.002660 -0.004276 0.011977 0.000000 0.000000 0.000000
# 4 0.000000 0.000000 0.000000 0.030081 0.000000 0.000000
# 5 0.000000 0.000000 0.000000 0.000000 0.033321 0.000000
# 6 0.000000 0.000000 0.000000 0.000000 0.000000 0.033926
#
#
# Mechanical properties :
#
#
# Convention : Reuss Voigt Hill
#
# Bulk Modulus (GPa) = 76.35179 78.03108 77.19144
# Shear Modulus (GPa) = 29.15096 30.01355 29.58226
#
# Velocity S-wave (km/s) = 3.79256 3.84826 3.82051
# Velocity P-wave (km/s) = 7.53997 7.63198 7.58611
#
# Compressibility (1/GPa) = 0.01309727
#
# Stress axis : x y z
#
# Youngs Moduli (GPa) = 80.50010 58.60797 83.49213
#
# Poissons Ratio (x) = 0.42472 0.22207
# Poissons Ratio (y) = 0.58336 0.35701
# Poissons Ratio (z) = 0.21411 0.25060
#
# Static dielectric constant tensor:
#      x y z
#    x 3.637880 0.000000 0.000000 
#    y 0.000000 3.546670 0.000000 
#    z 0.000000 0.000000 3.879820 
# 
# 
# High freq. dielectric constant tensor:
#      x y z
#    x 1.786950 0.000000 0.000000 
#    y 0.000000 1.785240 0.000000 
#    z 0.000000 0.000000 1.810210 
# 
# From -- ./inp_files/3401.got.cif
#   From: 2010.03.12/outbox.cif.g09.slc.cpg/sg40_2_cif.got.tgz:3401.got - 2010.04.14 01:38:03.
