data_PCOD8184456
_publ_section_title
;
Structure prediction by ZEFSAII (Michael W. Deem and Ramdas Pophale) SiO2 
 PCOD8184456
Probable space group: A M A 2
;
_chemical_formula_sum "Si O2"
_cell_formula_units_Z 48
_cell_length_a 9.613251
_cell_length_b 7.725746
_cell_length_c 29.912220
_cell_angle_alpha 90.000000
_cell_angle_beta 90.000000
_cell_angle_gamma 90.000000
_cell_volume 2221.566684
_symmetry_space_group_name_H-M "A M A 2"
_symmetry_group_IT_number 40
_symmetry_cell_setting 'orthorhombic'
loop_
_space_group_symop_operation_xyz
x,y,z
-x,-y,z
1/2-x,y,z
1/2+x,-y,z
x,1/2+y,1/2+z
-x,1/2-y,1/2+z
1/2-x,1/2+y,1/2+z
1/2+x,1/2-y,1/2+z
loop_
_atom_site_type_symbol
_atom_site_label
_atom_site_fract_x
_atom_site_fract_y
_atom_site_fract_z
Si Si1 0.250000 0.800315 0.386091
Si Si2 0.913602 0.330580 0.589959
Si Si3 0.483567 0.803652 0.928967
Si Si4 0.500000 0.500000 0.249539
Si Si5 0.250000 0.012205 0.811708
Si Si6 0.909683 0.332446 0.693934
Si Si7 0.586693 0.344852 0.017533
Si Si8 0.250000 0.677799 0.865716
O O1 0.374548 0.799356 0.421547
O O2 0.250000 0.628136 0.355964
O O3 0.250000 0.971751 0.354138
O O4 0.750000 0.347846 0.576038
O O5 0.927626 0.287539 0.641922
O O6 0.000000 0.500000 0.577372
O O7 0.995940 0.185642 0.562371
O O8 0.382747 0.711205 0.895116
O O9 0.500000 0.000000 0.913702
O O10 0.426016 0.804025 0.979971
O O11 0.379500 0.564031 0.281710
O O12 0.542234 0.662418 0.219520
O O13 0.250000 0.805041 0.822641
O O14 0.750000 0.376030 0.705320
O O15 0.000000 0.500000 0.707653
O O16 0.500000 0.500000 0.994532
O O17 0.750000 0.380410 0.028987
#
# Coordination Sequence:
#
# PCOD8184456 Si02
#       8
#     4   8   8   4   4   8   8   4
#     4  12  26  44  76  99 135 189 232 296 353 428
#     4  10  22  43  69 101 141 185 235 289 354 421
#     4  12  24  44  70  99 140 184 235 288 354 420
#     4  12  26  46  74 104 146 184 238 304 358 436
#     4  12  26  46  72 106 140 180 244 300 362 426
#     4  10  24  46  74 108 143 189 238 292 361 432
#     4  12  26  42  64 102 142 185 239 297 349 423
#     4  12  24  48  68 101 137 183 234 286 353 428
#
# _framework density 21.606373000000001
#
# number of rings (size 3 to 8) (size 9 to 14) (size 15 to 20)
#    0.000    0.667    3.333    4.000    4.667    2.000 
#    0.000    0.000    0.000    0.000    0.000    0.000 
#    0.000    0.000    0.000    0.000    0.000    0.000 
#
# Total GULP energy -297513.495149 kJ/mol
# GULP energy per Si atom -12396.395631 kJ/mol
# Density = 2.155720 g / cm^3
# Si number density = 21.606373 Si / 1000 Ang^3
#
#
#
# Elastic Constant Matrix: (Units=GPa)
#
#
# Indices 1 2 3 4 5 6 
#
# 1 197.8164 42.1101 50.2521 0.0000 0.0000 0.0000
# 2 42.1101 108.1166 28.1968 0.0000 0.0000 0.0000
# 3 50.2521 28.1968 80.1608 0.0000 0.0000 0.0000
# 4 0.0000 0.0000 0.0000 29.8182 0.0000 0.0000
# 5 0.0000 0.0000 0.0000 0.0000-2015.3546 0.0000
# 6 0.0000 0.0000 0.0000 0.0000 0.0000 34.2698
#
#
#
# Elastic Compliance Matrix: (Units=1/GPa)
#
#
# Indices 1 2 3 4 5 6 
#
# 1 0.006241 -0.001553 -0.003366 0.000000 0.000000 0.000000
# 2 -0.001553 0.010570 -0.002745 0.000000 0.000000 0.000000
# 3 -0.003366 -0.002745 0.015551 0.000000 0.000000 0.000000
# 4 0.000000 0.000000 0.000000 0.033537 0.000000 0.000000
# 5 0.000000 0.000000 0.000000 0.000000 -0.000496 0.000000
# 6 0.000000 0.000000 0.000000 0.000000 0.000000 0.029180
#
#
# Mechanical properties :
#
#
# Convention : Reuss Voigt Hill
#
# Bulk Modulus (GPa) = 58.70524 69.69021 64.19772
# Shear Modulus (GPa) = 43.25748 -372.55101 -164.64677
#
# Velocity S-wave (km/s) = 4.47930 -13.14537 -8.73890
# Velocity P-wave (km/s) = 7.34721 14.07397 8.48808
#
# Compressibility (1/GPa) = 0.01703425
#
# Stress axis : x y z
#
# Youngs Moduli (GPa) = 160.23412 94.60858 64.30660
#
# Poissons Ratio (x) = 0.14691 0.21646
# Poissons Ratio (y) = 0.24882 0.17649
# Poissons Ratio (z) = 0.53937 0.25965
#
# Static dielectric constant tensor:
#      x y z
#    x 6.603900 0.000000 0.000000 
#    y 0.000000 4.033830 0.000000 
#    z 0.000000 0.000000 3.798890 
# 
# 
# High freq. dielectric constant tensor:
#      x y z
#    x 1.871780 0.000000 0.000000 
#    y 0.000000 1.851590 0.000000 
#    z 0.000000 0.000000 1.845630 
# 
# From -- ./inp_files/26250.got.cif
#   From: 2010.03.12/outbox.cif.g09.slc.cpg/sg40_14_cif.got.tgz:26250.got - 2010.04.14 01:38:03.
