data_PCOD8184435
_publ_section_title
;
Structure prediction by ZEFSAII (Michael W. Deem and Ramdas Pophale) SiO2 
 PCOD8184435
Probable space group: A M A 2
;
_chemical_formula_sum "Si O2"
_cell_formula_units_Z 64
_cell_length_a 8.765575
_cell_length_b 28.406247
_cell_length_c 12.515377
_cell_angle_alpha 90.000000
_cell_angle_beta 90.000000
_cell_angle_gamma 90.000000
_cell_volume 3116.292435
_symmetry_space_group_name_H-M "A M A 2"
_symmetry_group_IT_number 40
_symmetry_cell_setting 'orthorhombic'
loop_
_space_group_symop_operation_xyz
x,y,z
-x,-y,z
1/2-x,y,z
1/2+x,-y,z
x,1/2+y,1/2+z
-x,1/2-y,1/2+z
1/2-x,1/2+y,1/2+z
1/2+x,1/2-y,1/2+z
loop_
_atom_site_type_symbol
_atom_site_label
_atom_site_fract_x
_atom_site_fract_y
_atom_site_fract_z
Si Si1 0.074265 0.296450 0.334450
Si Si2 0.430773 0.903945 0.345521
Si Si3 0.572371 0.924848 0.128542
Si Si4 0.580377 0.701685 0.788622
Si Si5 0.071234 0.614192 0.260002
Si Si6 0.579643 0.666378 0.563042
Si Si7 0.428844 0.954366 0.920480
Si Si8 0.430766 0.051455 0.557280
O O1 0.250000 0.304446 0.307186
O O2 0.033234 0.306659 0.456845
O O3 0.035594 0.241904 0.322143
O O4 0.978998 0.330964 0.255345
O O5 0.250000 0.910669 0.345583
O O6 0.499131 0.932672 0.245220
O O7 0.474911 0.848795 0.334925
O O8 0.501935 0.925596 0.451243
O O9 0.750000 0.937510 0.131841
O O10 0.548618 0.871618 0.089354
O O11 0.486140 0.957135 0.042609
O O12 0.750000 0.712658 0.832774
O O13 0.583486 0.702868 0.660266
O O14 0.250000 0.610251 0.279096
O O15 0.022208 0.586259 0.153704
O O16 0.985145 0.592857 0.362722
O O17 0.750000 0.642755 0.552110
O O18 0.250000 0.957451 0.913537
O O19 0.500000 0.000000 0.860679
O O20 0.250000 0.046796 0.546213
O O21 0.500000 0.000000 0.578284
#
# Coordination Sequence:
#
# PCOD8184435 Si02
#       8
#     8   8   8   8   8   8   8   8
#     4  11  22  36  60  90 122 163 213 264 318 382
#     4  10  22  42  66  91 125 166 210 262 319 377
#     4  11  21  36  61  90 119 155 198 248 307 370
#     4   9  20  38  59  86 122 163 208 261 320 377
#     4  11  24  42  63  90 124 164 210 262 319 379
#     4   9  19  37  57  80 115 159 200 252 311 367
#     4  12  24  39  60  89 123 157 199 249 305 369
#     4  11  25  44  67  94 127 169 217 268 324 389
#
# _framework density 20.537226
#
# number of rings (size 3 to 8) (size 9 to 14) (size 15 to 20)
#    0.000    1.500    1.250    4.875    0.000    7.500 
#    0.000    6.250    0.000    0.000    0.000    0.000 
#    0.000    0.000    0.000    0.000    0.000    0.000 
#
# Total GULP energy -396814.817246 kJ/mol
# GULP energy per Si atom -12400.463039 kJ/mol
# Density = 2.049048 g / cm^3
# Si number density = 20.537226 Si / 1000 Ang^3
#
#
#
# Elastic Constant Matrix: (Units=GPa)
#
#
# Indices 1 2 3 4 5 6 
#
# 1 113.6513 27.6553 39.2428 0.0000 0.0000 0.0000
# 2 27.6553 72.5511 22.0034 0.0000 0.0000 0.0000
# 3 39.2428 22.0034 100.3912 0.0000 0.0000 0.0000
# 4 0.0000 0.0000 0.0000 45.6813 0.0000 0.0000
# 5 0.0000 0.0000 0.0000 0.0000 29.8389 0.0000
# 6 0.0000 0.0000 0.0000 0.0000 0.0000 36.0106
#
#
#
# Elastic Compliance Matrix: (Units=1/GPa)
#
#
# Indices 1 2 3 4 5 6 
#
# 1 0.010758 -0.003027 -0.003542 0.000000 0.000000 0.000000
# 2 -0.003027 0.015616 -0.002240 0.000000 0.000000 0.000000
# 3 -0.003542 -0.002240 0.011836 0.000000 0.000000 0.000000
# 4 0.000000 0.000000 0.000000 0.021891 0.000000 0.000000
# 5 0.000000 0.000000 0.000000 0.000000 0.033513 0.000000
# 6 0.000000 0.000000 0.000000 0.000000 0.000000 0.027770
#
#
# Mechanical properties :
#
#
# Convention : Reuss Voigt Hill
#
# Bulk Modulus (GPa) = 48.55665 51.59965 50.07815
# Shear Modulus (GPa) = 34.27792 35.48563 34.88178
#
# Velocity S-wave (km/s) = 4.08985 4.16127 4.12572
# Velocity P-wave (km/s) = 6.78211 6.94750 6.86530
#
# Compressibility (1/GPa) = 0.02059450
#
# Stress axis : x y z
#
# Youngs Moduli (GPa) = 92.95078 64.03546 84.48453
#
# Poissons Ratio (x) = 0.19382 0.29925
# Poissons Ratio (y) = 0.28133 0.18921
# Poissons Ratio (z) = 0.32924 0.14341
#
# Static dielectric constant tensor:
#      x y z
#    x 3.705920 0.000000 0.000000 
#    y 0.000000 3.545090 0.000000 
#    z 0.000000 0.000000 3.843330 
# 
# 
# High freq. dielectric constant tensor:
#      x y z
#    x 1.809220 0.000000 0.000000 
#    y 0.000000 1.802930 0.000000 
#    z 0.000000 0.000000 1.804820 
# 
# From -- ./inp_files/10631.got.cif
#   From: 2010.03.12/outbox.cif.g09.slc.cpg/sg40_6_cif.got.tgz:10631.got - 2010.04.14 01:38:03.
