data_PCOD8184836
_publ_section_title
;
Structure prediction by ZEFSAII (Michael W. Deem and Ramdas Pophale) SiO2 
 PCOD8184836
Probable space group: A B A 2
;
_chemical_formula_sum "Si O2"
_cell_formula_units_Z 52
_cell_length_a 19.557574
_cell_length_b 14.440057
_cell_length_c 9.035578
_cell_angle_alpha 90.000000
_cell_angle_beta 90.000000
_cell_angle_gamma 90.000000
_cell_volume 2551.760021
_symmetry_space_group_name_H-M "A B A 2"
_symmetry_group_IT_number 41
_symmetry_cell_setting 'orthorhombic'
loop_
_space_group_symop_operation_xyz
x,y,z
-x,-y,z
1/2-x,y,1/2+z
1/2+x,-y,1/2+z
x,1/2+y,1/2+z
-x,1/2-y,1/2+z
1/2-x,1/2+y,z
1/2+x,1/2-y,z
loop_
_atom_site_type_symbol
_atom_site_label
_atom_site_fract_x
_atom_site_fract_y
_atom_site_fract_z
Si Si1 0.840557 0.706593 0.425340
Si Si2 0.854566 0.899360 0.074424
Si Si3 0.385762 0.982488 0.326500
Si Si4 0.500000 0.500000 0.592552
Si Si5 0.288858 0.498566 0.576258
Si Si6 0.900068 0.894356 0.396227
Si Si7 0.217045 0.789199 0.609580
O O1 0.877986 0.608107 0.428727
O O2 0.898446 0.784187 0.416688
O O3 0.788762 0.709928 0.286148
O O4 0.796158 0.729885 0.570961
O O5 0.900014 0.915028 0.221029
O O6 0.832328 0.792650 0.049477
O O7 0.789163 0.968127 0.074146
O O8 0.902583 0.931955 0.936750
O O9 0.315692 0.011454 0.244030
O O10 0.441801 0.959977 0.200523
O O11 0.531281 0.423898 0.481742
O O12 0.332495 0.557537 0.460634
O O13 0.299408 0.389394 0.536420
#
# Coordination Sequence:
#
# PCOD8184836 Si02
#       7
#     8   8   8   4   8   8   8
#     4  10  20  36  57  91 118 153 185 241 296 363
#     4  11  20  34  59  92 116 151 189 245 295 361
#     4  10  22  38  60  83 120 153 203 234 294 343
#     4  10  24  46  56  74 114 170 202 252 276 336
#     4  10  19  35  56  90 124 153 174 239 302 360
#     4  10  22  38  61  82 121 154 200 234 295 342
#     4  10  21  31  55  89 132 141 182 228 306 362
#
# _framework density 20.378093
#
# number of rings (size 3 to 8) (size 9 to 14) (size 15 to 20)
#    0.000    1.846    3.077    0.923    4.308    0.615 
#    0.000    7.692    0.000    0.000    0.000    0.000 
#    0.000    0.000    0.000    0.000    0.000    0.000 
#
# Total GULP energy -322228.187559 kJ/mol
# GULP energy per Si atom -12393.391829 kJ/mol
# Density = 2.033171 g / cm^3
# Si number density = 20.378093 Si / 1000 Ang^3
#
#
#
# Elastic Constant Matrix: (Units=GPa)
#
#
# Indices 1 2 3 4 5 6 
#
# 1 42.4460 3.2961 11.4174 0.0000 0.0000 0.0000
# 2 3.2961 106.1734 34.6969 0.0000 0.0000 0.0000
# 3 11.4174 34.6969 61.7515 0.0000 0.0000 0.0000
# 4 0.0000 0.0000 0.0000 28.7875 0.0000 0.0000
# 5 0.0000 0.0000 0.0000 0.0000 33.5738 0.0000
# 6 0.0000 0.0000 0.0000 0.0000 0.0000 16.9840
#
#
#
# Elastic Compliance Matrix: (Units=1/GPa)
#
#
# Indices 1 2 3 4 5 6 
#
# 1 0.024862 0.000895 -0.005099 0.000000 0.000000 0.000000
# 2 0.000895 0.011569 -0.006666 0.000000 0.000000 0.000000
# 3 -0.005099 -0.006666 0.020882 0.000000 0.000000 0.000000
# 4 0.000000 0.000000 0.000000 0.034737 0.000000 0.000000
# 5 0.000000 0.000000 0.000000 0.000000 0.029785 0.000000
# 6 0.000000 0.000000 0.000000 0.000000 0.000000 0.058879
#
#
# Mechanical properties :
#
#
# Convention : Reuss Voigt Hill
#
# Bulk Modulus (GPa) = 28.11228 34.35462 31.23345
# Shear Modulus (GPa) = 23.33040 26.59977 24.96509
#
# Velocity S-wave (km/s) = 3.38727 3.61683 3.50393
# Velocity P-wave (km/s) = 5.39662 5.85979 5.63297
#
# Compressibility (1/GPa) = 0.03557164
#
# Stress axis : x y z
#
# Youngs Moduli (GPa) = 40.22273 86.43671 47.88770
#
# Poissons Ratio (x) = -0.07733 0.24420
# Poissons Ratio (y) = -0.03598 0.31921
# Poissons Ratio (z) = 0.20511 0.57618
#
# Static dielectric constant tensor:
#      x y z
#    x 3.383020 0.000000 0.000000 
#    y 0.000000 3.873050 0.000000 
#    z 0.000000 0.000000 3.827520 
# 
# 
# High freq. dielectric constant tensor:
#      x y z
#    x 1.756160 0.000000 0.000000 
#    y 0.000000 1.805930 0.000000 
#    z 0.000000 0.000000 1.802640 
# 
# From -- ./inp_files/3377.got.cif
#   From: 2010.03.12/outbox.cif.g09.slc.cpg/sg41_2_cif.got.tgz:3377.got - 2010.04.14 01:55:53.
