data_PCOD8184706
_publ_section_title
;
Structure prediction by ZEFSAII (Michael W. Deem and Ramdas Pophale) SiO2 
 PCOD8184706
Probable space group: A M A 2
;
_chemical_formula_sum "Si O2"
_cell_formula_units_Z 24
_cell_length_a 16.511417
_cell_length_b 13.965252
_cell_length_c 4.995775
_cell_angle_alpha 90.000000
_cell_angle_beta 90.000000
_cell_angle_gamma 90.000000
_cell_volume 1151.956270
_symmetry_space_group_name_H-M "A M A 2"
_symmetry_group_IT_number 40
_symmetry_cell_setting 'orthorhombic'
loop_
_space_group_symop_operation_xyz
x,y,z
-x,-y,z
1/2-x,y,z
1/2+x,-y,z
x,1/2+y,1/2+z
-x,1/2-y,1/2+z
1/2-x,1/2+y,1/2+z
1/2+x,1/2-y,1/2+z
loop_
_atom_site_type_symbol
_atom_site_label
_atom_site_fract_x
_atom_site_fract_y
_atom_site_fract_z
Si Si1 0.342822 0.427525 0.799080
Si Si2 0.554663 0.758591 0.756878
Si Si3 0.909418 0.472203 0.291295
O O1 0.250000 0.417985 0.711222
O O2 0.380543 0.322562 0.822546
O O3 0.391859 0.491385 0.588589
O O4 0.347658 0.478921 0.085737
O O5 0.521237 0.745203 0.457782
O O6 0.601982 0.858345 0.783313
O O7 0.000000 0.500000 0.204146
#
# Coordination Sequence:
#
# PCOD8184706 Si02
#       3
#     8   8   8
#     4  12  26  43  64 101 138 165 215 284 328 372
#     4  12  23  41  70  97 125 174 224 264 318 397
#     4  12  23  43  72  95 128 177 225 259 322 401
#
# _framework density 20.834126000000001
#
# number of rings (size 3 to 8) (size 9 to 14) (size 15 to 20)
#    0.000    0.000    6.667    4.000    0.000    2.667 
#    0.000    0.000    0.000    0.000    0.000    0.000 
#    0.000    0.000    0.000    0.000    0.000    0.000 
#
# Total GULP energy -148933.853237 kJ/mol
# GULP energy per Si atom -12411.154436 kJ/mol
# Density = 2.078671 g / cm^3
# Si number density = 20.834126 Si / 1000 Ang^3
#
#
#
# Elastic Constant Matrix: (Units=GPa)
#
#
# Indices 1 2 3 4 5 6 
#
# 1 87.7585 43.0981 11.2327 0.0000 0.0000 0.0000
# 2 43.0981 195.1501 28.9058 0.0000 0.0000 0.0000
# 3 11.2327 28.9058 86.4603 0.0000 0.0000 0.0000
# 4 0.0000 0.0000 0.0000 31.4633 0.0000 0.0000
# 5 0.0000 0.0000 0.0000 0.0000 29.7601 0.0000
# 6 0.0000 0.0000 0.0000 0.0000 0.0000 19.1550
#
#
#
# Elastic Compliance Matrix: (Units=1/GPa)
#
#
# Indices 1 2 3 4 5 6 
#
# 1 0.012828 -0.002721 -0.000757 0.000000 0.000000 0.000000
# 2 -0.002721 0.005968 -0.001642 0.000000 0.000000 0.000000
# 3 -0.000757 -0.001642 0.012213 0.000000 0.000000 0.000000
# 4 0.000000 0.000000 0.000000 0.031783 0.000000 0.000000
# 5 0.000000 0.000000 0.000000 0.000000 0.033602 0.000000
# 6 0.000000 0.000000 0.000000 0.000000 0.000000 0.052206
#
#
# Mechanical properties :
#
#
# Convention : Reuss Voigt Hill
#
# Bulk Modulus (GPa) = 48.14580 59.53800 53.84190
# Shear Modulus (GPa) = 30.16349 35.15116 32.65732
#
# Velocity S-wave (km/s) = 3.80911 4.11200 3.96345
# Velocity P-wave (km/s) = 6.51959 7.15429 6.84430
#
# Compressibility (1/GPa) = 0.02077025
#
# Stress axis : x y z
#
# Youngs Moduli (GPa) = 77.95431 167.55038 81.87823
#
# Poissons Ratio (x) = 0.45589 0.06198
# Poissons Ratio (y) = 0.21211 0.13443
# Poissons Ratio (z) = 0.05901 0.27510
#
# Static dielectric constant tensor:
#      x y z
#    x 3.486880 0.000000 0.000000 
#    y 0.000000 3.980190 0.000000 
#    z 0.000000 0.000000 3.825440 
# 
# 
# High freq. dielectric constant tensor:
#      x y z
#    x 1.799160 0.000000 0.000000 
#    y 0.000000 1.835000 0.000000 
#    z 0.000000 0.000000 1.831130 
# 
# From -- ./inp_files/942.got.cif
#   From: 2010.03.12/outbox.cif.g09.slc.cpg/sg40_1_cif.got.tgz:942.got - 2010.04.14 01:38:03.
