data_PCOD8184033
_publ_section_title
;
Structure prediction by ZEFSAII (Michael W. Deem and Ramdas Pophale) SiO2 
 PCOD8184033
Probable space group: A M A 2
;
_chemical_formula_sum "Si O2"
_cell_formula_units_Z 40
_cell_length_a 9.539131
_cell_length_b 7.302507
_cell_length_c 25.797980
_cell_angle_alpha 90.000000
_cell_angle_beta 90.000000
_cell_angle_gamma 90.000000
_cell_volume 1797.076217
_symmetry_space_group_name_H-M "A M A 2"
_symmetry_group_IT_number 40
_symmetry_cell_setting 'orthorhombic'
loop_
_space_group_symop_operation_xyz
x,y,z
-x,-y,z
1/2-x,y,z
1/2+x,-y,z
x,1/2+y,1/2+z
-x,1/2-y,1/2+z
1/2-x,1/2+y,1/2+z
1/2+x,1/2-y,1/2+z
loop_
_atom_site_type_symbol
_atom_site_label
_atom_site_fract_x
_atom_site_fract_y
_atom_site_fract_z
Si Si1 0.083122 0.833870 0.766130
Si Si2 0.500000 0.500000 0.836773
Si Si3 0.750000 0.995558 0.408346
Si Si4 0.750000 0.675424 0.480716
Si Si5 0.250000 0.252317 0.005725
Si Si6 0.414901 0.811518 0.172594
Si Si7 0.520780 0.712208 0.560844
O O1 0.250000 0.871076 0.757378
O O2 0.064479 0.656399 0.801066
O O3 0.996435 0.817288 0.712627
O O4 0.000000 0.000000 0.794729
O O5 0.620523 0.565796 0.874924
O O6 0.750000 0.102131 0.461241
O O7 0.750000 0.775388 0.423706
O O8 0.750000 0.452506 0.479899
O O9 0.618384 0.750917 0.512023
O O10 0.375179 0.300230 0.044619
O O11 0.250000 0.841069 0.187810
O O12 0.421790 0.713886 0.115927
O O13 0.500000 0.000000 0.173617
O O14 0.500000 0.500000 0.569918
#
# Coordination Sequence:
#
# PCOD8184033 Si02
#       7
#     8   4   4   4   4   8   8
#     4  12  28  49  76 106 144 186 241 305 368 437
#     4  12  28  50  74 104 144 184 246 308 366 422
#     4  12  26  44  74 102 132 192 242 294 366 418
#     4  10  20  42  63  95 141 177 230 290 344 423
#     4  10  22  40  65  97 139 183 236 292 348 431
#     4  11  22  39  70 105 146 191 237 289 358 432
#     4   9  19  36  63  97 140 186 227 281 355 422
#
# _framework density 22.258378
#
# number of rings (size 3 to 8) (size 9 to 14) (size 15 to 20)
#    0.000    1.200    3.000    2.400    8.400    1.600 
#    3.600    0.000    0.000    0.000    0.000    0.000 
#    0.000    0.000    0.000    0.000    0.000    0.000 
#
# Total GULP energy -247820.017802 kJ/mol
# GULP energy per Si atom -12391.000890 kJ/mol
# Density = 2.220772 g / cm^3
# Si number density = 22.258378 Si / 1000 Ang^3
#
#
#
# Elastic Constant Matrix: (Units=GPa)
#
#
# Indices 1 2 3 4 5 6 
#
# 1 202.9295 26.1136 39.2651 0.0000 0.0000 0.0000
# 2 26.1136 63.7438 13.7537 0.0000 0.0000 0.0000
# 3 39.2651 13.7537 86.5490 0.0000 0.0000 0.0000
# 4 0.0000 0.0000 0.0000 2984.4757 0.0000 0.0000
# 5 0.0000 0.0000 0.0000 0.0000 44.9123 0.0000
# 6 0.0000 0.0000 0.0000 0.0000 0.0000 29.8991
#
#
#
# Elastic Compliance Matrix: (Units=1/GPa)
#
#
# Indices 1 2 3 4 5 6 
#
# 1 0.005596 -0.001807 -0.002252 0.000000 0.000000 0.000000
# 2 -0.001807 0.016828 -0.001855 0.000000 0.000000 0.000000
# 3 -0.002252 -0.001855 0.012870 0.000000 0.000000 0.000000
# 4 0.000000 0.000000 0.000000 0.000335 0.000000 0.000000
# 5 0.000000 0.000000 0.000000 0.000000 0.022266 0.000000
# 6 0.000000 0.000000 0.000000 0.000000 0.000000 0.033446
#
#
# Mechanical properties :
#
#
# Convention : Reuss Voigt Hill
#
# Bulk Modulus (GPa) = 42.60993 56.83189 49.72091
# Shear Modulus (GPa) = 45.04929 630.13008 337.58968
#
# Velocity S-wave (km/s) = 4.50369 16.84377 12.32874
# Velocity P-wave (km/s) = 6.79920 20.09656 15.00168
#
# Compressibility (1/GPa) = 0.02346871
#
# Stress axis : x y z
#
# Youngs Moduli (GPa) = 178.69971 59.42457 77.69778
#
# Poissons Ratio (x) = 0.10736 0.17495
# Poissons Ratio (y) = 0.32285 0.14409
# Poissons Ratio (z) = 0.40237 0.11021
#
# Static dielectric constant tensor:
#      x y z
#    x 4.062020 0.000000 0.000000 
#    y 0.000000 -8.179300 0.000000 
#    z 0.000000 0.000000 4.291120 
# 
# 
# High freq. dielectric constant tensor:
#      x y z
#    x 1.896800 0.000000 0.000000 
#    y 0.000000 1.865780 0.000000 
#    z 0.000000 0.000000 1.877720 
# 
# From -- ./inp_files/23875.got.cif
#   From: 2010.03.12/outbox.cif.g09.slc.cpg/sg40_12_cif.got.tgz:23875.got - 2010.04.14 01:38:03.
