data_PCOD8184901
_publ_section_title
;
Structure prediction by ZEFSAII (Michael W. Deem and Ramdas Pophale) SiO2 
 PCOD8184901
Probable space group: A B A 2
;
_chemical_formula_sum "Si O2"
_cell_formula_units_Z 64
_cell_length_a 21.287687
_cell_length_b 12.558390
_cell_length_c 12.367220
_cell_angle_alpha 90.000000
_cell_angle_beta 90.000000
_cell_angle_gamma 90.000000
_cell_volume 3306.241162
_symmetry_space_group_name_H-M "A B A 2"
_symmetry_group_IT_number 41
_symmetry_cell_setting 'orthorhombic'
loop_
_space_group_symop_operation_xyz
x,y,z
-x,-y,z
1/2-x,y,1/2+z
1/2+x,-y,1/2+z
x,1/2+y,1/2+z
-x,1/2-y,1/2+z
1/2-x,1/2+y,z
1/2+x,1/2-y,z
loop_
_atom_site_type_symbol
_atom_site_label
_atom_site_fract_x
_atom_site_fract_y
_atom_site_fract_z
Si Si1 0.542851 0.897184 0.563240
Si Si2 0.674069 0.568882 0.817724
Si Si3 0.240834 0.399742 0.107850
Si Si4 0.064486 0.265742 0.651441
Si Si5 0.634738 0.519906 0.203712
Si Si6 0.203035 0.527523 0.911737
Si Si7 0.172019 0.752803 0.989203
Si Si8 0.059017 0.577446 0.320937
O O1 0.503304 0.794186 0.600433
O O2 0.569333 0.877929 0.442553
O O3 0.500000 0.000000 0.556717
O O4 0.597895 0.920636 0.649981
O O5 0.698512 0.629971 0.711073
O O6 0.728968 0.495376 0.863456
O O7 0.651346 0.654428 0.906087
O O8 0.618393 0.491271 0.784658
O O9 0.299928 0.474019 0.138922
O O10 0.196237 0.461563 0.022897
O O11 0.268838 0.290424 0.061107
O O12 0.095396 0.371631 0.699903
O O13 0.111097 0.220890 0.559163
O O14 0.052649 0.178298 0.742661
O O15 0.647000 0.503407 0.330558
O O16 0.198030 0.652743 0.926336
O O17 0.000000 0.500000 0.309776
#
# Coordination Sequence:
#
# PCOD8184901 Si02
#       8
#     8   8   8   8   8   8   8   8
#     4   9  18  36  58  78 106 147 190 228 279 345
#     4  10  21  37  57  82 113 150 190 230 284 351
#     4   9  19  35  54  82 114 145 182 229 286 344
#     4  10  21  38  58  80 111 150 189 234 284 336
#     4   9  19  36  57  82 112 147 187 229 280 344
#     4  10  20  34  57  86 114 144 186 238 287 337
#     4  10  20  36  57  82 115 151 184 229 287 342
#     4  11  22  38  59  82 111 148 193 239 285 345
#
# _framework density 19.357329
#
# number of rings (size 3 to 8) (size 9 to 14) (size 15 to 20)
#    0.000    2.250    0.000    4.500    0.000    8.000 
#    0.000    5.000    0.000    0.750    0.000    0.000 
#    0.000    0.000    0.000    0.000    0.000    0.000 
#
# Total GULP energy -396795.039804 kJ/mol
# GULP energy per Si atom -12399.844994 kJ/mol
# Density = 1.931327 g / cm^3
# Si number density = 19.357329 Si / 1000 Ang^3
#
#
#
# Elastic Constant Matrix: (Units=GPa)
#
#
# Indices 1 2 3 4 5 6 
#
# 1 71.5446 24.3470 47.8389 0.0000 0.0000 0.0000
# 2 24.3470 75.8597 47.5352 0.0000 0.0000 0.0000
# 3 47.8389 47.5352 129.8918 0.0000 0.0000 0.0000
# 4 0.0000 0.0000 0.0000 30.8142 0.0000 0.0000
# 5 0.0000 0.0000 0.0000 0.0000 32.2480 0.0000
# 6 0.0000 0.0000 0.0000 0.0000 0.0000 18.8505
#
#
#
# Elastic Compliance Matrix: (Units=1/GPa)
#
#
# Indices 1 2 3 4 5 6 
#
# 1 0.018823 -0.002202 -0.006127 0.000000 0.000000 0.000000
# 2 -0.002202 0.017362 -0.005543 0.000000 0.000000 0.000000
# 3 -0.006127 -0.005543 0.011984 0.000000 0.000000 0.000000
# 4 0.000000 0.000000 0.000000 0.032453 0.000000 0.000000
# 5 0.000000 0.000000 0.000000 0.000000 0.031010 0.000000
# 6 0.000000 0.000000 0.000000 0.000000 0.000000 0.053049
#
#
# Mechanical properties :
#
#
# Convention : Reuss Voigt Hill
#
# Bulk Modulus (GPa) = 48.95769 57.41538 53.18653
# Shear Modulus (GPa) = 25.09629 26.88753 25.99191
#
# Velocity S-wave (km/s) = 3.60457 3.73099 3.66832
# Velocity P-wave (km/s) = 6.53225 6.94878 6.74373
#
# Compressibility (1/GPa) = 0.02042580
#
# Stress axis : x y z
#
# Youngs Moduli (GPa) = 53.12547 57.59609 83.44732
#
# Poissons Ratio (x) = 0.12684 0.51125
# Poissons Ratio (y) = 0.11699 0.46253
# Poissons Ratio (z) = 0.32548 0.31925
#
# Static dielectric constant tensor:
#      x y z
#    x 3.566200 0.000000 0.000000 
#    y 0.000000 3.284560 0.000000 
#    z 0.000000 0.000000 3.847770 
# 
# 
# High freq. dielectric constant tensor:
#      x y z
#    x 1.748840 0.000000 0.000000 
#    y 0.000000 1.735730 0.000000 
#    z 0.000000 0.000000 1.765610 
# 
# From -- ./inp_files/6481.got.cif
#   From: 2010.03.12/outbox.cif.g09.slc.cpg/sg41_4_cif.got.tgz:6481.got - 2010.04.14 01:55:53.
