data_PCOD8184961
_publ_section_title
;
Structure prediction by ZEFSAII (Michael W. Deem and Ramdas Pophale) SiO2 
 PCOD8184961
Probable space group: A B A 2
;
_chemical_formula_sum "Si O2"
_cell_formula_units_Z 52
_cell_length_a 26.137529
_cell_length_b 11.378713
_cell_length_c 8.388079
_cell_angle_alpha 90.000000
_cell_angle_beta 90.000000
_cell_angle_gamma 90.000000
_cell_volume 2494.710663
_symmetry_space_group_name_H-M "A B A 2"
_symmetry_group_IT_number 41
_symmetry_cell_setting 'orthorhombic'
loop_
_space_group_symop_operation_xyz
x,y,z
-x,-y,z
1/2-x,y,1/2+z
1/2+x,-y,1/2+z
x,1/2+y,1/2+z
-x,1/2-y,1/2+z
1/2-x,1/2+y,z
1/2+x,1/2-y,z
loop_
_atom_site_type_symbol
_atom_site_label
_atom_site_fract_x
_atom_site_fract_y
_atom_site_fract_z
Si Si1 0.916307 0.375738 0.819890
Si Si2 0.908445 0.640208 0.511811
Si Si3 0.311006 0.912040 0.340960
Si Si4 0.330990 0.219626 0.608524
Si Si5 0.000000 0.000000 0.139025
Si Si6 0.355424 0.904431 0.835338
Si Si7 0.732229 0.496271 0.136584
O O1 0.882073 0.347632 0.663721
O O2 0.892281 0.492144 0.904061
O O3 0.972505 0.405053 0.753149
O O4 0.920132 0.269050 0.943119
O O5 0.869752 0.566189 0.395791
O O6 0.882679 0.656751 0.684220
O O7 0.960505 0.567044 0.523622
O O8 0.307140 0.784564 0.261547
O O9 0.273739 0.908822 0.494808
O O10 0.290442 0.005499 0.206004
O O11 0.345779 0.305961 0.466701
O O12 0.287123 0.126213 0.559113
O O13 0.302045 0.964689 0.787246
#
# Coordination Sequence:
#
# PCOD8184961 Si02
#       7
#     8   8   8   8   4   8   8
#     4   9  20  38  59  85 117 153 197 250 303 358
#     4   9  20  39  63  88 120 159 200 251 307 360
#     4  10  21  38  58  87 121 158 203 241 289 359
#     4  10  21  38  60  86 118 157 198 247 303 355
#     4  10  20  38  62  90 122 154 202 258 308 358
#     4   9  19  37  59  84 115 151 197 246 295 358
#     4  10  21  36  56  83 118 157 196 245 293 346
#
# _framework density 20.844101999999999
#
# number of rings (size 3 to 8) (size 9 to 14) (size 15 to 20)
#    0.000    2.462    0.000    1.846    0.000    6.154 
#    0.000    7.692    0.000    1.846    0.000    0.000 
#    0.000    0.000    0.000    0.000    0.000    0.000 
#
# Total GULP energy -322212.981338 kJ/mol
# GULP energy per Si atom -12392.806975 kJ/mol
# Density = 2.079666 g / cm^3
# Si number density = 20.844102 Si / 1000 Ang^3
#
#
#
# Elastic Constant Matrix: (Units=GPa)
#
#
# Indices 1 2 3 4 5 6 
#
# 1 126.9291 75.6857 62.7673 0.0000 0.0000 0.0000
# 2 75.6857 124.7354 65.8144 0.0000 0.0000 0.0000
# 3 62.7673 65.8144 93.5325 0.0000 0.0000 0.0000
# 4 0.0000 0.0000 0.0000 47.5153 0.0000 0.0000
# 5 0.0000 0.0000 0.0000 0.0000 32.9810 0.0000
# 6 0.0000 0.0000 0.0000 0.0000 0.0000 32.9131
#
#
#
# Elastic Compliance Matrix: (Units=1/GPa)
#
#
# Indices 1 2 3 4 5 6 
#
# 1 0.013862 -0.005571 -0.005382 0.000000 0.000000 0.000000
# 2 -0.005571 0.014990 -0.006809 0.000000 0.000000 0.000000
# 3 -0.005382 -0.006809 0.019095 0.000000 0.000000 0.000000
# 4 0.000000 0.000000 0.000000 0.021046 0.000000 0.000000
# 5 0.000000 0.000000 0.000000 0.000000 0.030321 0.000000
# 6 0.000000 0.000000 0.000000 0.000000 0.000000 0.030383
#
#
# Mechanical properties :
#
#
# Convention : Reuss Voigt Hill
#
# Bulk Modulus (GPa) = 80.50513 83.74797 82.12655
# Shear Modulus (GPa) = 29.52260 32.07720 30.79990
#
# Velocity S-wave (km/s) = 3.76753 3.92715 3.84817
# Velocity P-wave (km/s) = 7.59158 7.79928 7.69613
#
# Compressibility (1/GPa) = 0.01242157
#
# Stress axis : x y z
#
# Youngs Moduli (GPa) = 72.13984 66.71058 52.37076
#
# Poissons Ratio (x) = 0.37166 0.28187
# Poissons Ratio (y) = 0.40190 0.35660
# Poissons Ratio (z) = 0.38827 0.45424
#
# Static dielectric constant tensor:
#      x y z
#    x 3.868830 0.000000 0.000000 
#    y 0.000000 3.785250 0.000000 
#    z 0.000000 0.000000 3.730780 
# 
# 
# High freq. dielectric constant tensor:
#      x y z
#    x 1.812380 0.000000 0.000000 
#    y 0.000000 1.809100 0.000000 
#    z 0.000000 0.000000 1.810660 
# 
# From -- ./inp_files/3779.got.cif
#   From: 2010.03.12/outbox.cif.g09.slc.cpg/sg41_2_cif.got.tgz:3779.got - 2010.04.14 01:55:53.
