data_PCOD8184782
_publ_section_title
;
Structure prediction by ZEFSAII (Michael W. Deem and Ramdas Pophale) SiO2 
 PCOD8184782
Probable space group: A B A 2
;
_chemical_formula_sum "Si O2"
_cell_formula_units_Z 60
_cell_length_a 21.067484
_cell_length_b 16.308896
_cell_length_c 8.448972
_cell_angle_alpha 90.000000
_cell_angle_beta 90.000000
_cell_angle_gamma 90.000000
_cell_volume 2902.960369
_symmetry_space_group_name_H-M "A B A 2"
_symmetry_group_IT_number 41
_symmetry_cell_setting 'orthorhombic'
loop_
_space_group_symop_operation_xyz
x,y,z
-x,-y,z
1/2-x,y,1/2+z
1/2+x,-y,1/2+z
x,1/2+y,1/2+z
-x,1/2-y,1/2+z
1/2-x,1/2+y,z
1/2+x,1/2-y,z
loop_
_atom_site_type_symbol
_atom_site_label
_atom_site_fract_x
_atom_site_fract_y
_atom_site_fract_z
Si Si1 0.055226 0.747566 0.430560
Si Si2 0.240102 0.574694 0.150854
Si Si3 0.000000 0.000000 0.487605
Si Si4 0.222259 0.955482 0.401987
Si Si5 0.403779 0.406117 0.278673
Si Si6 0.839076 0.374172 0.408487
Si Si7 0.972033 0.142106 0.714586
Si Si8 0.868875 0.558124 0.423167
O O1 0.057187 0.822992 0.308037
O O2 0.123108 0.706211 0.448637
O O3 0.039475 0.778511 0.605787
O O4 0.009767 0.675533 0.366441
O O5 0.283894 0.533476 0.285049
O O6 0.188290 0.634234 0.230080
O O7 0.206267 0.495107 0.072012
O O8 0.281840 0.627239 0.032729
O O9 0.060066 0.980707 0.371346
O O10 0.988489 0.922678 0.606211
O O11 0.166790 0.892626 0.354225
O O12 0.293991 0.917493 0.406558
O O13 0.398809 0.417083 0.091397
O O14 0.877266 0.459938 0.415972
O O15 0.907437 0.101032 0.780598
#
# Coordination Sequence:
#
# PCOD8184782 Si02
#       8
#     8   8   4   8   8   8   8   8
#     4  11  26  40  62  87 139 159 212 268 336 376
#     4   8  18  35  61  91 120 152 207 258 306 378
#     4  10  26  38  70  88 126 172 220 264 314 392
#     4  10  18  37  65  95 117 156 214 273 305 371
#     4  11  23  42  60 100 125 168 217 267 326 389
#     4  10  20  40  61  93 119 169 201 265 320 386
#     4  11  24  46  60  95 125 178 217 271 318 393
#     4  10  22  41  72  86 124 170 224 267 314 379
#
# _framework density 20.668555000000001
#
# number of rings (size 3 to 8) (size 9 to 14) (size 15 to 20)
#    0.000    2.133    2.667    1.600    9.333    3.733 
#    4.800    1.333    0.000    0.000    0.000    0.000 
#    0.000    0.000    0.000    0.000    0.000    0.000 
#
# Total GULP energy -371661.340685 kJ/mol
# GULP energy per Si atom -12388.711356 kJ/mol
# Density = 2.062151 g / cm^3
# Si number density = 20.668555 Si / 1000 Ang^3
#
#
#
# Elastic Constant Matrix: (Units=GPa)
#
#
# Indices 1 2 3 4 5 6 
#
# 1 77.3728 29.0561 36.7894 0.0000 0.0000 0.0000
# 2 29.0561 66.9298 28.4806 0.0000 0.0000 0.0000
# 3 36.7894 28.4806 110.8662 0.0000 0.0000 0.0000
# 4 0.0000 0.0000 0.0000 24.4219 0.0000 0.0000
# 5 0.0000 0.0000 0.0000 0.0000 25.4719 0.0000
# 6 0.0000 0.0000 0.0000 0.0000 0.0000 36.8097
#
#
#
# Elastic Compliance Matrix: (Units=1/GPa)
#
#
# Indices 1 2 3 4 5 6 
#
# 1 0.017031 -0.005601 -0.004213 0.000000 0.000000 0.000000
# 2 -0.005601 0.018617 -0.002924 0.000000 0.000000 0.000000
# 3 -0.004213 -0.002924 0.011169 0.000000 0.000000 0.000000
# 4 0.000000 0.000000 0.000000 0.040947 0.000000 0.000000
# 5 0.000000 0.000000 0.000000 0.000000 0.039259 0.000000
# 6 0.000000 0.000000 0.000000 0.000000 0.000000 0.027167
#
#
# Mechanical properties :
#
#
# Convention : Reuss Voigt Hill
#
# Bulk Modulus (GPa) = 46.85690 49.31343 48.08517
# Shear Modulus (GPa) = 26.76980 28.06357 27.41668
#
# Velocity S-wave (km/s) = 3.60279 3.68882 3.64606
# Velocity P-wave (km/s) = 6.32666 6.48492 6.40628
#
# Compressibility (1/GPa) = 0.02134157
#
# Stress axis : x y z
#
# Youngs Moduli (GPa) = 58.71712 53.71508 89.53432
#
# Poissons Ratio (x) = 0.30086 0.37717
# Poissons Ratio (y) = 0.32887 0.26179
# Poissons Ratio (z) = 0.24735 0.15706
#
# Static dielectric constant tensor:
#      x y z
#    x 3.687160 0.000000 0.000000 
#    y 0.000000 3.476870 0.000000 
#    z 0.000000 0.000000 4.134800 
# 
# 
# High freq. dielectric constant tensor:
#      x y z
#    x 1.798780 0.000000 0.000000 
#    y 0.000000 1.780300 0.000000 
#    z 0.000000 0.000000 1.831920 
# 
# From -- ./inp_files/3677.got.cif
#   From: 2010.03.12/outbox.cif.g09.slc.cpg/sg41_2_cif.got.tgz:3677.got - 2010.04.14 01:55:53.
