data_PCOD8184068
_publ_section_title
;
Structure prediction by ZEFSAII (Michael W. Deem and Ramdas Pophale) SiO2 
 PCOD8184068
Probable space group: A M A 2
;
_chemical_formula_sum "Si O2"
_cell_formula_units_Z 64
_cell_length_a 17.328316
_cell_length_b 15.469421
_cell_length_c 12.019959
_cell_angle_alpha 90.000000
_cell_angle_beta 90.000000
_cell_angle_gamma 90.000000
_cell_volume 3222.058375
_symmetry_space_group_name_H-M "A M A 2"
_symmetry_group_IT_number 40
_symmetry_cell_setting 'orthorhombic'
loop_
_space_group_symop_operation_xyz
x,y,z
-x,-y,z
1/2-x,y,z
1/2+x,-y,z
x,1/2+y,1/2+z
-x,1/2-y,1/2+z
1/2-x,1/2+y,1/2+z
1/2+x,1/2-y,1/2+z
loop_
_atom_site_type_symbol
_atom_site_label
_atom_site_fract_x
_atom_site_fract_y
_atom_site_fract_z
Si Si1 0.085584 0.317167 0.474450
Si Si2 0.836491 0.775527 0.103604
Si Si3 0.661226 0.830921 0.337246
Si Si4 0.919718 0.852291 0.906398
Si Si5 0.406164 0.898717 0.652349
Si Si6 0.925199 0.817594 0.657546
Si Si7 0.838531 0.955231 0.523200
Si Si8 0.159925 0.470110 0.375601
O O1 0.104981 0.240464 0.389181
O O2 0.075562 0.277067 0.598363
O O3 0.149542 0.393334 0.467152
O O4 0.009783 0.365593 0.428998
O O5 0.750000 0.791374 0.062661
O O6 0.857147 0.840275 0.205971
O O7 0.845568 0.679082 0.150443
O O8 0.891962 0.785434 0.999450
O O9 0.750000 0.800719 0.354892
O O10 0.647388 0.923603 0.396181
O O11 0.905501 0.807208 0.787280
O O12 0.873153 0.940746 0.923832
O O13 0.493272 0.865686 0.643389
O O14 0.389513 0.951597 0.764587
O O15 0.391927 0.962150 0.547625
O O16 0.858255 0.875245 0.603841
O O17 0.750000 0.980874 0.544132
O O18 0.250000 0.480732 0.347743
#
# Coordination Sequence:
#
# PCOD8184068 Si02
#       8
#     8   8   8   8   8   8   8   8
#     4  11  22  39  62  89 123 167 207 255 314 373
#     4  11  22  39  63  89 126 168 205 250 310 383
#     4   9  19  38  62  89 122 164 211 252 302 373
#     4  12  24  40  61  95 131 160 207 262 318 370
#     4  12  21  38  63  95 123 159 212 263 312 369
#     4  11  23  39  62  93 129 164 206 261 322 370
#     4  10  21  35  60  95 126 157 204 262 309 361
#     4  12  24  40  65  93 122 165 216 262 312 374
#
# _framework density 19.863078000000002
#
# number of rings (size 3 to 8) (size 9 to 14) (size 15 to 20)
#    0.000    1.000    5.000    2.625    0.000    1.000 
#    0.000    1.250    0.000    1.500    0.000    0.000 
#    0.000    0.000    0.000    0.000    0.000    0.000 
#
# Total GULP energy -396814.964026 kJ/mol
# GULP energy per Si atom -12400.467626 kJ/mol
# Density = 1.981787 g / cm^3
# Si number density = 19.863078 Si / 1000 Ang^3
#
#
#
# Elastic Constant Matrix: (Units=GPa)
#
#
# Indices 1 2 3 4 5 6 
#
# 1 80.2451 22.0477 28.6802 0.0000 0.0000 0.0000
# 2 22.0477 72.6191 35.3100 0.0000 0.0000 0.0000
# 3 28.6802 35.3100 114.8351 0.0000 0.0000 0.0000
# 4 0.0000 0.0000 0.0000 31.6866 0.0000 0.0000
# 5 0.0000 0.0000 0.0000 0.0000 26.9643 0.0000
# 6 0.0000 0.0000 0.0000 0.0000 0.0000 34.4094
#
#
#
# Elastic Compliance Matrix: (Units=1/GPa)
#
#
# Indices 1 2 3 4 5 6 
#
# 1 0.014235 -0.003049 -0.002618 0.000000 0.000000 0.000000
# 2 -0.003049 0.016844 -0.004418 0.000000 0.000000 0.000000
# 3 -0.002618 -0.004418 0.010720 0.000000 0.000000 0.000000
# 4 0.000000 0.000000 0.000000 0.031559 0.000000 0.000000
# 5 0.000000 0.000000 0.000000 0.000000 0.037086 0.000000
# 6 0.000000 0.000000 0.000000 0.000000 0.000000 0.029062
#
#
# Mechanical properties :
#
#
# Convention : Reuss Voigt Hill
#
# Bulk Modulus (GPa) = 46.23092 48.86389 47.54741
# Shear Modulus (GPa) = 29.96053 30.72282 30.34167
#
# Velocity S-wave (km/s) = 3.88797 3.93712 3.91262
# Velocity P-wave (km/s) = 6.59396 6.73213 6.66341
#
# Compressibility (1/GPa) = 0.02163054
#
# Stress axis : x y z
#
# Youngs Moduli (GPa) = 70.24861 59.36723 93.28065
#
# Poissons Ratio (x) = 0.18101 0.24418
# Poissons Ratio (y) = 0.21419 0.41210
# Poissons Ratio (z) = 0.18389 0.26228
#
# Static dielectric constant tensor:
#      x y z
#    x 3.644760 0.000000 0.000000 
#    y 0.000000 3.573990 0.000000 
#    z 0.000000 0.000000 3.680020 
# 
# 
# High freq. dielectric constant tensor:
#      x y z
#    x 1.784750 0.000000 0.000000 
#    y 0.000000 1.761320 0.000000 
#    z 0.000000 0.000000 1.765870 
# 
# From -- ./inp_files/13133.got.cif
#   From: 2010.03.12/outbox.cif.g09.slc.cpg/sg40_7_cif.got.tgz:13133.got - 2010.04.14 01:38:03.
