data_PCOD8184142
_publ_section_title
;
Structure prediction by ZEFSAII (Michael W. Deem and Ramdas Pophale) SiO2 
 PCOD8184142
Probable space group: A M A 2
;
_chemical_formula_sum "Si O2"
_cell_formula_units_Z 64
_cell_length_a 13.967591
_cell_length_b 23.977611
_cell_length_c 9.660852
_cell_angle_alpha 90.000000
_cell_angle_beta 90.000000
_cell_angle_gamma 90.000000
_cell_volume 3235.510761
_symmetry_space_group_name_H-M "A M A 2"
_symmetry_group_IT_number 40
_symmetry_cell_setting 'orthorhombic'
loop_
_space_group_symop_operation_xyz
x,y,z
-x,-y,z
1/2-x,y,z
1/2+x,-y,z
x,1/2+y,1/2+z
-x,1/2-y,1/2+z
1/2-x,1/2+y,1/2+z
1/2+x,1/2-y,1/2+z
loop_
_atom_site_type_symbol
_atom_site_label
_atom_site_fract_x
_atom_site_fract_y
_atom_site_fract_z
Si Si1 0.636807 0.962898 0.105500
Si Si2 0.354831 0.418185 0.951654
Si Si3 0.487650 0.819750 0.174522
Si Si4 0.362562 0.713826 0.192504
Si Si5 0.464500 0.143765 0.471465
Si Si6 0.856001 0.084419 0.121690
Si Si7 0.360575 0.653350 0.475393
Si Si8 0.363117 0.038773 0.413873
O O1 0.750000 0.968428 0.118770
O O2 0.593967 0.952177 0.258840
O O3 0.601856 0.025459 0.059828
O O4 0.609755 0.911806 0.002674
O O5 0.250000 0.407032 0.016969
O O6 0.425329 0.370724 0.011708
O O7 0.348125 0.417583 0.786786
O O8 0.394638 0.480327 0.985076
O O9 0.415113 0.771787 0.224819
O O10 0.541142 0.841422 0.310430
O O11 0.428004 0.865727 0.086496
O O12 0.574316 0.804897 0.068886
O O13 0.250000 0.724011 0.162770
O O14 0.376811 0.669458 0.315717
O O15 0.418944 0.693326 0.057924
O O16 0.402235 0.089045 0.505977
O O17 0.750000 0.096488 0.059726
O O18 0.250000 0.663011 0.517196
O O19 0.250000 0.041043 0.410164
#
# Coordination Sequence:
#
# PCOD8184142 Si02
#       8
#     8   8   8   8   8   8   8   8
#     4   8  14  28  52  83 112 138 175 225 283 334
#     4   8  16  29  50  83 117 140 170 227 292 337
#     4  11  21  36  59  83 108 144 197 239 278 330
#     4  11  25  41  55  77 114 154 188 234 291 343
#     4  11  20  33  58  84 107 144 195 236 275 332
#     4   8  15  28  52  85 114 139 176 234 288 331
#     4  10  21  38  57  80 115 150 184 230 285 346
#     4   9  15  27  51  85 115 136 173 232 281 326
#
# _framework density 19.780494999999998
#
# number of rings (size 3 to 8) (size 9 to 14) (size 15 to 20)
#    0.000    2.500    1.250    3.375    0.000    1.500 
#    0.000    0.625    5.500    1.500    0.000    0.000 
#    0.000    0.000    0.000    0.000    0.000    0.000 
#
# Total GULP energy -396462.114691 kJ/mol
# GULP energy per Si atom -12389.441084 kJ/mol
# Density = 1.973547 g / cm^3
# Si number density = 19.780495 Si / 1000 Ang^3
#
#
#
# Elastic Constant Matrix: (Units=GPa)
#
#
# Indices 1 2 3 4 5 6 
#
# 1 73.4274 41.7520 35.5864 0.0000 0.0000 0.0000
# 2 41.7520 84.2640 19.6919 0.0000 0.0000 0.0000
# 3 35.5864 19.6919 40.9990 0.0000 0.0000 0.0000
# 4 0.0000 0.0000 0.0000 13.1622 0.0000 0.0000
# 5 0.0000 0.0000 0.0000 0.0000 18.8840 0.0000
# 6 0.0000 0.0000 0.0000 0.0000 0.0000 37.9712
#
#
#
# Elastic Compliance Matrix: (Units=1/GPa)
#
#
# Indices 1 2 3 4 5 6 
#
# 1 0.029061 -0.009580 -0.020623 0.000000 0.000000 0.000000
# 2 -0.009580 0.016526 0.000378 0.000000 0.000000 0.000000
# 3 -0.020623 0.000378 0.042110 0.000000 0.000000 0.000000
# 4 0.000000 0.000000 0.000000 0.075975 0.000000 0.000000
# 5 0.000000 0.000000 0.000000 0.000000 0.052955 0.000000
# 6 0.000000 0.000000 0.000000 0.000000 0.000000 0.026336
#
#
# Mechanical properties :
#
#
# Convention : Reuss Voigt Hill
#
# Bulk Modulus (GPa) = 35.65546 43.63901 39.64723
# Shear Modulus (GPa) = 16.02752 20.78082 18.40417
#
# Velocity S-wave (km/s) = 2.84961 3.24477 3.05359
# Velocity P-wave (km/s) = 5.37510 6.01228 5.70260
#
# Compressibility (1/GPa) = 0.02804620
#
# Stress axis : x y z
#
# Youngs Moduli (GPa) = 34.40983 60.51067 23.74726
#
# Poissons Ratio (x) = 0.57970 0.48975
# Poissons Ratio (y) = 0.32965 -0.00897
# Poissons Ratio (z) = 0.70965 -0.02287
#
# Static dielectric constant tensor:
#      x y z
#    x 3.970270 0.000000 0.000000 
#    y 0.000000 3.758400 0.000000 
#    z 0.000000 0.000000 2.990820 
# 
# 
# High freq. dielectric constant tensor:
#      x y z
#    x 1.790780 0.000000 0.000000 
#    y 0.000000 1.773140 0.000000 
#    z 0.000000 0.000000 1.700760 
# 
# From -- ./inp_files/6886.got.cif
#   From: 2010.03.12/outbox.cif.g09.slc.cpg/sg40_4_cif.got.tgz:6886.got - 2010.04.14 01:38:03.
