data_PCOD8184370
_publ_section_title
;
Structure prediction by ZEFSAII (Michael W. Deem and Ramdas Pophale) SiO2 
 PCOD8184370
Probable space group: A M A 2
;
_chemical_formula_sum "Si O2"
_cell_formula_units_Z 48
_cell_length_a 28.204997
_cell_length_b 4.973025
_cell_length_c 15.188349
_cell_angle_alpha 90.000000
_cell_angle_beta 90.000000
_cell_angle_gamma 90.000000
_cell_volume 2130.380941
_symmetry_space_group_name_H-M "A M A 2"
_symmetry_group_IT_number 40
_symmetry_cell_setting 'orthorhombic'
loop_
_space_group_symop_operation_xyz
x,y,z
-x,-y,z
1/2-x,y,z
1/2+x,-y,z
x,1/2+y,1/2+z
-x,1/2-y,1/2+z
1/2-x,1/2+y,1/2+z
1/2+x,1/2-y,1/2+z
loop_
_atom_site_type_symbol
_atom_site_label
_atom_site_fract_x
_atom_site_fract_y
_atom_site_fract_z
Si Si1 0.124528 0.270056 0.221370
Si Si2 0.527923 0.253709 0.633342
Si Si3 0.697185 0.533003 0.465417
Si Si4 0.527993 0.746308 0.925494
Si Si5 0.802936 0.523397 0.083073
Si Si6 0.124580 0.241864 0.836463
O O1 0.083142 0.196537 0.154058
O O2 0.167724 0.421028 0.171591
O O3 0.101814 0.510349 0.277050
O O4 0.140133 0.010499 0.281202
O O5 0.500000 0.500000 0.675813
O O6 0.523863 0.250319 0.529415
O O7 0.500000 0.000000 0.673579
O O8 0.750000 0.605340 0.430459
O O9 0.699537 0.310818 0.539337
O O10 0.668392 0.410510 0.383697
O O11 0.675076 0.800825 0.514002
O O12 0.500000 0.500000 0.883082
O O13 0.583298 0.697458 0.905408
O O14 0.500000 0.000000 0.885216
O O15 0.750000 0.423010 0.109201
#
# Coordination Sequence:
#
# PCOD8184370 Si02
#       6
#     8   8   8   8   8   8
#     4  12  25  38  60  93 126 159 196 253 320 373
#     4  10  22  40  61  84 115 160 209 252 297 362
#     4  10  22  42  66  89 119 163 210 253 300 365
#     4  10  22  40  61  84 115 160 209 252 297 362
#     4  10  22  42  66  89 119 163 210 253 300 365
#     4  12  25  38  60  93 126 159 196 253 320 373
#
# _framework density 22.531179999999999
#
# number of rings (size 3 to 8) (size 9 to 14) (size 15 to 20)
#    0.000    1.333    0.000    5.000    0.000    9.333 
#    0.000    0.000    0.000    0.000    0.000    0.000 
#    0.000    0.000    0.000    0.000    0.000    0.000 
#
# Total GULP energy -297352.928935 kJ/mol
# GULP energy per Si atom -12389.705372 kJ/mol
# Density = 2.247990 g / cm^3
# Si number density = 22.531180 Si / 1000 Ang^3
#
#
#
# Elastic Constant Matrix: (Units=GPa)
#
#
# Indices 1 2 3 4 5 6 
#
# 1 117.6727 42.6483 34.7348 0.0000 0.0000 0.0000
# 2 42.6483 163.0058 38.6527 0.0000 0.0000 0.0000
# 3 34.7348 38.6527 52.2293 0.0000 0.0000 0.0000
# 4 0.0000 0.0000 0.0000 27.7875 0.0000 0.0000
# 5 0.0000 0.0000 0.0000 0.0000 20.1802 0.0000
# 6 0.0000 0.0000 0.0000 0.0000 0.0000 31.6487
#
#
#
# Elastic Compliance Matrix: (Units=1/GPa)
#
#
# Indices 1 2 3 4 5 6 
#
# 1 0.010818 -0.001364 -0.006185 0.000000 0.000000 0.000000
# 2 -0.001364 0.007612 -0.004727 0.000000 0.000000 0.000000
# 3 -0.006185 -0.004727 0.026758 0.000000 0.000000 0.000000
# 4 0.000000 0.000000 0.000000 0.035987 0.000000 0.000000
# 5 0.000000 0.000000 0.000000 0.000000 0.049553 0.000000
# 6 0.000000 0.000000 0.000000 0.000000 0.000000 0.031597
#
#
# Mechanical properties :
#
#
# Convention : Reuss Voigt Hill
#
# Bulk Modulus (GPa) = 48.45668 62.77549 55.61609
# Shear Modulus (GPa) = 25.80556 30.38140 28.09348
#
# Velocity S-wave (km/s) = 3.38794 3.67606 3.53494
# Velocity P-wave (km/s) = 6.07103 6.77791 6.43418
#
# Compressibility (1/GPa) = 0.02063699
#
# Stress axis : x y z
#
# Youngs Moduli (GPa) = 92.43673 131.36522 37.37217
#
# Poissons Ratio (x) = 0.17915 0.23116
# Poissons Ratio (y) = 0.12606 0.17665
# Poissons Ratio (z) = 0.57175 0.62092
#
# Static dielectric constant tensor:
#      x y z
#    x 4.057490 0.000000 0.000000 
#    y 0.000000 4.569390 0.000000 
#    z 0.000000 0.000000 3.907800 
# 
# 
# High freq. dielectric constant tensor:
#      x y z
#    x 1.884400 0.000000 0.000000 
#    y 0.000000 1.911170 0.000000 
#    z 0.000000 0.000000 1.880180 
# 
# From -- ./inp_files/18649.got.cif
#   From: 2010.03.12/outbox.cif.g09.slc.cpg/sg40_10_cif.got.tgz:18649.got - 2010.04.14 01:38:03.
