data_PCOD8184581
_publ_section_title
;
Structure prediction by ZEFSAII (Michael W. Deem and Ramdas Pophale) SiO2 
 PCOD8184581
Probable space group: A M A 2
;
_chemical_formula_sum "Si O2"
_cell_formula_units_Z 48
_cell_length_a 9.845114
_cell_length_b 12.228375
_cell_length_c 18.889315
_cell_angle_alpha 90.000000
_cell_angle_beta 90.000000
_cell_angle_gamma 90.000000
_cell_volume 2274.079833
_symmetry_space_group_name_H-M "A M A 2"
_symmetry_group_IT_number 40
_symmetry_cell_setting 'orthorhombic'
loop_
_space_group_symop_operation_xyz
x,y,z
-x,-y,z
1/2-x,y,z
1/2+x,-y,z
x,1/2+y,1/2+z
-x,1/2-y,1/2+z
1/2-x,1/2+y,1/2+z
1/2+x,1/2-y,1/2+z
loop_
_atom_site_type_symbol
_atom_site_label
_atom_site_fract_x
_atom_site_fract_y
_atom_site_fract_z
Si Si1 0.250000 0.341827 0.925791
Si Si2 0.032184 0.261115 0.421639
Si Si3 0.750000 0.924308 0.604825
Si Si4 0.485028 0.724391 0.157781
Si Si5 0.750000 0.913954 0.436414
Si Si6 0.091453 0.393220 0.287661
Si Si7 0.904680 0.103786 0.059310
Si Si8 0.750000 0.663927 0.089757
O O1 0.121421 0.270798 0.902187
O O2 0.250000 0.467378 0.897604
O O3 0.250000 0.361013 0.008303
O O4 0.117420 0.150742 0.410744
O O5 0.080287 0.355569 0.368560
O O6 0.052325 0.306786 0.500722
O O7 0.614081 0.873042 0.635992
O O8 0.750000 0.917184 0.520844
O O9 0.750000 0.048887 0.631834
O O10 0.531879 0.705669 0.238713
O O11 0.414495 0.840410 0.137942
O O12 0.617461 0.730826 0.108986
O O13 0.250000 0.417005 0.270016
O O14 0.000000 0.500000 0.275233
O O15 0.750000 0.066129 0.046677
O O16 0.000000 0.000000 0.053234
#
# Coordination Sequence:
#
# PCOD8184581 Si02
#       8
#     4   8   4   8   4   8   8   4
#     4  11  24  35  70 106 130 177 221 280 336 395
#     4  12  23  45  66 100 141 176 224 278 330 397
#     4  11  20  37  66 100 136 171 209 272 330 389
#     4  12  23  42  65  98 135 170 218 274 329 391
#     4  11  20  43  68 100 140 173 227 270 338 387
#     4  12  28  45  70  99 135 179 220 275 337 399
#     4  12  26  45  71  97 132 181 227 275 329 395
#     4  11  20  35  64 102 132 167 213 266 334 397
#
# _framework density 21.107437999999998
#
# number of rings (size 3 to 8) (size 9 to 14) (size 15 to 20)
#    0.000    0.333    6.667    2.500    4.667    2.667 
#    0.000    1.667    0.000    0.000    0.000    0.000 
#    0.000    0.000    0.000    0.000    0.000    0.000 
#
# Total GULP energy -297573.168392 kJ/mol
# GULP energy per Si atom -12398.882016 kJ/mol
# Density = 2.105940 g / cm^3
# Si number density = 21.107438 Si / 1000 Ang^3
#
#
#
# Elastic Constant Matrix: (Units=GPa)
#
#
# Indices 1 2 3 4 5 6 
#
# 1 159.0353 41.1000 23.4309 0.0000 0.0000 0.0000
# 2 41.1000 94.2983 19.8443 0.0000 0.0000 0.0000
# 3 23.4309 19.8443 68.1971 0.0000 0.0000 0.0000
# 4 0.0000 0.0000 0.0000 26.9621 0.0000 0.0000
# 5 0.0000 0.0000 0.0000 0.0000 27.2464 0.0000
# 6 0.0000 0.0000 0.0000 0.0000 0.0000 40.3746
#
#
#
# Elastic Compliance Matrix: (Units=1/GPa)
#
#
# Indices 1 2 3 4 5 6 
#
# 1 0.007262 -0.002812 -0.001677 0.000000 0.000000 0.000000
# 2 -0.002812 0.012385 -0.002638 0.000000 0.000000 0.000000
# 3 -0.001677 -0.002638 0.016007 0.000000 0.000000 0.000000
# 4 0.000000 0.000000 0.000000 0.037089 0.000000 0.000000
# 5 0.000000 0.000000 0.000000 0.000000 0.036702 0.000000
# 6 0.000000 0.000000 0.000000 0.000000 0.000000 0.024768
#
#
# Mechanical properties :
#
#
# Convention : Reuss Voigt Hill
#
# Bulk Modulus (GPa) = 46.72696 54.47569 50.60133
# Shear Modulus (GPa) = 32.13363 34.72698 33.43030
#
# Velocity S-wave (km/s) = 3.90601 4.06057 3.98404
# Velocity P-wave (km/s) = 6.52137 6.91730 6.72225
#
# Compressibility (1/GPa) = 0.02140092
#
# Stress axis : x y z
#
# Youngs Moduli (GPa) = 137.70883 80.74003 62.47270
#
# Poissons Ratio (x) = 0.22706 0.10474
# Poissons Ratio (y) = 0.38726 0.16479
# Poissons Ratio (z) = 0.23089 0.21297
#
# Static dielectric constant tensor:
#      x y z
#    x 4.045760 0.000000 0.000000 
#    y 0.000000 3.803830 0.000000 
#    z 0.000000 0.000000 3.648930 
# 
# 
# High freq. dielectric constant tensor:
#      x y z
#    x 1.851540 0.000000 0.000000 
#    y 0.000000 1.817170 0.000000 
#    z 0.000000 0.000000 1.808630 
# 
# From -- ./inp_files/19252.got.cif
#   From: 2010.03.12/outbox.cif.g09.slc.cpg/sg40_10_cif.got.tgz:19252.got - 2010.04.14 01:38:03.
