data_PCOD8184013
_publ_section_title
;
Structure prediction by ZEFSAII (Michael W. Deem and Ramdas Pophale) SiO2 
 PCOD8184013
Probable space group: A M A 2
;
_chemical_formula_sum "Si O2"
_cell_formula_units_Z 48
_cell_length_a 15.196320
_cell_length_b 21.334934
_cell_length_c 7.697160
_cell_angle_alpha 90.000000
_cell_angle_beta 90.000000
_cell_angle_gamma 90.000000
_cell_volume 2495.515365
_symmetry_space_group_name_H-M "A M A 2"
_symmetry_group_IT_number 40
_symmetry_cell_setting 'orthorhombic'
loop_
_space_group_symop_operation_xyz
x,y,z
-x,-y,z
1/2-x,y,z
1/2+x,-y,z
x,1/2+y,1/2+z
-x,1/2-y,1/2+z
1/2-x,1/2+y,1/2+z
1/2+x,1/2-y,1/2+z
loop_
_atom_site_type_symbol
_atom_site_label
_atom_site_fract_x
_atom_site_fract_y
_atom_site_fract_z
Si Si1 0.848375 0.601211 0.925410
Si Si2 0.484115 0.671611 0.441454
Si Si3 0.103915 0.492738 0.223269
Si Si4 0.070199 0.948226 0.092225
Si Si5 0.848954 0.367219 0.189812
Si Si6 0.485826 0.309767 0.067543
O O1 0.750000 0.629075 0.920525
O O2 0.862926 0.561097 0.750795
O O3 0.857815 0.557648 0.092462
O O4 0.917461 0.658533 0.935058
O O5 0.519827 0.616886 0.561865
O O6 0.384119 0.655645 0.379327
O O7 0.544129 0.676450 0.266622
O O8 0.487073 0.735509 0.547342
O O9 0.122719 0.470375 0.420480
O O10 0.151612 0.557741 0.184116
O O11 0.000000 0.500000 0.195945
O O12 0.000000 0.000000 0.150700
O O13 0.750000 0.342473 0.158194
O O14 0.915083 0.338654 0.042261
#
# Coordination Sequence:
#
# PCOD8184013 Si02
#       6
#     8   8   8   8   8   8
#     4  12  25  38  63  96 127 167 211 257 312 385
#     4  10  20  40  65  87 124 170 202 259 319 369
#     4  11  18  44  67  89 126 170 204 266 326 372
#     4  11  21  40  65  90 121 167 208 258 320 372
#     4  10  21  38  67  93 122 169 215 261 318 376
#     4  10  21  41  61  87 130 165 206 259 319 367
#
# _framework density 19.234503
#
# number of rings (size 3 to 8) (size 9 to 14) (size 15 to 20)
#    1.000    0.333    6.667    2.000    0.000    2.000 
#    0.000    0.833    0.000    3.000    0.000    0.000 
#    0.000    0.000    0.000    0.000    0.000    0.000 
#
# Total GULP energy -297484.501331 kJ/mol
# GULP energy per Si atom -12395.187555 kJ/mol
# Density = 1.919072 g / cm^3
# Si number density = 19.234503 Si / 1000 Ang^3
#
#
#
# Elastic Constant Matrix: (Units=GPa)
#
#
# Indices 1 2 3 4 5 6 
#
# 1 118.0255 32.9000 31.9757 0.0000 0.0000 0.0000
# 2 32.9000 126.5363 16.7313 0.0000 0.0000 0.0000
# 3 31.9757 16.7313 64.6576 0.0000 0.0000 0.0000
# 4 0.0000 0.0000 0.0000 25.6872 0.0000 0.0000
# 5 0.0000 0.0000 0.0000 0.0000 3.6282 0.0000
# 6 0.0000 0.0000 0.0000 0.0000 0.0000 12.8240
#
#
#
# Elastic Compliance Matrix: (Units=1/GPa)
#
#
# Indices 1 2 3 4 5 6 
#
# 1 0.010283 -0.002072 -0.004549 0.000000 0.000000 0.000000
# 2 -0.002072 0.008600 -0.001201 0.000000 0.000000 0.000000
# 3 -0.004549 -0.001201 0.018026 0.000000 0.000000 0.000000
# 4 0.000000 0.000000 0.000000 0.038930 0.000000 0.000000
# 5 0.000000 0.000000 0.000000 0.000000 0.275621 0.000000
# 6 0.000000 0.000000 0.000000 0.000000 0.000000 0.077979
#
#
# Mechanical properties :
#
#
# Convention : Reuss Voigt Hill
#
# Bulk Modulus (GPa) = 47.02372 52.49259 49.75815
# Shear Modulus (GPa) = 11.05773 23.60203 17.32988
#
# Velocity S-wave (km/s) = 2.40029 3.50675 3.00489
# Velocity P-wave (km/s) = 5.67296 6.61411 6.16153
#
# Compressibility (1/GPa) = 0.02126586
#
# Stress axis : x y z
#
# Youngs Moduli (GPa) = 97.24994 116.27377 55.47390
#
# Poissons Ratio (x) = 0.24093 0.25235
# Poissons Ratio (y) = 0.20151 0.06661
# Poissons Ratio (z) = 0.44239 0.13962
#
# Static dielectric constant tensor:
#      x y z
#    x 3.316420 0.000000 0.000000 
#    y 0.000000 3.533440 0.000000 
#    z 0.000000 0.000000 3.432990 
# 
# 
# High freq. dielectric constant tensor:
#      x y z
#    x 1.724060 0.000000 0.000000 
#    y 0.000000 1.757580 0.000000 
#    z 0.000000 0.000000 1.739750 
# 
# From -- ./inp_files/6601.got.cif
#   From: 2010.03.12/outbox.cif.g09.slc.cpg/sg40_4_cif.got.tgz:6601.got - 2010.04.14 01:38:03.
