data_PCOD8184343
_publ_section_title
;
Structure prediction by ZEFSAII (Michael W. Deem and Ramdas Pophale) SiO2 
 PCOD8184343
Probable space group: A M A 2
;
_chemical_formula_sum "Si O2"
_cell_formula_units_Z 40
_cell_length_a 8.868760
_cell_length_b 28.174869
_cell_length_c 7.735809
_cell_angle_alpha 90.000000
_cell_angle_beta 90.000000
_cell_angle_gamma 90.000000
_cell_volume 1932.994179
_symmetry_space_group_name_H-M "A M A 2"
_symmetry_group_IT_number 40
_symmetry_cell_setting 'orthorhombic'
loop_
_space_group_symop_operation_xyz
x,y,z
-x,-y,z
1/2-x,y,z
1/2+x,-y,z
x,1/2+y,1/2+z
-x,1/2-y,1/2+z
1/2-x,1/2+y,1/2+z
1/2+x,1/2-y,1/2+z
loop_
_atom_site_type_symbol
_atom_site_label
_atom_site_fract_x
_atom_site_fract_y
_atom_site_fract_z
Si Si1 0.921310 0.202916 0.453340
Si Si2 0.426601 0.111903 0.974565
Si Si3 0.422484 0.297358 0.352766
Si Si4 0.426291 0.899914 0.322696
Si Si5 0.072039 0.050091 0.645177
O O1 0.750000 0.219211 0.417522
O O2 0.947071 0.191444 0.652941
O O3 0.961842 0.155503 0.350185
O O4 0.033145 0.243451 0.390330
O O5 0.250000 0.109250 0.009617
O O6 0.475969 0.166826 0.963134
O O7 0.474233 0.085735 0.798567
O O8 0.511139 0.086398 0.133852
O O9 0.250000 0.304863 0.409435
O O10 0.250000 0.911128 0.334746
O O11 0.509492 0.931479 0.463996
O O12 0.250000 0.044731 0.629900
O O13 0.000000 0.000000 0.691926
#
# Coordination Sequence:
#
# PCOD8184343 Si02
#       5
#     8   8   8   8   8
#     4  10  22  38  57  88 127 169 215 264 321 383
#     4  11  24  42  65  95 131 170 216 267 324 388
#     4  11  22  37  59  88 126 170 217 267 319 380
#     4  11  23  42  68  96 131 171 215 268 325 388
#     4  11  25  45  70  97 129 170 216 272 328 387
#
# _framework density 20.693286000000001
#
# number of rings (size 3 to 8) (size 9 to 14) (size 15 to 20)
#    0.000    1.200    2.000    3.600    0.000    9.600 
#    0.000    2.000    0.000    0.000    0.000    0.000 
#    0.000    0.000    0.000    0.000    0.000    0.000 
#
# Total GULP energy -248145.362694 kJ/mol
# GULP energy per Si atom -12407.268135 kJ/mol
# Density = 2.064619 g / cm^3
# Si number density = 20.693286 Si / 1000 Ang^3
#
#
#
# Elastic Constant Matrix: (Units=GPa)
#
#
# Indices 1 2 3 4 5 6 
#
# 1 95.2387 43.2234 44.2587 0.0000 0.0000 0.0000
# 2 43.2234 79.7831 22.7543 0.0000 0.0000 0.0000
# 3 44.2587 22.7543 83.3019 0.0000 0.0000 0.0000
# 4 0.0000 0.0000 0.0000 12.9422 0.0000 0.0000
# 5 0.0000 0.0000 0.0000 0.0000 35.6090 0.0000
# 6 0.0000 0.0000 0.0000 0.0000 0.0000 37.1824
#
#
#
# Elastic Compliance Matrix: (Units=1/GPa)
#
#
# Indices 1 2 3 4 5 6 
#
# 1 0.017080 -0.007228 -0.007100 0.000000 0.000000 0.000000
# 2 -0.007228 0.016652 -0.000708 0.000000 0.000000 0.000000
# 3 -0.007100 -0.000708 0.015970 0.000000 0.000000 0.000000
# 4 0.000000 0.000000 0.000000 0.077267 0.000000 0.000000
# 5 0.000000 0.000000 0.000000 0.000000 0.028083 0.000000
# 6 0.000000 0.000000 0.000000 0.000000 0.000000 0.026894
#
#
# Mechanical properties :
#
#
# Convention : Reuss Voigt Hill
#
# Bulk Modulus (GPa) = 50.94509 53.19961 52.07235
# Shear Modulus (GPa) = 22.87673 27.01921 24.94797
#
# Velocity S-wave (km/s) = 3.32853 3.61737 3.47595
# Velocity P-wave (km/s) = 6.28051 6.57355 6.42870
#
# Compressibility (1/GPa) = 0.01962898
#
# Stress axis : x y z
#
# Youngs Moduli (GPa) = 58.54785 60.05296 62.61597
#
# Poissons Ratio (x) = 0.43408 0.44459
# Poissons Ratio (y) = 0.42320 0.04434
# Poissons Ratio (z) = 0.41571 0.04252
#
# Static dielectric constant tensor:
#      x y z
#    x 3.776090 0.000000 0.000000 
#    y 0.000000 3.909380 0.000000 
#    z 0.000000 0.000000 3.877150 
# 
# 
# High freq. dielectric constant tensor:
#      x y z
#    x 1.817180 0.000000 0.000000 
#    y 0.000000 1.804440 0.000000 
#    z 0.000000 0.000000 1.825740 
# 
# From -- ./inp_files/4252.got.cif
#   From: 2010.03.12/outbox.cif.g09.slc.cpg/sg40_3_cif.got.tgz:4252.got - 2010.04.14 01:38:03.
