data_PCOD8184623
_publ_section_title
;
Structure prediction by ZEFSAII (Michael W. Deem and Ramdas Pophale) SiO2 
 PCOD8184623
Probable space group: A M A 2
;
_chemical_formula_sum "Si O2"
_cell_formula_units_Z 40
_cell_length_a 9.662512
_cell_length_b 8.723870
_cell_length_c 22.429904
_cell_angle_alpha 90.000000
_cell_angle_beta 90.000000
_cell_angle_gamma 90.000000
_cell_volume 1890.717510
_symmetry_space_group_name_H-M "A M A 2"
_symmetry_group_IT_number 40
_symmetry_cell_setting 'orthorhombic'
loop_
_space_group_symop_operation_xyz
x,y,z
-x,-y,z
1/2-x,y,z
1/2+x,-y,z
x,1/2+y,1/2+z
-x,1/2-y,1/2+z
1/2-x,1/2+y,1/2+z
1/2+x,1/2-y,1/2+z
loop_
_atom_site_type_symbol
_atom_site_label
_atom_site_fract_x
_atom_site_fract_y
_atom_site_fract_z
Si Si1 0.250000 0.239152 0.945281
Si Si2 0.027990 0.178808 0.044288
Si Si3 0.029717 0.163280 0.296652
Si Si4 0.750000 0.149772 0.606253
Si Si5 0.250000 0.159670 0.822335
Si Si6 0.250000 0.577707 0.893683
Si Si7 0.250000 0.149277 0.527594
Si Si8 0.750000 0.633073 0.239705
O O1 0.250000 0.111520 0.892533
O O2 0.250000 0.396971 0.907580
O O3 0.111234 0.218713 0.983834
O O4 0.116893 0.240592 0.099847
O O5 0.884511 0.265543 0.050420
O O6 0.000000 0.000000 0.049651
O O7 0.113811 0.130398 0.357809
O O8 0.114173 0.266246 0.250541
O O9 0.885646 0.243163 0.309273
O O10 0.000000 0.000000 0.265324
O O11 0.750000 0.073559 0.671520
O O12 0.750000 0.023766 0.553071
O O13 0.250000 0.007840 0.783975
O O14 0.250000 0.661613 0.956665
#
# Coordination Sequence:
#
# PCOD8184623 Si02
#       8
#     4   8   8   4   4   4   4   4
#     4  11  22  42  66 102 148 175 214 272 342 417
#     4  11  25  43  67 103 137 173 224 281 347 400
#     4  11  23  43  67  96 133 179 229 270 330 411
#     4  11  26  48  69  92 132 183 235 279 340 407
#     4  12  23  40  67  99 139 179 219 283 337 394
#     4  11  22  40  68 102 138 175 224 260 330 420
#     4  12  23  39  73 100 133 179 222 277 334 406
#     4  11  28  47  65  97 134 179 232 289 341 392
#
# _framework density 21.155988000000001
#
# number of rings (size 3 to 8) (size 9 to 14) (size 15 to 20)
#    0.000    0.800    4.000    4.200    0.000    8.800 
#    0.000    2.000    0.000    0.000    0.000    0.000 
#    0.000    0.000    0.000    0.000    0.000    0.000 
#
# Total GULP energy -247992.551369 kJ/mol
# GULP energy per Si atom -12399.627568 kJ/mol
# Density = 2.110784 g / cm^3
# Si number density = 21.155988 Si / 1000 Ang^3
#
#
#
# Elastic Constant Matrix: (Units=GPa)
#
#
# Indices 1 2 3 4 5 6 
#
# 1 181.3930 63.3332 34.1273 0.0000 0.0000 0.0000
# 2 63.3332 135.8466 30.1191 0.0000 0.0000 0.0000
# 3 34.1273 30.1191 104.9223 0.0000 0.0000 0.0000
# 4 0.0000 0.0000 0.0000 24.8954 0.0000 0.0000
# 5 0.0000 0.0000 0.0000 0.0000 15.0400 0.0000
# 6 0.0000 0.0000 0.0000 0.0000 0.0000 -188.8913
#
#
#
# Elastic Compliance Matrix: (Units=1/GPa)
#
#
# Indices 1 2 3 4 5 6 
#
# 1 0.006768 -0.002848 -0.001384 0.000000 0.000000 0.000000
# 2 -0.002848 0.009060 -0.001674 0.000000 0.000000 0.000000
# 3 -0.001384 -0.001674 0.010462 0.000000 0.000000 0.000000
# 4 0.000000 0.000000 0.000000 0.040168 0.000000 0.000000
# 5 0.000000 0.000000 0.000000 0.000000 0.066490 0.000000
# 6 0.000000 0.000000 0.000000 0.000000 0.000000 -0.005294
#
#
# Mechanical properties :
#
#
# Convention : Reuss Voigt Hill
#
# Bulk Modulus (GPa) = 69.07590 75.25790 72.16690
# Shear Modulus (GPa) = 34.65201 -10.15236 12.24982
#
# Velocity S-wave (km/s) = 4.05152 -2.19300 2.40890
# Velocity P-wave (km/s) = 7.38973 5.40720 6.47479
#
# Compressibility (1/GPa) = 0.01447683
#
# Stress axis : x y z
#
# Youngs Moduli (GPa) = 147.75996 110.36971 95.58800
#
# Poissons Ratio (x) = 0.31438 0.13226
# Poissons Ratio (y) = 0.42088 0.16005
# Poissons Ratio (z) = 0.20444 0.18480
#
# Static dielectric constant tensor:
#      x y z
#    x 4.094480 0.000000 0.000000 
#    y 0.000000 4.023180 0.000000 
#    z 0.000000 0.000000 3.783980 
# 
# 
# High freq. dielectric constant tensor:
#      x y z
#    x 1.852940 0.000000 0.000000 
#    y 0.000000 1.836210 0.000000 
#    z 0.000000 0.000000 1.814480 
# 
# From -- ./inp_files/23894.got.cif
#   From: 2010.03.12/outbox.cif.g09.slc.cpg/sg40_12_cif.got.tgz:23894.got - 2010.04.14 01:38:03.
