data_PCOD8184637
_publ_section_title
;
Structure prediction by ZEFSAII (Michael W. Deem and Ramdas Pophale) SiO2 
 PCOD8184637
Probable space group: A M A 2
;
_chemical_formula_sum "Si O2"
_cell_formula_units_Z 64
_cell_length_a 29.737816
_cell_length_b 11.359960
_cell_length_c 8.800612
_cell_angle_alpha 90.000000
_cell_angle_beta 90.000000
_cell_angle_gamma 90.000000
_cell_volume 2973.026268
_symmetry_space_group_name_H-M "A M A 2"
_symmetry_group_IT_number 40
_symmetry_cell_setting 'orthorhombic'
loop_
_space_group_symop_operation_xyz
x,y,z
-x,-y,z
1/2-x,y,z
1/2+x,-y,z
x,1/2+y,1/2+z
-x,1/2-y,1/2+z
1/2-x,1/2+y,1/2+z
1/2+x,1/2-y,1/2+z
loop_
_atom_site_type_symbol
_atom_site_label
_atom_site_fract_x
_atom_site_fract_y
_atom_site_fract_z
Si Si1 0.450105 0.241691 0.665830
Si Si2 0.198507 0.744884 0.127640
Si Si3 0.583743 0.006145 0.556730
Si Si4 0.198347 0.295923 0.293879
Si Si5 0.373476 0.414284 0.742335
Si Si6 0.458721 0.256975 0.018557
Si Si7 0.340681 0.038127 0.780162
Si Si8 0.634475 0.345957 0.581159
O O1 0.435376 0.127467 0.565212
O O2 0.413407 0.345035 0.655001
O O3 0.495923 0.292130 0.593716
O O4 0.458314 0.215560 0.843524
O O5 0.250000 0.783174 0.148513
O O6 0.169851 0.830200 0.237635
O O7 0.190043 0.609437 0.164395
O O8 0.183838 0.739009 0.952143
O O9 0.614916 0.018779 0.704517
O O10 0.613650 0.041943 0.410173
O O11 0.543264 0.101600 0.551385
O O12 0.250000 0.271861 0.251062
O O13 0.190742 0.432788 0.332761
O O14 0.168626 0.246732 0.155736
O O15 0.359511 0.527072 0.650224
O O16 0.416046 0.200481 0.103268
O O17 0.354570 0.135705 0.904682
#
# Coordination Sequence:
#
# PCOD8184637 Si02
#       8
#     8   8   8   8   8   8   8   8
#     4  11  25  45  68  98 138 174 233 281 341 409
#     4  11  24  45  69 100 139 178 228 283 340 406
#     4  11  22  45  71  94 136 180 226 280 345 408
#     4  11  26  45  69 102 137 180 230 285 342 405
#     4  11  25  43  70 101 137 187 223 279 347 408
#     4  11  25  43  67 103 131 181 228 283 342 409
#     4  12  22  45  73  95 134 181 225 280 341 409
#     4  12  25  43  69 101 138 179 231 279 346 406
#
# _framework density 21.526886999999999
#
# number of rings (size 3 to 8) (size 9 to 14) (size 15 to 20)
#    0.000    0.750    5.000    2.250    1.750    3.000 
#    2.250    0.625    0.000    0.000    0.000    0.000 
#    0.000    0.000    0.000    0.000    0.000    0.000 
#
# Total GULP energy -396663.917207 kJ/mol
# GULP energy per Si atom -12395.747413 kJ/mol
# Density = 2.147789 g / cm^3
# Si number density = 21.526887 Si / 1000 Ang^3
#
#
#
# Elastic Constant Matrix: (Units=GPa)
#
#
# Indices 1 2 3 4 5 6 
#
# 1 111.1224 41.7924 59.3334 0.0000 0.0000 0.0000
# 2 41.7924 90.1399 18.2860 0.0000 0.0000 0.0000
# 3 59.3334 18.2860 79.9439 0.0000 0.0000 0.0000
# 4 0.0000 0.0000 0.0000 44.3483 0.0000 0.0000
# 5 0.0000 0.0000 0.0000 0.0000 34.1305 0.0000
# 6 0.0000 0.0000 0.0000 0.0000 0.0000 18.9292
#
#
#
# Elastic Compliance Matrix: (Units=1/GPa)
#
#
# Indices 1 2 3 4 5 6 
#
# 1 0.017295 -0.005678 -0.011537 0.000000 0.000000 0.000000
# 2 -0.005678 0.013498 0.001127 0.000000 0.000000 0.000000
# 3 -0.011537 0.001127 0.020814 0.000000 0.000000 0.000000
# 4 0.000000 0.000000 0.000000 0.022549 0.000000 0.000000
# 5 0.000000 0.000000 0.000000 0.000000 0.029299 0.000000
# 6 0.000000 0.000000 0.000000 0.000000 0.000000 0.052828
#
#
# Mechanical properties :
#
#
# Convention : Reuss Voigt Hill
#
# Bulk Modulus (GPa) = 51.46832 57.78110 54.62471
# Shear Modulus (GPa) = 25.64933 30.26787 27.95860
#
# Velocity S-wave (km/s) = 3.45556 3.75380 3.60776
# Velocity P-wave (km/s) = 6.31522 6.75926 6.54101
#
# Compressibility (1/GPa) = 0.01942943
#
# Stress axis : x y z
#
# Youngs Moduli (GPa) = 57.82066 74.08570 48.04488
#
# Poissons Ratio (x) = 0.42067 0.55431
# Poissons Ratio (y) = 0.32831 -0.05414
# Poissons Ratio (z) = 0.66709 -0.08348
#
# Static dielectric constant tensor:
#      x y z
#    x 3.916320 0.000000 0.000000 
#    y 0.000000 3.998910 0.000000 
#    z 0.000000 0.000000 3.970480 
# 
# 
# High freq. dielectric constant tensor:
#      x y z
#    x 1.848260 0.000000 0.000000 
#    y 0.000000 1.855010 0.000000 
#    z 0.000000 0.000000 1.846200 
# 
# From -- ./inp_files/9440.got.cif
#   From: 2010.03.12/outbox.cif.g09.slc.cpg/sg40_5_cif.got.tgz:9440.got - 2010.04.14 01:38:03.
