data_PCOD8184475
_publ_section_title
;
Structure prediction by ZEFSAII (Michael W. Deem and Ramdas Pophale) SiO2 
 PCOD8184475
Probable space group: A M A 2
;
_chemical_formula_sum "Si O2"
_cell_formula_units_Z 32
_cell_length_a 14.178520
_cell_length_b 7.100999
_cell_length_c 12.556385
_cell_angle_alpha 90.000000
_cell_angle_beta 90.000000
_cell_angle_gamma 90.000000
_cell_volume 1264.197639
_symmetry_space_group_name_H-M "A M A 2"
_symmetry_group_IT_number 40
_symmetry_cell_setting 'orthorhombic'
loop_
_space_group_symop_operation_xyz
x,y,z
-x,-y,z
1/2-x,y,z
1/2+x,-y,z
x,1/2+y,1/2+z
-x,1/2-y,1/2+z
1/2-x,1/2+y,1/2+z
1/2+x,1/2-y,1/2+z
loop_
_atom_site_type_symbol
_atom_site_label
_atom_site_fract_x
_atom_site_fract_y
_atom_site_fract_z
Si Si1 0.642584 0.427899 0.182240
Si Si2 0.643642 0.162197 0.379892
Si Si3 0.483778 0.796320 0.022097
Si Si4 0.858712 0.245412 0.827658
O O1 0.750000 0.405058 0.140174
O O2 0.628749 0.322899 0.293982
O O3 0.617474 0.645976 0.213126
O O4 0.571334 0.349766 0.095900
O O5 0.750000 0.155953 0.423924
O O6 0.579647 0.193124 0.484255
O O7 0.617923 0.966474 0.320800
O O8 0.420243 0.847844 0.920085
O O9 0.500000 0.000000 0.078462
O O10 0.750000 0.204403 0.854907
#
# Coordination Sequence:
#
# PCOD8184475 Si02
#       4
#     8   8   8   8
#     4  10  23  47  76 107 150 201 254 314 384 455
#     4  10  23  48  74 102 151 205 255 316 380 449
#     4  12  24  43  76 116 154 201 252 312 382 458
#     4  10  22  47  75 101 144 200 254 316 378 443
#
# _framework density 25.312497
#
# number of rings (size 3 to 8) (size 9 to 14) (size 15 to 20)
#    0.000    1.500    2.500    1.500    0.000    3.000 
#   18.000    0.000    0.000    1.500    0.000    0.000 
#    0.000    0.000    0.000    0.000    0.000    0.000 
#
# Total GULP energy -198441.572714 kJ/mol
# GULP energy per Si atom -12402.598295 kJ/mol
# Density = 2.525488 g / cm^3
# Si number density = 25.312497 Si / 1000 Ang^3
#
#
#
# Elastic Constant Matrix: (Units=GPa)
#
#
# Indices 1 2 3 4 5 6 
#
# 1 159.0226 71.1889 73.5681 0.0000 0.0000 0.0000
# 2 71.1889 169.6350 42.4886 0.0000 0.0000 0.0000
# 3 73.5681 42.4886 95.1129 0.0000 0.0000 0.0000
# 4 0.0000 0.0000 0.0000 26.7326 0.0000 0.0000
# 5 0.0000 0.0000 0.0000 0.0000 47.1742 0.0000
# 6 0.0000 0.0000 0.0000 0.0000 0.0000 28.2843
#
#
#
# Elastic Compliance Matrix: (Units=1/GPa)
#
#
# Indices 1 2 3 4 5 6 
#
# 1 0.010826 -0.002754 -0.007144 0.000000 0.000000 0.000000
# 2 -0.002754 0.007338 -0.001148 0.000000 0.000000 0.000000
# 3 -0.007144 -0.001148 0.016552 0.000000 0.000000 0.000000
# 4 0.000000 0.000000 0.000000 0.037408 0.000000 0.000000
# 5 0.000000 0.000000 0.000000 0.000000 0.021198 0.000000
# 6 0.000000 0.000000 0.000000 0.000000 0.000000 0.035355
#
#
# Mechanical properties :
#
#
# Convention : Reuss Voigt Hill
#
# Bulk Modulus (GPa) = 79.20537 88.69575 83.95056
# Shear Modulus (GPa) = 32.26291 36.20653 34.23472
#
# Velocity S-wave (km/s) = 3.57401 3.78614 3.68160
# Velocity P-wave (km/s) = 6.95631 7.36407 7.16309
#
# Compressibility (1/GPa) = 0.01262541
#
# Stress axis : x y z
#
# Youngs Moduli (GPa) = 92.36958 136.27151 60.41562
#
# Poissons Ratio (x) = 0.37530 0.43158
# Poissons Ratio (y) = 0.25439 0.06935
# Poissons Ratio (z) = 0.65984 0.15643
#
# Static dielectric constant tensor:
#      x y z
#    x 4.896680 0.000000 0.000000 
#    y 0.000000 4.888010 0.000000 
#    z 0.000000 0.000000 4.263330 
# 
# 
# High freq. dielectric constant tensor:
#      x y z
#    x 2.027480 0.000000 0.000000 
#    y 0.000000 2.032240 0.000000 
#    z 0.000000 0.000000 1.988590 
# 
# From -- ./inp_files/11726.got.cif
#   From: 2010.03.12/outbox.cif.g09.slc.cpg/sg40_6_cif.got.tgz:11726.got - 2010.04.14 01:38:03.
