data_PCOD8184727
_publ_section_title
;
Structure prediction by ZEFSAII (Michael W. Deem and Ramdas Pophale) SiO2 
 PCOD8184727
Probable space group: A B A 2
;
_chemical_formula_sum "Si O2"
_cell_formula_units_Z 64
_cell_length_a 30.257049
_cell_length_b 21.257325
_cell_length_c 5.292248
_cell_angle_alpha 90.000000
_cell_angle_beta 90.000000
_cell_angle_gamma 90.000000
_cell_volume 3403.888836
_symmetry_space_group_name_H-M "A B A 2"
_symmetry_group_IT_number 41
_symmetry_cell_setting 'orthorhombic'
loop_
_space_group_symop_operation_xyz
x,y,z
-x,-y,z
1/2-x,y,1/2+z
1/2+x,-y,1/2+z
x,1/2+y,1/2+z
-x,1/2-y,1/2+z
1/2-x,1/2+y,z
1/2+x,1/2-y,z
loop_
_atom_site_type_symbol
_atom_site_label
_atom_site_fract_x
_atom_site_fract_y
_atom_site_fract_z
Si Si1 0.367732 0.061818 0.332600
Si Si2 0.558764 0.256027 0.368393
Si Si3 0.539960 0.451554 0.944164
Si Si4 0.992213 0.925880 0.444684
Si Si5 0.269990 0.030780 0.351753
Si Si6 0.367368 0.140507 0.833794
Si Si7 0.232629 0.672157 0.853254
Si Si8 0.539431 0.690188 0.368939
O O1 0.411662 0.018610 0.385219
O O2 0.322956 0.022343 0.364683
O O3 0.370316 0.116074 0.545721
O O4 0.371379 0.086626 0.046564
O O5 0.596873 0.306776 0.389562
O O6 0.511647 0.289514 0.376131
O O7 0.563142 0.209466 0.609294
O O8 0.565527 0.217615 0.108715
O O9 0.500000 0.500000 0.987648
O O10 0.528821 0.403438 0.713218
O O11 0.541969 0.413714 0.211233
O O12 0.037106 0.886395 0.392036
O O13 0.000000 0.000000 0.486777
O O14 0.248829 0.997543 0.598579
O O15 0.256079 0.103629 0.340585
O O16 0.319607 0.171034 0.870110
O O17 0.248307 0.708203 0.599432
#
# Coordination Sequence:
#
# PCOD8184727 Si02
#       8
#     8   8   8   8   8   8   8   8
#     4  12  19  28  48  64  94 135 168 203 239 304
#     4  10  21  30  46  67  96 134 159 195 232 292
#     4  10  21  33  46  71  95 120 166 216 255 299
#     4  10  20  36  55  69  90 127 169 217 260 285
#     4  10  16  28  40  63  90 124 164 189 246 287
#     4  12  20  29  46  70  92 130 183 186 230 306
#     4  10  16  29  41  61  95 124 159 201 236 276
#     4  10  19  35  46  65  97 124 165 203 241 279
#
# _framework density 18.802026000000001
#
# number of rings (size 3 to 8) (size 9 to 14) (size 15 to 20)
#    0.000    1.500    5.000    3.750    0.000    2.000 
#    0.000    0.000    0.000    0.000    0.000    0.000 
#    0.000    0.000    0.000   90.000    3.000    0.000 
#
# Total GULP energy -396446.181682 kJ/mol
# GULP energy per Si atom -12388.943178 kJ/mol
# Density = 1.875923 g / cm^3
# Si number density = 18.802026 Si / 1000 Ang^3
#
#
#
# Elastic Constant Matrix: (Units=GPa)
#
#
# Indices 1 2 3 4 5 6 
#
# 1 102.7075 1.7514 15.4377 0.0000 0.0000 0.0000
# 2 1.7514 33.0592 4.1463 0.0000 0.0000 0.0000
# 3 15.4377 4.1463 166.4614 0.0000 0.0000 0.0000
# 4 0.0000 0.0000 0.0000 4.9770 0.0000 0.0000
# 5 0.0000 0.0000 0.0000 0.0000 24.5124 0.0000
# 6 0.0000 0.0000 0.0000 0.0000 0.0000 14.5037
#
#
#
# Elastic Compliance Matrix: (Units=1/GPa)
#
#
# Indices 1 2 3 4 5 6 
#
# 1 0.009880 -0.000410 -0.000906 0.000000 0.000000 0.000000
# 2 -0.000410 0.030361 -0.000718 0.000000 0.000000 0.000000
# 3 -0.000906 -0.000718 0.006109 0.000000 0.000000 0.000000
# 4 0.000000 0.000000 0.000000 0.200925 0.000000 0.000000
# 5 0.000000 0.000000 0.000000 0.000000 0.040796 0.000000
# 6 0.000000 0.000000 0.000000 0.000000 0.000000 0.068948
#
#
# Mechanical properties :
#
#
# Convention : Reuss Voigt Hill
#
# Bulk Modulus (GPa) = 23.65111 38.32213 30.98662
# Shear Modulus (GPa) = 13.32695 27.52479 20.42587
#
# Velocity S-wave (km/s) = 2.66523 3.83028 3.29958
# Velocity P-wave (km/s) = 4.69868 6.32357 5.57069
#
# Compressibility (1/GPa) = 0.04228132
#
# Stress axis : x y z
#
# Youngs Moduli (GPa) = 101.21912 32.93751 163.68443
#
# Poissons Ratio (x) = 0.01350 0.14830
# Poissons Ratio (y) = 0.04148 0.11756
# Poissons Ratio (z) = 0.09171 0.02366
#
# Static dielectric constant tensor:
#      x y z
#    x 3.554060 0.000000 0.000000 
#    y 0.000000 2.860640 0.000000 
#    z 0.000000 0.000000 5.182740 
# 
# 
# High freq. dielectric constant tensor:
#      x y z
#    x 1.724720 0.000000 0.000000 
#    y 0.000000 1.642270 0.000000 
#    z 0.000000 0.000000 1.779600 
# 
# From -- ./inp_files/1244.got.cif
#   From: 2010.03.12/outbox.cif.g09.slc.cpg/sg41_1_cif.got.tgz:1244.got - 2010.04.14 01:55:53.
