data_PCOD8184303
_publ_section_title
;
Structure prediction by ZEFSAII (Michael W. Deem and Ramdas Pophale) SiO2 
 PCOD8184303
Probable space group: A M A 2
;
_chemical_formula_sum "Si O2"
_cell_formula_units_Z 60
_cell_length_a 24.674176
_cell_length_b 17.773156
_cell_length_c 6.314619
_cell_angle_alpha 90.000000
_cell_angle_beta 90.000000
_cell_angle_gamma 90.000000
_cell_volume 2769.200256
_symmetry_space_group_name_H-M "A M A 2"
_symmetry_group_IT_number 40
_symmetry_cell_setting 'orthorhombic'
loop_
_space_group_symop_operation_xyz
x,y,z
-x,-y,z
1/2-x,y,z
1/2+x,-y,z
x,1/2+y,1/2+z
-x,1/2-y,1/2+z
1/2-x,1/2+y,1/2+z
1/2+x,1/2-y,1/2+z
loop_
_atom_site_type_symbol
_atom_site_label
_atom_site_fract_x
_atom_site_fract_y
_atom_site_fract_z
Si Si1 0.058738 0.248580 0.514200
Si Si2 0.635382 0.667283 0.814732
Si Si3 0.000000 0.500000 0.264786
Si Si4 0.536374 0.347553 0.372494
Si Si5 0.810718 0.064966 0.997262
Si Si6 0.383204 0.471634 0.102664
Si Si7 0.868473 0.295015 0.633146
Si Si8 0.189125 0.068408 0.321636
O O1 0.083225 0.301349 0.695717
O O2 0.049881 0.166536 0.622757
O O3 0.098577 0.247605 0.315587
O O4 0.000214 0.278790 0.450361
O O5 0.680298 0.638681 0.646324
O O6 0.614388 0.595379 0.938327
O O7 0.657921 0.732082 0.975889
O O8 0.004145 0.574659 0.408113
O O9 0.055145 0.497820 0.130770
O O10 0.591465 0.350525 0.506317
O O11 0.750000 0.072366 0.901663
O O12 0.816389 0.988702 0.128334
O O13 0.855369 0.060645 0.814211
O O14 0.349854 0.543264 0.013782
O O15 0.823113 0.347339 0.739407
O O16 0.250000 0.068478 0.412589
#
# Coordination Sequence:
#
# PCOD8184303 Si02
#       8
#     8   8   4   8   8   8   8   8
#     4  11  22  40  61  88 129 180 216 259 330 401
#     4  10  23  39  62  90 125 165 217 268 322 397
#     4  12  24  36  64  98 126 162 216 270 320 394
#     4  11  23  38  61  90 130 174 220 265 333 395
#     4  10  21  42  68  91 123 167 216 270 331 397
#     4  11  23  42  63  94 130 166 213 273 333 398
#     4  11  22  39  62  91 131 169 217 277 329 403
#     4  10  23  42  65  92 126 170 217 271 337 399
#
# _framework density 21.666905
#
# number of rings (size 3 to 8) (size 9 to 14) (size 15 to 20)
#    0.000    1.333    1.333    4.400    1.867    4.267 
#    0.000    5.333    0.000    0.000    0.000    0.000 
#    0.000    0.000    0.000    0.000    0.000    0.000 
#
# Total GULP energy -371971.781956 kJ/mol
# GULP energy per Si atom -12399.059399 kJ/mol
# Density = 2.161759 g / cm^3
# Si number density = 21.666905 Si / 1000 Ang^3
#
#
#
# Elastic Constant Matrix: (Units=GPa)
#
#
# Indices 1 2 3 4 5 6 
#
# 1 131.6764 39.4657 41.5461 0.0000 0.0000 0.0000
# 2 39.4657 105.9520 36.9501 0.0000 0.0000 0.0000
# 3 41.5461 36.9501 98.9372 0.0000 0.0000 0.0000
# 4 0.0000 0.0000 0.0000 26.1144 0.0000 0.0000
# 5 0.0000 0.0000 0.0000 0.0000 26.9250 0.0000
# 6 0.0000 0.0000 0.0000 0.0000 0.0000 28.0767
#
#
#
# Elastic Compliance Matrix: (Units=1/GPa)
#
#
# Indices 1 2 3 4 5 6 
#
# 1 0.009259 -0.002406 -0.002989 0.000000 0.000000 0.000000
# 2 -0.002406 0.011477 -0.003276 0.000000 0.000000 0.000000
# 3 -0.002989 -0.003276 0.012586 0.000000 0.000000 0.000000
# 4 0.000000 0.000000 0.000000 0.038293 0.000000 0.000000
# 5 0.000000 0.000000 0.000000 0.000000 0.037140 0.000000
# 6 0.000000 0.000000 0.000000 0.000000 0.000000 0.035617
#
#
# Mechanical properties :
#
#
# Convention : Reuss Voigt Hill
#
# Bulk Modulus (GPa) = 62.58210 63.60994 63.09602
# Shear Modulus (GPa) = 29.93275 30.79678 30.36477
#
# Velocity S-wave (km/s) = 3.72088 3.77420 3.74764
# Velocity P-wave (km/s) = 6.88523 6.95806 6.92174
#
# Compressibility (1/GPa) = 0.01597901
#
# Stress axis : x y z
#
# Youngs Moduli (GPa) = 108.00590 87.13093 79.45243
#
# Poissons Ratio (x) = 0.20966 0.23751
# Poissons Ratio (y) = 0.25989 0.26028
# Poissons Ratio (z) = 0.32286 0.28543
#
# Static dielectric constant tensor:
#      x y z
#    x 3.824070 0.000000 0.000000 
#    y 0.000000 4.051330 0.000000 
#    z 0.000000 0.000000 4.066110 
# 
# 
# High freq. dielectric constant tensor:
#      x y z
#    x 1.843190 0.000000 0.000000 
#    y 0.000000 1.856670 0.000000 
#    z 0.000000 0.000000 1.852500 
# 
# From -- ./inp_files/3164.got.cif
#   From: 2010.03.12/outbox.cif.g09.slc.cpg/sg40_2_cif.got.tgz:3164.got - 2010.04.14 01:38:03.
