data_PCOD8184852
_publ_section_title
;
Structure prediction by ZEFSAII (Michael W. Deem and Ramdas Pophale) SiO2 
 PCOD8184852
Probable space group: A B A 2
;
_chemical_formula_sum "Si O2"
_cell_formula_units_Z 52
_cell_length_a 7.409676
_cell_length_b 18.073582
_cell_length_c 18.152165
_cell_angle_alpha 90.000000
_cell_angle_beta 90.000000
_cell_angle_gamma 90.000000
_cell_volume 2430.926806
_symmetry_space_group_name_H-M "A B A 2"
_symmetry_group_IT_number 41
_symmetry_cell_setting 'orthorhombic'
loop_
_space_group_symop_operation_xyz
x,y,z
-x,-y,z
1/2-x,y,1/2+z
1/2+x,-y,1/2+z
x,1/2+y,1/2+z
-x,1/2-y,1/2+z
1/2-x,1/2+y,z
1/2+x,1/2-y,z
loop_
_atom_site_type_symbol
_atom_site_label
_atom_site_fract_x
_atom_site_fract_y
_atom_site_fract_z
Si Si1 0.491494 0.878784 0.614300
Si Si2 0.791218 0.493190 0.133637
Si Si3 0.710968 0.515701 0.293882
Si Si4 0.288068 0.719836 0.365254
Si Si5 0.595891 0.171381 0.772635
Si Si6 0.016970 0.841030 0.958164
Si Si7 0.000000 0.000000 0.908599
O O1 0.317750 0.932492 0.614544
O O2 0.486017 0.831315 0.690034
O O3 0.477560 0.821750 0.545457
O O4 0.680636 0.922969 0.601649
O O5 0.789570 0.478180 0.220851
O O6 0.000000 0.500000 0.105105
O O7 0.500000 0.500000 0.301794
O O8 0.735491 0.604519 0.287454
O O9 0.825272 0.480759 0.359505
O O10 0.191449 0.750272 0.290547
O O11 0.441534 0.665444 0.335455
O O12 0.342831 0.791456 0.413439
O O13 0.175225 0.670339 0.420605
O O14 0.055902 0.929282 0.956913
#
# Coordination Sequence:
#
# PCOD8184852 Si02
#       7
#     8   8   8   8   8   8   4
#     4  10  22  41  62  92 131 163 213 268 317 379
#     4  10  19  36  60  94 131 161 207 270 326 366
#     4  11  19  34  62  96 125 159 210 268 311 370
#     4  10  23  42  65  88 132 171 214 261 324 389
#     4  10  20  41  62  90 119 173 216 259 307 388
#     4  11  24  43  64  95 134 166 209 269 329 378
#     4  12  22  36  68  98 124 168 222 258 326 374
#
# _framework density 21.391019
#
# number of rings (size 3 to 8) (size 9 to 14) (size 15 to 20)
#    0.000    1.538    5.385    1.846    0.000    1.231 
#    8.308    1.538    0.000    0.000    0.000    0.000 
#    0.000    0.000    0.000    0.000    0.000    0.000 
#
# Total GULP energy -322188.424093 kJ/mol
# GULP energy per Si atom -12391.862465 kJ/mol
# Density = 2.134233 g / cm^3
# Si number density = 21.391019 Si / 1000 Ang^3
#
#
#
# Elastic Constant Matrix: (Units=GPa)
#
#
# Indices 1 2 3 4 5 6 
#
# 1 111.1006 5.2412 20.9813 0.0000 0.0000 0.0000
# 2 5.2412 57.1221 34.6514 0.0000 0.0000 0.0000
# 3 20.9813 34.6514 119.7748 0.0000 0.0000 0.0000
# 4 0.0000 0.0000 0.0000 27.5515 0.0000 0.0000
# 5 0.0000 0.0000 0.0000 0.0000 5.4674 0.0000
# 6 0.0000 0.0000 0.0000 0.0000 0.0000 13.6077
#
#
#
# Elastic Compliance Matrix: (Units=1/GPa)
#
#
# Indices 1 2 3 4 5 6 
#
# 1 0.009310 0.000164 -0.001678 0.000000 0.000000 0.000000
# 2 0.000164 0.021236 -0.006172 0.000000 0.000000 0.000000
# 3 -0.001678 -0.006172 0.010429 0.000000 0.000000 0.000000
# 4 0.000000 0.000000 0.000000 0.036296 0.000000 0.000000
# 5 0.000000 0.000000 0.000000 0.000000 0.182904 0.000000
# 6 0.000000 0.000000 0.000000 0.000000 0.000000 0.073488
#
#
# Mechanical properties :
#
#
# Convention : Reuss Voigt Hill
#
# Bulk Modulus (GPa) = 39.06114 45.52725 42.29419
# Shear Modulus (GPa) = 13.98334 24.46689 19.22511
#
# Velocity S-wave (km/s) = 2.55953 3.38567 3.00116
# Velocity P-wave (km/s) = 5.19953 6.05089 5.64129
#
# Compressibility (1/GPa) = 0.02560089
#
# Stress axis : x y z
#
# Youngs Moduli (GPa) = 107.41065 47.09093 95.88980
#
# Poissons Ratio (x) = -0.00771 0.16093
# Poissons Ratio (y) = -0.01760 0.59185
# Poissons Ratio (z) = 0.18026 0.29066
#
# Static dielectric constant tensor:
#      x y z
#    x 3.889010 0.000000 0.000000 
#    y 0.000000 3.699870 0.000000 
#    z 0.000000 0.000000 3.856740 
# 
# 
# High freq. dielectric constant tensor:
#      x y z
#    x 1.834320 0.000000 0.000000 
#    y 0.000000 1.824010 0.000000 
#    z 0.000000 0.000000 1.837630 
# 
# From -- ./inp_files/9728.got.cif
#   From: 2010.03.12/outbox.cif.g09.slc.cpg/sg41_5_cif.got.tgz:9728.got - 2010.04.14 01:55:53.
