data_PCOD8184794
_publ_section_title
;
Structure prediction by ZEFSAII (Michael W. Deem and Ramdas Pophale) SiO2 
 PCOD8184794
Probable space group: A B A 2
;
_chemical_formula_sum "Si O2"
_cell_formula_units_Z 44
_cell_length_a 13.376040
_cell_length_b 9.664784
_cell_length_c 15.772714
_cell_angle_alpha 90.000000
_cell_angle_beta 90.000000
_cell_angle_gamma 90.000000
_cell_volume 2039.041851
_symmetry_space_group_name_H-M "A B A 2"
_symmetry_group_IT_number 41
_symmetry_cell_setting 'orthorhombic'
loop_
_space_group_symop_operation_xyz
x,y,z
-x,-y,z
1/2-x,y,1/2+z
1/2+x,-y,1/2+z
x,1/2+y,1/2+z
-x,1/2-y,1/2+z
1/2-x,1/2+y,z
1/2+x,1/2-y,z
loop_
_atom_site_type_symbol
_atom_site_label
_atom_site_fract_x
_atom_site_fract_y
_atom_site_fract_z
Si Si1 0.500000 0.000000 0.423600
Si Si2 0.848476 0.761864 0.606511
Si Si3 0.789115 0.479986 0.677132
Si Si4 0.720605 0.180445 0.965880
Si Si5 0.059661 0.695391 0.572490
Si Si6 0.709185 0.943335 0.362042
O O1 0.519497 0.872621 0.486218
O O2 0.402161 0.986667 0.361958
O O3 0.796767 0.644872 0.666224
O O4 0.804091 0.912775 0.626912
O O5 0.826495 0.719546 0.509098
O O6 0.967648 0.767744 0.620902
O O7 0.890649 0.412768 0.638645
O O8 0.769756 0.450062 0.775248
O O9 0.724587 0.024294 0.932027
O O10 0.700106 0.283433 0.887836
O O11 0.639141 0.190123 0.041598
#
# Coordination Sequence:
#
# PCOD8184794 Si02
#       6
#     4   8   8   8   8   8
#     4  10  18  40  70  82 122 182 208 234 326 404
#     4  11  20  42  63  90 124 170 219 247 317 399
#     4  11  23  38  64  94 128 165 203 275 324 367
#     4  10  21  39  68  89 123 169 215 257 306 386
#     4  10  19  39  69  87 118 179 216 244 315 399
#     4  11  22  41  62  96 128 161 207 271 324 367
#
# _framework density 21.578761
#
# number of rings (size 3 to 8) (size 9 to 14) (size 15 to 20)
#    0.000    1.455    3.636    3.273    0.000    0.000 
#    9.818    8.182    0.000    0.000    0.000    0.000 
#    0.000    0.000    0.000    0.000    0.000    0.000 
#
# Total GULP energy -272649.174284 kJ/mol
# GULP energy per Si atom -12393.144286 kJ/mol
# Density = 2.152965 g / cm^3
# Si number density = 21.578761 Si / 1000 Ang^3
#
#
#
# Elastic Constant Matrix: (Units=GPa)
#
#
# Indices 1 2 3 4 5 6 
#
# 1 122.8562 29.4113 30.0968 0.0000 0.0000 0.0000
# 2 29.4113 47.9845 2.4585 0.0000 0.0000 0.0000
# 3 30.0968 2.4585 95.1625 0.0000 0.0000 0.0000
# 4 0.0000 0.0000 0.0000 30.6389 0.0000 0.0000
# 5 0.0000 0.0000 0.0000 0.0000 20.8489 0.0000
# 6 0.0000 0.0000 0.0000 0.0000 0.0000 22.0411
#
#
#
# Elastic Compliance Matrix: (Units=1/GPa)
#
#
# Indices 1 2 3 4 5 6 
#
# 1 0.010392 -0.006209 -0.003126 0.000000 0.000000 0.000000
# 2 -0.006209 0.024578 0.001329 0.000000 0.000000 0.000000
# 3 -0.003126 0.001329 0.011463 0.000000 0.000000 0.000000
# 4 0.000000 0.000000 0.000000 0.032638 0.000000 0.000000
# 5 0.000000 0.000000 0.000000 0.000000 0.047964 0.000000
# 6 0.000000 0.000000 0.000000 0.000000 0.000000 0.045370
#
#
# Mechanical properties :
#
#
# Convention : Reuss Voigt Hill
#
# Bulk Modulus (GPa) = 32.87407 43.32627 38.10017
# Shear Modulus (GPa) = 25.18156 28.30822 26.74489
#
# Velocity S-wave (km/s) = 3.41979 3.62588 3.52434
# Velocity P-wave (km/s) = 5.55525 6.13606 5.85286
#
# Compressibility (1/GPa) = 0.03041911
#
# Stress axis : x y z
#
# Youngs Moduli (GPa) = 96.22830 40.68693 87.23921
#
# Poissons Ratio (x) = 0.25264 0.27273
# Poissons Ratio (y) = 0.59752 -0.11593
# Poissons Ratio (z) = 0.30083 -0.05407
#
# Static dielectric constant tensor:
#      x y z
#    x 4.390480 0.000000 0.000000 
#    y 0.000000 3.744150 0.000000 
#    z 0.000000 0.000000 3.756990 
# 
# 
# High freq. dielectric constant tensor:
#      x y z
#    x 1.850260 0.000000 0.000000 
#    y 0.000000 1.836570 0.000000 
#    z 0.000000 0.000000 1.830440 
# 
# From -- ./inp_files/9941.got.cif
#   From: 2010.03.12/outbox.cif.g09.slc.cpg/sg41_5_cif.got.tgz:9941.got - 2010.04.14 01:55:53.
