data_PCOD8184900
_publ_section_title
;
Structure prediction by ZEFSAII (Michael W. Deem and Ramdas Pophale) SiO2 
 PCOD8184900
Probable space group: A B A 2
;
_chemical_formula_sum "Si O2"
_cell_formula_units_Z 48
_cell_length_a 20.955206
_cell_length_b 18.218927
_cell_length_c 5.277206
_cell_angle_alpha 90.000000
_cell_angle_beta 90.000000
_cell_angle_gamma 90.000000
_cell_volume 2014.738928
_symmetry_space_group_name_H-M "A B A 2"
_symmetry_group_IT_number 41
_symmetry_cell_setting 'orthorhombic'
loop_
_space_group_symop_operation_xyz
x,y,z
-x,-y,z
1/2-x,y,1/2+z
1/2+x,-y,1/2+z
x,1/2+y,1/2+z
-x,1/2-y,1/2+z
1/2-x,1/2+y,z
1/2+x,1/2-y,z
loop_
_atom_site_type_symbol
_atom_site_label
_atom_site_fract_x
_atom_site_fract_y
_atom_site_fract_z
Si Si1 0.044344 0.311819 0.055600
Si Si2 0.907842 0.809363 0.378311
Si Si3 0.591410 0.942840 0.564854
Si Si4 0.948047 0.101643 0.045816
Si Si5 0.219398 0.085027 0.848800
Si Si6 0.727598 0.254835 0.432895
O O1 0.071937 0.230634 0.111572
O O2 0.073991 0.361834 0.282179
O O3 0.062469 0.342614 0.779479
O O4 0.966940 0.305682 0.074365
O O5 0.889480 0.893990 0.311742
O O6 0.846323 0.769817 0.496667
O O7 0.520745 0.919592 0.488325
O O8 0.642782 0.925962 0.344219
O O9 0.592964 0.029918 0.618645
O O10 0.250128 0.047631 0.599961
O O11 0.234226 0.171542 0.847773
O O12 0.761690 0.211028 0.665592
#
# Coordination Sequence:
#
# PCOD8184900 Si02
#       6
#     8   8   8   8   8   8
#     4  11  25  41  60  94 130 173 200 261 331 379
#     4  11  22  41  69  94 130 165 228 266 318 390
#     4  10  21  39  66  90 125 161 218 260 310 380
#     4  10  25  41  59  92 130 171 199 261 328 385
#     4  10  20  34  56  95 117 153 202 276 308 351
#     4  10  21  35  58  98 120 156 205 285 313 356
#
# _framework density 23.824425999999999
#
# number of rings (size 3 to 8) (size 9 to 14) (size 15 to 20)
#    0.000    1.667    3.333    2.000    4.667    9.333 
#    0.000    0.000    0.000    6.000    0.000    0.000 
#    0.000    0.000    0.000    0.000    0.000    0.000 
#
# Total GULP energy -297364.612545 kJ/mol
# GULP energy per Si atom -12390.192189 kJ/mol
# Density = 2.377020 g / cm^3
# Si number density = 23.824426 Si / 1000 Ang^3
#
#
#
# Elastic Constant Matrix: (Units=GPa)
#
#
# Indices 1 2 3 4 5 6 
#
# 1 74.2506 16.1154 20.9820 0.0000 0.0000 0.0000
# 2 16.1154 81.8400 27.3564 0.0000 0.0000 0.0000
# 3 20.9820 27.3564 144.0881 0.0000 0.0000 0.0000
# 4 0.0000 0.0000 0.0000 23.0065 0.0000 0.0000
# 5 0.0000 0.0000 0.0000 0.0000 34.5359 0.0000
# 6 0.0000 0.0000 0.0000 0.0000 0.0000 16.5738
#
#
#
# Elastic Compliance Matrix: (Units=1/GPa)
#
#
# Indices 1 2 3 4 5 6 
#
# 1 0.014435 -0.002285 -0.001668 0.000000 0.000000 0.000000
# 2 -0.002285 0.013409 -0.002213 0.000000 0.000000 0.000000
# 3 -0.001668 -0.002213 0.007603 0.000000 0.000000 0.000000
# 4 0.000000 0.000000 0.000000 0.043466 0.000000 0.000000
# 5 0.000000 0.000000 0.000000 0.000000 0.028955 0.000000
# 6 0.000000 0.000000 0.000000 0.000000 0.000000 0.060336
#
#
# Mechanical properties :
#
#
# Convention : Reuss Voigt Hill
#
# Bulk Modulus (GPa) = 43.26215 47.67625 45.46920
# Shear Modulus (GPa) = 26.56155 30.53823 28.54989
#
# Velocity S-wave (km/s) = 3.34262 3.58411 3.46547
# Velocity P-wave (km/s) = 5.75288 6.09777 5.92783
#
# Compressibility (1/GPa) = 0.02311489
#
# Stress axis : x y z
#
# Youngs Moduli (GPa) = 69.27493 74.57883 131.52208
#
# Poissons Ratio (x) = 0.17040 0.21941
# Poissons Ratio (y) = 0.15828 0.29106
# Poissons Ratio (z) = 0.11557 0.16504
#
# Static dielectric constant tensor:
#      x y z
#    x 4.327130 0.000000 0.000000 
#    y 0.000000 4.146390 0.000000 
#    z 0.000000 0.000000 4.712170 
# 
# 
# High freq. dielectric constant tensor:
#      x y z
#    x 1.939160 0.000000 0.000000 
#    y 0.000000 1.896400 0.000000 
#    z 0.000000 0.000000 1.951490 
# 
# From -- ./inp_files/950.got.cif
#   From: 2010.03.12/outbox.cif.g09.slc.cpg/sg41_1_cif.got.tgz:950.got - 2010.04.14 01:55:53.
