data_PCOD8184189
_publ_section_title
;
Structure prediction by ZEFSAII (Michael W. Deem and Ramdas Pophale) SiO2 
 PCOD8184189
Probable space group: A M A 2
;
_chemical_formula_sum "Si O2"
_cell_formula_units_Z 56
_cell_length_a 23.018373
_cell_length_b 11.066082
_cell_length_c 10.906501
_cell_angle_alpha 90.000000
_cell_angle_beta 90.000000
_cell_angle_gamma 90.000000
_cell_volume 2778.138870
_symmetry_space_group_name_H-M "A M A 2"
_symmetry_group_IT_number 40
_symmetry_cell_setting 'orthorhombic'
loop_
_space_group_symop_operation_xyz
x,y,z
-x,-y,z
1/2-x,y,z
1/2+x,-y,z
x,1/2+y,1/2+z
-x,1/2-y,1/2+z
1/2-x,1/2+y,1/2+z
1/2+x,1/2-y,1/2+z
loop_
_atom_site_type_symbol
_atom_site_label
_atom_site_fract_x
_atom_site_fract_y
_atom_site_fract_z
Si Si1 0.183544 0.928169 0.091280
Si Si2 0.095478 0.790525 0.498526
Si Si3 0.100185 0.265713 0.713587
Si Si4 0.817905 0.807461 0.184419
Si Si5 0.932321 0.495516 0.146801
Si Si6 0.113692 0.349155 0.363711
Si Si7 0.485782 0.362629 0.538863
O O1 0.250000 0.909374 0.058646
O O2 0.162994 0.817101 0.176433
O O3 0.172533 0.049932 0.167927
O O4 0.149456 0.926843 0.963024
O O5 0.097481 0.752560 0.358118
O O6 0.155891 0.757844 0.564280
O O7 0.043746 0.713976 0.560263
O O8 0.081688 0.932998 0.519816
O O9 0.090346 0.140767 0.640852
O O10 0.050514 0.357886 0.665744
O O11 0.750000 0.773696 0.193158
O O12 0.850437 0.765138 0.309534
O O13 0.897444 0.560733 0.253550
O O14 0.000000 0.500000 0.176839
O O15 0.053338 0.306608 0.427645
O O16 0.500000 0.500000 0.505545
#
# Coordination Sequence:
#
# PCOD8184189 Si02
#       7
#     8   8   8   8   8   8   8
#     4  10  22  41  61  87 121 159 211 266 314 379
#     4  11  23  38  61  89 124 164 205 258 320 382
#     4  11  23  38  57  90 123 163 205 251 326 384
#     4  10  22  41  64  89 118 163 216 261 314 382
#     4  11  21  39  58  88 128 161 200 258 315 385
#     4  10  21  38  66  88 119 163 210 262 320 378
#     4  11  22  38  60  89 124 161 207 261 318 388
#
# _framework density 20.157378999999999
#
# number of rings (size 3 to 8) (size 9 to 14) (size 15 to 20)
#    0.000    1.429    1.429    5.143    2.000    3.429 
#    0.000    3.571    0.000    0.000    0.000    0.000 
#    0.000    0.000    0.000    0.000    0.000    0.000 
#
# Total GULP energy -347203.099091 kJ/mol
# GULP energy per Si atom -12400.110682 kJ/mol
# Density = 2.011150 g / cm^3
# Si number density = 20.157379 Si / 1000 Ang^3
#
#
#
# Elastic Constant Matrix: (Units=GPa)
#
#
# Indices 1 2 3 4 5 6 
#
# 1 88.5363 51.7611 6.6283 0.0000 0.0000 0.0000
# 2 51.7611 120.0029 30.7985 0.0000 0.0000 0.0000
# 3 6.6283 30.7985 54.8434 0.0000 0.0000 0.0000
# 4 0.0000 0.0000 0.0000 28.8119 0.0000 0.0000
# 5 0.0000 0.0000 0.0000 0.0000 28.2096 0.0000
# 6 0.0000 0.0000 0.0000 0.0000 0.0000 31.5701
#
#
#
# Elastic Compliance Matrix: (Units=1/GPa)
#
#
# Indices 1 2 3 4 5 6 
#
# 1 0.015322 -0.007166 0.002173 0.000000 0.000000 0.000000
# 2 -0.007166 0.013088 -0.006484 0.000000 0.000000 0.000000
# 3 0.002173 -0.006484 0.021612 0.000000 0.000000 0.000000
# 4 0.000000 0.000000 0.000000 0.034708 0.000000 0.000000
# 5 0.000000 0.000000 0.000000 0.000000 0.035449 0.000000
# 6 0.000000 0.000000 0.000000 0.000000 0.000000 0.031676
#
#
# Mechanical properties :
#
#
# Convention : Reuss Voigt Hill
#
# Bulk Modulus (GPa) = 36.94510 49.08428 43.01469
# Shear Modulus (GPa) = 27.19867 29.33131 28.26499
#
# Velocity S-wave (km/s) = 3.67729 3.81874 3.74868
# Velocity P-wave (km/s) = 6.03308 6.62171 6.33424
#
# Compressibility (1/GPa) = 0.02706719
#
# Stress axis : x y z
#
# Youngs Moduli (GPa) = 65.26617 76.40394 46.26993
#
# Poissons Ratio (x) = 0.54754 -0.10053
# Poissons Ratio (y) = 0.46773 0.30001
# Poissons Ratio (z) = -0.14180 0.49540
#
# Static dielectric constant tensor:
#      x y z
#    x 3.842430 0.000000 0.000000 
#    y 0.000000 3.786440 0.000000 
#    z 0.000000 0.000000 3.651850 
# 
# 
# High freq. dielectric constant tensor:
#      x y z
#    x 1.791310 0.000000 0.000000 
#    y 0.000000 1.786340 0.000000 
#    z 0.000000 0.000000 1.784250 
# 
# From -- ./inp_files/13579.got.cif
#   From: 2010.03.12/outbox.cif.g09.slc.cpg/sg40_7_cif.got.tgz:13579.got - 2010.04.14 01:38:03.
