data_PCOD8184654
_publ_section_title
;
Structure prediction by ZEFSAII (Michael W. Deem and Ramdas Pophale) SiO2 
 PCOD8184654
Probable space group: A M A 2
;
_chemical_formula_sum "Si O2"
_cell_formula_units_Z 48
_cell_length_a 21.440211
_cell_length_b 11.827698
_cell_length_c 8.073257
_cell_angle_alpha 90.000000
_cell_angle_beta 90.000000
_cell_angle_gamma 90.000000
_cell_volume 2047.283847
_symmetry_space_group_name_H-M "A M A 2"
_symmetry_group_IT_number 40
_symmetry_cell_setting 'orthorhombic'
loop_
_space_group_symop_operation_xyz
x,y,z
-x,-y,z
1/2-x,y,z
1/2+x,-y,z
x,1/2+y,1/2+z
-x,1/2-y,1/2+z
1/2-x,1/2+y,1/2+z
1/2+x,1/2-y,1/2+z
loop_
_atom_site_type_symbol
_atom_site_label
_atom_site_fract_x
_atom_site_fract_y
_atom_site_fract_z
Si Si1 0.500000 0.000000 0.640161
Si Si2 0.957567 0.104265 0.093470
Si Si3 0.250000 0.370805 0.393702
Si Si4 0.873507 0.008286 0.846838
Si Si5 0.250000 0.389939 0.785737
Si Si6 0.972315 0.706396 0.939836
Si Si7 0.750000 0.355033 0.735930
Si Si8 0.157041 0.726193 0.466179
O O1 0.563480 0.023538 0.740603
O O2 0.487740 0.106606 0.520627
O O3 0.951907 0.185478 0.250731
O O4 0.891191 0.055992 0.030853
O O5 0.000000 0.000000 0.145017
O O6 0.988934 0.176936 0.944472
O O7 0.188974 0.421716 0.297064
O O8 0.250000 0.396572 0.587212
O O9 0.250000 0.236003 0.382362
O O10 0.856307 0.876439 0.839797
O O11 0.250000 0.523858 0.828966
O O12 0.191177 0.326392 0.866193
O O13 0.907175 0.723184 0.038256
O O14 0.809184 0.331995 0.620238
#
# Coordination Sequence:
#
# PCOD8184654 Si02
#       8
#     4   8   4   8   4   8   4   8
#     4  12  26  44  70 116 150 192 248 298 362 438
#     4  12  24  46  71 103 149 188 237 300 362 432
#     4  12  25  46  77 103 138 190 247 293 366 433
#     4  12  23  49  74 104 151 192 240 305 363 426
#     4  11  24  49  69 103 142 191 240 302 362 435
#     4  12  25  44  72 108 145 193 243 299 366 434
#     4  11  25  47  68 102 142 187 239 301 358 436
#     4  11  23  45  72  97 146 188 238 301 363 425
#
# _framework density 23.445696000000002
#
# number of rings (size 3 to 8) (size 9 to 14) (size 15 to 20)
#    0.000    0.333    5.000    4.500    0.000    0.000 
#   12.000    0.000    0.000    0.000    0.000    0.000 
#    0.000    0.000    0.000    0.000    0.000    0.000 
#
# Total GULP energy -297488.822433 kJ/mol
# GULP energy per Si atom -12395.367601 kJ/mol
# Density = 2.339233 g / cm^3
# Si number density = 23.445696 Si / 1000 Ang^3
#
#
#
# Elastic Constant Matrix: (Units=GPa)
#
#
# Indices 1 2 3 4 5 6 
#
# 1 139.7749 57.2810 21.2107 0.0000 0.0000 0.0000
# 2 57.2810 176.6989 31.6180 0.0000 0.0000 0.0000
# 3 21.2107 31.6180 53.1791 0.0000 0.0000 0.0000
# 4 0.0000 0.0000 0.0000 45.2051 0.0000 0.0000
# 5 0.0000 0.0000 0.0000 0.0000 15.9184 0.0000
# 6 0.0000 0.0000 0.0000 0.0000 0.0000 38.6545
#
#
#
# Elastic Compliance Matrix: (Units=1/GPa)
#
#
# Indices 1 2 3 4 5 6 
#
# 1 0.008426 -0.002384 -0.001944 0.000000 0.000000 0.000000
# 2 -0.002384 0.007007 -0.003216 0.000000 0.000000 0.000000
# 3 -0.001944 -0.003216 0.021491 0.000000 0.000000 0.000000
# 4 0.000000 0.000000 0.000000 0.022121 0.000000 0.000000
# 5 0.000000 0.000000 0.000000 0.000000 0.062821 0.000000
# 6 0.000000 0.000000 0.000000 0.000000 0.000000 0.025870
#
#
# Mechanical properties :
#
#
# Convention : Reuss Voigt Hill
#
# Bulk Modulus (GPa) = 45.78893 65.54136 55.66515
# Shear Modulus (GPa) = 29.39399 37.25847 33.32623
#
# Velocity S-wave (km/s) = 3.54461 3.99073 3.77427
# Velocity P-wave (km/s) = 6.02698 7.01782 6.54119
#
# Compressibility (1/GPa) = 0.02183934
#
# Stress axis : x y z
#
# Youngs Moduli (GPa) = 118.67773 142.70456 46.53021
#
# Poissons Ratio (x) = 0.34018 0.09043
# Poissons Ratio (y) = 0.28290 0.14962
# Poissons Ratio (z) = 0.23065 0.45888
#
# Static dielectric constant tensor:
#      x y z
#    x 4.412200 0.000000 0.000000 
#    y 0.000000 4.434440 0.000000 
#    z 0.000000 0.000000 3.899480 
# 
# 
# High freq. dielectric constant tensor:
#      x y z
#    x 1.934960 0.000000 0.000000 
#    y 0.000000 1.952920 0.000000 
#    z 0.000000 0.000000 1.903600 
# 
# From -- ./inp_files/8794.got.cif
#   From: 2010.03.12/outbox.cif.g09.slc.cpg/sg40_5_cif.got.tgz:8794.got - 2010.04.14 01:38:03.
