data_PCOD8184975
_publ_section_title
;
Structure prediction by ZEFSAII (Michael W. Deem and Ramdas Pophale) SiO2 
 PCOD8184975
Probable space group: A B A 2
;
_chemical_formula_sum "Si O2"
_cell_formula_units_Z 44
_cell_length_a 14.908569
_cell_length_b 16.814957
_cell_length_c 8.319009
_cell_angle_alpha 90.000000
_cell_angle_beta 90.000000
_cell_angle_gamma 90.000000
_cell_volume 2085.466966
_symmetry_space_group_name_H-M "A B A 2"
_symmetry_group_IT_number 41
_symmetry_cell_setting 'orthorhombic'
loop_
_space_group_symop_operation_xyz
x,y,z
-x,-y,z
1/2-x,y,1/2+z
1/2+x,-y,1/2+z
x,1/2+y,1/2+z
-x,1/2-y,1/2+z
1/2-x,1/2+y,z
1/2+x,1/2-y,z
loop_
_atom_site_type_symbol
_atom_site_label
_atom_site_fract_x
_atom_site_fract_y
_atom_site_fract_z
Si Si1 0.951161 0.645460 0.404640
Si Si2 0.500000 0.500000 0.120086
Si Si3 0.420820 0.403375 0.553205
Si Si4 0.606235 0.444081 0.410179
Si Si5 0.370013 0.235819 0.469547
Si Si6 0.321425 0.218546 0.841692
O O1 0.950049 0.570006 0.522405
O O2 0.910954 0.611132 0.240852
O O3 0.882382 0.718559 0.445190
O O4 0.052810 0.678799 0.397306
O O5 0.577302 0.459885 0.226634
O O6 0.522408 0.424775 0.520934
O O7 0.354284 0.474630 0.490904
O O8 0.401505 0.325733 0.449289
O O9 0.672067 0.369694 0.417372
O O10 0.350852 0.216455 0.655926
O O11 0.283447 0.234515 0.356275
#
# Coordination Sequence:
#
# PCOD8184975 Si02
#       6
#     8   4   8   8   8   8
#     4  11  22  43  67  92 128 169 221 261 321 383
#     4  10  20  38  68  92 120 166 216 262 316 380
#     4   9  21  38  66  93 122 165 209 263 321 374
#     4  10  20  40  65  94 123 164 210 265 327 365
#     4  11  24  41  64  98 125 175 215 262 325 380
#     4  11  25  42  65  93 133 172 212 270 318 386
#
# _framework density 21.098389999999998
#
# number of rings (size 3 to 8) (size 9 to 14) (size 15 to 20)
#    0.000    1.818    3.636    1.091    2.545    2.909 
#    3.273    1.818    0.000    0.000    0.000    0.000 
#    0.000    0.000    0.000    0.000    0.000    0.000 
#
# Total GULP energy -272587.088192 kJ/mol
# GULP energy per Si atom -12390.322191 kJ/mol
# Density = 2.105037 g / cm^3
# Si number density = 21.098390 Si / 1000 Ang^3
#
#
#
# Elastic Constant Matrix: (Units=GPa)
#
#
# Indices 1 2 3 4 5 6 
#
# 1 63.7057 3.7436 0.1373 0.0000 0.0000 0.0000
# 2 3.7436 125.9385 32.2455 0.0000 0.0000 0.0000
# 3 0.1373 32.2455 55.2139 0.0000 0.0000 0.0000
# 4 0.0000 0.0000 0.0000 18.0638 0.0000 0.0000
# 5 0.0000 0.0000 0.0000 0.0000 17.9078 0.0000
# 6 0.0000 0.0000 0.0000 0.0000 0.0000 15.8603
#
#
#
# Elastic Compliance Matrix: (Units=1/GPa)
#
#
# Indices 1 2 3 4 5 6 
#
# 1 0.015728 -0.000538 0.000275 0.000000 0.000000 0.000000
# 2 -0.000538 0.009355 -0.005462 0.000000 0.000000 0.000000
# 3 0.000275 -0.005462 0.021301 0.000000 0.000000 0.000000
# 4 0.000000 0.000000 0.000000 0.055359 0.000000 0.000000
# 5 0.000000 0.000000 0.000000 0.000000 0.055841 0.000000
# 6 0.000000 0.000000 0.000000 0.000000 0.000000 0.063051
#
#
# Mechanical properties :
#
#
# Convention : Reuss Voigt Hill
#
# Bulk Modulus (GPa) = 28.62554 35.23454 31.93004
# Shear Modulus (GPa) = 20.51456 24.28183 22.39819
#
# Velocity S-wave (km/s) = 3.12160 3.39615 3.26177
# Velocity P-wave (km/s) = 5.15651 5.66699 5.41777
#
# Compressibility (1/GPa) = 0.03493384
#
# Stress axis : x y z
#
# Youngs Moduli (GPa) = 63.58001 106.89610 46.94710
#
# Poissons Ratio (x) = 0.05751 -0.01291
# Poissons Ratio (y) = 0.03420 0.25643
# Poissons Ratio (z) = -0.01749 0.58387
#
# Static dielectric constant tensor:
#      x y z
#    x 3.501350 0.000000 0.000000 
#    y 0.000000 5.933690 0.000000 
#    z 0.000000 0.000000 3.663700 
# 
# 
# High freq. dielectric constant tensor:
#      x y z
#    x 1.791410 0.000000 0.000000 
#    y 0.000000 1.859890 0.000000 
#    z 0.000000 0.000000 1.821030 
# 
# From -- ./inp_files/2478.got.cif
#   From: 2010.03.12/outbox.cif.g09.slc.cpg/sg41_2_cif.got.tgz:2478.got - 2010.04.14 01:55:53.
