data_PCOD8184449
_publ_section_title
;
Structure prediction by ZEFSAII (Michael W. Deem and Ramdas Pophale) SiO2 
 PCOD8184449
Probable space group: A M A 2
;
_chemical_formula_sum "Si O2"
_cell_formula_units_Z 64
_cell_length_a 16.763646
_cell_length_b 15.012307
_cell_length_c 11.935221
_cell_angle_alpha 90.000000
_cell_angle_beta 90.000000
_cell_angle_gamma 90.000000
_cell_volume 3003.629654
_symmetry_space_group_name_H-M "A M A 2"
_symmetry_group_IT_number 40
_symmetry_cell_setting 'orthorhombic'
loop_
_space_group_symop_operation_xyz
x,y,z
-x,-y,z
1/2-x,y,z
1/2+x,-y,z
x,1/2+y,1/2+z
-x,1/2-y,1/2+z
1/2-x,1/2+y,1/2+z
1/2+x,1/2-y,1/2+z
loop_
_atom_site_type_symbol
_atom_site_label
_atom_site_fract_x
_atom_site_fract_y
_atom_site_fract_z
Si Si1 0.902374 0.319754 0.862390
Si Si2 0.068947 0.266186 0.962142
Si Si3 0.657669 0.678559 0.754382
Si Si4 0.405638 0.513062 0.236193
Si Si5 0.907288 0.987397 0.207054
Si Si6 0.155807 0.822511 0.685295
Si Si7 0.159514 0.169391 0.599446
Si Si8 0.924703 0.436832 0.472603
O O1 0.887577 0.410394 0.794834
O O2 0.881424 0.236345 0.784575
O O3 0.991883 0.316707 0.912157
O O4 0.842259 0.320140 0.966229
O O5 0.139406 0.275326 0.872411
O O6 0.045649 0.164383 0.984409
O O7 0.102077 0.308212 0.075797
O O8 0.750000 0.670779 0.735388
O O9 0.625591 0.579197 0.752331
O O10 0.621252 0.741707 0.656370
O O11 0.500000 0.500000 0.234560
O O12 0.354553 0.424785 0.217490
O O13 0.388543 0.582764 0.137687
O O14 0.375858 0.551244 0.356872
O O15 0.872398 0.961737 0.083368
O O16 0.000000 0.000000 0.189823
O O17 0.250000 0.800928 0.666504
O O18 0.250000 0.157869 0.639899
O O19 0.000000 0.500000 0.463439
#
# Coordination Sequence:
#
# PCOD8184449 Si02
#       8
#     8   8   8   8   8   8   8   8
#     4  12  26  43  75 102 138 183 239 292 352 426
#     4  12  24  46  75 101 139 188 236 296 348 439
#     4  11  26  46  69 100 140 185 232 287 357 427
#     4  11  23  44  73 103 134 182 238 293 353 429
#     4  11  24  44  68 102 135 180 235 290 347 416
#     4  12  28  47  69 107 151 189 235 303 375 429
#     4  11  26  45  67  98 140 182 226 285 354 419
#     4  10  22  42  70 102 135 170 230 294 348 407
#
# _framework density 21.307552999999999
#
# number of rings (size 3 to 8) (size 9 to 14) (size 15 to 20)
#    0.000    0.750    3.750    3.375    8.750    1.500 
#    0.000    0.625    0.000    0.000    0.000    0.000 
#    0.000    0.000    0.000    0.000    0.000    0.000 
#
# Total GULP energy -396811.536360 kJ/mol
# GULP energy per Si atom -12400.360511 kJ/mol
# Density = 2.125906 g / cm^3
# Si number density = 21.307553 Si / 1000 Ang^3
#
#
#
# Elastic Constant Matrix: (Units=GPa)
#
#
# Indices 1 2 3 4 5 6 
#
# 1 75.4932 30.2970 31.0357 0.0000 0.0000 0.0000
# 2 30.2970 142.0046 49.2879 0.0000 0.0000 0.0000
# 3 31.0357 49.2879 155.6045 0.0000 0.0000 0.0000
# 4 0.0000 0.0000 0.0000 39.5985 0.0000 0.0000
# 5 0.0000 0.0000 0.0000 0.0000 22.4089 0.0000
# 6 0.0000 0.0000 0.0000 0.0000 0.0000 20.3653
#
#
#
# Elastic Compliance Matrix: (Units=1/GPa)
#
#
# Indices 1 2 3 4 5 6 
#
# 1 0.015154 -0.002454 -0.002245 0.000000 0.000000 0.000000
# 2 -0.002454 0.008309 -0.002143 0.000000 0.000000 0.000000
# 3 -0.002245 -0.002143 0.007553 0.000000 0.000000 0.000000
# 4 0.000000 0.000000 0.000000 0.025253 0.000000 0.000000
# 5 0.000000 0.000000 0.000000 0.000000 0.044625 0.000000
# 6 0.000000 0.000000 0.000000 0.000000 0.000000 0.049103
#
#
# Mechanical properties :
#
#
# Convention : Reuss Voigt Hill
#
# Bulk Modulus (GPa) = 57.69338 66.03817 61.86577
# Shear Modulus (GPa) = 29.50570 33.97334 31.73952
#
# Velocity S-wave (km/s) = 3.72526 3.99736 3.86371
# Velocity P-wave (km/s) = 6.75564 7.23639 7.00014
#
# Compressibility (1/GPa) = 0.01733301
#
# Stress axis : x y z
#
# Youngs Moduli (GPa) = 65.98898 120.34849 132.39738
#
# Poissons Ratio (x) = 0.29532 0.29727
# Poissons Ratio (y) = 0.16193 0.28366
# Poissons Ratio (z) = 0.14816 0.25785
#
# Static dielectric constant tensor:
#      x y z
#    x 3.613890 0.000000 0.000000 
#    y 0.000000 3.799180 0.000000 
#    z 0.000000 0.000000 4.353450 
# 
# 
# High freq. dielectric constant tensor:
#      x y z
#    x 1.817860 0.000000 0.000000 
#    y 0.000000 1.851500 0.000000 
#    z 0.000000 0.000000 1.858050 
# 
# From -- ./inp_files/13112.got.cif
#   From: 2010.03.12/outbox.cif.g09.slc.cpg/sg40_7_cif.got.tgz:13112.got - 2010.04.14 01:38:03.
