data_PCOD8184905
_publ_section_title
;
Structure prediction by ZEFSAII (Michael W. Deem and Ramdas Pophale) SiO2 
 PCOD8184905
Probable space group: A B A 2
;
_chemical_formula_sum "Si O2"
_cell_formula_units_Z 60
_cell_length_a 11.222549
_cell_length_b 14.446216
_cell_length_c 18.641563
_cell_angle_alpha 90.000000
_cell_angle_beta 90.000000
_cell_angle_gamma 90.000000
_cell_volume 3022.232958
_symmetry_space_group_name_H-M "A B A 2"
_symmetry_group_IT_number 41
_symmetry_cell_setting 'orthorhombic'
loop_
_space_group_symop_operation_xyz
x,y,z
-x,-y,z
1/2-x,y,1/2+z
1/2+x,-y,1/2+z
x,1/2+y,1/2+z
-x,1/2-y,1/2+z
1/2-x,1/2+y,z
1/2+x,1/2-y,z
loop_
_atom_site_type_symbol
_atom_site_label
_atom_site_fract_x
_atom_site_fract_y
_atom_site_fract_z
Si Si1 0.223282 0.596289 0.507550
Si Si2 0.198760 0.377915 0.399454
Si Si3 0.450578 0.896656 0.655953
Si Si4 0.409837 0.696845 0.428337
Si Si5 0.568651 0.593633 0.321968
Si Si6 0.000000 0.500000 0.434750
Si Si7 0.428941 0.749643 0.059171
Si Si8 0.273353 0.414483 0.563033
O O1 0.325673 0.608796 0.447052
O O2 0.094620 0.556142 0.483487
O O3 0.194543 0.700207 0.534221
O O4 0.283097 0.527270 0.567138
O O5 0.176111 0.269580 0.388567
O O6 0.292837 0.415936 0.342010
O O7 0.073853 0.430408 0.384467
O O8 0.239871 0.397801 0.480289
O O9 0.442412 0.877127 0.739926
O O10 0.531458 0.813848 0.625572
O O11 0.323134 0.882559 0.620253
O O12 0.500000 0.000000 0.639132
O O13 0.513763 0.671023 0.373610
O O14 0.469320 0.744305 0.498476
O O15 0.500000 0.500000 0.337503
O O16 0.392912 0.855487 0.080853
#
# Coordination Sequence:
#
# PCOD8184905 Si02
#       8
#     8   8   8   8   8   4   8   8
#     4  11  20  35  61  93 126 159 212 271 323 373
#     4  11  21  38  64  95 126 167 216 276 319 383
#     4  11  23  42  66  88 130 175 215 262 329 401
#     4  12  22  37  62 100 131 161 215 280 324 385
#     4  11  25  43  61  96 134 174 210 266 341 392
#     4  10  20  34  58  88 120 164 210 258 322 392
#     4  12  20  38  63  98 124 165 224 262 322 380
#     4  11  21  36  63  93 121 164 217 270 310 385
#
# _framework density 19.852869999999999
#
# number of rings (size 3 to 8) (size 9 to 14) (size 15 to 20)
#    0.000    0.800    6.667    2.400    0.933    1.067 
#    0.000    0.000    0.000    1.600    0.000    0.000 
#    0.000    0.000    0.000    0.000    0.000    0.000 
#
# Total GULP energy -371785.082917 kJ/mol
# GULP energy per Si atom -12392.836097 kJ/mol
# Density = 1.980768 g / cm^3
# Si number density = 19.852870 Si / 1000 Ang^3
#
#
#
# Elastic Constant Matrix: (Units=GPa)
#
#
# Indices 1 2 3 4 5 6 
#
# 1 100.0849 54.9598 47.2977 0.0000 0.0000 0.0000
# 2 54.9598 97.2697 35.4582 0.0000 0.0000 0.0000
# 3 47.2977 35.4582 96.1247 0.0000 0.0000 0.0000
# 4 0.0000 0.0000 0.0000 22.6637 0.0000 0.0000
# 5 0.0000 0.0000 0.0000 0.0000 25.9401 0.0000
# 6 0.0000 0.0000 0.0000 0.0000 0.0000 48.5778
#
#
#
# Elastic Compliance Matrix: (Units=1/GPa)
#
#
# Indices 1 2 3 4 5 6 
#
# 1 0.016640 -0.007414 -0.005453 0.000000 0.000000 0.000000
# 2 -0.007414 0.015181 -0.001952 0.000000 0.000000 0.000000
# 3 -0.005453 -0.001952 0.013806 0.000000 0.000000 0.000000
# 4 0.000000 0.000000 0.000000 0.044123 0.000000 0.000000
# 5 0.000000 0.000000 0.000000 0.000000 0.038550 0.000000
# 6 0.000000 0.000000 0.000000 0.000000 0.000000 0.020586
#
#
# Mechanical properties :
#
#
# Convention : Reuss Voigt Hill
#
# Bulk Modulus (GPa) = 62.53991 63.21233 62.87612
# Shear Modulus (GPa) = 27.19554 29.82056 28.50805
#
# Velocity S-wave (km/s) = 3.70517 3.87987 3.79353
# Velocity P-wave (km/s) = 7.06219 7.20976 7.13636
#
# Compressibility (1/GPa) = 0.01598979
#
# Stress axis : x y z
#
# Youngs Moduli (GPa) = 60.09761 65.86989 72.43180
#
# Poissons Ratio (x) = 0.48837 0.39494
# Poissons Ratio (y) = 0.44557 0.14139
# Poissons Ratio (z) = 0.32768 0.12858
#
# Static dielectric constant tensor:
#      x y z
#    x 3.708900 0.000000 0.000000 
#    y 0.000000 4.170630 0.000000 
#    z 0.000000 0.000000 3.267980 
# 
# 
# High freq. dielectric constant tensor:
#      x y z
#    x 1.780930 0.000000 0.000000 
#    y 0.000000 1.792950 0.000000 
#    z 0.000000 0.000000 1.727030 
# 
# From -- ./inp_files/10094.got.cif
#   From: 2010.03.12/outbox.cif.g09.slc.cpg/sg41_6_cif.got.tgz:10094.got - 2010.04.14 01:55:53.
