data_PCOD8184265
_publ_section_title
;
Structure prediction by ZEFSAII (Michael W. Deem and Ramdas Pophale) SiO2 
 PCOD8184265
Probable space group: A M A 2
;
_chemical_formula_sum "Si O2"
_cell_formula_units_Z 48
_cell_length_a 10.054736
_cell_length_b 8.707629
_cell_length_c 28.034800
_cell_angle_alpha 90.000000
_cell_angle_beta 90.000000
_cell_angle_gamma 90.000000
_cell_volume 2454.528343
_symmetry_space_group_name_H-M "A M A 2"
_symmetry_group_IT_number 40
_symmetry_cell_setting 'orthorhombic'
loop_
_space_group_symop_operation_xyz
x,y,z
-x,-y,z
1/2-x,y,z
1/2+x,-y,z
x,1/2+y,1/2+z
-x,1/2-y,1/2+z
1/2-x,1/2+y,1/2+z
1/2+x,1/2-y,1/2+z
loop_
_atom_site_type_symbol
_atom_site_label
_atom_site_fract_x
_atom_site_fract_y
_atom_site_fract_z
Si Si1 0.250000 0.809871 0.411330
Si Si2 0.097746 0.643714 0.670478
Si Si3 0.511074 0.816850 0.967368
Si Si4 0.250000 0.835803 0.299145
Si Si5 0.250000 0.688353 0.816297
Si Si6 0.988045 0.180697 0.760445
Si Si7 0.401175 0.140239 0.065677
Si Si8 0.250000 0.662173 0.928224
O O1 0.381127 0.723391 0.427888
O O2 0.250000 0.798518 0.354726
O O3 0.250000 0.979494 0.433550
O O4 0.250000 0.588063 0.679049
O O5 0.059750 0.774637 0.707757
O O6 0.085592 0.721187 0.617562
O O7 0.000000 0.500000 0.677135
O O8 0.375785 0.733568 0.954355
O O9 0.500000 0.000000 0.968382
O O10 0.556671 0.755992 0.020088
O O11 0.376283 0.765828 0.272879
O O12 0.250000 0.018946 0.293601
O O13 0.118562 0.773901 0.799903
O O14 0.250000 0.699724 0.872809
O O15 0.000000 0.000000 0.762065
O O16 0.250000 0.082365 0.057709
O O17 0.500000 0.000000 0.067566
#
# Coordination Sequence:
#
# PCOD8184265 Si02
#       8
#     4   8   8   4   4   8   8   4
#     4  11  23  43  60  89 124 163 202 253 300 363
#     4  10  21  40  66  92 121 161 206 247 296 369
#     4  11  22  38  63  93 122 158 204 250 302 356
#     4  11  25  41  66  85 120 165 212 243 294 369
#     4  11  23  45  62  85 118 167 212 245 292 369
#     4  12  25  40  61  94 126 155 195 259 315 356
#     4   9  19  36  62  92 122 157 204 253 294 356
#     4  11  25  39  62  89 124 161 204 251 304 359
#
# _framework density 19.555692000000001
#
# number of rings (size 3 to 8) (size 9 to 14) (size 15 to 20)
#    0.000    1.333    1.667    4.000    4.667    6.667 
#    0.000    1.667    0.000    0.000    0.000    0.000 
#    0.000    0.000    0.000    0.000    0.000    0.000 
#
# Total GULP energy -297546.885296 kJ/mol
# GULP energy per Si atom -12397.786887 kJ/mol
# Density = 1.951118 g / cm^3
# Si number density = 19.555692 Si / 1000 Ang^3
#
#
#
# Elastic Constant Matrix: (Units=GPa)
#
#
# Indices 1 2 3 4 5 6 
#
# 1 173.2738 48.9561 61.6949 0.0000 0.0000 0.0000
# 2 48.9561 100.7654 56.5913 0.0000 0.0000 0.0000
# 3 61.6949 56.5913 121.8165 0.0000 0.0000 0.0000
# 4 0.0000 0.0000 0.0000 20.9547 0.0000 0.0000
# 5 0.0000 0.0000 0.0000 0.0000 39.3656 0.0000
# 6 0.0000 0.0000 0.0000 0.0000 0.0000 31.8907
#
#
#
# Elastic Compliance Matrix: (Units=1/GPa)
#
#
# Indices 1 2 3 4 5 6 
#
# 1 0.007326 -0.001996 -0.002783 0.000000 0.000000 0.000000
# 2 -0.001996 0.013971 -0.005479 0.000000 0.000000 0.000000
# 3 -0.002783 -0.005479 0.012164 0.000000 0.000000 0.000000
# 4 0.000000 0.000000 0.000000 0.047722 0.000000 0.000000
# 5 0.000000 0.000000 0.000000 0.000000 0.025403 0.000000
# 6 0.000000 0.000000 0.000000 0.000000 0.000000 0.031357
#
#
# Mechanical properties :
#
#
# Convention : Reuss Voigt Hill
#
# Bulk Modulus (GPa) = 77.25623 81.14891 79.20257
# Shear Modulus (GPa) = 30.71710 33.68308 32.20009
#
# Velocity S-wave (km/s) = 3.96757 4.15471 4.06221
# Velocity P-wave (km/s) = 7.78334 8.03753 7.91145
#
# Compressibility (1/GPa) = 0.01294394
#
# Stress axis : x y z
#
# Youngs Moduli (GPa) = 136.49744 71.57516 82.20951
#
# Poissons Ratio (x) = 0.14289 0.22878
# Poissons Ratio (y) = 0.27251 0.45046
# Poissons Ratio (z) = 0.37986 0.39219
#
# Static dielectric constant tensor:
#      x y z
#    x 3.799830 0.000000 0.000000 
#    y 0.000000 3.375520 0.000000 
#    z 0.000000 0.000000 4.253940 
# 
# 
# High freq. dielectric constant tensor:
#      x y z
#    x 1.787040 0.000000 0.000000 
#    y 0.000000 1.732360 0.000000 
#    z 0.000000 0.000000 1.789440 
# 
# From -- ./inp_files/26216.got.cif
#   From: 2010.03.12/outbox.cif.g09.slc.cpg/sg40_14_cif.got.tgz:26216.got - 2010.04.14 01:38:03.
