data_PCOD8184894
_publ_section_title
;
Structure prediction by ZEFSAII (Michael W. Deem and Ramdas Pophale) SiO2 
 PCOD8184894
Probable space group: A B A 2
;
_chemical_formula_sum "Si O2"
_cell_formula_units_Z 64
_cell_length_a 12.219378
_cell_length_b 11.947313
_cell_length_c 22.354328
_cell_angle_alpha 90.000000
_cell_angle_beta 90.000000
_cell_angle_gamma 90.000000
_cell_volume 3263.480036
_symmetry_space_group_name_H-M "A B A 2"
_symmetry_group_IT_number 41
_symmetry_cell_setting 'orthorhombic'
loop_
_space_group_symop_operation_xyz
x,y,z
-x,-y,z
1/2-x,y,1/2+z
1/2+x,-y,1/2+z
x,1/2+y,1/2+z
-x,1/2-y,1/2+z
1/2-x,1/2+y,z
1/2+x,1/2-y,z
loop_
_atom_site_type_symbol
_atom_site_label
_atom_site_fract_x
_atom_site_fract_y
_atom_site_fract_z
Si Si1 0.468131 0.824275 0.321220
Si Si2 0.265957 0.437002 0.609653
Si Si3 0.907851 0.749965 0.609653
Si Si4 0.589931 0.216251 0.189343
Si Si5 0.672722 0.965163 0.322745
Si Si6 0.105057 0.073056 0.514828
Si Si7 0.269242 0.610879 0.696746
Si Si8 0.902403 0.409946 0.880219
O O1 0.475801 0.818981 0.248821
O O2 0.586539 0.869529 0.344234
O O3 0.444602 0.706209 0.352281
O O4 0.373247 0.912197 0.339585
O O5 0.177794 0.344803 0.592336
O O6 0.367447 0.386174 0.647952
O O7 0.302977 0.500042 0.549031
O O8 0.205432 0.524228 0.653536
O O9 0.929348 0.812939 0.547711
O O10 0.867754 0.841254 0.657437
O O11 0.017733 0.707445 0.643076
O O12 0.689167 0.289497 0.215873
O O13 0.682194 0.957364 0.251587
O O14 0.794147 0.952228 0.347447
O O15 0.139857 0.107064 0.447953
O O16 0.000000 0.000000 0.507542
O O17 0.000000 0.500000 0.872748
#
# Coordination Sequence:
#
# PCOD8184894 Si02
#       8
#     8   8   8   8   8   8   8   8
#     4  11  24  40  66  99 133 174 220 269 337 400
#     4  10  21  36  60  92 122 156 205 255 316 382
#     4  10  21  35  61  90 121 159 202 262 318 376
#     4  11  19  34  61  93 127 159 197 264 319 386
#     4  11  23  41  65  94 133 176 218 271 325 399
#     4  10  21  43  65  85 117 169 219 255 310 390
#     4  10  20  33  57  94 125 158 201 250 325 386
#     4  11  27  44  65  94 131 181 222 276 328 388
#
# _framework density 19.610966999999999
#
# number of rings (size 3 to 8) (size 9 to 14) (size 15 to 20)
#    0.000    1.500    5.000    0.000    1.750    2.500 
#    2.250    0.000    0.000    0.000    0.000    0.000 
#    0.000    0.000    0.000    0.000    0.000    0.000 
#
# Total GULP energy -396571.277879 kJ/mol
# GULP energy per Si atom -12392.852434 kJ/mol
# Density = 1.956633 g / cm^3
# Si number density = 19.610967 Si / 1000 Ang^3
#
#
#
# Elastic Constant Matrix: (Units=GPa)
#
#
# Indices 1 2 3 4 5 6 
#
# 1 84.2690 33.0673 33.0851 0.0000 0.0000 0.0000
# 2 33.0673 98.9681 48.1826 0.0000 0.0000 0.0000
# 3 33.0851 48.1826 103.6201 0.0000 0.0000 0.0000
# 4 0.0000 0.0000 0.0000 32.4129 0.0000 0.0000
# 5 0.0000 0.0000 0.0000 0.0000 -433.4926 0.0000
# 6 0.0000 0.0000 0.0000 0.0000 0.0000 24.8924
#
#
#
# Elastic Compliance Matrix: (Units=1/GPa)
#
#
# Indices 1 2 3 4 5 6 
#
# 1 0.014363 -0.003317 -0.003044 0.000000 0.000000 0.000000
# 2 -0.003317 0.013827 -0.005370 0.000000 0.000000 0.000000
# 3 -0.003044 -0.005370 0.013120 0.000000 0.000000 0.000000
# 4 0.000000 0.000000 0.000000 0.030852 0.000000 0.000000
# 5 0.000000 0.000000 0.000000 0.000000 -0.002307 0.000000
# 6 0.000000 0.000000 0.000000 0.000000 0.000000 0.040173
#
#
# Mechanical properties :
#
#
# Convention : Reuss Voigt Hill
#
# Bulk Modulus (GPa) = 56.02971 57.28081 56.65526
# Shear Modulus (GPa) = 35.85769 -63.73598 -13.93915
#
# Velocity S-wave (km/s) = 4.28068 -5.70708 -2.66894
# Velocity P-wave (km/s) = 7.28457 3.76240 4.41074
#
# Compressibility (1/GPa) = 0.01784767
#
# Stress axis : x y z
#
# Youngs Moduli (GPa) = 69.62118 72.32109 76.22180
#
# Poissons Ratio (x) = 0.23991 0.23199
# Poissons Ratio (y) = 0.23096 0.40934
# Poissons Ratio (z) = 0.21190 0.38839
#
# Static dielectric constant tensor:
#      x y z
#    x 5.649550 0.000000 0.000000 
#    y 0.000000 3.041770 0.000000 
#    z 0.000000 0.000000 3.720780 
# 
# 
# High freq. dielectric constant tensor:
#      x y z
#    x 1.761780 0.000000 0.000000 
#    y 0.000000 1.765720 0.000000 
#    z 0.000000 0.000000 1.757090 
# 
# From -- ./inp_files/12144.got.cif
#   From: 2010.03.12/outbox.cif.g09.slc.cpg/sg41_7_cif.got.tgz:12144.got - 2010.04.14 01:55:53.
