data_PCOD8184819
_publ_section_title
;
Structure prediction by ZEFSAII (Michael W. Deem and Ramdas Pophale) SiO2 
 PCOD8184819
Probable space group: A B A 2
;
_chemical_formula_sum "Si O2"
_cell_formula_units_Z 64
_cell_length_a 15.546807
_cell_length_b 21.559282
_cell_length_c 10.240973
_cell_angle_alpha 90.000000
_cell_angle_beta 90.000000
_cell_angle_gamma 90.000000
_cell_volume 3432.548810
_symmetry_space_group_name_H-M "A B A 2"
_symmetry_group_IT_number 41
_symmetry_cell_setting 'orthorhombic'
loop_
_space_group_symop_operation_xyz
x,y,z
-x,-y,z
1/2-x,y,1/2+z
1/2+x,-y,1/2+z
x,1/2+y,1/2+z
-x,1/2-y,1/2+z
1/2-x,1/2+y,z
1/2+x,1/2-y,z
loop_
_atom_site_type_symbol
_atom_site_label
_atom_site_fract_x
_atom_site_fract_y
_atom_site_fract_z
Si Si1 0.983298 0.433847 0.155870
Si Si2 0.674216 0.371943 0.971276
Si Si3 0.807017 0.880253 0.680464
Si Si4 0.003916 0.930916 0.961480
Si Si5 0.109328 0.245496 0.690674
Si Si6 0.069370 0.315005 0.180537
Si Si7 0.140085 0.829981 0.959594
Si Si8 0.820614 0.227770 0.452604
O O1 0.889180 0.412096 0.112760
O O2 0.990062 0.440365 0.310023
O O3 0.000000 0.500000 0.086910
O O4 0.055798 0.383445 0.117512
O O5 0.701265 0.402848 0.831733
O O6 0.574306 0.385879 0.007245
O O7 0.701166 0.300462 0.951839
O O8 0.726196 0.401055 0.092911
O O9 0.816592 0.805755 0.670226
O O10 0.097099 0.897752 0.988365
O O11 0.000000 0.000000 0.027810
O O12 0.092933 0.283566 0.558973
O O13 0.137465 0.289639 0.812018
O O14 0.021970 0.210743 0.729419
O O15 0.128023 0.312521 0.308831
O O16 0.111060 0.274968 0.068411
O O17 0.242493 0.820371 0.983715
#
# Coordination Sequence:
#
# PCOD8184819 Si02
#       8
#     8   8   8   8   8   8   8   8
#     4   8  16  34  55  74 101 138 188 218 259 328
#     4  10  19  34  55  79 107 138 183 218 277 328
#     4   9  18  31  53  80 103 137 173 224 267 328
#     4   9  19  37  57  76 103 150 192 222 262 335
#     4  10  19  34  51  80 113 139 173 216 281 341
#     4  10  20  33  54  79 105 146 179 215 276 326
#     4  11  20  34  54  80 107 142 182 228 271 319
#     4  11  21  33  52  84 116 138 172 227 279 329
#
# _framework density 18.645038
#
# number of rings (size 3 to 8) (size 9 to 14) (size 15 to 20)
#    0.000    2.250    1.250    4.500    1.750    0.000 
#    2.250    0.000    2.750    1.500    0.000    0.000 
#    0.000    0.000    0.000    0.000    0.000    0.000 
#
# Total GULP energy -396426.609693 kJ/mol
# GULP energy per Si atom -12388.331553 kJ/mol
# Density = 1.860260 g / cm^3
# Si number density = 18.645038 Si / 1000 Ang^3
#
#
#
# Elastic Constant Matrix: (Units=GPa)
#
#
# Indices 1 2 3 4 5 6 
#
# 1 86.8640 31.0240 28.6142 0.0000 0.0000 0.0000
# 2 31.0240 79.8605 22.2185 0.0000 0.0000 0.0000
# 3 28.6142 22.2185 72.9449 0.0000 0.0000 0.0000
# 4 0.0000 0.0000 0.0000 10.6841 0.0000 0.0000
# 5 0.0000 0.0000 0.0000 0.0000 26.7154 0.0000
# 6 0.0000 0.0000 0.0000 0.0000 0.0000 21.7150
#
#
#
# Elastic Compliance Matrix: (Units=1/GPa)
#
#
# Indices 1 2 3 4 5 6 
#
# 1 0.014528 -0.004434 -0.004348 0.000000 0.000000 0.000000
# 2 -0.004434 0.015035 -0.002840 0.000000 0.000000 0.000000
# 3 -0.004348 -0.002840 0.016280 0.000000 0.000000 0.000000
# 4 0.000000 0.000000 0.000000 0.093597 0.000000 0.000000
# 5 0.000000 0.000000 0.000000 0.000000 0.037432 0.000000
# 6 0.000000 0.000000 0.000000 0.000000 0.000000 0.046051
#
#
# Mechanical properties :
#
#
# Convention : Reuss Voigt Hill
#
# Bulk Modulus (GPa) = 44.25275 44.82032 44.53653
# Shear Modulus (GPa) = 19.70827 22.34373 21.02600
#
# Velocity S-wave (km/s) = 3.25472 3.46551 3.36177
# Velocity P-wave (km/s) = 6.15712 6.33277 6.24556
#
# Compressibility (1/GPa) = 0.02259747
#
# Stress axis : x y z
#
# Youngs Moduli (GPa) = 68.83082 66.51353 61.42579
#
# Poissons Ratio (x) = 0.29493 0.26711
# Poissons Ratio (y) = 0.30520 0.17445
# Poissons Ratio (z) = 0.29931 0.18890
#
# Static dielectric constant tensor:
#      x y z
#    x 3.368910 0.000000 0.000000 
#    y 0.000000 3.689560 0.000000 
#    z 0.000000 0.000000 3.312030 
# 
# 
# High freq. dielectric constant tensor:
#      x y z
#    x 1.720480 0.000000 0.000000 
#    y 0.000000 1.699000 0.000000 
#    z 0.000000 0.000000 1.708080 
# 
# From -- ./inp_files/5731.got.cif
#   From: 2010.03.12/outbox.cif.g09.slc.cpg/sg41_3_cif.got.tgz:5731.got - 2010.04.14 01:55:53.
