data_PCOD8184543
_publ_section_title
;
Structure prediction by ZEFSAII (Michael W. Deem and Ramdas Pophale) SiO2 
 PCOD8184543
Probable space group: A M A 2
;
_chemical_formula_sum "Si O2"
_cell_formula_units_Z 36
_cell_length_a 10.122362
_cell_length_b 21.489701
_cell_length_c 7.410121
_cell_angle_alpha 90.000000
_cell_angle_beta 90.000000
_cell_angle_gamma 90.000000
_cell_volume 1611.897929
_symmetry_space_group_name_H-M "A M A 2"
_symmetry_group_IT_number 40
_symmetry_cell_setting 'orthorhombic'
loop_
_space_group_symop_operation_xyz
x,y,z
-x,-y,z
1/2-x,y,z
1/2+x,-y,z
x,1/2+y,1/2+z
-x,1/2-y,1/2+z
1/2-x,1/2+y,1/2+z
1/2+x,1/2-y,1/2+z
loop_
_atom_site_type_symbol
_atom_site_label
_atom_site_fract_x
_atom_site_fract_y
_atom_site_fract_z
Si Si1 0.750000 0.256173 0.886250
Si Si2 0.458006 0.649481 0.016519
Si Si3 0.250000 0.851006 0.142322
Si Si4 0.510182 0.429732 0.688111
Si Si5 0.893967 0.448046 0.300619
Si Si6 0.250000 0.806250 0.522344
O O1 0.617190 0.286276 0.970606
O O2 0.750000 0.252588 0.663646
O O3 0.750000 0.184748 0.952175
O O4 0.418269 0.606958 0.847020
O O5 0.614043 0.656483 0.055185
O O6 0.402973 0.616316 0.193000
O O7 0.371242 0.897678 0.149864
O O8 0.250000 0.797583 0.302841
O O9 0.500000 0.500000 0.758366
O O10 0.595971 0.428473 0.508110
O O11 0.750000 0.478181 0.269100
O O12 0.000000 0.500000 0.241587
#
# Coordination Sequence:
#
# PCOD8184543 Si02
#       6
#     4   8   4   8   8   4
#     4  12  26  43  72 100 142 183 240 287 349 426
#     4  11  25  46  69 102 137 187 238 293 349 427
#     4  10  24  47  68 104 138 183 228 289 359 422
#     4  10  24  43  74  99 138 180 235 291 356 417
#     4  11  25  42  68 104 142 184 234 294 359 424
#     4  10  26  44  68  94 136 186 226 290 350 412
#
# _framework density 22.333922999999999
#
# number of rings (size 3 to 8) (size 9 to 14) (size 15 to 20)
#    0.000    1.333    1.111    2.000   15.556    1.778 
#    4.000    0.000    0.000    0.000    0.000    0.000 
#    0.000    0.000    0.000    0.000    0.000    0.000 
#
# Total GULP energy -223050.992833 kJ/mol
# GULP energy per Si atom -12391.721824 kJ/mol
# Density = 2.228309 g / cm^3
# Si number density = 22.333923 Si / 1000 Ang^3
#
#
#
# Elastic Constant Matrix: (Units=GPa)
#
#
# Indices 1 2 3 4 5 6 
#
# 1 156.6510 40.9029 27.1916 0.0000 0.0000 0.0000
# 2 40.9029 108.2714 32.6248 0.0000 0.0000 0.0000
# 3 27.1916 32.6248 60.6798 0.0000 0.0000 0.0000
# 4 0.0000 0.0000 0.0000 50.5871 0.0000 0.0000
# 5 0.0000 0.0000 0.0000 0.0000 16.9774 0.0000
# 6 0.0000 0.0000 0.0000 0.0000 0.0000 38.3533
#
#
#
# Elastic Compliance Matrix: (Units=1/GPa)
#
#
# Indices 1 2 3 4 5 6 
#
# 1 0.007307 -0.002117 -0.002136 0.000000 0.000000 0.000000
# 2 -0.002117 0.011635 -0.005307 0.000000 0.000000 0.000000
# 3 -0.002136 -0.005307 0.020291 0.000000 0.000000 0.000000
# 4 0.000000 0.000000 0.000000 0.019768 0.000000 0.000000
# 5 0.000000 0.000000 0.000000 0.000000 0.058902 0.000000
# 6 0.000000 0.000000 0.000000 0.000000 0.000000 0.026073
#
#
# Mechanical properties :
#
#
# Convention : Reuss Voigt Hill
#
# Bulk Modulus (GPa) = 49.72056 58.56007 54.14032
# Shear Modulus (GPa) = 29.44637 36.17574 32.81105
#
# Velocity S-wave (km/s) = 3.63500 4.02900 3.83706
# Velocity P-wave (km/s) = 6.31888 6.92249 6.62756
#
# Compressibility (1/GPa) = 0.02011240
#
# Stress axis : x y z
#
# Youngs Moduli (GPa) = 136.85219 85.94873 49.28386
#
# Poissons Ratio (x) = 0.18193 0.10529
# Poissons Ratio (y) = 0.28968 0.26155
# Poissons Ratio (z) = 0.29237 0.45613
#
# Static dielectric constant tensor:
#      x y z
#    x 4.009970 0.000000 0.000000 
#    y 0.000000 3.855680 0.000000 
#    z 0.000000 0.000000 4.336180 
# 
# 
# High freq. dielectric constant tensor:
#      x y z
#    x 1.891400 0.000000 0.000000 
#    y 0.000000 1.862640 0.000000 
#    z 0.000000 0.000000 1.895580 
# 
# From -- ./inp_files/4150.got.cif
#   From: 2010.03.12/outbox.cif.g09.slc.cpg/sg40_3_cif.got.tgz:4150.got - 2010.04.14 01:38:03.
