data_PCOD8184088
_publ_section_title
;
Structure prediction by ZEFSAII (Michael W. Deem and Ramdas Pophale) SiO2 
 PCOD8184088
Probable space group: A M A 2
;
_chemical_formula_sum "Si O2"
_cell_formula_units_Z 64
_cell_length_a 15.749699
_cell_length_b 9.123349
_cell_length_c 21.150588
_cell_angle_alpha 90.000000
_cell_angle_beta 90.000000
_cell_angle_gamma 90.000000
_cell_volume 3039.128003
_symmetry_space_group_name_H-M "A M A 2"
_symmetry_group_IT_number 40
_symmetry_cell_setting 'orthorhombic'
loop_
_space_group_symop_operation_xyz
x,y,z
-x,-y,z
1/2-x,y,z
1/2+x,-y,z
x,1/2+y,1/2+z
-x,1/2-y,1/2+z
1/2-x,1/2+y,1/2+z
1/2+x,1/2-y,1/2+z
loop_
_atom_site_type_symbol
_atom_site_label
_atom_site_fract_x
_atom_site_fract_y
_atom_site_fract_z
Si Si1 0.092637 0.844269 0.637560
Si Si2 0.593973 0.740347 0.652916
Si Si3 0.845269 0.924959 0.545306
Si Si4 0.081472 0.095239 0.979151
Si Si5 0.155628 0.554626 0.613696
Si Si6 0.532944 0.342292 0.931146
Si Si7 0.150243 0.547166 0.245689
Si Si8 0.651705 0.605211 0.374677
O O1 0.149222 0.702390 0.654841
O O2 0.995867 0.798776 0.629095
O O3 0.122083 0.919991 0.572323
O O4 0.099516 0.950100 0.696285
O O5 0.659939 0.807574 0.602291
O O6 0.594901 0.565303 0.645965
O O7 0.619663 0.788072 0.725248
O O8 0.750000 0.943017 0.517744
O O9 0.907220 0.868109 0.491073
O O10 0.051639 0.251306 0.950375
O O11 0.143274 0.006395 0.932667
O O12 0.130174 0.111819 0.044492
O O13 0.000000 0.000000 0.993817
O O14 0.250000 0.490701 0.614074
O O15 0.500000 0.500000 0.903558
O O16 0.589519 0.247289 0.880910
O O17 0.250000 0.531793 0.236531
O O18 0.122711 0.493839 0.314856
O O19 0.750000 0.656962 0.369133
#
# Coordination Sequence:
#
# PCOD8184088 Si02
#       8
#     8   8   8   8   8   8   8   8
#     4  11  22  36  56  84 119 152 186 231 289 350
#     4  11  21  34  56  85 114 148 193 239 284 339
#     4  11  20  34  56  83 117 155 193 230 284 350
#     4  10  21  36  58  85 117 155 197 242 294 353
#     4  12  22  35  55  84 121 152 186 233 291 346
#     4  11  22  37  59  89 122 156 199 249 298 353
#     4  10  21  40  62  82 107 146 195 238 283 345
#     4  10  22  42  64  84 113 156 202 246 297 356
#
# _framework density 21.058672000000001
#
# number of rings (size 3 to 8) (size 9 to 14) (size 15 to 20)
#    0.000    1.250    0.000   10.125    0.000    3.000 
#    0.000    4.375    0.000    3.000    0.000    0.000 
#    0.000    0.000    0.000    0.000    0.000    0.000 
#
# Total GULP energy -396667.113817 kJ/mol
# GULP energy per Si atom -12395.847307 kJ/mol
# Density = 2.101074 g / cm^3
# Si number density = 21.058672 Si / 1000 Ang^3
#
#
#
# Elastic Constant Matrix: (Units=GPa)
#
#
# Indices 1 2 3 4 5 6 
#
# 1 87.5363 24.2557 17.1544 0.0000 0.0000 0.0000
# 2 24.2557 127.6882 25.4790 0.0000 0.0000 0.0000
# 3 17.1544 25.4790 73.0553 0.0000 0.0000 0.0000
# 4 0.0000 0.0000 0.0000 22.6386 0.0000 0.0000
# 5 0.0000 0.0000 0.0000 0.0000 25.8784 0.0000
# 6 0.0000 0.0000 0.0000 0.0000 0.0000 28.4605
#
#
#
# Elastic Compliance Matrix: (Units=1/GPa)
#
#
# Indices 1 2 3 4 5 6 
#
# 1 0.012392 -0.001906 -0.002245 0.000000 0.000000 0.000000
# 2 -0.001906 0.008711 -0.002590 0.000000 0.000000 0.000000
# 3 -0.002245 -0.002590 0.015119 0.000000 0.000000 0.000000
# 4 0.000000 0.000000 0.000000 0.044172 0.000000 0.000000
# 5 0.000000 0.000000 0.000000 0.000000 0.038642 0.000000
# 6 0.000000 0.000000 0.000000 0.000000 0.000000 0.035136
#
#
# Mechanical properties :
#
#
# Convention : Reuss Voigt Hill
#
# Bulk Modulus (GPa) = 43.97829 46.89533 45.43681
# Shear Modulus (GPa) = 28.53315 30.15486 29.34401
#
# Velocity S-wave (km/s) = 3.68494 3.78821 3.73693
# Velocity P-wave (km/s) = 6.24772 6.43827 6.34371
#
# Compressibility (1/GPa) = 0.02273849
#
# Stress axis : x y z
#
# Youngs Moduli (GPa) = 80.69769 114.80366 66.14256
#
# Poissons Ratio (x) = 0.21882 0.14849
# Poissons Ratio (y) = 0.15381 0.17133
# Poissons Ratio (z) = 0.18117 0.29738
#
# Static dielectric constant tensor:
#      x y z
#    x 3.887590 0.000000 0.000000 
#    y 0.000000 4.175430 0.000000 
#    z 0.000000 0.000000 3.687400 
# 
# 
# High freq. dielectric constant tensor:
#      x y z
#    x 1.837030 0.000000 0.000000 
#    y 0.000000 1.833130 0.000000 
#    z 0.000000 0.000000 1.791580 
# 
# From -- ./inp_files/24800.got.cif
#   From: 2010.03.12/outbox.cif.g09.slc.cpg/sg40_13_cif.got.tgz:24800.got - 2010.04.14 01:38:03.
