data_PCOD8184133
_publ_section_title
;
Structure prediction by ZEFSAII (Michael W. Deem and Ramdas Pophale) SiO2 
 PCOD8184133
Probable space group: A M A 2
;
_chemical_formula_sum "Si O2"
_cell_formula_units_Z 64
_cell_length_a 8.777118
_cell_length_b 15.373313
_cell_length_c 23.481900
_cell_angle_alpha 90.000000
_cell_angle_beta 90.000000
_cell_angle_gamma 90.000000
_cell_volume 3168.492189
_symmetry_space_group_name_H-M "A M A 2"
_symmetry_group_IT_number 40
_symmetry_cell_setting 'orthorhombic'
loop_
_space_group_symop_operation_xyz
x,y,z
-x,-y,z
1/2-x,y,z
1/2+x,-y,z
x,1/2+y,1/2+z
-x,1/2-y,1/2+z
1/2-x,1/2+y,1/2+z
1/2+x,1/2-y,1/2+z
loop_
_atom_site_type_symbol
_atom_site_label
_atom_site_fract_x
_atom_site_fract_y
_atom_site_fract_z
Si Si1 0.428971 0.911842 0.520170
Si Si2 0.572391 0.257781 0.591302
Si Si3 0.071109 0.087612 0.009113
Si Si4 0.570887 0.152412 0.897028
Si Si5 0.070975 0.750959 0.211185
Si Si6 0.070152 0.908516 0.773063
Si Si7 0.070053 0.647622 0.903217
Si Si8 0.069923 0.411673 0.788124
O O1 0.250000 0.921265 0.508652
O O2 0.463421 0.836212 0.565117
O O3 0.513796 0.894044 0.461338
O O4 0.500000 0.000000 0.546335
O O5 0.750000 0.267755 0.606526
O O6 0.518664 0.330139 0.546174
O O7 0.471121 0.272692 0.646628
O O8 0.250000 0.077937 0.008771
O O9 0.000000 0.000000 0.035693
O O10 0.014739 0.097637 0.944673
O O11 0.750000 0.141292 0.905795
O O12 0.515499 0.116033 0.836423
O O13 0.520214 0.252170 0.901408
O O14 0.250000 0.736651 0.217519
O O15 0.013719 0.830543 0.250302
O O16 0.985513 0.663635 0.229021
O O17 0.250000 0.914370 0.769201
O O18 0.000000 0.000000 0.754426
O O19 0.250000 0.636196 0.897026
O O20 0.989189 0.597824 0.852121
O O21 0.250000 0.419120 0.787811
O O22 0.000000 0.500000 0.761740
#
# Coordination Sequence:
#
# PCOD8184133 Si02
#       8
#     8   8   8   8   8   8   8   8
#     4  11  23  41  63  92 124 161 203 248 304 362
#     4  10  24  44  64  86 120 163 206 254 307 361
#     4  11  23  40  63  92 125 163 203 250 305 362
#     4  10  21  37  62  94 125 162 201 245 304 364
#     4  11  25  43  65  91 120 160 208 258 309 360
#     4  11  23  41  64  93 127 163 204 250 304 365
#     4  11  21  37  63  94 126 162 200 246 304 364
#     4  11  24  41  63  92 125 162 204 251 305 366
#
# _framework density 20.198882000000001
#
# number of rings (size 3 to 8) (size 9 to 14) (size 15 to 20)
#    0.000    1.250    2.500    3.000    0.000    7.000 
#    0.000    3.750    0.000    0.000    0.000    0.000 
#    0.000    0.000    0.000    0.000    0.000    0.000 
#
# Total GULP energy -397032.967869 kJ/mol
# GULP energy per Si atom -12407.280246 kJ/mol
# Density = 2.015291 g / cm^3
# Si number density = 20.198882 Si / 1000 Ang^3
#
#
#
# Elastic Constant Matrix: (Units=GPa)
#
#
# Indices 1 2 3 4 5 6 
#
# 1 60.2034 37.3905 22.5896 0.0000 0.0000 0.0000
# 2 37.3905 133.8520 19.5452 0.0000 0.0000 0.0000
# 3 22.5896 19.5452 80.5943 0.0000 0.0000 0.0000
# 4 0.0000 0.0000 0.0000 12.4895 0.0000 0.0000
# 5 0.0000 0.0000 0.0000 0.0000 34.6590 0.0000
# 6 0.0000 0.0000 0.0000 0.0000 0.0000 35.5957
#
#
#
# Elastic Compliance Matrix: (Units=1/GPa)
#
#
# Indices 1 2 3 4 5 6 
#
# 1 0.021747 -0.005375 -0.004792 0.000000 0.000000 0.000000
# 2 -0.005375 0.009074 -0.000694 0.000000 0.000000 0.000000
# 3 -0.004792 -0.000694 0.013919 0.000000 0.000000 0.000000
# 4 0.000000 0.000000 0.000000 0.080067 0.000000 0.000000
# 5 0.000000 0.000000 0.000000 0.000000 0.028853 0.000000
# 6 0.000000 0.000000 0.000000 0.000000 0.000000 0.028093
#
#
# Mechanical properties :
#
#
# Convention : Reuss Voigt Hill
#
# Bulk Modulus (GPa) = 43.44428 48.18893 45.81661
# Shear Modulus (GPa) = 23.68024 29.55716 26.61870
#
# Velocity S-wave (km/s) = 3.42768 3.82947 3.63413
# Velocity P-wave (km/s) = 6.10084 6.59258 6.35147
#
# Compressibility (1/GPa) = 0.02301799
#
# Stress axis : x y z
#
# Youngs Moduli (GPa) = 45.98423 110.20818 71.84320
#
# Poissons Ratio (x) = 0.59237 0.34426
# Poissons Ratio (y) = 0.24717 0.04986
# Poissons Ratio (z) = 0.22035 0.07648
#
# Static dielectric constant tensor:
#      x y z
#    x 3.625950 0.000000 0.000000 
#    y 0.000000 3.926340 0.000000 
#    z 0.000000 0.000000 3.564430 
# 
# 
# High freq. dielectric constant tensor:
#      x y z
#    x 1.793700 0.000000 0.000000 
#    y 0.000000 1.809320 0.000000 
#    z 0.000000 0.000000 1.782500 
# 
# From -- ./inp_files/24224.got.cif
#   From: 2010.03.12/outbox.cif.g09.slc.cpg/sg40_13_cif.got.tgz:24224.got - 2010.04.14 01:38:03.
