data_PCOD8184740
_publ_section_title
;
Structure prediction by ZEFSAII (Michael W. Deem and Ramdas Pophale) SiO2 
 PCOD8184740
Probable space group: A B A 2
;
_chemical_formula_sum "Si O2"
_cell_formula_units_Z 64
_cell_length_a 8.947936
_cell_length_b 15.016220
_cell_length_c 21.026314
_cell_angle_alpha 90.000000
_cell_angle_beta 90.000000
_cell_angle_gamma 90.000000
_cell_volume 2825.183345
_symmetry_space_group_name_H-M "A B A 2"
_symmetry_group_IT_number 41
_symmetry_cell_setting 'orthorhombic'
loop_
_space_group_symop_operation_xyz
x,y,z
-x,-y,z
1/2-x,y,1/2+z
1/2+x,-y,1/2+z
x,1/2+y,1/2+z
-x,1/2-y,1/2+z
1/2-x,1/2+y,z
1/2+x,1/2-y,z
loop_
_atom_site_type_symbol
_atom_site_label
_atom_site_fract_x
_atom_site_fract_y
_atom_site_fract_z
Si Si1 0.864336 0.114083 0.271970
Si Si2 0.096780 0.745374 0.905969
Si Si3 0.594884 0.578930 0.405621
Si Si4 0.677237 0.358424 0.091701
Si Si5 0.648372 0.190762 0.544578
Si Si6 0.147670 0.202411 0.814779
Si Si7 0.305888 0.072237 0.733359
Si Si8 0.670363 0.023806 0.037977
O O1 0.805772 0.109401 0.345763
O O2 0.829922 0.218663 0.260121
O O3 0.042484 0.100276 0.268666
O O4 0.786643 0.036684 0.229323
O O5 0.000121 0.662354 0.932434
O O6 0.015518 0.796500 0.847252
O O7 0.247733 0.707452 0.876615
O O8 0.134490 0.806890 0.967297
O O9 0.500000 0.500000 0.374353
O O10 0.685591 0.535380 0.462612
O O11 0.794921 0.283415 0.072453
O O12 0.509634 0.329115 0.076932
O O13 0.696433 0.384601 0.164654
O O14 0.714735 0.445822 0.051998
O O15 0.767221 0.115775 0.567832
O O16 0.170998 0.111137 0.775891
O O17 0.500000 0.000000 0.059963
#
# Coordination Sequence:
#
# PCOD8184740 Si02
#       8
#     8   8   8   8   8   8   8   8
#     4  10  21  40  67  96 129 177 224 278 349 410
#     4  11  22  38  68 100 138 168 229 286 353 422
#     4  10  16  35  65  95 127 168 217 278 347 414
#     4  12  28  44  69  99 142 191 241 287 351 438
#     4  12  25  46  67 102 139 186 235 300 362 424
#     4  11  21  41  68 104 132 176 221 288 355 416
#     4  11  24  42  67  97 134 186 233 276 345 429
#     4  11  25  44  71 100 136 182 237 295 362 426
#
# _framework density 22.653396999999998
#
# number of rings (size 3 to 8) (size 9 to 14) (size 15 to 20)
#    0.000    1.000    3.750    5.625    5.250    1.000 
#    0.000    3.125    0.000    0.000    0.000    0.000 
#    0.000    0.000    0.000    0.000    0.000    0.000 
#
# Total GULP energy -396502.360027 kJ/mol
# GULP energy per Si atom -12390.698751 kJ/mol
# Density = 2.260184 g / cm^3
# Si number density = 22.653397 Si / 1000 Ang^3
#
#
#
# Elastic Constant Matrix: (Units=GPa)
#
#
# Indices 1 2 3 4 5 6 
#
# 1 61.3981 20.1671 31.7146 0.0000 0.0000 0.0000
# 2 20.1671 128.7362 34.0223 0.0000 0.0000 0.0000
# 3 31.7146 34.0223 86.1301 0.0000 0.0000 0.0000
# 4 0.0000 0.0000 0.0000 11.5649 0.0000 0.0000
# 5 0.0000 0.0000 0.0000 0.0000 14.3382 0.0000
# 6 0.0000 0.0000 0.0000 0.0000 0.0000 38.2173
#
#
#
# Elastic Compliance Matrix: (Units=1/GPa)
#
#
# Indices 1 2 3 4 5 6 
#
# 1 0.020319 -0.001346 -0.006950 0.000000 0.000000 0.000000
# 2 -0.001346 0.008762 -0.002966 0.000000 0.000000 0.000000
# 3 -0.006950 -0.002966 0.015341 0.000000 0.000000 0.000000
# 4 0.000000 0.000000 0.000000 0.086468 0.000000 0.000000
# 5 0.000000 0.000000 0.000000 0.000000 0.069744 0.000000
# 6 0.000000 0.000000 0.000000 0.000000 0.000000 0.026166
#
#
# Mechanical properties :
#
#
# Convention : Reuss Voigt Hill
#
# Bulk Modulus (GPa) = 45.66465 49.78582 47.72524
# Shear Modulus (GPa) = 19.48370 25.51478 22.49924
#
# Velocity S-wave (km/s) = 2.93589 3.35970 3.15492
# Velocity P-wave (km/s) = 5.62977 6.08892 5.86384
#
# Compressibility (1/GPa) = 0.02189878
#
# Stress axis : x y z
#
# Youngs Moduli (GPa) = 49.21405 114.12327 65.18520
#
# Poissons Ratio (x) = 0.15365 0.45305
# Poissons Ratio (y) = 0.06626 0.19331
# Poissons Ratio (z) = 0.34204 0.33843
#
# Static dielectric constant tensor:
#      x y z
#    x 4.067830 0.000000 0.000000 
#    y 0.000000 4.654710 0.000000 
#    z 0.000000 0.000000 3.889320 
# 
# 
# High freq. dielectric constant tensor:
#      x y z
#    x 1.874900 0.000000 0.000000 
#    y 0.000000 1.911610 0.000000 
#    z 0.000000 0.000000 1.884340 
# 
# From -- ./inp_files/12050.got.cif
#   From: 2010.03.12/outbox.cif.g09.slc.cpg/sg41_7_cif.got.tgz:12050.got - 2010.04.14 01:55:53.
