data_PCOD8184869
_publ_section_title
;
Structure prediction by ZEFSAII (Michael W. Deem and Ramdas Pophale) SiO2 
 PCOD8184869
Probable space group: A B A 2
;
_chemical_formula_sum "Si O2"
_cell_formula_units_Z 60
_cell_length_a 15.095628
_cell_length_b 11.789334
_cell_length_c 17.149128
_cell_angle_alpha 90.000000
_cell_angle_beta 90.000000
_cell_angle_gamma 90.000000
_cell_volume 3051.985730
_symmetry_space_group_name_H-M "A B A 2"
_symmetry_group_IT_number 41
_symmetry_cell_setting 'orthorhombic'
loop_
_space_group_symop_operation_xyz
x,y,z
-x,-y,z
1/2-x,y,1/2+z
1/2+x,-y,1/2+z
x,1/2+y,1/2+z
-x,1/2-y,1/2+z
1/2-x,1/2+y,z
1/2+x,1/2-y,z
loop_
_atom_site_type_symbol
_atom_site_label
_atom_site_fract_x
_atom_site_fract_y
_atom_site_fract_z
Si Si1 0.895694 0.312194 0.243120
Si Si2 0.636619 0.127904 0.862948
Si Si3 0.294556 0.514536 0.846401
Si Si4 0.042339 0.881675 0.843624
Si Si5 0.000000 0.000000 0.467439
Si Si6 0.699504 0.313545 0.977986
Si Si7 0.488369 0.134860 0.507100
Si Si8 0.113461 0.182435 0.562081
O O1 0.884826 0.187656 0.280362
O O2 0.825628 0.396510 0.282510
O O3 0.876272 0.333416 0.153837
O O4 0.998941 0.340065 0.262959
O O5 0.552034 0.085264 0.910871
O O6 0.695750 0.207526 0.919060
O O7 0.692696 0.018535 0.835731
O O8 0.352092 0.397532 0.838416
O O9 0.304229 0.567654 0.931945
O O10 0.009465 0.812406 0.919787
O O11 0.000000 0.000000 0.866611
O O12 0.064796 0.074915 0.522306
O O13 0.610331 0.321835 0.030872
O O14 0.787962 0.302647 0.028359
O O15 0.559536 0.200120 0.559320
O O16 0.500000 0.000000 0.519300
#
# Coordination Sequence:
#
# PCOD8184869 Si02
#       8
#     8   8   8   8   4   8   8   8
#     4  10  23  43  59  95 132 166 225 266 341 399
#     4  11  22  43  66  92 127 175 223 275 324 411
#     4  10  19  38  65  89 118 168 220 265 317 404
#     4   9  15  34  66  84 110 161 212 262 302 387
#     4  12  24  42  72 100 140 172 220 292 344 386
#     4  11  21  39  67  95 125 168 225 265 333 399
#     4  11  20  42  68  91 124 172 227 267 324 403
#     4  12  26  41  64 102 140 171 216 290 345 394
#
# _framework density 19.659331999999999
#
# number of rings (size 3 to 8) (size 9 to 14) (size 15 to 20)
#    0.000    1.333    8.000    0.800    2.800    0.000 
#    8.400    0.000    0.000    0.000    0.000    0.000 
#    0.000    0.000    0.000    0.000    0.000    0.000 
#
# Total GULP energy -371663.608277 kJ/mol
# GULP energy per Si atom -12388.786943 kJ/mol
# Density = 1.961459 g / cm^3
# Si number density = 19.659332 Si / 1000 Ang^3
#
#
#
# Elastic Constant Matrix: (Units=GPa)
#
#
# Indices 1 2 3 4 5 6 
#
# 1 129.7019 43.8797 54.1113 0.0000 0.0000 0.0000
# 2 43.8797 79.0315 30.8764 0.0000 0.0000 0.0000
# 3 54.1113 30.8764 94.1385 0.0000 0.0000 0.0000
# 4 0.0000 0.0000 0.0000 0.2375 0.0000 0.0000
# 5 0.0000 0.0000 0.0000 0.0000 25.0617 0.0000
# 6 0.0000 0.0000 0.0000 0.0000 0.0000 32.7751
#
#
#
# Elastic Compliance Matrix: (Units=1/GPa)
#
#
# Indices 1 2 3 4 5 6 
#
# 1 0.011275 -0.004276 -0.005079 0.000000 0.000000 0.000000
# 2 -0.004276 0.016135 -0.002834 0.000000 0.000000 0.000000
# 3 -0.005079 -0.002834 0.014471 0.000000 0.000000 0.000000
# 4 0.000000 0.000000 0.000000 4.209826 0.000000 0.000000
# 5 0.000000 0.000000 0.000000 0.000000 0.039902 0.000000
# 6 0.000000 0.000000 0.000000 0.000000 0.000000 0.030511
#
#
# Mechanical properties :
#
#
# Convention : Reuss Voigt Hill
#
# Bulk Modulus (GPa) = 57.13047 62.28963 59.71005
# Shear Modulus (GPa) = 1.14881 23.21516 12.18199
#
# Velocity S-wave (km/s) = 0.76526 3.44011 2.49199
# Velocity P-wave (km/s) = 5.46847 6.89438 6.22240
#
# Compressibility (1/GPa) = 0.01750379
#
# Stress axis : x y z
#
# Youngs Moduli (GPa) = 88.68800 61.97860 69.10180
#
# Poissons Ratio (x) = 0.26503 0.35094
# Poissons Ratio (y) = 0.37925 0.19583
# Poissons Ratio (z) = 0.45042 0.17565
#
# Static dielectric constant tensor:
#      x y z
#    x 5.986090 0.000000 0.000000 
#    y 0.000000 4.949730 0.000000 
#    z 0.000000 0.000000 3.295860 
# 
# 
# High freq. dielectric constant tensor:
#      x y z
#    x 1.775530 0.000000 0.000000 
#    y 0.000000 1.767530 0.000000 
#    z 0.000000 0.000000 1.733430 
# 
# From -- ./inp_files/10389.got.cif
#   From: 2010.03.12/outbox.cif.g09.slc.cpg/sg41_6_cif.got.tgz:10389.got - 2010.04.14 01:55:53.
