data_PCOD8184233
_publ_section_title
;
Structure prediction by ZEFSAII (Michael W. Deem and Ramdas Pophale) SiO2 
 PCOD8184233
Probable space group: A M A 2
;
_chemical_formula_sum "Si O2"
_cell_formula_units_Z 64
_cell_length_a 8.708817
_cell_length_b 30.466704
_cell_length_c 11.858329
_cell_angle_alpha 90.000000
_cell_angle_beta 90.000000
_cell_angle_gamma 90.000000
_cell_volume 3146.357979
_symmetry_space_group_name_H-M "A M A 2"
_symmetry_group_IT_number 40
_symmetry_cell_setting 'orthorhombic'
loop_
_space_group_symop_operation_xyz
x,y,z
-x,-y,z
1/2-x,y,z
1/2+x,-y,z
x,1/2+y,1/2+z
-x,1/2-y,1/2+z
1/2-x,1/2+y,1/2+z
1/2+x,1/2-y,1/2+z
loop_
_atom_site_type_symbol
_atom_site_label
_atom_site_fract_x
_atom_site_fract_y
_atom_site_fract_z
Si Si1 0.930187 0.543941 0.276050
Si Si2 0.931272 0.545260 0.743621
Si Si3 0.925399 0.432976 0.504085
Si Si4 0.070268 0.125172 0.645917
Si Si5 0.575827 0.830153 0.001308
Si Si6 0.429596 0.697162 0.747736
Si Si7 0.427697 0.798056 0.782487
Si Si8 0.429823 0.373923 0.902175
O O1 0.750000 0.542118 0.264910
O O2 0.000000 0.500000 0.219085
O O3 0.978720 0.543801 0.406575
O O4 0.987934 0.586653 0.212599
O O5 0.750000 0.541427 0.731822
O O6 0.978630 0.584489 0.826818
O O7 0.000000 0.500000 0.793146
O O8 0.002937 0.554160 0.622430
O O9 0.750000 0.449427 0.500430
O O10 0.934865 0.381566 0.482117
O O11 0.250000 0.118272 0.659337
O O12 0.026289 0.171874 0.699193
O O13 0.024694 0.123571 0.516278
O O14 0.750000 0.813241 0.984926
O O15 0.515672 0.818707 0.125301
O O16 0.466231 0.806407 0.912737
O O17 0.250000 0.687374 0.767534
O O18 0.469184 0.748098 0.756413
O O19 0.527584 0.671023 0.839589
O O20 0.250000 0.808238 0.760586
O O21 0.250000 0.374150 0.929886
#
# Coordination Sequence:
#
# PCOD8184233 Si02
#       8
#     8   8   8   8   8   8   8   8
#     4  12  25  43  67  95 129 166 211 263 317 380
#     4  11  24  41  64  94 127 165 210 259 315 377
#     4  11  21  38  65  95 130 168 209 259 316 374
#     4  12  26  45  67  92 127 170 214 262 320 379
#     4  10  21  39  65  93 129 171 212 260 317 375
#     4  10  23  43  65  95 130 169 212 260 317 378
#     4  11  24  41  65  97 131 167 213 264 317 377
#     4  11  25  44  66  93 126 166 214 266 318 375
#
# _framework density 20.340979000000001
#
# number of rings (size 3 to 8) (size 9 to 14) (size 15 to 20)
#    0.000    1.000    2.500    4.125    1.750    4.000 
#    0.000    1.250    0.000    0.000    0.000    0.000 
#    0.000    0.000    0.000    0.000    0.000    0.000 
#
# Total GULP energy -397015.254167 kJ/mol
# GULP energy per Si atom -12406.726693 kJ/mol
# Density = 2.029468 g / cm^3
# Si number density = 20.340979 Si / 1000 Ang^3
#
#
#
# Elastic Constant Matrix: (Units=GPa)
#
#
# Indices 1 2 3 4 5 6 
#
# 1 123.5168 55.6182 44.3001 0.0000 0.0000 0.0000
# 2 55.6182 99.1256 38.4489 0.0000 0.0000 0.0000
# 3 44.3001 38.4489 109.2987 0.0000 0.0000 0.0000
# 4 0.0000 0.0000 0.0000 -3.4848 0.0000 0.0000
# 5 0.0000 0.0000 0.0000 0.0000 38.4758 0.0000
# 6 0.0000 0.0000 0.0000 0.0000 0.0000 32.5278
#
#
#
# Elastic Compliance Matrix: (Units=1/GPa)
#
#
# Indices 1 2 3 4 5 6 
#
# 1 0.011516 -0.005386 -0.002773 0.000000 0.000000 0.000000
# 2 -0.005386 0.014201 -0.002813 0.000000 0.000000 0.000000
# 3 -0.002773 -0.002813 0.011263 0.000000 0.000000 0.000000
# 4 0.000000 0.000000 0.000000 -0.286964 0.000000 0.000000
# 5 0.000000 0.000000 0.000000 0.000000 0.025990 0.000000
# 6 0.000000 0.000000 0.000000 0.000000 0.000000 0.030743
#
#
# Mechanical properties :
#
#
# Convention : Reuss Voigt Hill
#
# Bulk Modulus (GPa) = 66.50409 67.63060 67.06735
# Shear Modulus (GPa) = -30.06690 26.40868 -1.82911
#
# Velocity S-wave (km/s) = -3.84883 3.60710 -0.94930
# Velocity P-wave (km/s) = 3.60753 7.11821 5.64283
#
# Compressibility (1/GPa) = 0.01503667
#
# Stress axis : x y z
#
# Youngs Moduli (GPa) = 86.83770 70.41702 88.78968
#
# Poissons Ratio (x) = 0.37925 0.24620
# Poissons Ratio (y) = 0.46769 0.24974
# Poissons Ratio (z) = 0.24079 0.19806
#
# Static dielectric constant tensor:
#      x y z
#    x 4.021130 0.000000 0.000000 
#    y 0.000000 4.773140 0.000000 
#    z 0.000000 0.000000 3.742230 
# 
# 
# High freq. dielectric constant tensor:
#      x y z
#    x 1.802810 0.000000 0.000000 
#    y 0.000000 1.811820 0.000000 
#    z 0.000000 0.000000 1.799000 
# 
# From -- ./inp_files/10645.got.cif
#   From: 2010.03.12/outbox.cif.g09.slc.cpg/sg40_6_cif.got.tgz:10645.got - 2010.04.14 01:38:03.
