data_PCOD8184636
_publ_section_title
;
Structure prediction by ZEFSAII (Michael W. Deem and Ramdas Pophale) SiO2 
 PCOD8184636
Probable space group: A M A 2
;
_chemical_formula_sum "Si O2"
_cell_formula_units_Z 44
_cell_length_a 13.146995
_cell_length_b 23.392681
_cell_length_c 6.909362
_cell_angle_alpha 90.000000
_cell_angle_beta 90.000000
_cell_angle_gamma 90.000000
_cell_volume 2124.929097
_symmetry_space_group_name_H-M "A M A 2"
_symmetry_group_IT_number 40
_symmetry_cell_setting 'orthorhombic'
loop_
_space_group_symop_operation_xyz
x,y,z
-x,-y,z
1/2-x,y,z
1/2+x,-y,z
x,1/2+y,1/2+z
-x,1/2-y,1/2+z
1/2-x,1/2+y,1/2+z
1/2+x,1/2-y,1/2+z
loop_
_atom_site_type_symbol
_atom_site_label
_atom_site_fract_x
_atom_site_fract_y
_atom_site_fract_z
Si Si1 0.750000 0.301266 0.058420
Si Si2 0.416049 0.546700 0.660703
Si Si3 0.962220 0.160235 0.083808
Si Si4 0.250000 0.003907 0.871292
Si Si5 0.250000 0.766098 0.663765
Si Si6 0.250000 0.567415 0.975197
Si Si7 0.085036 0.243275 0.847611
Si Si8 0.750000 0.128478 0.920390
O O1 0.849980 0.279759 0.168013
O O2 0.750000 0.276962 0.843056
O O3 0.750000 0.368990 0.055947
O O4 0.500000 0.500000 0.712207
O O5 0.464335 0.606717 0.603518
O O6 0.350321 0.525646 0.479442
O O7 0.349828 0.555049 0.851270
O O8 0.967450 0.197691 0.280274
O O9 0.846845 0.140532 0.054361
O O10 0.998036 0.197393 0.898826
O O11 0.250000 0.936109 0.851542
O O12 0.250000 0.025104 0.653930
O O13 0.150344 0.753712 0.539004
O O14 0.250000 0.831809 0.730700
#
# Coordination Sequence:
#
# PCOD8184636 Si02
#       8
#     4   8   8   4   4   4   8   4
#     4  11  22  46  69  98 142 179 223 283 341 404
#     4  11  25  47  71  98 141 182 227 283 345 394
#     4  12  24  44  70 102 139 182 222 284 344 407
#     4  11  25  50  69  97 136 180 234 285 333 400
#     4  11  22  45  67 105 139 180 218 278 345 409
#     4  11  26  43  71 103 128 182 236 281 329 404
#     4  11  25  41  69 104 142 177 226 276 345 415
#     4  12  23  44  72  95 139 181 225 283 344 397
#
# _framework density 20.706572000000001
#
# number of rings (size 3 to 8) (size 9 to 14) (size 15 to 20)
#    0.000    0.727    3.636    3.818    2.545    5.091 
#    6.545    0.000    0.000    0.000    0.000    0.000 
#    0.000    0.000    0.000    0.000    0.000    0.000 
#
# Total GULP energy -272955.980157 kJ/mol
# GULP energy per Si atom -12407.090007 kJ/mol
# Density = 2.065944 g / cm^3
# Si number density = 20.706572 Si / 1000 Ang^3
#
#
#
# Elastic Constant Matrix: (Units=GPa)
#
#
# Indices 1 2 3 4 5 6 
#
# 1 108.5386 55.0472 29.9803 0.0000 0.0000 0.0000
# 2 55.0472 178.9947 51.0199 0.0000 0.0000 0.0000
# 3 29.9803 51.0199 102.6923 0.0000 0.0000 0.0000
# 4 0.0000 0.0000 0.0000 29.0387 0.0000 0.0000
# 5 0.0000 0.0000 0.0000 0.0000 16.1990 0.0000
# 6 0.0000 0.0000 0.0000 0.0000 0.0000 39.3424
#
#
#
# Elastic Compliance Matrix: (Units=1/GPa)
#
#
# Indices 1 2 3 4 5 6 
#
# 1 0.011199 -0.002927 -0.001815 0.000000 0.000000 0.000000
# 2 -0.002927 0.007273 -0.002759 0.000000 0.000000 0.000000
# 3 -0.001815 -0.002759 0.011639 0.000000 0.000000 0.000000
# 4 0.000000 0.000000 0.000000 0.034437 0.000000 0.000000
# 5 0.000000 0.000000 0.000000 0.000000 0.061732 0.000000
# 6 0.000000 0.000000 0.000000 0.000000 0.000000 0.025418
#
#
# Mechanical properties :
#
#
# Convention : Reuss Voigt Hill
#
# Bulk Modulus (GPa) = 66.18780 73.59116 69.88948
# Shear Modulus (GPa) = 29.11437 33.86123 31.48780
#
# Velocity S-wave (km/s) = 3.75379 4.04826 3.90380
# Velocity P-wave (km/s) = 7.12895 7.58079 7.35834
#
# Compressibility (1/GPa) = 0.01510852
#
# Stress axis : x y z
#
# Youngs Moduli (GPa) = 89.29309 137.49011 85.92079
#
# Poissons Ratio (x) = 0.40238 0.15599
# Poissons Ratio (y) = 0.26133 0.23706
# Poissons Ratio (z) = 0.16211 0.37935
#
# Static dielectric constant tensor:
#      x y z
#    x 3.928920 0.000000 0.000000 
#    y 0.000000 3.937340 0.000000 
#    z 0.000000 0.000000 3.697180 
# 
# 
# High freq. dielectric constant tensor:
#      x y z
#    x 1.830690 0.000000 0.000000 
#    y 0.000000 1.824760 0.000000 
#    z 0.000000 0.000000 1.813110 
# 
# From -- ./inp_files/1317.got.cif
#   From: 2010.03.12/outbox.cif.g09.slc.cpg/sg40_1_cif.got.tgz:1317.got - 2010.04.14 01:38:03.
