data_PCOD8184236
_publ_section_title
;
Structure prediction by ZEFSAII (Michael W. Deem and Ramdas Pophale) SiO2 
 PCOD8184236
Probable space group: A M A 2
;
_chemical_formula_sum "Si O2"
_cell_formula_units_Z 40
_cell_length_a 17.209465
_cell_length_b 18.851999
_cell_length_c 4.950307
_cell_angle_alpha 90.000000
_cell_angle_beta 90.000000
_cell_angle_gamma 90.000000
_cell_volume 1606.042045
_symmetry_space_group_name_H-M "A M A 2"
_symmetry_group_IT_number 40
_symmetry_cell_setting 'orthorhombic'
loop_
_space_group_symop_operation_xyz
x,y,z
-x,-y,z
1/2-x,y,z
1/2+x,-y,z
x,1/2+y,1/2+z
-x,1/2-y,1/2+z
1/2-x,1/2+y,1/2+z
1/2+x,1/2-y,1/2+z
loop_
_atom_site_type_symbol
_atom_site_label
_atom_site_fract_x
_atom_site_fract_y
_atom_site_fract_z
Si Si1 0.836223 0.368219 0.544420
Si Si2 0.528491 0.211132 0.261368
Si Si3 0.157191 0.473839 0.484856
Si Si4 0.334618 0.221787 0.524478
Si Si5 0.062043 0.936978 0.473497
O O1 0.750000 0.378355 0.672536
O O2 0.874022 0.444967 0.504292
O O3 0.829219 0.337866 0.248613
O O4 0.877766 0.315438 0.764678
O O5 0.523170 0.271839 0.493761
O O6 0.615750 0.213136 0.137625
O O7 0.514526 0.134925 0.401399
O O8 0.250000 0.467950 0.426394
O O9 0.135128 0.441819 0.772363
O O10 0.103774 0.433977 0.264306
O O11 0.250000 0.252510 0.445123
O O12 0.000000 0.000000 0.451852
#
# Coordination Sequence:
#
# PCOD8184236 Si02
#       5
#     8   8   8   8   8
#     4   9  19  36  65 104 134 172 221 289 359 418
#     4  12  28  47  70 102 146 196 241 298 370 436
#     4  11  24  45  75 108 144 188 247 308 371 436
#     4  10  21  39  66  98 134 180 238 291 352 422
#     4  12  28  47  72 109 149 197 242 305 378 443
#
# _framework density 24.905947999999999
#
# number of rings (size 3 to 8) (size 9 to 14) (size 15 to 20)
#    0.000    1.200    0.000    4.800    8.400    4.800 
#    0.000    2.000    0.000    0.000    0.000    0.000 
#    0.000    0.000    0.000    0.000    0.000    0.000 
#
# Total GULP energy -247842.361625 kJ/mol
# GULP energy per Si atom -12392.118081 kJ/mol
# Density = 2.484926 g / cm^3
# Si number density = 24.905948 Si / 1000 Ang^3
#
#
#
# Elastic Constant Matrix: (Units=GPa)
#
#
# Indices 1 2 3 4 5 6 
#
# 1 107.2946 17.0708 27.5033 0.0000 0.0000 0.0000
# 2 17.0708 58.5688 -4.3074 0.0000 0.0000 0.0000
# 3 27.5033 -4.3074 118.7258 0.0000 0.0000 0.0000
# 4 0.0000 0.0000 0.0000 42.6985 0.0000 0.0000
# 5 0.0000 0.0000 0.0000 0.0000 46.1200 0.0000
# 6 0.0000 0.0000 0.0000 0.0000 0.0000 27.8754
#
#
#
# Elastic Compliance Matrix: (Units=1/GPa)
#
#
# Indices 1 2 3 4 5 6 
#
# 1 0.010489 -0.003245 -0.002548 0.000000 0.000000 0.000000
# 2 -0.003245 0.018123 0.001409 0.000000 0.000000 0.000000
# 3 -0.002548 0.001409 0.009064 0.000000 0.000000 0.000000
# 4 0.000000 0.000000 0.000000 0.023420 0.000000 0.000000
# 5 0.000000 0.000000 0.000000 0.000000 0.021683 0.000000
# 6 0.000000 0.000000 0.000000 0.000000 0.000000 0.035874
#
#
# Mechanical properties :
#
#
# Convention : Reuss Voigt Hill
#
# Bulk Modulus (GPa) = 34.58955 40.56920 37.57937
# Shear Modulus (GPa) = 36.48132 39.62694 38.05413
#
# Velocity S-wave (km/s) = 3.83137 3.99314 3.91309
# Velocity P-wave (km/s) = 5.78712 6.13062 5.96135
#
# Compressibility (1/GPa) = 0.02891046
#
# Stress axis : x y z
#
# Youngs Moduli (GPa) = 95.33420 55.17765 110.32582
#
# Poissons Ratio (x) = 0.17903 0.28107
# Poissons Ratio (y) = 0.30933 -0.15547
# Poissons Ratio (z) = 0.24288 -0.07775
#
# Static dielectric constant tensor:
#      x y z
#    x 4.869820 0.000000 0.000000 
#    y 0.000000 4.218610 0.000000 
#    z 0.000000 0.000000 4.575510 
# 
# 
# High freq. dielectric constant tensor:
#      x y z
#    x 2.008130 0.000000 0.000000 
#    y 0.000000 1.971170 0.000000 
#    z 0.000000 0.000000 2.009310 
# 
# From -- ./inp_files/1734.got.cif
#   From: 2010.03.12/outbox.cif.g09.slc.cpg/sg40_1_cif.got.tgz:1734.got - 2010.04.14 01:38:03.
