data_PCOD8184309
_publ_section_title
;
Structure prediction by ZEFSAII (Michael W. Deem and Ramdas Pophale) SiO2 
 PCOD8184309
Probable space group: A M A 2
;
_chemical_formula_sum "Si O2"
_cell_formula_units_Z 64
_cell_length_a 21.408802
_cell_length_b 9.574079
_cell_length_c 15.200721
_cell_angle_alpha 90.000000
_cell_angle_beta 90.000000
_cell_angle_gamma 90.000000
_cell_volume 3115.685120
_symmetry_space_group_name_H-M "A M A 2"
_symmetry_group_IT_number 40
_symmetry_cell_setting 'orthorhombic'
loop_
_space_group_symop_operation_xyz
x,y,z
-x,-y,z
1/2-x,y,z
1/2+x,-y,z
x,1/2+y,1/2+z
-x,1/2-y,1/2+z
1/2-x,1/2+y,1/2+z
1/2+x,1/2-y,1/2+z
loop_
_atom_site_type_symbol
_atom_site_label
_atom_site_fract_x
_atom_site_fract_y
_atom_site_fract_z
Si Si1 0.058788 0.815051 0.912780
Si Si2 0.821023 0.501253 0.687552
Si Si3 0.821260 0.345027 0.870642
Si Si4 0.621514 0.774652 0.059502
Si Si5 0.321401 0.018509 0.554264
Si Si6 0.885383 0.793949 0.696588
Si Si7 0.078425 0.132709 0.882363
Si Si8 0.489375 0.663994 0.076876
O O1 0.121162 0.764290 0.860829
O O2 0.989702 0.790898 0.868751
O O3 0.067862 0.979589 0.921857
O O4 0.057115 0.733425 0.005384
O O5 0.750000 0.544197 0.663114
O O6 0.822399 0.432256 0.782394
O O7 0.846429 0.400677 0.611311
O O8 0.865623 0.633744 0.694564
O O9 0.750000 0.280287 0.882169
O O10 0.837721 0.442754 0.953813
O O11 0.655172 0.632190 0.082318
O O12 0.550113 0.757672 0.087747
O O13 0.622362 0.793568 0.954350
O O14 0.250000 0.014708 0.570213
O O15 0.345310 0.127874 0.624537
O O16 0.880683 0.860533 0.793708
O O17 0.957531 0.817716 0.671285
O O18 0.500000 0.500000 0.053423
#
# Coordination Sequence:
#
# PCOD8184309 Si02
#       8
#     8   8   8   8   8   8   8   8
#     4  10  21  43  63  97 135 171 221 266 333 390
#     4  11  26  45  66  95 133 172 225 282 334 400
#     4  10  22  41  66  93 127 170 219 275 327 396
#     4  11  23  43  65  96 132 173 224 269 337 392
#     4  11  23  42  68  92 128 176 222 273 333 399
#     4  12  24  42  66  97 133 174 220 273 340 394
#     4  10  25  39  67  93 137 178 213 279 329 409
#     4  11  22  39  68  99 135 173 219 278 330 400
#
# _framework density 20.541228
#
# number of rings (size 3 to 8) (size 9 to 14) (size 15 to 20)
#    0.000    1.250    2.500    2.250    5.250    2.500 
#    0.000    3.125    0.000    0.000    0.000    0.000 
#    0.000    0.000    0.000    0.000    0.000    0.000 
#
# Total GULP energy -396554.052239 kJ/mol
# GULP energy per Si atom -12392.314132 kJ/mol
# Density = 2.049448 g / cm^3
# Si number density = 20.541228 Si / 1000 Ang^3
#
#
#
# Elastic Constant Matrix: (Units=GPa)
#
#
# Indices 1 2 3 4 5 6 
#
# 1 98.0176 38.6800 47.7329 0.0000 0.0000 0.0000
# 2 38.6800 86.5508 36.7426 0.0000 0.0000 0.0000
# 3 47.7329 36.7426 128.6896 0.0000 0.0000 0.0000
# 4 0.0000 0.0000 0.0000 25.2529 0.0000 0.0000
# 5 0.0000 0.0000 0.0000 0.0000 25.8858 0.0000
# 6 0.0000 0.0000 0.0000 0.0000 0.0000 148.0814
#
#
#
# Elastic Compliance Matrix: (Units=1/GPa)
#
#
# Indices 1 2 3 4 5 6 
#
# 1 0.013877 -0.004571 -0.003842 0.000000 0.000000 0.000000
# 2 -0.004571 0.014653 -0.002488 0.000000 0.000000 0.000000
# 3 -0.003842 -0.002488 0.009906 0.000000 0.000000 0.000000
# 4 0.000000 0.000000 0.000000 0.039599 0.000000 0.000000
# 5 0.000000 0.000000 0.000000 0.000000 0.038631 0.000000
# 6 0.000000 0.000000 0.000000 0.000000 0.000000 0.006753
#
#
# Mechanical properties :
#
#
# Convention : Reuss Voigt Hill
#
# Bulk Modulus (GPa) = 60.11832 62.17434 61.14633
# Shear Modulus (GPa) = 33.16383 52.51752 42.84067
#
# Velocity S-wave (km/s) = 4.02244 5.06186 4.57179
# Velocity P-wave (km/s) = 7.13471 8.03100 7.59609
#
# Compressibility (1/GPa) = 0.01663387
#
# Stress axis : x y z
#
# Youngs Moduli (GPa) = 72.06160 68.24600 100.94677
#
# Poissons Ratio (x) = 0.31193 0.38786
# Poissons Ratio (y) = 0.32937 0.25118
# Poissons Ratio (z) = 0.27688 0.16982
#
# Static dielectric constant tensor:
#      x y z
#    x 4.169860 0.000000 0.000000 
#    y 0.000000 3.661050 0.000000 
#    z 0.000000 0.000000 3.713960 
# 
# 
# High freq. dielectric constant tensor:
#      x y z
#    x 1.818720 0.000000 0.000000 
#    y 0.000000 1.799470 0.000000 
#    z 0.000000 0.000000 1.805490 
# 
# From -- ./inp_files/18505.got.cif
#   From: 2010.03.12/outbox.cif.g09.slc.cpg/sg40_10_cif.got.tgz:18505.got - 2010.04.14 01:38:03.
