data_PCOD8184521
_publ_section_title
;
Structure prediction by ZEFSAII (Michael W. Deem and Ramdas Pophale) SiO2 
 PCOD8184521
Probable space group: A M A 2
;
_chemical_formula_sum "Si O2"
_cell_formula_units_Z 40
_cell_length_a 22.156357
_cell_length_b 13.849597
_cell_length_c 5.117684
_cell_angle_alpha 90.000000
_cell_angle_beta 90.000000
_cell_angle_gamma 90.000000
_cell_volume 1570.395191
_symmetry_space_group_name_H-M "A M A 2"
_symmetry_group_IT_number 40
_symmetry_cell_setting 'orthorhombic'
loop_
_space_group_symop_operation_xyz
x,y,z
-x,-y,z
1/2-x,y,z
1/2+x,-y,z
x,1/2+y,1/2+z
-x,1/2-y,1/2+z
1/2-x,1/2+y,1/2+z
1/2+x,1/2-y,1/2+z
loop_
_atom_site_type_symbol
_atom_site_label
_atom_site_fract_x
_atom_site_fract_y
_atom_site_fract_z
Si Si1 0.565201 0.057420 0.295120
Si Si2 0.750000 0.040538 0.696156
Si Si3 0.377654 0.743414 0.186000
Si Si4 0.472288 0.201173 0.307830
Si Si5 0.750000 0.173742 0.190568
Si Si6 0.379655 0.535233 0.291432
O O1 0.589871 0.167532 0.326124
O O2 0.491920 0.084634 0.258666
O O3 0.577919 0.998480 0.555569
O O4 0.602763 0.022645 0.047215
O O5 0.750000 0.106428 0.441979
O O6 0.689939 0.975935 0.705509
O O7 0.750000 0.107211 0.943386
O O8 0.306592 0.755903 0.174789
O O9 0.392389 0.647477 0.357108
O O10 0.402430 0.718518 0.889899
O O11 0.509585 0.234393 0.565382
#
# Coordination Sequence:
#
# PCOD8184521 Si02
#       6
#     8   4   8   8   4   8
#     4  11  24  46  68 104 143 187 230 298 341 421
#     4  12  23  46  67 106 140 186 229 304 347 428
#     4  11  25  47  72 107 138 192 231 293 348 429
#     4  10  23  43  73 101 143 186 234 287 354 414
#     4  12  25  44  77  98 148 186 231 290 371 402
#     4  12  25  43  74 101 143 182 241 283 357 418
#
# _framework density 25.471298000000001
#
# number of rings (size 3 to 8) (size 9 to 14) (size 15 to 20)
#    0.000    0.800    4.000    3.000    0.000    7.200 
#    0.000    8.000    0.000    0.000    0.000    0.000 
#    0.000    0.000    0.000    0.000    0.000    0.000 
#
# Total GULP energy -247948.739192 kJ/mol
# GULP energy per Si atom -12397.436960 kJ/mol
# Density = 2.541332 g / cm^3
# Si number density = 25.471298 Si / 1000 Ang^3
#
#
#
# Elastic Constant Matrix: (Units=GPa)
#
#
# Indices 1 2 3 4 5 6 
#
# 1 70.1307 22.8801 13.1472 0.0000 0.0000 0.0000
# 2 22.8801 84.7228 41.3973 0.0000 0.0000 0.0000
# 3 13.1472 41.3973 129.0915 0.0000 0.0000 0.0000
# 4 0.0000 0.0000 0.0000 33.3187 0.0000 0.0000
# 5 0.0000 0.0000 0.0000 0.0000 46.1944 0.0000
# 6 0.0000 0.0000 0.0000 0.0000 0.0000 31.6963
#
#
#
# Elastic Compliance Matrix: (Units=1/GPa)
#
#
# Indices 1 2 3 4 5 6 
#
# 1 0.015645 -0.004087 -0.000283 0.000000 0.000000 0.000000
# 2 -0.004087 0.015064 -0.004414 0.000000 0.000000 0.000000
# 3 -0.000283 -0.004414 0.009191 0.000000 0.000000 0.000000
# 4 0.000000 0.000000 0.000000 0.030013 0.000000 0.000000
# 5 0.000000 0.000000 0.000000 0.000000 0.021648 0.000000
# 6 0.000000 0.000000 0.000000 0.000000 0.000000 0.031549
#
#
# Mechanical properties :
#
#
# Convention : Reuss Voigt Hill
#
# Bulk Modulus (GPa) = 44.77928 48.75490 46.76709
# Shear Modulus (GPa) = 33.75571 36.00990 34.88281
#
# Velocity S-wave (km/s) = 3.64434 3.76406 3.70468
# Velocity P-wave (km/s) = 5.94363 6.17037 6.05806
#
# Compressibility (1/GPa) = 0.02233176
#
# Stress axis : x y z
#
# Youngs Moduli (GPa) = 63.91617 66.38368 108.80336
#
# Poissons Ratio (x) = 0.27131 0.03077
# Poissons Ratio (y) = 0.26123 0.48031
# Poissons Ratio (z) = 0.01807 0.29305
#
# Static dielectric constant tensor:
#      x y z
#    x 4.754180 0.000000 0.000000 
#    y 0.000000 5.301760 0.000000 
#    z 0.000000 0.000000 4.869450 
# 
# 
# High freq. dielectric constant tensor:
#      x y z
#    x 2.040940 0.000000 0.000000 
#    y 0.000000 2.051060 0.000000 
#    z 0.000000 0.000000 2.018210 
# 
# From -- ./inp_files/2674.got.cif
#   From: 2010.03.12/outbox.cif.g09.slc.cpg/sg40_2_cif.got.tgz:2674.got - 2010.04.14 01:38:03.
