data_PCOD8184596
_publ_section_title
;
Structure prediction by ZEFSAII (Michael W. Deem and Ramdas Pophale) SiO2 
 PCOD8184596
Probable space group: A M A 2
;
_chemical_formula_sum "Si O2"
_cell_formula_units_Z 40
_cell_length_a 9.282721
_cell_length_b 20.662419
_cell_length_c 12.503642
_cell_angle_alpha 90.000000
_cell_angle_beta 90.000000
_cell_angle_gamma 90.000000
_cell_volume 2398.241933
_symmetry_space_group_name_H-M "A M A 2"
_symmetry_group_IT_number 40
_symmetry_cell_setting 'orthorhombic'
loop_
_space_group_symop_operation_xyz
x,y,z
-x,-y,z
1/2-x,y,z
1/2+x,-y,z
x,1/2+y,1/2+z
-x,1/2-y,1/2+z
1/2-x,1/2+y,1/2+z
1/2+x,1/2-y,1/2+z
loop_
_atom_site_type_symbol
_atom_site_label
_atom_site_fract_x
_atom_site_fract_y
_atom_site_fract_z
Si Si1 0.415963 0.308211 0.059840
Si Si2 0.579915 0.161692 0.331727
Si Si3 0.420696 0.432380 0.646897
Si Si4 0.913875 0.339222 0.496739
Si Si5 0.916641 0.799554 0.762884
O O1 0.250000 0.323524 0.081273
O O2 0.442743 0.232452 0.039797
O O3 0.502511 0.332675 0.163273
O O4 0.473374 0.346924 0.954455
O O5 0.750000 0.172300 0.336648
O O6 0.535848 0.100548 0.259899
O O7 0.516686 0.227634 0.280617
O O8 0.500000 0.500000 0.641383
O O9 0.250000 0.441845 0.636855
O O10 0.473796 0.388057 0.549741
O O11 0.750000 0.360308 0.523310
O O12 0.940252 0.342070 0.369248
O O13 0.750000 0.795464 0.732321
#
# Coordination Sequence:
#
# PCOD8184596 Si02
#       5
#     8   8   8   8   8
#     4   9  16  28  48  72  98 125 157 199 243 289
#     4   8  16  30  46  67  97 130 157 191 242 288
#     4  11  21  34  52  70  97 131 167 202 237 286
#     4   9  18  31  47  70 100 129 161 200 242 287
#     4   9  16  29  48  71 100 128 155 196 245 289
#
# _framework density 16.678885000000001
#
# number of rings (size 3 to 8) (size 9 to 14) (size 15 to 20)
#    0.000    2.800    2.000    3.000    0.000    0.800 
#    0.000    5.000    0.000    1.200    0.000    5.600 
#    0.000    0.000    0.000    0.000    0.000    0.000 
#
# Total GULP energy -247907.633427 kJ/mol
# GULP energy per Si atom -12395.381671 kJ/mol
# Density = 1.664092 g / cm^3
# Si number density = 16.678885 Si / 1000 Ang^3
#
#
#
# Elastic Constant Matrix: (Units=GPa)
#
#
# Indices 1 2 3 4 5 6 
#
# 1 68.8798 35.0804 56.5644 0.0000 0.0000 0.0000
# 2 35.0804 57.4222 30.2304 0.0000 0.0000 0.0000
# 3 56.5644 30.2304 135.8998 0.0000 0.0000 0.0000
# 4 0.0000 0.0000 0.0000 17.4718 0.0000 0.0000
# 5 0.0000 0.0000 0.0000 0.0000 31.8517 0.0000
# 6 0.0000 0.0000 0.0000 0.0000 0.0000 14.1638
#
#
#
# Elastic Compliance Matrix: (Units=1/GPa)
#
#
# Indices 1 2 3 4 5 6 
#
# 1 0.028286 -0.012553 -0.008981 0.000000 0.000000 0.000000
# 2 -0.012553 0.025295 -0.000402 0.000000 0.000000 0.000000
# 3 -0.008981 -0.000402 0.011186 0.000000 0.000000 0.000000
# 4 0.000000 0.000000 0.000000 0.057235 0.000000 0.000000
# 5 0.000000 0.000000 0.000000 0.000000 0.031396 0.000000
# 6 0.000000 0.000000 0.000000 0.000000 0.000000 0.070602
#
#
# Mechanical properties :
#
#
# Convention : Reuss Voigt Hill
#
# Bulk Modulus (GPa) = 47.85644 56.21692 52.03668
# Shear Modulus (GPa) = 18.19256 22.05256 20.12256
#
# Velocity S-wave (km/s) = 3.30624 3.64013 3.47719
# Velocity P-wave (km/s) = 6.58256 7.17259 6.88390
#
# Compressibility (1/GPa) = 0.02089583
#
# Stress axis : x y z
#
# Youngs Moduli (GPa) = 35.35270 39.53318 89.39770
#
# Poissons Ratio (x) = 0.49624 0.80289
# Poissons Ratio (y) = 0.44377 0.03595
# Poissons Ratio (z) = 0.31751 0.01590
#
# Static dielectric constant tensor:
#      x y z
#    x 2.952390 0.000000 0.000000 
#    y 0.000000 2.834540 0.000000 
#    z 0.000000 0.000000 3.368930 
# 
# 
# High freq. dielectric constant tensor:
#      x y z
#    x 1.628220 0.000000 0.000000 
#    y 0.000000 1.597860 0.000000 
#    z 0.000000 0.000000 1.657940 
# 
# From -- ./inp_files/5287.got.cif
#   From: 2010.03.12/outbox.cif.g09.slc.cpg/sg40_3_cif.got.tgz:5287.got - 2010.04.14 01:38:03.
