data_PCOD8184722
_publ_section_title
;
Structure prediction by ZEFSAII (Michael W. Deem and Ramdas Pophale) SiO2 
 PCOD8184722
Probable space group: A B A 2
;
_chemical_formula_sum "Si O2"
_cell_formula_units_Z 48
_cell_length_a 15.491732
_cell_length_b 28.962250
_cell_length_c 5.237552
_cell_angle_alpha 90.000000
_cell_angle_beta 90.000000
_cell_angle_gamma 90.000000
_cell_volume 2349.960818
_symmetry_space_group_name_H-M "A B A 2"
_symmetry_group_IT_number 41
_symmetry_cell_setting 'orthorhombic'
loop_
_space_group_symop_operation_xyz
x,y,z
-x,-y,z
1/2-x,y,1/2+z
1/2+x,-y,1/2+z
x,1/2+y,1/2+z
-x,1/2-y,1/2+z
1/2-x,1/2+y,z
1/2+x,1/2-y,z
loop_
_atom_site_type_symbol
_atom_site_label
_atom_site_fract_x
_atom_site_fract_y
_atom_site_fract_z
Si Si1 0.555469 0.750735 0.034910
Si Si2 0.303103 0.175177 0.002010
Si Si3 0.806623 0.671486 0.490595
Si Si4 0.803953 0.069379 0.044081
Si Si5 0.352443 0.528322 0.994132
Si Si6 0.839506 0.432625 0.994146
O O1 0.516722 0.752244 0.318003
O O2 0.607577 0.797763 0.990898
O O3 0.615216 0.706208 0.015419
O O4 0.252840 0.189656 0.257250
O O5 0.322362 0.121292 0.000199
O O6 0.761334 0.679586 0.218189
O O7 0.847025 0.619708 0.506358
O O8 0.771616 0.064807 0.334502
O O9 0.869988 0.026840 0.998773
O O10 0.249994 0.539150 0.992371
O O11 0.394242 0.551306 0.741808
O O12 0.393717 0.553157 0.242393
#
# Coordination Sequence:
#
# PCOD8184722 Si02
#       6
#     8   8   8   8   8   8
#     4  12  26  43  59  80 114 157 191 231 291 347
#     4  12  21  36  60  88 112 145 187 244 284 324
#     4  10  21  38  60  88 112 143 194 243 279 325
#     4  10  16  25  47  76 114 140 167 217 284 312
#     4  10  14  25  41  76 119 133 161 216 288 326
#     4  10  16  25  45  76 116 133 170 217 282 328
#
# _framework density 20.425871000000001
#
# number of rings (size 3 to 8) (size 9 to 14) (size 15 to 20)
#    0.000    1.333    6.667    3.000    0.000    0.000 
#    0.000    0.000    0.000    0.000    0.000    7.000 
#    0.000    0.000    0.000    0.000    0.000    0.000 
#
# Total GULP energy -297481.676501 kJ/mol
# GULP energy per Si atom -12395.069854 kJ/mol
# Density = 2.037938 g / cm^3
# Si number density = 20.425871 Si / 1000 Ang^3
#
#
#
# Elastic Constant Matrix: (Units=GPa)
#
#
# Indices 1 2 3 4 5 6 
#
# 1 36.6976 36.1709 13.6774 0.0000 0.0000 0.0000
# 2 36.1709 110.3934 24.8594 0.0000 0.0000 0.0000
# 3 13.6774 24.8594 155.5339 0.0000 0.0000 0.0000
# 4 0.0000 0.0000 0.0000 21.8355 0.0000 0.0000
# 5 0.0000 0.0000 0.0000 0.0000 32.9906 0.0000
# 6 0.0000 0.0000 0.0000 0.0000 0.0000 0.4964
#
#
#
# Elastic Compliance Matrix: (Units=1/GPa)
#
#
# Indices 1 2 3 4 5 6 
#
# 1 0.040581 -0.012959 -0.001497 0.000000 0.000000 0.000000
# 2 -0.012959 0.013535 -0.001024 0.000000 0.000000 0.000000
# 3 -0.001497 -0.001024 0.006725 0.000000 0.000000 0.000000
# 4 0.000000 0.000000 0.000000 0.045797 0.000000 0.000000
# 5 0.000000 0.000000 0.000000 0.000000 0.030312 0.000000
# 6 0.000000 0.000000 0.000000 0.000000 0.000000 2.014474
#
#
# Mechanical properties :
#
#
# Convention : Reuss Voigt Hill
#
# Bulk Modulus (GPa) = 33.46688 50.22671 41.84680
# Shear Modulus (GPa) = 2.28066 26.25897 14.26982
#
# Velocity S-wave (km/s) = 1.05782 3.58938 2.64600
# Velocity P-wave (km/s) = 4.23227 6.46694 5.46504
#
# Compressibility (1/GPa) = 0.02988029
#
# Stress axis : x y z
#
# Youngs Moduli (GPa) = 24.64187 73.88097 148.70405
#
# Poissons Ratio (x) = 0.95746 0.22266
# Poissons Ratio (y) = 0.31935 0.15223
# Poissons Ratio (z) = 0.03690 0.07564
#
# Static dielectric constant tensor:
#      x y z
#    x 2.840110 0.000000 0.000000 
#    y 0.000000 3.999900 0.000000 
#    z 0.000000 0.000000 6.984500 
# 
# 
# High freq. dielectric constant tensor:
#      x y z
#    x 1.714170 0.000000 0.000000 
#    y 0.000000 1.823440 0.000000 
#    z 0.000000 0.000000 1.838780 
# 
# From -- ./inp_files/298.got.cif
#   From: 2010.03.12/outbox.cif.g09.slc.cpg/sg41_1_cif.got.tgz:298.got - 2010.04.14 01:55:53.
