data_PCOD8184889
_publ_section_title
;
Structure prediction by ZEFSAII (Michael W. Deem and Ramdas Pophale) SiO2 
 PCOD8184889
Probable space group: A B A 2
;
_chemical_formula_sum "Si O2"
_cell_formula_units_Z 48
_cell_length_a 23.992951
_cell_length_b 7.320397
_cell_length_c 11.410876
_cell_angle_alpha 90.000000
_cell_angle_beta 90.000000
_cell_angle_gamma 90.000000
_cell_volume 2004.182600
_symmetry_space_group_name_H-M "A B A 2"
_symmetry_group_IT_number 41
_symmetry_cell_setting 'orthorhombic'
loop_
_space_group_symop_operation_xyz
x,y,z
-x,-y,z
1/2-x,y,1/2+z
1/2+x,-y,1/2+z
x,1/2+y,1/2+z
-x,1/2-y,1/2+z
1/2-x,1/2+y,z
1/2+x,1/2-y,z
loop_
_atom_site_type_symbol
_atom_site_label
_atom_site_fract_x
_atom_site_fract_y
_atom_site_fract_z
Si Si1 0.293832 0.707551 0.747660
Si Si2 0.381552 0.387470 0.407836
Si Si3 0.174848 0.324350 0.289333
Si Si4 0.357210 0.276675 0.025103
Si Si5 0.427714 0.325206 0.654884
Si Si6 0.949382 0.747385 0.693940
O O1 0.325621 0.792673 0.859159
O O2 0.312745 0.503924 0.714676
O O3 0.228398 0.693837 0.777123
O O4 0.310014 0.800980 0.624649
O O5 0.362776 0.589642 0.446878
O O6 0.409193 0.294673 0.521451
O O7 0.429395 0.362824 0.308377
O O8 0.163325 0.405946 0.420161
O O9 0.119865 0.228738 0.234290
O O10 0.416903 0.331629 0.079821
O O11 0.484979 0.216569 0.677079
O O12 0.433754 0.536683 0.695831
#
# Coordination Sequence:
#
# PCOD8184889 Si02
#       6
#     8   8   8   8   8   8
#     4  11  25  44  62  96 128 171 218 268 323 383
#     4  10  19  44  67  91 133 169 212 265 325 379
#     4  12  24  43  67  93 130 172 216 267 328 380
#     4  10  23  43  66  95 127 173 212 266 323 386
#     4  10  21  40  68  98 131 171 211 268 329 384
#     4   9  20  42  68  97 133 169 211 266 329 393
#
# _framework density 23.949914
#
# number of rings (size 3 to 8) (size 9 to 14) (size 15 to 20)
#    0.000    1.667    5.000    1.000    4.667    1.333 
#    6.000    0.000    0.000    0.000    0.000    0.000 
#    0.000    0.000    0.000    0.000    0.000    0.000 
#
# Total GULP energy -297331.294668 kJ/mol
# GULP energy per Si atom -12388.803945 kJ/mol
# Density = 2.389540 g / cm^3
# Si number density = 23.949914 Si / 1000 Ang^3
#
#
#
# Elastic Constant Matrix: (Units=GPa)
#
#
# Indices 1 2 3 4 5 6 
#
# 1 233.1618 8.0930 89.5052 0.0000 0.0000 0.0000
# 2 8.0930 14.6909 14.7221 0.0000 0.0000 0.0000
# 3 89.5052 14.7221 169.1805 0.0000 0.0000 0.0000
# 4 0.0000 0.0000 0.0000 33.0165 0.0000 0.0000
# 5 0.0000 0.0000 0.0000 0.0000 35.1077 0.0000
# 6 0.0000 0.0000 0.0000 0.0000 0.0000 17.3881
#
#
#
# Elastic Compliance Matrix: (Units=1/GPa)
#
#
# Indices 1 2 3 4 5 6 
#
# 1 0.005382 -0.000122 -0.002837 0.000000 0.000000 0.000000
# 2 -0.000122 0.074575 -0.006425 0.000000 0.000000 0.000000
# 3 -0.002837 -0.006425 0.007971 0.000000 0.000000 0.000000
# 4 0.000000 0.000000 0.000000 0.030288 0.000000 0.000000
# 5 0.000000 0.000000 0.000000 0.000000 0.028484 0.000000
# 6 0.000000 0.000000 0.000000 0.000000 0.000000 0.057510
#
#
# Mechanical properties :
#
#
# Convention : Reuss Voigt Hill
#
# Bulk Modulus (GPa) = 14.45916 71.29709 42.87813
# Shear Modulus (GPa) = 20.32264 37.41668 28.86966
#
# Velocity S-wave (km/s) = 2.91614 3.95687 3.47568
# Velocity P-wave (km/s) = 4.17000 7.12107 5.83517
#
# Compressibility (1/GPa) = 0.06916030
#
# Stress axis : x y z
#
# Youngs Moduli (GPa) = 185.80202 13.40930 125.45891
#
# Poissons Ratio (x) = 0.00164 0.35590
# Poissons Ratio (y) = 0.02269 0.80606
# Poissons Ratio (z) = 0.52708 0.08615
#
# Static dielectric constant tensor:
#      x y z
#    x 4.728820 0.000000 0.000000 
#    y 0.000000 4.000190 0.000000 
#    z 0.000000 0.000000 4.589040 
# 
# 
# High freq. dielectric constant tensor:
#      x y z
#    x 1.958950 0.000000 0.000000 
#    y 0.000000 1.929570 0.000000 
#    z 0.000000 0.000000 1.962840 
# 
# From -- ./inp_files/6397.got.cif
#   From: 2010.03.12/outbox.cif.g09.slc.cpg/sg41_4_cif.got.tgz:6397.got - 2010.04.14 01:55:53.
