data_PCOD8184747
_publ_section_title
;
Structure prediction by ZEFSAII (Michael W. Deem and Ramdas Pophale) SiO2 
 PCOD8184747
Probable space group: A B A 2
;
_chemical_formula_sum "Si O2"
_cell_formula_units_Z 60
_cell_length_a 11.805016
_cell_length_b 18.212849
_cell_length_c 14.485833
_cell_angle_alpha 90.000000
_cell_angle_beta 90.000000
_cell_angle_gamma 90.000000
_cell_volume 3114.497174
_symmetry_space_group_name_H-M "A B A 2"
_symmetry_group_IT_number 41
_symmetry_cell_setting 'orthorhombic'
loop_
_space_group_symop_operation_xyz
x,y,z
-x,-y,z
1/2-x,y,1/2+z
1/2+x,-y,1/2+z
x,1/2+y,1/2+z
-x,1/2-y,1/2+z
1/2-x,1/2+y,z
1/2+x,1/2-y,z
loop_
_atom_site_type_symbol
_atom_site_label
_atom_site_fract_x
_atom_site_fract_y
_atom_site_fract_z
Si Si1 0.584911 0.431252 0.897700
Si Si2 0.271247 0.014829 0.022493
Si Si3 0.429019 0.293329 0.882400
Si Si4 0.867907 0.991081 0.711144
Si Si5 0.774290 0.651879 0.229117
Si Si6 0.250005 0.348675 0.519542
Si Si7 0.927557 0.152153 0.364159
Si Si8 0.000000 0.500000 0.910463
O O1 0.500000 0.500000 0.909017
O O2 0.525971 0.352882 0.901255
O O3 0.646553 0.437864 0.798516
O O4 0.680584 0.430670 0.976675
O O5 0.297802 0.042812 0.125933
O O6 0.213368 0.934132 0.022790
O O7 0.389966 0.014519 0.971167
O O8 0.369285 0.304077 0.784236
O O9 0.475356 0.211957 0.873329
O O10 0.343721 0.299212 0.968927
O O11 0.810974 0.067767 0.738319
O O12 0.000000 0.000000 0.684046
O O13 0.769195 0.680155 0.123717
O O14 0.653802 0.666706 0.277362
O O15 0.365783 0.344204 0.462884
O O16 0.981872 0.071896 0.347499
#
# Coordination Sequence:
#
# PCOD8184747 Si02
#       8
#     8   8   8   8   8   8   8   4
#     4  11  19  35  60  88 118 158 197 251 296 356
#     4  10  19  33  59  91 118 152 205 247 297 354
#     4  11  21  38  61  87 119 158 204 242 308 369
#     4  10  17  33  62  91 109 160 208 238 295 364
#     4  10  20  39  60  86 124 158 197 252 310 349
#     4   9  20  38  59  82 122 159 193 245 304 357
#     4  10  23  38  60  86 117 161 196 249 311 363
#     4  10  20  38  58  82 120 156 196 252 302 360
#
# _framework density 19.264745999999999
#
# number of rings (size 3 to 8) (size 9 to 14) (size 15 to 20)
#    0.000    1.867    4.667    1.600    0.000    3.200 
#    0.000    5.333    1.467    3.200    0.000    0.000 
#    0.000    0.000    0.000    0.000    0.000    0.000 
#
# Total GULP energy -371924.782044 kJ/mol
# GULP energy per Si atom -12397.492735 kJ/mol
# Density = 1.922090 g / cm^3
# Si number density = 19.264746 Si / 1000 Ang^3
#
#
#
# Elastic Constant Matrix: (Units=GPa)
#
#
# Indices 1 2 3 4 5 6 
#
# 1 96.8038 46.9323 55.3798 0.0000 0.0000 0.0000
# 2 46.9323 87.7875 31.7846 0.0000 0.0000 0.0000
# 3 55.3798 31.7846 147.4991 0.0000 0.0000 0.0000
# 4 0.0000 0.0000 0.0000 5.2614 0.0000 0.0000
# 5 0.0000 0.0000 0.0000 0.0000 24.1693 0.0000
# 6 0.0000 0.0000 0.0000 0.0000 0.0000 36.1663
#
#
#
# Elastic Compliance Matrix: (Units=1/GPa)
#
#
# Indices 1 2 3 4 5 6 
#
# 1 0.016426 -0.007103 -0.004637 0.000000 0.000000 0.000000
# 2 -0.007103 0.015427 -0.000657 0.000000 0.000000 0.000000
# 3 -0.004637 -0.000657 0.008662 0.000000 0.000000 0.000000
# 4 0.000000 0.000000 0.000000 0.190062 0.000000 0.000000
# 5 0.000000 0.000000 0.000000 0.000000 0.041375 0.000000
# 6 0.000000 0.000000 0.000000 0.000000 0.000000 0.027650
#
#
# Mechanical properties :
#
#
# Convention : Reuss Voigt Hill
#
# Bulk Modulus (GPa) = 63.60967 66.69820 65.15393
# Shear Modulus (GPa) = 15.16822 26.31898 20.74360
#
# Velocity S-wave (km/s) = 2.80903 3.70019 3.28497
# Velocity P-wave (km/s) = 6.60388 7.27683 6.94851
#
# Compressibility (1/GPa) = 0.01572088
#
# Stress axis : x y z
#
# Youngs Moduli (GPa) = 60.87728 64.82349 115.44278
#
# Poissons Ratio (x) = 0.46044 0.53529
# Poissons Ratio (y) = 0.43241 0.07589
# Poissons Ratio (z) = 0.28228 0.04261
#
# Static dielectric constant tensor:
#      x y z
#    x 3.530700 0.000000 0.000000 
#    y 0.000000 3.298900 0.000000 
#    z 0.000000 0.000000 3.668480 
# 
# 
# High freq. dielectric constant tensor:
#      x y z
#    x 1.750850 0.000000 0.000000 
#    y 0.000000 1.722060 0.000000 
#    z 0.000000 0.000000 1.752980 
# 
# From -- ./inp_files/8070.got.cif
#   From: 2010.03.12/outbox.cif.g09.slc.cpg/sg41_5_cif.got.tgz:8070.got - 2010.04.14 01:55:53.
