data_PCOD8184766
_publ_section_title
;
Structure prediction by ZEFSAII (Michael W. Deem and Ramdas Pophale) SiO2 
 PCOD8184766
Probable space group: A B A 2
;
_chemical_formula_sum "Si O2"
_cell_formula_units_Z 48
_cell_length_a 18.724268
_cell_length_b 16.356830
_cell_length_c 8.134674
_cell_angle_alpha 90.000000
_cell_angle_beta 90.000000
_cell_angle_gamma 90.000000
_cell_volume 2491.403910
_symmetry_space_group_name_H-M "A B A 2"
_symmetry_group_IT_number 41
_symmetry_cell_setting 'orthorhombic'
loop_
_space_group_symop_operation_xyz
x,y,z
-x,-y,z
1/2-x,y,1/2+z
1/2+x,-y,1/2+z
x,1/2+y,1/2+z
-x,1/2-y,1/2+z
1/2-x,1/2+y,z
1/2+x,1/2-y,z
loop_
_atom_site_type_symbol
_atom_site_label
_atom_site_fract_x
_atom_site_fract_y
_atom_site_fract_z
Si Si1 0.066490 0.827408 0.000000
Si Si2 0.449925 0.178103 0.236542
Si Si3 0.421461 0.410517 0.313564
Si Si4 0.834520 0.738078 0.936226
Si Si5 0.821751 0.265260 0.815819
Si Si6 0.078470 0.092683 0.426270
O O1 0.144393 0.801202 0.937993
O O2 0.020210 0.846246 0.838322
O O3 0.034185 0.755012 0.115508
O O4 0.076397 0.907790 0.113604
O O5 0.390800 0.195933 0.372697
O O6 0.422329 0.102556 0.124613
O O7 0.358574 0.352105 0.378668
O O8 0.404208 0.500516 0.376595
O O9 0.499305 0.379554 0.371081
O O10 0.761111 0.768176 0.856916
O O11 0.831758 0.737604 0.130476
O O12 0.860620 0.352208 0.842879
#
# Coordination Sequence:
#
# PCOD8184766 Si02
#       6
#     8   8   8   8   8   8
#     4  10  18  33  58  85 111 150 195 236 279 337
#     4  10  18  33  58  85 111 150 195 236 279 337
#     4  10  21  38  58  85 118 148 184 238 288 334
#     4  11  21  37  58  83 112 151 196 234 278 341
#     4  11  21  37  58  83 112 151 196 234 278 341
#     4  10  21  38  58  85 118 148 184 238 288 334
#
# _framework density 19.266247
#
# number of rings (size 3 to 8) (size 9 to 14) (size 15 to 20)
#    0.000    1.667    0.000   10.000    0.000    0.000 
#    0.000   18.333    0.000    0.000    0.000    0.000 
#    0.000    0.000    0.000    0.000    0.000    0.000 
#
# Total GULP energy -297533.504564 kJ/mol
# GULP energy per Si atom -12397.229357 kJ/mol
# Density = 1.922240 g / cm^3
# Si number density = 19.266247 Si / 1000 Ang^3
#
#
#
# Elastic Constant Matrix: (Units=GPa)
#
#
# Indices 1 2 3 4 5 6 
#
# 1 89.8845 34.7020 5.8013 0.0000 0.0000 0.0000
# 2 34.7020 95.7875 39.8411 0.0000 0.0000 0.0000
# 3 5.8013 39.8411 118.5929 0.0000 0.0000 0.0000
# 4 0.0000 0.0000 0.0000 32.3646 0.0000 0.0000
# 5 0.0000 0.0000 0.0000 0.0000 30.8518 0.0000
# 6 0.0000 0.0000 0.0000 0.0000 0.0000 24.5838
#
#
#
# Elastic Compliance Matrix: (Units=1/GPa)
#
#
# Indices 1 2 3 4 5 6 
#
# 1 0.013058 -0.005190 0.001105 0.000000 0.000000 0.000000
# 2 -0.005190 0.014198 -0.004516 0.000000 0.000000 0.000000
# 3 0.001105 -0.004516 0.009895 0.000000 0.000000 0.000000
# 4 0.000000 0.000000 0.000000 0.030898 0.000000 0.000000
# 5 0.000000 0.000000 0.000000 0.000000 0.032413 0.000000
# 6 0.000000 0.000000 0.000000 0.000000 0.000000 0.040677
#
#
# Mechanical properties :
#
#
# Convention : Reuss Voigt Hill
#
# Bulk Modulus (GPa) = 50.12805 51.66155 50.89480
# Shear Modulus (GPa) = 30.30447 32.48808 31.39628
#
# Velocity S-wave (km/s) = 3.97032 4.11088 4.04121
# Velocity P-wave (km/s) = 6.86243 7.02888 6.94616
#
# Compressibility (1/GPa) = 0.01994891
#
# Stress axis : x y z
#
# Youngs Moduli (GPa) = 76.58220 70.43018 101.05787
#
# Poissons Ratio (x) = 0.36554 -0.11166
# Poissons Ratio (y) = 0.39748 0.45638
# Poissons Ratio (z) = -0.08461 0.31807
#
# Static dielectric constant tensor:
#      x y z
#    x 3.888130 0.000000 0.000000 
#    y 0.000000 3.261760 0.000000 
#    z 0.000000 0.000000 3.883110 
# 
# 
# High freq. dielectric constant tensor:
#      x y z
#    x 1.747540 0.000000 0.000000 
#    y 0.000000 1.718000 0.000000 
#    z 0.000000 0.000000 1.774220 
# 
# From -- ./inp_files/3090.got.cif
#   From: 2010.03.12/outbox.cif.g09.slc.cpg/sg41_2_cif.got.tgz:3090.got - 2010.04.14 01:55:53.
