data_PCOD8184402
_publ_section_title
;
Structure prediction by ZEFSAII (Michael W. Deem and Ramdas Pophale) SiO2 
 PCOD8184402
Probable space group: A M A 2
;
_chemical_formula_sum "Si O2"
_cell_formula_units_Z 40
_cell_length_a 25.926880
_cell_length_b 15.057811
_cell_length_c 5.133600
_cell_angle_alpha 90.000000
_cell_angle_beta 90.000000
_cell_angle_gamma 90.000000
_cell_volume 2004.168009
_symmetry_space_group_name_H-M "A M A 2"
_symmetry_group_IT_number 40
_symmetry_cell_setting 'orthorhombic'
loop_
_space_group_symop_operation_xyz
x,y,z
-x,-y,z
1/2-x,y,z
1/2+x,-y,z
x,1/2+y,1/2+z
-x,1/2-y,1/2+z
1/2-x,1/2+y,1/2+z
1/2+x,1/2-y,1/2+z
loop_
_atom_site_type_symbol
_atom_site_label
_atom_site_fract_x
_atom_site_fract_y
_atom_site_fract_z
Si Si1 0.855858 0.523417 0.263780
Si Si2 0.602502 0.176604 0.057165
Si Si3 0.067962 0.631830 0.112515
Si Si4 0.005504 0.099956 0.098915
Si Si5 0.191657 0.422668 0.759259
O O1 0.887404 0.617536 0.294476
O O2 0.893778 0.442333 0.219688
O O3 0.823155 0.507798 0.529085
O O4 0.814812 0.527709 0.031839
O O5 0.599019 0.281671 0.013649
O O6 0.548786 0.142883 0.179767
O O7 0.651229 0.159693 0.249762
O O8 0.030317 0.655288 0.356807
O O9 0.039154 0.595676 0.859637
O O10 0.000000 0.000000 0.994024
O O11 0.250000 0.387780 0.728347
#
# Coordination Sequence:
#
# PCOD8184402 Si02
#       5
#     8   8   8   8   8
#     4  10  22  41  63  88 122 163 204 258 316 373
#     4  10  25  39  65  92 128 160 219 253 322 379
#     4  12  24  39  64  93 132 164 208 256 316 387
#     4  12  23  39  62  94 130 171 206 251 316 386
#     4  10  22  43  67  86 122 163 211 268 323 369
#
# _framework density 19.958406
#
# number of rings (size 3 to 8) (size 9 to 14) (size 15 to 20)
#    1.200    0.000    2.000    4.800    5.600    0.000 
#    0.000    2.000    0.000    0.000    0.000    0.000 
#    0.000    0.000    0.000    0.000    0.000    0.000 
#
# Total GULP energy -247835.254513 kJ/mol
# GULP energy per Si atom -12391.762726 kJ/mol
# Density = 1.991298 g / cm^3
# Si number density = 19.958406 Si / 1000 Ang^3
#
#
#
# Elastic Constant Matrix: (Units=GPa)
#
#
# Indices 1 2 3 4 5 6 
#
# 1 125.4989 50.4838 30.7132 0.0000 0.0000 0.0000
# 2 50.4838 111.2641 31.4956 0.0000 0.0000 0.0000
# 3 30.7132 31.4956 116.3676 0.0000 0.0000 0.0000
# 4 0.0000 0.0000 0.0000 19.8877 0.0000 0.0000
# 5 0.0000 0.0000 0.0000 0.0000 25.5777 0.0000
# 6 0.0000 0.0000 0.0000 0.0000 0.0000 11.5547
#
#
#
# Elastic Compliance Matrix: (Units=1/GPa)
#
#
# Indices 1 2 3 4 5 6 
#
# 1 0.009992 -0.004101 -0.001527 0.000000 0.000000 0.000000
# 2 -0.004101 0.011417 -0.002008 0.000000 0.000000 0.000000
# 3 -0.001527 -0.002008 0.009540 0.000000 0.000000 0.000000
# 4 0.000000 0.000000 0.000000 0.050282 0.000000 0.000000
# 5 0.000000 0.000000 0.000000 0.000000 0.039097 0.000000
# 6 0.000000 0.000000 0.000000 0.000000 0.000000 0.086545
#
#
# Mechanical properties :
#
#
# Convention : Reuss Voigt Hill
#
# Bulk Modulus (GPa) = 63.78976 64.27954 64.03465
# Shear Modulus (GPa) = 21.99065 27.43322 24.71194
#
# Velocity S-wave (km/s) = 3.32297 3.71147 3.52258
# Velocity P-wave (km/s) = 6.83766 7.11642 6.97843
#
# Compressibility (1/GPa) = 0.01567650
#
# Stress axis : x y z
#
# Youngs Moduli (GPa) = 100.08286 87.59037 104.82318
#
# Poissons Ratio (x) = 0.35923 0.16008
# Poissons Ratio (y) = 0.41047 0.21044
# Poissons Ratio (z) = 0.15284 0.17584
#
# Static dielectric constant tensor:
#      x y z
#    x 3.545550 0.000000 0.000000 
#    y 0.000000 3.390780 0.000000 
#    z 0.000000 0.000000 3.667360 
# 
# 
# High freq. dielectric constant tensor:
#      x y z
#    x 1.773780 0.000000 0.000000 
#    y 0.000000 1.753100 0.000000 
#    z 0.000000 0.000000 1.786830 
# 
# From -- ./inp_files/3006.got.cif
#   From: 2010.03.12/outbox.cif.g09.slc.cpg/sg40_2_cif.got.tgz:3006.got - 2010.04.14 01:38:03.
