data_PCOD8184752
_publ_section_title
;
Structure prediction by ZEFSAII (Michael W. Deem and Ramdas Pophale) SiO2 
 PCOD8184752
Probable space group: A B A 2
;
_chemical_formula_sum "Si O2"
_cell_formula_units_Z 64
_cell_length_a 16.026611
_cell_length_b 16.111401
_cell_length_c 11.842178
_cell_angle_alpha 90.000000
_cell_angle_beta 90.000000
_cell_angle_gamma 90.000000
_cell_volume 3057.782477
_symmetry_space_group_name_H-M "A B A 2"
_symmetry_group_IT_number 41
_symmetry_cell_setting 'orthorhombic'
loop_
_space_group_symop_operation_xyz
x,y,z
-x,-y,z
1/2-x,y,1/2+z
1/2+x,-y,1/2+z
x,1/2+y,1/2+z
-x,1/2-y,1/2+z
1/2-x,1/2+y,z
1/2+x,1/2-y,z
loop_
_atom_site_type_symbol
_atom_site_label
_atom_site_fract_x
_atom_site_fract_y
_atom_site_fract_z
Si Si1 0.568976 0.289539 0.954510
Si Si2 0.600289 0.873428 0.801925
Si Si3 0.591985 0.458549 0.069804
Si Si4 0.406194 0.833924 0.781068
Si Si5 0.907070 0.521048 0.931090
Si Si6 0.374245 0.857068 0.115523
Si Si7 0.611544 0.698558 0.856224
Si Si8 0.684480 0.623118 0.062469
O O1 0.615685 0.253981 0.842098
O O2 0.470391 0.294611 0.933171
O O3 0.599390 0.382576 0.981588
O O4 0.586486 0.224898 0.056992
O O5 0.619712 0.924696 0.690536
O O6 0.504143 0.845938 0.798235
O O7 0.648678 0.786510 0.812335
O O8 0.633041 0.930157 0.908531
O O9 0.500000 0.500000 0.070355
O O10 0.661684 0.526905 0.041244
O O11 0.363492 0.910208 0.849696
O O12 0.380570 0.834975 0.650645
O O13 0.000000 0.500000 0.888849
O O14 0.906314 0.556836 0.058125
O O15 0.403043 0.859195 0.246088
O O16 0.274719 0.860004 0.112821
O O17 0.682041 0.663687 0.939133
#
# Coordination Sequence:
#
# PCOD8184752 Si02
#       8
#     8   8   8   8   8   8   8   8
#     4  10  22  42  70  93 132 179 239 283 321 415
#     4  10  17  36  67  94 122 170 241 263 316 409
#     4  12  19  39  69 102 127 178 236 277 326 421
#     4   9  18  35  66  94 121 174 224 274 328 387
#     4   9  18  39  65  90 121 172 225 276 313 399
#     4  11  26  44  65 102 143 172 224 287 360 400
#     4  11  24  41  68 100 133 181 228 283 340 408
#     4  12  25  41  68  98 144 176 220 286 355 409
#
# _framework density 20.930199999999999
#
# number of rings (size 3 to 8) (size 9 to 14) (size 15 to 20)
#    0.000    1.500    5.000    1.125    5.250    0.000 
#    4.500    0.000    0.000    0.000    0.000    0.000 
#    0.000    0.000    0.000    0.000    0.000    0.000 
#
# Total GULP energy -396432.961090 kJ/mol
# GULP energy per Si atom -12388.530034 kJ/mol
# Density = 2.088256 g / cm^3
# Si number density = 20.930200 Si / 1000 Ang^3
#
#
#
# Elastic Constant Matrix: (Units=GPa)
#
#
# Indices 1 2 3 4 5 6 
#
# 1 54.1577 28.3644 22.3691 0.0000 0.0000 0.0000
# 2 28.3644 142.5403 68.8659 0.0000 0.0000 0.0000
# 3 22.3691 68.8659 132.0842 0.0000 0.0000 0.0000
# 4 0.0000 0.0000 0.0000 42.2639 0.0000 0.0000
# 5 0.0000 0.0000 0.0000 0.0000 17.1514 0.0000
# 6 0.0000 0.0000 0.0000 0.0000 0.0000 15.9613
#
#
#
# Elastic Compliance Matrix: (Units=1/GPa)
#
#
# Indices 1 2 3 4 5 6 
#
# 1 0.020941 -0.003280 -0.001836 0.000000 0.000000 0.000000
# 2 -0.003280 0.009891 -0.004602 0.000000 0.000000 0.000000
# 3 -0.001836 -0.004602 0.010281 0.000000 0.000000 0.000000
# 4 0.000000 0.000000 0.000000 0.023661 0.000000 0.000000
# 5 0.000000 0.000000 0.000000 0.000000 0.058304 0.000000
# 6 0.000000 0.000000 0.000000 0.000000 0.000000 0.062652
#
#
# Mechanical properties :
#
#
# Convention : Reuss Voigt Hill
#
# Bulk Modulus (GPa) = 46.13066 63.10900 54.61983
# Shear Modulus (GPa) = 23.54137 29.02084 26.28111
#
# Velocity S-wave (km/s) = 3.35738 3.72768 3.54737
# Velocity P-wave (km/s) = 6.09240 6.98177 6.55219
#
# Compressibility (1/GPa) = 0.02167756
#
# Stress axis : x y z
#
# Youngs Moduli (GPa) = 47.75343 101.09709 97.26508
#
# Poissons Ratio (x) = 0.33158 0.17862
# Poissons Ratio (y) = 0.15662 0.44759
# Poissons Ratio (z) = 0.08769 0.46522
#
# Static dielectric constant tensor:
#      x y z
#    x 3.334730 0.000000 0.000000 
#    y 0.000000 4.472150 0.000000 
#    z 0.000000 0.000000 3.904700 
# 
# 
# High freq. dielectric constant tensor:
#      x y z
#    x 1.777670 0.000000 0.000000 
#    y 0.000000 1.829870 0.000000 
#    z 0.000000 0.000000 1.820040 
# 
# From -- ./inp_files/6052.got.cif
#   From: 2010.03.12/outbox.cif.g09.slc.cpg/sg41_4_cif.got.tgz:6052.got - 2010.04.14 01:55:53.
