data_PCOD8184050
_publ_section_title
;
Structure prediction by ZEFSAII (Michael W. Deem and Ramdas Pophale) SiO2 
 PCOD8184050
Probable space group: A M A 2
;
_chemical_formula_sum "Si O2"
_cell_formula_units_Z 64
_cell_length_a 19.956706
_cell_length_b 13.646210
_cell_length_c 13.604818
_cell_angle_alpha 90.000000
_cell_angle_beta 90.000000
_cell_angle_gamma 90.000000
_cell_volume 3705.046356
_symmetry_space_group_name_H-M "A M A 2"
_symmetry_group_IT_number 40
_symmetry_cell_setting 'orthorhombic'
loop_
_space_group_symop_operation_xyz
x,y,z
-x,-y,z
1/2-x,y,z
1/2+x,-y,z
x,1/2+y,1/2+z
-x,1/2-y,1/2+z
1/2-x,1/2+y,1/2+z
1/2+x,1/2-y,1/2+z
loop_
_atom_site_type_symbol
_atom_site_label
_atom_site_fract_x
_atom_site_fract_y
_atom_site_fract_z
Si Si1 0.579976 0.839695 0.831340
Si Si2 0.672918 0.614247 0.600218
Si Si3 0.825811 0.770867 0.438115
Si Si4 0.577924 0.504273 0.170295
Si Si5 0.328167 0.844718 0.321971
Si Si6 0.173282 0.504293 0.985057
Si Si7 0.568942 0.159475 0.822611
Si Si8 0.428511 0.503933 0.487151
O O1 0.597534 0.913115 0.741111
O O2 0.632768 0.753968 0.843725
O O3 0.505590 0.794400 0.813979
O O4 0.585667 0.892095 0.937094
O O5 0.750000 0.585498 0.589276
O O6 0.656645 0.714435 0.540139
O O7 0.651514 0.624188 0.712497
O O8 0.631679 0.522231 0.559403
O O9 0.750000 0.744166 0.406393
O O10 0.834850 0.885765 0.447685
O O11 0.876148 0.739703 0.351682
O O12 0.500000 0.500000 0.139550
O O13 0.591646 0.608740 0.221635
O O14 0.624248 0.507605 0.075794
O O15 0.250000 0.820262 0.328403
O O16 0.348040 0.930454 0.397985
O O17 0.250000 0.484719 0.017931
O O18 0.563679 0.073739 0.900828
O O19 0.500000 0.500000 0.544793
#
# Coordination Sequence:
#
# PCOD8184050 Si02
#       8
#     8   8   8   8   8   8   8   8
#     4   9  17  32  53  74  98 127 158 195 242 293
#     4   9  17  31  51  72  94 123 161 201 237 279
#     4   9  17  31  52  74  95 126 166 201 237 285
#     4   9  18  33  53  76 100 127 161 201 245 292
#     4  10  21  35  48  67  98 130 161 200 241 282
#     4  10  21  35  49  69 100 135 168 202 241 286
#     4   8  16  31  51  76 101 123 155 202 246 284
#     4   8  15  30  51  74  99 123 152 196 243 285
#
# _framework density 17.273738000000002
#
# number of rings (size 3 to 8) (size 9 to 14) (size 15 to 20)
#    0.000    3.000    0.000    2.250    0.000    3.500 
#    0.000    9.375    0.000    3.000    0.000    0.000 
#    0.000    0.000    0.000    0.000    0.000    0.000 
#
# Total GULP energy -396644.306380 kJ/mol
# GULP energy per Si atom -12395.134574 kJ/mol
# Density = 1.723442 g / cm^3
# Si number density = 17.273738 Si / 1000 Ang^3
#
#
#
# Elastic Constant Matrix: (Units=GPa)
#
#
# Indices 1 2 3 4 5 6 
#
# 1 83.6404 62.2740 62.0509 0.0000 0.0000 0.0000
# 2 62.2740 95.5633 60.0257 0.0000 0.0000 0.0000
# 3 62.0509 60.0257 96.2673 0.0000 0.0000 0.0000
# 4 0.0000 0.0000 0.0000 20.2518 0.0000 0.0000
# 5 0.0000 0.0000 0.0000 0.0000 24.8538 0.0000
# 6 0.0000 0.0000 0.0000 0.0000 0.0000 24.8317
#
#
#
# Elastic Compliance Matrix: (Units=1/GPa)
#
#
# Indices 1 2 3 4 5 6 
#
# 1 0.029345 -0.011904 -0.011492 0.000000 0.000000 0.000000
# 2 -0.011904 0.022030 -0.006064 0.000000 0.000000 0.000000
# 3 -0.011492 -0.006064 0.021576 0.000000 0.000000 0.000000
# 4 0.000000 0.000000 0.000000 0.049378 0.000000 0.000000
# 5 0.000000 0.000000 0.000000 0.000000 0.040235 0.000000
# 6 0.000000 0.000000 0.000000 0.000000 0.000000 0.040271
#
#
# Mechanical properties :
#
#
# Convention : Reuss Voigt Hill
#
# Bulk Modulus (GPa) = 71.26825 71.57470 71.42147
# Shear Modulus (GPa) = 18.76644 20.06215 19.41429
#
# Velocity S-wave (km/s) = 3.29966 3.41167 3.35613
# Velocity P-wave (km/s) = 7.47427 7.55280 7.51364
#
# Compressibility (1/GPa) = 0.01403149
#
# Stress axis : x y z
#
# Youngs Moduli (GPa) = 34.07749 45.39205 46.34755
#
# Poissons Ratio (x) = 0.54035 0.53264
# Poissons Ratio (y) = 0.40566 0.28103
# Poissons Ratio (z) = 0.39163 0.27524
#
# Static dielectric constant tensor:
#      x y z
#    x 3.391740 0.000000 0.000000 
#    y 0.000000 3.153390 0.000000 
#    z 0.000000 0.000000 3.164990 
# 
# 
# High freq. dielectric constant tensor:
#      x y z
#    x 1.674830 0.000000 0.000000 
#    y 0.000000 1.654470 0.000000 
#    z 0.000000 0.000000 1.652550 
# 
# From -- ./inp_files/17950.got.cif
#   From: 2010.03.12/outbox.cif.g09.slc.cpg/sg40_9_cif.got.tgz:17950.got - 2010.04.14 01:38:03.
