data_PCOD8184254
_publ_section_title
;
Structure prediction by ZEFSAII (Michael W. Deem and Ramdas Pophale) SiO2 
 PCOD8184254
Probable space group: A M A 2
;
_chemical_formula_sum "Si O2"
_cell_formula_units_Z 48
_cell_length_a 13.307310
_cell_length_b 28.968140
_cell_length_c 5.348752
_cell_angle_alpha 90.000000
_cell_angle_beta 90.000000
_cell_angle_gamma 90.000000
_cell_volume 2061.879813
_symmetry_space_group_name_H-M "A M A 2"
_symmetry_group_IT_number 40
_symmetry_cell_setting 'orthorhombic'
loop_
_space_group_symop_operation_xyz
x,y,z
-x,-y,z
1/2-x,y,z
1/2+x,-y,z
x,1/2+y,1/2+z
-x,1/2-y,1/2+z
1/2-x,1/2+y,1/2+z
1/2+x,1/2-y,1/2+z
loop_
_atom_site_type_symbol
_atom_site_label
_atom_site_fract_x
_atom_site_fract_y
_atom_site_fract_z
Si Si1 0.013497 0.183866 0.873890
Si Si2 0.364031 0.471763 0.372992
Si Si3 0.363625 0.029994 0.365927
Si Si4 0.639202 0.242121 0.592544
Si Si5 0.859817 0.154698 0.253639
Si Si6 0.014966 0.901676 0.591111
O O1 0.943790 0.227032 0.792491
O O2 0.043818 0.146029 0.665238
O O3 0.112425 0.206607 0.992248
O O4 0.947455 0.152163 0.054017
O O5 0.250000 0.453326 0.409369
O O6 0.395492 0.500410 0.621272
O O7 0.445570 0.431047 0.330990
O O8 0.371402 0.501256 0.120194
O O9 0.250000 0.048676 0.328003
O O10 0.440397 0.072164 0.401667
O O11 0.750000 0.245029 0.717296
O O12 0.640470 0.205487 0.370813
O O13 0.750000 0.144527 0.136393
O O14 0.883005 0.113915 0.450188
#
# Coordination Sequence:
#
# PCOD8184254 Si02
#       6
#     8   8   8   8   8   8
#     4  11  22  40  64  96 134 175 223 280 341 412
#     4  10  23  44  69  96 133 182 230 278 347 418
#     4  10  24  45  69  98 137 183 227 280 347 418
#     4  10  21  40  64  93 129 176 225 270 336 413
#     4  10  22  40  65  96 133 172 220 285 343 404
#     4  11  25  39  67 101 135 171 231 288 340 409
#
# _framework density 23.279726
#
# number of rings (size 3 to 8) (size 9 to 14) (size 15 to 20)
#    0.000    1.667    1.667    1.500    4.667    4.000 
#    0.000    0.833    0.000    0.000    0.000    0.000 
#    0.000    0.000    0.000    0.000    0.000    0.000 
#
# Total GULP energy -297444.752634 kJ/mol
# GULP energy per Si atom -12393.531360 kJ/mol
# Density = 2.322674 g / cm^3
# Si number density = 23.279726 Si / 1000 Ang^3
#
#
#
# Elastic Constant Matrix: (Units=GPa)
#
#
# Indices 1 2 3 4 5 6 
#
# 1 104.6237 63.2203 24.6793 0.0000 0.0000 0.0000
# 2 63.2203 125.9840 45.9831 0.0000 0.0000 0.0000
# 3 24.6793 45.9831 106.9550 0.0000 0.0000 0.0000
# 4 0.0000 0.0000 0.0000 33.2234 0.0000 0.0000
# 5 0.0000 0.0000 0.0000 0.0000 -44.3797 0.0000
# 6 0.0000 0.0000 0.0000 0.0000 0.0000 14.0780
#
#
#
# Elastic Compliance Matrix: (Units=1/GPa)
#
#
# Indices 1 2 3 4 5 6 
#
# 1 0.013723 -0.006797 -0.000244 0.000000 0.000000 0.000000
# 2 -0.006797 0.012782 -0.003927 0.000000 0.000000 0.000000
# 3 -0.000244 -0.003927 0.011094 0.000000 0.000000 0.000000
# 4 0.000000 0.000000 0.000000 0.030099 0.000000 0.000000
# 5 0.000000 0.000000 0.000000 0.000000 -0.022533 0.000000
# 6 0.000000 0.000000 0.000000 0.000000 0.000000 0.071033
#
#
# Mechanical properties :
#
#
# Convention : Reuss Voigt Hill
#
# Bulk Modulus (GPa) = 63.84648 67.25868 65.55258
# Shear Modulus (GPa) = 34.87838 14.16302 24.52070
#
# Velocity S-wave (km/s) = 3.87490 2.46922 3.24899
# Velocity P-wave (km/s) = 6.89239 6.08963 6.50341
#
# Compressibility (1/GPa) = 0.01566257
#
# Stress axis : x y z
#
# Youngs Moduli (GPa) = 72.87047 78.23691 90.13625
#
# Poissons Ratio (x) = 0.53179 0.02201
# Poissons Ratio (y) = 0.49532 0.35395
# Poissons Ratio (z) = 0.01779 0.30722
#
# Static dielectric constant tensor:
#      x y z
#    x 4.429520 0.000000 0.000000 
#    y 0.000000 4.100340 0.000000 
#    z 0.000000 0.000000 4.185540 
# 
# 
# High freq. dielectric constant tensor:
#      x y z
#    x 1.915260 0.000000 0.000000 
#    y 0.000000 1.917570 0.000000 
#    z 0.000000 0.000000 1.917740 
# 
# From -- ./inp_files/1347.got.cif
#   From: 2010.03.12/outbox.cif.g09.slc.cpg/sg40_1_cif.got.tgz:1347.got - 2010.04.14 01:38:03.
