data_PCOD8184181
_publ_section_title
;
Structure prediction by ZEFSAII (Michael W. Deem and Ramdas Pophale) SiO2 
 PCOD8184181
Probable space group: A M A 2
;
_chemical_formula_sum "Si O2"
_cell_formula_units_Z 64
_cell_length_a 27.899472
_cell_length_b 9.311989
_cell_length_c 11.838988
_cell_angle_alpha 90.000000
_cell_angle_beta 90.000000
_cell_angle_gamma 90.000000
_cell_volume 3075.764067
_symmetry_space_group_name_H-M "A M A 2"
_symmetry_group_IT_number 40
_symmetry_cell_setting 'orthorhombic'
loop_
_space_group_symop_operation_xyz
x,y,z
-x,-y,z
1/2-x,y,z
1/2+x,-y,z
x,1/2+y,1/2+z
-x,1/2-y,1/2+z
1/2-x,1/2+y,1/2+z
1/2+x,1/2-y,1/2+z
loop_
_atom_site_type_symbol
_atom_site_label
_atom_site_fract_x
_atom_site_fract_y
_atom_site_fract_z
Si Si1 0.804904 0.418754 0.947660
Si Si2 0.130821 0.885017 0.298762
Si Si3 0.149380 0.579455 0.191087
Si Si4 0.616991 0.500210 0.556874
Si Si5 0.694511 0.097941 0.886749
Si Si6 0.560815 0.776850 0.938606
Si Si7 0.044813 0.092008 0.716669
Si Si8 0.024955 0.350204 0.573826
O O1 0.750000 0.463204 0.953985
O O2 0.830129 0.544493 0.879084
O O3 0.812354 0.268772 0.883262
O O4 0.823333 0.403731 0.074717
O O5 0.149857 0.730402 0.257742
O O6 0.121700 0.988585 0.192325
O O7 0.082745 0.862171 0.375404
O O8 0.174801 0.460975 0.268421
O O9 0.094371 0.532387 0.163043
O O10 0.666564 0.532029 0.493873
O O11 0.599511 0.338333 0.528845
O O12 0.576059 0.614022 0.515280
O O13 0.750000 0.055267 0.902274
O O14 0.551110 0.908626 0.851416
O O15 0.509075 0.749238 0.995941
O O16 0.036562 0.258749 0.684995
O O17 0.000000 0.000000 0.674664
O O18 0.000000 0.500000 0.608997
#
# Coordination Sequence:
#
# PCOD8184181 Si02
#       8
#     8   8   8   8   8   8   8   8
#     4  11  26  44  66 100 135 172 221 283 340 396
#     4  11  23  42  69  98 132 173 227 268 336 398
#     4  11  23  46  70  93 138 174 222 275 332 400
#     4  11  19  43  67  96 129 175 218 271 329 394
#     4  11  23  42  68  97 128 176 223 271 343 399
#     4  10  22  40  65  95 133 174 221 266 329 394
#     4  11  21  39  62  99 126 171 222 263 330 391
#     4  10  21  38  63  89 134 173 213 266 322 390
#
# _framework density 20.807839000000001
#
# number of rings (size 3 to 8) (size 9 to 14) (size 15 to 20)
#    0.000    1.250    6.250    1.500    1.750    2.500 
#    2.250    0.625    0.000    0.000    0.000    0.000 
#    0.000    0.000    0.000    0.000    0.000    0.000 
#
# Total GULP energy -396678.803822 kJ/mol
# GULP energy per Si atom -12396.212619 kJ/mol
# Density = 2.076048 g / cm^3
# Si number density = 20.807839 Si / 1000 Ang^3
#
#
#
# Elastic Constant Matrix: (Units=GPa)
#
#
# Indices 1 2 3 4 5 6 
#
# 1 149.8639 39.4891 55.2091 0.0000 0.0000 0.0000
# 2 39.4891 55.3860 42.3349 0.0000 0.0000 0.0000
# 3 55.2091 42.3349 106.3294 0.0000 0.0000 0.0000
# 4 0.0000 0.0000 0.0000 31.8325 0.0000 0.0000
# 5 0.0000 0.0000 0.0000 0.0000 32.2751 0.0000
# 6 0.0000 0.0000 0.0000 0.0000 0.0000 30.6986
#
#
#
# Elastic Compliance Matrix: (Units=1/GPa)
#
#
# Indices 1 2 3 4 5 6 
#
# 1 0.008831 -0.004013 -0.002988 0.000000 0.000000 0.000000
# 2 -0.004013 0.027777 -0.008976 0.000000 0.000000 0.000000
# 3 -0.002988 -0.008976 0.014530 0.000000 0.000000 0.000000
# 4 0.000000 0.000000 0.000000 0.031414 0.000000 0.000000
# 5 0.000000 0.000000 0.000000 0.000000 0.030984 0.000000
# 6 0.000000 0.000000 0.000000 0.000000 0.000000 0.032575
#
#
# Mechanical properties :
#
#
# Convention : Reuss Voigt Hill
#
# Bulk Modulus (GPa) = 52.12341 65.07171 58.59756
# Shear Modulus (GPa) = 27.10664 30.59766 28.85215
#
# Velocity S-wave (km/s) = 3.61323 3.83885 3.72775
# Velocity P-wave (km/s) = 6.52008 7.14070 6.83744
#
# Compressibility (1/GPa) = 0.01918524
#
# Stress axis : x y z
#
# Youngs Moduli (GPa) = 113.24256 36.00134 68.82478
#
# Poissons Ratio (x) = 0.14446 0.20561
# Poissons Ratio (y) = 0.45439 0.61776
# Poissons Ratio (z) = 0.33831 0.32314
#
# Static dielectric constant tensor:
#      x y z
#    x 4.024670 0.000000 0.000000 
#    y 0.000000 3.582650 0.000000 
#    z 0.000000 0.000000 3.743860 
# 
# 
# High freq. dielectric constant tensor:
#      x y z
#    x 1.826490 0.000000 0.000000 
#    y 0.000000 1.794310 0.000000 
#    z 0.000000 0.000000 1.815850 
# 
# From -- ./inp_files/14430.got.cif
#   From: 2010.03.12/outbox.cif.g09.slc.cpg/sg40_8_cif.got.tgz:14430.got - 2010.04.14 01:38:03.
