data_PCOD8184328
_publ_section_title
;
Structure prediction by ZEFSAII (Michael W. Deem and Ramdas Pophale) SiO2 
 PCOD8184328
Probable space group: A M A 2
;
_chemical_formula_sum "Si O2"
_cell_formula_units_Z 64
_cell_length_a 17.694747
_cell_length_b 27.658525
_cell_length_c 6.755237
_cell_angle_alpha 90.000000
_cell_angle_beta 90.000000
_cell_angle_gamma 90.000000
_cell_volume 3306.084609
_symmetry_space_group_name_H-M "A M A 2"
_symmetry_group_IT_number 40
_symmetry_cell_setting 'orthorhombic'
loop_
_space_group_symop_operation_xyz
x,y,z
-x,-y,z
1/2-x,y,z
1/2+x,-y,z
x,1/2+y,1/2+z
-x,1/2-y,1/2+z
1/2-x,1/2+y,1/2+z
1/2+x,1/2-y,1/2+z
loop_
_atom_site_type_symbol
_atom_site_label
_atom_site_fract_x
_atom_site_fract_y
_atom_site_fract_z
Si Si1 0.835471 0.237234 0.544590
Si Si2 0.159537 0.499280 0.497356
Si Si3 0.409247 0.225617 0.655931
Si Si4 0.443533 0.807504 0.847931
Si Si5 0.552522 0.588022 0.500383
Si Si6 0.834261 0.329464 0.815019
Si Si7 0.054503 0.541671 0.183447
Si Si8 0.081333 0.576417 0.768405
O O1 0.750000 0.217640 0.538076
O O2 0.863191 0.244425 0.320231
O O3 0.883741 0.198330 0.668871
O O4 0.841176 0.287822 0.654620
O O5 0.250000 0.497849 0.498440
O O6 0.127561 0.444684 0.515411
O O7 0.128560 0.521195 0.293010
O O8 0.128156 0.532094 0.675636
O O9 0.473619 0.192456 0.752865
O O10 0.444256 0.264247 0.505200
O O11 0.357362 0.188777 0.533108
O O12 0.423879 0.856607 0.965402
O O13 0.495361 0.574293 0.326501
O O14 0.505983 0.578619 0.701678
O O15 0.750000 0.349187 0.835895
O O16 0.882899 0.372007 0.718324
O O17 0.000000 0.500000 0.099449
O O18 0.085187 0.572717 0.003732
#
# Coordination Sequence:
#
# PCOD8184328 Si02
#       8
#     8   8   8   8   8   8   8   8
#     4  10  22  40  57  80 119 156 192 244 300 359
#     4  10  22  39  56  82 119 156 197 247 300 356
#     4  11  21  37  59  86 117 151 197 249 299 361
#     4  11  22  36  61  88 115 153 201 244 300 359
#     4  10  22  37  59  86 116 156 196 246 295 358
#     4  10  22  36  56  86 117 149 188 240 306 364
#     4   9  19  37  58  81 110 147 192 237 292 346
#     4  11  20  36  62  87 116 151 198 248 301 357
#
# _framework density 19.358246000000001
#
# number of rings (size 3 to 8) (size 9 to 14) (size 15 to 20)
#    0.000    1.750    1.250    4.125    1.750    4.000 
#    0.000    0.000    0.000    0.000    0.000    0.000 
#    0.000    0.000    0.000    0.000    0.000    0.000 
#
# Total GULP energy -396819.117074 kJ/mol
# GULP energy per Si atom -12400.597409 kJ/mol
# Density = 1.931419 g / cm^3
# Si number density = 19.358246 Si / 1000 Ang^3
#
#
#
# Elastic Constant Matrix: (Units=GPa)
#
#
# Indices 1 2 3 4 5 6 
#
# 1 102.4974 15.6897 20.5662 0.0000 0.0000 0.0000
# 2 15.6897 76.7139 8.3586 0.0000 0.0000 0.0000
# 3 20.5662 8.3586 86.4778 0.0000 0.0000 0.0000
# 4 0.0000 0.0000 0.0000 24.9353 0.0000 0.0000
# 5 0.0000 0.0000 0.0000 0.0000 22.9351 0.0000
# 6 0.0000 0.0000 0.0000 0.0000 0.0000 25.9023
#
#
#
# Elastic Compliance Matrix: (Units=1/GPa)
#
#
# Indices 1 2 3 4 5 6 
#
# 1 0.010512 -0.001897 -0.002316 0.000000 0.000000 0.000000
# 2 -0.001897 0.013517 -0.000855 0.000000 0.000000 0.000000
# 3 -0.002316 -0.000855 0.012197 0.000000 0.000000 0.000000
# 4 0.000000 0.000000 0.000000 0.040104 0.000000 0.000000
# 5 0.000000 0.000000 0.000000 0.000000 0.043601 0.000000
# 6 0.000000 0.000000 0.000000 0.000000 0.000000 0.038607
#
#
# Mechanical properties :
#
#
# Convention : Reuss Voigt Hill
#
# Bulk Modulus (GPa) = 38.33293 39.43535 38.88414
# Shear Modulus (GPa) = 28.18943 29.49282 28.84113
#
# Velocity S-wave (km/s) = 3.82016 3.90747 3.86406
# Velocity P-wave (km/s) = 6.26921 6.38540 6.32757
#
# Compressibility (1/GPa) = 0.02608723
#
# Stress axis : x y z
#
# Youngs Moduli (GPa) = 95.13297 73.98258 81.98585
#
# Poissons Ratio (x) = 0.14038 0.18992
# Poissons Ratio (y) = 0.18051 0.07012
# Poissons Ratio (z) = 0.22037 0.06327
#
# Static dielectric constant tensor:
#      x y z
#    x 3.561030 0.000000 0.000000 
#    y 0.000000 3.449280 0.000000 
#    z 0.000000 0.000000 3.560670 
# 
# 
# High freq. dielectric constant tensor:
#      x y z
#    x 1.750470 0.000000 0.000000 
#    y 0.000000 1.749700 0.000000 
#    z 0.000000 0.000000 1.760660 
# 
# From -- ./inp_files/2011.got.cif
#   From: 2010.03.12/outbox.cif.g09.slc.cpg/sg40_2_cif.got.tgz:2011.got - 2010.04.14 01:38:03.
