data_PCOD8184146
_publ_section_title
;
Structure prediction by ZEFSAII (Michael W. Deem and Ramdas Pophale) SiO2 
 PCOD8184146
Probable space group: A M A 2
;
_chemical_formula_sum "Si O2"
_cell_formula_units_Z 64
_cell_length_a 17.654172
_cell_length_b 32.297459
_cell_length_c 5.142581
_cell_angle_alpha 90.000000
_cell_angle_beta 90.000000
_cell_angle_gamma 90.000000
_cell_volume 2932.222014
_symmetry_space_group_name_H-M "A M A 2"
_symmetry_group_IT_number 40
_symmetry_cell_setting 'orthorhombic'
loop_
_space_group_symop_operation_xyz
x,y,z
-x,-y,z
1/2-x,y,z
1/2+x,-y,z
x,1/2+y,1/2+z
-x,1/2-y,1/2+z
1/2-x,1/2+y,1/2+z
1/2+x,1/2-y,1/2+z
loop_
_atom_site_type_symbol
_atom_site_label
_atom_site_fract_x
_atom_site_fract_y
_atom_site_fract_z
Si Si1 0.840628 0.601963 0.816780
Si Si2 0.662842 0.234084 0.603164
Si Si3 0.160683 0.632692 0.285580
Si Si4 0.659803 0.960865 0.754197
Si Si5 0.528077 0.727446 0.746908
Si Si6 0.392955 0.678157 0.783572
Si Si7 0.340324 0.991044 0.254226
Si Si8 0.660901 0.648186 0.319146
O O1 0.750000 0.601880 0.817651
O O2 0.871802 0.555586 0.775784
O O3 0.873173 0.630759 0.586111
O O4 0.873344 0.621307 0.081993
O O5 0.750000 0.229989 0.516637
O O6 0.615215 0.227111 0.337076
O O7 0.639540 0.196700 0.798011
O O8 0.648386 0.277781 0.738288
O O9 0.250000 0.635254 0.243928
O O10 0.129982 0.586129 0.253356
O O11 0.122317 0.662737 0.075242
O O12 0.139801 0.645917 0.576873
O O13 0.750000 0.960827 0.765316
O O14 0.628934 0.982947 0.497236
O O15 0.627446 0.986703 0.997671
O O16 0.478806 0.753022 0.961874
O O17 0.483931 0.683226 0.744081
O O18 0.250000 0.990381 0.251036
O O19 0.750000 0.641797 0.315928
#
# Coordination Sequence:
#
# PCOD8184146 Si02
#       8
#     8   8   8   8   8   8   8   8
#     4   9  16  27  42  65  99 136 169 208 264 322
#     4  10  21  38  59  82 109 146 187 224 271 324
#     4  11  21  34  52  78 111 144 187 235 272 317
#     4   9  17  27  42  67  98 134 175 220 263 308
#     4  10  22  40  58  78 107 142 184 232 272 317
#     4  11  22  36  55  78 109 149 185 223 275 326
#     4   9  15  25  42  63  95 138 173 204 263 331
#     4   9  18  29  44  69 100 131 170 219 260 305
#
# _framework density 21.826450999999999
#
# number of rings (size 3 to 8) (size 9 to 14) (size 15 to 20)
#    0.000    2.250    0.000    4.125    0.000    8.000 
#    0.000    8.125    0.000    0.000    0.000    0.000 
#    0.000   15.000    0.000    0.000    0.000    0.000 
#
# Total GULP energy -396721.929380 kJ/mol
# GULP energy per Si atom -12397.560293 kJ/mol
# Density = 2.177677 g / cm^3
# Si number density = 21.826451 Si / 1000 Ang^3
#
#
#
# Elastic Constant Matrix: (Units=GPa)
#
#
# Indices 1 2 3 4 5 6 
#
# 1 41.4556 13.3180 -10.3706 0.0000 0.0000 0.0000
# 2 13.3180 137.0834 34.8839 0.0000 0.0000 0.0000
# 3 -10.3706 34.8839 100.4567 0.0000 0.0000 0.0000
# 4 0.0000 0.0000 0.0000 35.0763 0.0000 0.0000
# 5 0.0000 0.0000 0.0000 0.0000 18.0062 0.0000
# 6 0.0000 0.0000 0.0000 0.0000 0.0000 4.0956
#
#
#
# Elastic Compliance Matrix: (Units=1/GPa)
#
#
# Indices 1 2 3 4 5 6 
#
# 1 0.026251 -0.003554 0.003944 0.000000 0.000000 0.000000
# 2 -0.003554 0.008483 -0.003313 0.000000 0.000000 0.000000
# 3 0.003944 -0.003313 0.011512 0.000000 0.000000 0.000000
# 4 0.000000 0.000000 0.000000 0.028509 0.000000 0.000000
# 5 0.000000 0.000000 0.000000 0.000000 0.055536 0.000000
# 6 0.000000 0.000000 0.000000 0.000000 0.000000 0.244165
#
#
# Mechanical properties :
#
#
# Convention : Reuss Voigt Hill
#
# Bulk Modulus (GPa) = 24.75208 39.40647 32.07928
# Shear Modulus (GPa) = 12.69783 27.51324 20.10553
#
# Velocity S-wave (km/s) = 2.41459 3.55427 3.03835
# Velocity P-wave (km/s) = 4.37478 5.91079 5.19981
#
# Compressibility (1/GPa) = 0.04040064
#
# Stress axis : x y z
#
# Youngs Moduli (GPa) = 38.09435 117.88164 86.86559
#
# Poissons Ratio (x) = 0.41895 -0.34261
# Poissons Ratio (y) = 0.13539 0.28776
# Poissons Ratio (z) = -0.15025 0.39050
#
# Static dielectric constant tensor:
#      x y z
#    x 3.503280 0.000000 0.000000 
#    y 0.000000 4.109060 0.000000 
#    z 0.000000 0.000000 4.078680 
# 
# 
# High freq. dielectric constant tensor:
#      x y z
#    x 1.803280 0.000000 0.000000 
#    y 0.000000 1.866240 0.000000 
#    z 0.000000 0.000000 1.873150 
# 
# From -- ./inp_files/2030.got.cif
#   From: 2010.03.12/outbox.cif.g09.slc.cpg/sg40_2_cif.got.tgz:2030.got - 2010.04.14 01:38:03.
