data_PCOD8184463
_publ_section_title
;
Structure prediction by ZEFSAII (Michael W. Deem and Ramdas Pophale) SiO2 
 PCOD8184463
Probable space group: A M A 2
;
_chemical_formula_sum "Si O2"
_cell_formula_units_Z 28
_cell_length_a 14.317780
_cell_length_b 5.307716
_cell_length_c 13.630730
_cell_angle_alpha 90.000000
_cell_angle_beta 90.000000
_cell_angle_gamma 90.000000
_cell_volume 1035.863373
_symmetry_space_group_name_H-M "A M A 2"
_symmetry_group_IT_number 40
_symmetry_cell_setting 'orthorhombic'
loop_
_space_group_symop_operation_xyz
x,y,z
-x,-y,z
1/2-x,y,z
1/2+x,-y,z
x,1/2+y,1/2+z
-x,1/2-y,1/2+z
1/2-x,1/2+y,1/2+z
1/2+x,1/2-y,1/2+z
loop_
_atom_site_type_symbol
_atom_site_label
_atom_site_fract_x
_atom_site_fract_y
_atom_site_fract_z
Si Si1 0.250000 0.831868 0.308180
Si Si2 0.594967 0.412521 0.181679
Si Si3 0.750000 0.566893 0.463628
Si Si4 0.446566 0.751400 0.973237
Si Si5 0.750000 0.792439 0.157178
O O1 0.344822 0.733400 0.260014
O O2 0.250000 0.721483 0.418890
O O3 0.250000 0.125594 0.274038
O O4 0.500000 0.500000 0.236744
O O5 0.559551 0.244415 0.090927
O O6 0.655967 0.639128 0.135617
O O7 0.659895 0.732151 0.430451
O O8 0.750000 0.530842 0.582218
O O9 0.500000 0.500000 0.934144
O O10 0.500000 0.000000 0.938084
#
# Coordination Sequence:
#
# PCOD8184463 Si02
#       5
#     4   8   4   8   4
#     4  11  25  41  70 110 140 195 252 305 393 438
#     4  10  22  43  71 100 149 192 255 309 381 458
#     4  12  23  46  76 107 162 193 253 339 370 468
#     4  11  24  44  77 112 145 214 261 309 399 465
#     4  11  22  47  68 111 144 206 253 308 397 462
#
# _framework density 27.030594000000001
#
# number of rings (size 3 to 8) (size 9 to 14) (size 15 to 20)
#    0.000    1.143    2.857    4.286    0.000    2.286 
#   20.571    0.000    0.000    0.000    0.000    0.000 
#    0.000    0.000    0.000    0.000    0.000    0.000 
#
# Total GULP energy -173498.108745 kJ/mol
# GULP energy per Si atom -12392.722053 kJ/mol
# Density = 2.696907 g / cm^3
# Si number density = 27.030594 Si / 1000 Ang^3
#
#
#
# Elastic Constant Matrix: (Units=GPa)
#
#
# Indices 1 2 3 4 5 6 
#
# 1 241.7962 60.3871 -1.4738 0.0000 0.0000 0.0000
# 2 60.3871 132.5929 3.0391 0.0000 0.0000 0.0000
# 3 -1.4738 3.0391 61.7772 0.0000 0.0000 0.0000
# 4 0.0000 0.0000 0.0000 28.7858 0.0000 0.0000
# 5 0.0000 0.0000 0.0000 0.0000 6.2728 0.0000
# 6 0.0000 0.0000 0.0000 0.0000 0.0000 4.1663
#
#
#
# Elastic Compliance Matrix: (Units=1/GPa)
#
#
# Indices 1 2 3 4 5 6 
#
# 1 0.004669 -0.002132 0.000216 0.000000 0.000000 0.000000
# 2 -0.002132 0.008523 -0.000470 0.000000 0.000000 0.000000
# 3 0.000216 -0.000470 0.016216 0.000000 0.000000 0.000000
# 4 0.000000 0.000000 0.000000 0.034739 0.000000 0.000000
# 5 0.000000 0.000000 0.000000 0.000000 0.159419 0.000000
# 6 0.000000 0.000000 0.000000 0.000000 0.000000 0.240024
#
#
# Mechanical properties :
#
#
# Convention : Reuss Voigt Hill
#
# Bulk Modulus (GPa) = 40.58867 62.23012 51.40940
# Shear Modulus (GPa) = 10.49156 32.79255 21.64205
#
# Velocity S-wave (km/s) = 1.97226 3.48683 2.83265
# Velocity P-wave (km/s) = 4.49831 6.26759 5.45516
#
# Compressibility (1/GPa) = 0.02463742
#
# Stress axis : x y z
#
# Youngs Moduli (GPa) = 214.16154 117.32368 61.66939
#
# Poissons Ratio (x) = 0.25008 -0.01334
# Poissons Ratio (y) = 0.45649 0.02899
# Poissons Ratio (z) = -0.04631 0.05516
#
# Static dielectric constant tensor:
#      x y z
#    x 5.848680 0.000000 0.000000 
#    y 0.000000 4.831240 0.000000 
#    z 0.000000 0.000000 4.378650 
# 
# 
# High freq. dielectric constant tensor:
#      x y z
#    x 2.117150 0.000000 0.000000 
#    y 0.000000 2.072950 0.000000 
#    z 0.000000 0.000000 2.065600 
# 
# From -- ./inp_files/20256.got.cif
#   From: 2010.03.12/outbox.cif.g09.slc.cpg/sg40_11_cif.got.tgz:20256.got - 2010.04.14 01:38:03.
