data_PCOD8184165
_publ_section_title
;
Structure prediction by ZEFSAII (Michael W. Deem and Ramdas Pophale) SiO2 
 PCOD8184165
Probable space group: A M A 2
;
_chemical_formula_sum "Si O2"
_cell_formula_units_Z 48
_cell_length_a 8.583251
_cell_length_b 18.906919
_cell_length_c 14.911052
_cell_angle_alpha 90.000000
_cell_angle_beta 90.000000
_cell_angle_gamma 90.000000
_cell_volume 2419.807738
_symmetry_space_group_name_H-M "A M A 2"
_symmetry_group_IT_number 40
_symmetry_cell_setting 'orthorhombic'
loop_
_space_group_symop_operation_xyz
x,y,z
-x,-y,z
1/2-x,y,z
1/2+x,-y,z
x,1/2+y,1/2+z
-x,1/2-y,1/2+z
1/2-x,1/2+y,1/2+z
1/2+x,1/2-y,1/2+z
loop_
_atom_site_type_symbol
_atom_site_label
_atom_site_fract_x
_atom_site_fract_y
_atom_site_fract_z
Si Si1 0.068698 0.924691 0.803360
Si Si2 0.566999 0.924510 0.103271
Si Si3 0.069151 0.924988 0.594035
Si Si4 0.431245 0.168992 0.446561
Si Si5 0.432417 0.678212 0.443408
Si Si6 0.067438 0.924459 0.293376
O O1 0.250000 0.922369 0.828966
O O2 0.041100 0.911439 0.698569
O O3 0.974875 0.863592 0.853373
O O4 0.000000 0.000000 0.833087
O O5 0.750000 0.932150 0.111954
O O6 0.500654 0.899109 0.198443
O O7 0.500000 0.000000 0.073719
O O8 0.518311 0.867688 0.029259
O O9 0.250000 0.923757 0.568435
O O10 0.980741 0.863180 0.541885
O O11 0.000000 0.000000 0.563742
O O12 0.250000 0.156075 0.429491
O O13 0.466644 0.251524 0.447527
O O14 0.528026 0.133439 0.367165
O O15 0.250000 0.696554 0.443595
O O16 0.250000 0.932537 0.283223
O O17 0.000000 0.000000 0.323283
#
# Coordination Sequence:
#
# PCOD8184165 Si02
#       6
#     8   8   8   8   8   8
#     4  10  21  38  62  89 118 153 194 240 286 338
#     4  10  21  38  61  88 117 150 192 239 286 338
#     4  10  21  39  62  88 117 150 192 239 286 338
#     4  12  25  40  59  84 117 155 194 237 289 347
#     4  11  24  40  59  85 119 156 194 238 288 344
#     4  11  22  39  63  88 116 150 192 239 287 341
#
# _framework density 19.836285
#
# number of rings (size 3 to 8) (size 9 to 14) (size 15 to 20)
#    0.000    1.333    0.000    7.000    0.000    7.333 
#    0.000    1.667    0.000    0.000    0.000    0.000 
#    0.000    0.000    0.000    0.000    0.000    0.000 
#
# Total GULP energy -297773.427394 kJ/mol
# GULP energy per Si atom -12407.226141 kJ/mol
# Density = 1.979114 g / cm^3
# Si number density = 19.836285 Si / 1000 Ang^3
#
#
#
# Elastic Constant Matrix: (Units=GPa)
#
#
# Indices 1 2 3 4 5 6 
#
# 1 72.1847 26.8716 32.2369 0.0000 0.0000 0.0000
# 2 26.8716 118.3537 57.0678 0.0000 0.0000 0.0000
# 3 32.2369 57.0678 93.4392 0.0000 0.0000 0.0000
# 4 0.0000 0.0000 0.0000 10.8377 0.0000 0.0000
# 5 0.0000 0.0000 0.0000 0.0000 39.5642 0.0000
# 6 0.0000 0.0000 0.0000 0.0000 0.0000 37.2387
#
#
#
# Elastic Compliance Matrix: (Units=1/GPa)
#
#
# Indices 1 2 3 4 5 6 
#
# 1 0.016544 -0.001423 -0.004839 0.000000 0.000000 0.000000
# 2 -0.001423 0.012099 -0.006898 0.000000 0.000000 0.000000
# 3 -0.004839 -0.006898 0.016584 0.000000 0.000000 0.000000
# 4 0.000000 0.000000 0.000000 0.092270 0.000000 0.000000
# 5 0.000000 0.000000 0.000000 0.000000 0.025275 0.000000
# 6 0.000000 0.000000 0.000000 0.000000 0.000000 0.026854
#
#
# Mechanical properties :
#
#
# Convention : Reuss Voigt Hill
#
# Bulk Modulus (GPa) = 52.88970 57.37002 55.12986
# Shear Modulus (GPa) = 22.49732 28.71488 25.60610
#
# Velocity S-wave (km/s) = 3.37137 3.80885 3.59677
# Velocity P-wave (km/s) = 6.47115 6.95181 6.71578
#
# Compressibility (1/GPa) = 0.01890727
#
# Stress axis : x y z
#
# Youngs Moduli (GPa) = 60.44487 82.65471 60.29730
#
# Poissons Ratio (x) = 0.11763 0.29175
# Poissons Ratio (y) = 0.08602 0.41594
# Poissons Ratio (z) = 0.29247 0.57016
#
# Static dielectric constant tensor:
#      x y z
#    x 3.630290 0.000000 0.000000 
#    y 0.000000 3.756170 0.000000 
#    z 0.000000 0.000000 3.711400 
# 
# 
# High freq. dielectric constant tensor:
#      x y z
#    x 1.792500 0.000000 0.000000 
#    y 0.000000 1.770680 0.000000 
#    z 0.000000 0.000000 1.785590 
# 
# From -- ./inp_files/15051.got.cif
#   From: 2010.03.12/outbox.cif.g09.slc.cpg/sg40_8_cif.got.tgz:15051.got - 2010.04.14 01:38:03.
