data_PCOD8184594
_publ_section_title
;
Structure prediction by ZEFSAII (Michael W. Deem and Ramdas Pophale) SiO2 
 PCOD8184594
Probable space group: A M A 2
;
_chemical_formula_sum "Si O2"
_cell_formula_units_Z 40
_cell_length_a 9.192045
_cell_length_b 13.468354
_cell_length_c 18.360757
_cell_angle_alpha 90.000000
_cell_angle_beta 90.000000
_cell_angle_gamma 90.000000
_cell_volume 2273.093224
_symmetry_space_group_name_H-M "A M A 2"
_symmetry_group_IT_number 40
_symmetry_cell_setting 'orthorhombic'
loop_
_space_group_symop_operation_xyz
x,y,z
-x,-y,z
1/2-x,y,z
1/2+x,-y,z
x,1/2+y,1/2+z
-x,1/2-y,1/2+z
1/2-x,1/2+y,1/2+z
1/2+x,1/2-y,1/2+z
loop_
_atom_site_type_symbol
_atom_site_label
_atom_site_fract_x
_atom_site_fract_y
_atom_site_fract_z
Si Si1 0.922667 0.800842 0.512630
Si Si2 0.581947 0.903342 0.656114
Si Si3 0.083459 0.800708 0.231513
Si Si4 0.922898 0.394976 0.861763
Si Si5 0.080549 0.899730 0.079239
O O1 0.750000 0.799345 0.519022
O O2 0.981870 0.872154 0.576889
O O3 0.976877 0.841136 0.435334
O O4 0.977408 0.688069 0.526078
O O5 0.750000 0.930580 0.649617
O O6 0.557505 0.814206 0.712660
O O7 0.500000 0.000000 0.685688
O O8 0.250000 0.818215 0.256573
O O9 0.047964 0.869735 0.162429
O O10 0.971781 0.826910 0.295045
O O11 0.750000 0.409239 0.860383
O O12 0.000000 0.500000 0.855355
O O13 0.250000 0.918028 0.067429
O O14 0.000000 0.000000 0.057677
#
# Coordination Sequence:
#
# PCOD8184594 Si02
#       5
#     8   8   8   8   8
#     4   8  17  33  50  70  97 128 159 194 239 287
#     4   9  17  32  53  73  96 127 162 201 241 282
#     4   9  19  34  50  71 100 130 161 198 239 285
#     4  11  21  33  51  73  99 128 158 196 242 290
#     4   9  17  32  52  71  94 125 161 199 238 280
#
# _framework density 17.597166000000001
#
# number of rings (size 3 to 8) (size 9 to 14) (size 15 to 20)
#    0.000    2.800    0.000    4.200    0.000    3.200 
#    0.000    7.000    0.000    4.800    0.000    0.000 
#    0.000    0.000    0.000    0.000    0.000    0.000 
#
# Total GULP energy -247970.320537 kJ/mol
# GULP energy per Si atom -12398.516027 kJ/mol
# Density = 1.755711 g / cm^3
# Si number density = 17.597166 Si / 1000 Ang^3
#
#
#
# Elastic Constant Matrix: (Units=GPa)
#
#
# Indices 1 2 3 4 5 6 
#
# 1 56.0593 46.1084 39.9832 0.0000 0.0000 0.0000
# 2 46.1084 130.7079 45.6460 0.0000 0.0000 0.0000
# 3 39.9832 45.6460 96.2715 0.0000 0.0000 0.0000
# 4 0.0000 0.0000 0.0000 19.6433 0.0000 0.0000
# 5 0.0000 0.0000 0.0000 0.0000 -1.5745 0.0000
# 6 0.0000 0.0000 0.0000 0.0000 0.0000 34.6227
#
#
#
# Elastic Compliance Matrix: (Units=1/GPa)
#
#
# Indices 1 2 3 4 5 6 
#
# 1 0.030586 -0.007614 -0.009093 0.000000 0.000000 0.000000
# 2 -0.007614 0.011064 -0.002084 0.000000 0.000000 0.000000
# 3 -0.009093 -0.002084 0.015152 0.000000 0.000000 0.000000
# 4 0.000000 0.000000 0.000000 0.050908 0.000000 0.000000
# 5 0.000000 0.000000 0.000000 0.000000 -0.635136 0.000000
# 6 0.000000 0.000000 0.000000 0.000000 0.000000 0.028883
#
#
# Mechanical properties :
#
#
# Convention : Reuss Voigt Hill
#
# Bulk Modulus (GPa) = 52.02708 60.72374 56.37541
# Shear Modulus (GPa) = -10.99977 20.62504 4.81264
#
# Velocity S-wave (km/s) = -2.50289 3.42726 1.65555
# Velocity P-wave (km/s) = 4.61272 7.08831 5.98002
#
# Compressibility (1/GPa) = 0.01922076
#
# Stress axis : x y z
#
# Youngs Moduli (GPa) = 32.69468 90.38101 65.99947
#
# Poissons Ratio (x) = 0.68817 0.60012
# Poissons Ratio (y) = 0.24894 0.13752
# Poissons Ratio (z) = 0.29728 0.18833
#
# Static dielectric constant tensor:
#      x y z
#    x 3.014870 0.000000 0.000000 
#    y 0.000000 3.326520 0.000000 
#    z 0.000000 0.000000 3.286590 
# 
# 
# High freq. dielectric constant tensor:
#      x y z
#    x 1.661440 0.000000 0.000000 
#    y 0.000000 1.690500 0.000000 
#    z 0.000000 0.000000 1.669090 
# 
# From -- ./inp_files/14803.got.cif
#   From: 2010.03.12/outbox.cif.g09.slc.cpg/sg40_8_cif.got.tgz:14803.got - 2010.04.14 01:38:03.
