data_PCOD8184390
_publ_section_title
;
Structure prediction by ZEFSAII (Michael W. Deem and Ramdas Pophale) SiO2 
 PCOD8184390
Probable space group: A M A 2
;
_chemical_formula_sum "Si O2"
_cell_formula_units_Z 64
_cell_length_a 29.929586
_cell_length_b 11.428945
_cell_length_c 8.872480
_cell_angle_alpha 90.000000
_cell_angle_beta 90.000000
_cell_angle_gamma 90.000000
_cell_volume 3034.952381
_symmetry_space_group_name_H-M "A M A 2"
_symmetry_group_IT_number 40
_symmetry_cell_setting 'orthorhombic'
loop_
_space_group_symop_operation_xyz
x,y,z
-x,-y,z
1/2-x,y,z
1/2+x,-y,z
x,1/2+y,1/2+z
-x,1/2-y,1/2+z
1/2-x,1/2+y,1/2+z
1/2+x,1/2-y,1/2+z
loop_
_atom_site_type_symbol
_atom_site_label
_atom_site_fract_x
_atom_site_fract_y
_atom_site_fract_z
Si Si1 0.801024 0.050028 0.481190
Si Si2 0.449267 0.508044 0.360093
Si Si3 0.047951 0.976000 0.208023
Si Si4 0.124761 0.326376 0.414852
Si Si5 0.665535 0.798408 0.962057
Si Si6 0.362616 0.091724 0.260177
Si Si7 0.091715 0.239684 0.731699
Si Si8 0.199515 0.991379 0.812215
O O1 0.750000 0.019459 0.444908
O O2 0.805807 0.188286 0.513185
O O3 0.828490 0.994404 0.343766
O O4 0.817080 0.998187 0.639953
O O5 0.500000 0.500000 0.299287
O O6 0.450885 0.531013 0.539579
O O7 0.419623 0.389525 0.345940
O O8 0.427965 0.609466 0.255249
O O9 0.052652 0.836339 0.227528
O O10 0.088255 0.039940 0.293639
O O11 0.000000 0.000000 0.283894
O O12 0.140130 0.225228 0.306232
O O13 0.118136 0.264562 0.576497
O O14 0.166036 0.416449 0.417109
O O15 0.624185 0.741328 0.872373
O O16 0.698239 0.873526 0.858081
O O17 0.649201 0.894747 0.084727
O O18 0.250000 0.941101 0.825616
#
# Coordination Sequence:
#
# PCOD8184390 Si02
#       8
#     8   8   8   8   8   8   8   8
#     4  11  26  45  66  98 134 173 224 275 333 402
#     4  10  22  42  67  95 130 177 223 274 330 393
#     4  10  22  40  64  98 133 172 226 275 328 393
#     4  11  24  41  67  99 137 173 220 275 338 398
#     4  12  22  44  70  94 130 174 222 270 334 394
#     4  12  24  41  67  99 134 178 215 281 334 393
#     4  11  21  42  69  93 132 178 219 273 339 392
#     4  11  24  45  69  96 132 175 220 275 333 397
#
# _framework density 21.087644999999998
#
# number of rings (size 3 to 8) (size 9 to 14) (size 15 to 20)
#    0.000    1.000    5.000    1.875    1.750    1.500 
#    0.000    1.250    0.000    0.000    0.000    0.000 
#    0.000    0.000    0.000    0.000    0.000    0.000 
#
# Total GULP energy -396487.011848 kJ/mol
# GULP energy per Si atom -12390.219120 kJ/mol
# Density = 2.103965 g / cm^3
# Si number density = 21.087645 Si / 1000 Ang^3
#
#
#
# Elastic Constant Matrix: (Units=GPa)
#
#
# Indices 1 2 3 4 5 6 
#
# 1 111.8960 44.4151 48.1818 0.0000 0.0000 0.0000
# 2 44.4151 114.2109 44.0987 0.0000 0.0000 0.0000
# 3 48.1818 44.0987 97.0506 0.0000 0.0000 0.0000
# 4 0.0000 0.0000 0.0000 42.4765 0.0000 0.0000
# 5 0.0000 0.0000 0.0000 0.0000 27.9091 0.0000
# 6 0.0000 0.0000 0.0000 0.0000 0.0000 29.4791
#
#
#
# Elastic Compliance Matrix: (Units=1/GPa)
#
#
# Indices 1 2 3 4 5 6 
#
# 1 0.012108 -0.002896 -0.004695 0.000000 0.000000 0.000000
# 2 -0.002896 0.011311 -0.003702 0.000000 0.000000 0.000000
# 3 -0.004695 -0.003702 0.014317 0.000000 0.000000 0.000000
# 4 0.000000 0.000000 0.000000 0.023542 0.000000 0.000000
# 5 0.000000 0.000000 0.000000 0.000000 0.035831 0.000000
# 6 0.000000 0.000000 0.000000 0.000000 0.000000 0.033922
#
#
# Mechanical properties :
#
#
# Convention : Reuss Voigt Hill
#
# Bulk Modulus (GPa) = 66.00620 66.28321 66.14471
# Shear Modulus (GPa) = 31.51225 32.40373 31.95799
#
# Velocity S-wave (km/s) = 3.86987 3.92423 3.89715
# Velocity P-wave (km/s) = 7.16496 7.21341 7.18923
#
# Compressibility (1/GPa) = 0.01515009
#
# Stress axis : x y z
#
# Youngs Moduli (GPa) = 82.58937 88.40736 69.84607
#
# Poissons Ratio (x) = 0.25600 0.32796
# Poissons Ratio (y) = 0.23915 0.25858
# Poissons Ratio (z) = 0.38779 0.32729
#
# Static dielectric constant tensor:
#      x y z
#    x 4.008710 0.000000 0.000000 
#    y 0.000000 3.886230 0.000000 
#    z 0.000000 0.000000 3.753570 
# 
# 
# High freq. dielectric constant tensor:
#      x y z
#    x 1.831030 0.000000 0.000000 
#    y 0.000000 1.836250 0.000000 
#    z 0.000000 0.000000 1.816840 
# 
# From -- ./inp_files/9433.got.cif
#   From: 2010.03.12/outbox.cif.g09.slc.cpg/sg40_5_cif.got.tgz:9433.got - 2010.04.14 01:38:03.
