data_PCOD8184664
_publ_section_title
;
Structure prediction by ZEFSAII (Michael W. Deem and Ramdas Pophale) SiO2 
 PCOD8184664
Probable space group: A M A 2
;
_chemical_formula_sum "Si O2"
_cell_formula_units_Z 64
_cell_length_a 19.519764
_cell_length_b 19.841474
_cell_length_c 8.916752
_cell_angle_alpha 90.000000
_cell_angle_beta 90.000000
_cell_angle_gamma 90.000000
_cell_volume 3453.465985
_symmetry_space_group_name_H-M "A M A 2"
_symmetry_group_IT_number 40
_symmetry_cell_setting 'orthorhombic'
loop_
_space_group_symop_operation_xyz
x,y,z
-x,-y,z
1/2-x,y,z
1/2+x,-y,z
x,1/2+y,1/2+z
-x,1/2-y,1/2+z
1/2-x,1/2+y,1/2+z
1/2+x,1/2-y,1/2+z
loop_
_atom_site_type_symbol
_atom_site_label
_atom_site_fract_x
_atom_site_fract_y
_atom_site_fract_z
Si Si1 0.070743 0.271876 0.951680
Si Si2 0.669955 0.830850 0.102992
Si Si3 0.929257 0.728124 0.598563
Si Si4 0.440982 0.407111 0.447976
Si Si5 0.096186 0.055093 0.602275
Si Si6 0.940982 0.092889 0.602267
Si Si7 0.669955 0.330850 0.947251
Si Si8 0.403814 0.055093 0.947968
O O1 0.062478 0.267156 0.775122
O O2 0.131796 0.223620 0.001794
O O3 0.089543 0.347919 0.000102
O O4 1.000000 0.250000 0.025122
O O5 0.750000 0.819755 0.080659
O O6 0.647890 0.821690 0.275122
O O7 0.650672 0.906241 0.050518
O O8 0.910457 0.652081 0.550142
O O9 0.868204 0.776380 0.548449
O O10 0.424520 0.391329 0.275122
O O11 0.405381 0.476949 0.497088
O O12 0.522248 0.411384 0.472051
O O13 0.150672 0.093759 0.499725
O O14 0.118145 0.061190 0.775122
O O15 0.022248 0.088616 0.578193
O O16 0.094619 0.976949 0.553155
O O17 0.750000 0.319755 0.969584
#
# Coordination Sequence:
#
# PCOD8184664 Si02
#       8
#     8   8   8   8   8   8   8   8
#     4  12  23  36  58  87 117 152 194 241 290 343
#     4  11  24  40  58  83 117 155 195 240 290 345
#     4  12  23  36  58  87 117 152 194 241 290 343
#     4   9  18  34  57  87 117 145 185 235 284 335
#     4   9  18  34  58  85 114 148 186 231 282 341
#     4   9  18  34  57  87 117 145 185 235 284 335
#     4  11  24  40  58  83 117 155 195 240 290 345
#     4   9  18  34  58  85 114 148 186 231 282 341
#
# _framework density 18.532107
#
# number of rings (size 3 to 8) (size 9 to 14) (size 15 to 20)
#    0.000    1.750    2.500    4.500    0.000    3.000 
#    0.000    3.750    0.000    1.500    0.000    0.000 
#    0.000    0.000    0.000    0.000    0.000    0.000 
#
# Total GULP energy -396901.662819 kJ/mol
# GULP energy per Si atom -12403.176963 kJ/mol
# Density = 1.848993 g / cm^3
# Si number density = 18.532107 Si / 1000 Ang^3
#
#
#
# Elastic Constant Matrix: (Units=GPa)
#
#
# Indices 1 2 3 4 5 6 
#
# 1 65.6459 43.8246 50.6305 0.0000 0.0000 0.0000
# 2 43.8246 135.8891 69.1420 0.0000 0.0000 0.0000
# 3 50.6305 69.1420 130.8261 0.0000 0.0000 0.0000
# 4 0.0000 0.0000 0.0000 38.5455 0.0000 0.0000
# 5 0.0000 0.0000 0.0000 0.0000 27.1129 0.0000
# 6 0.0000 0.0000 0.0000 0.0000 0.0000 27.0489
#
#
#
# Elastic Compliance Matrix: (Units=1/GPa)
#
#
# Indices 1 2 3 4 5 6 
#
# 1 0.023191 -0.003984 -0.006870 0.000000 0.000000 0.000000
# 2 -0.003984 0.010750 -0.004140 0.000000 0.000000 0.000000
# 3 -0.006870 -0.004140 0.012490 0.000000 0.000000 0.000000
# 4 0.000000 0.000000 0.000000 0.025943 0.000000 0.000000
# 5 0.000000 0.000000 0.000000 0.000000 0.036883 0.000000
# 6 0.000000 0.000000 0.000000 0.000000 0.000000 0.036970
#
#
# Mechanical properties :
#
#
# Convention : Reuss Voigt Hill
#
# Bulk Modulus (GPa) = 60.80859 73.28392 67.04625
# Shear Modulus (GPa) = 27.51854 29.79238 28.65546
#
# Velocity S-wave (km/s) = 3.85764 4.01385 3.93652
# Velocity P-wave (km/s) = 7.26124 7.81738 7.54444
#
# Compressibility (1/GPa) = 0.01644505
#
# Stress axis : x y z
#
# Youngs Moduli (GPa) = 43.11993 93.02279 80.06309
#
# Poissons Ratio (x) = 0.37059 0.55000
# Poissons Ratio (y) = 0.17178 0.33143
# Poissons Ratio (z) = 0.29622 0.38508
#
# Static dielectric constant tensor:
#      x y z
#    x 3.136070 0.000000 0.000000 
#    y 0.000000 3.686430 0.000000 
#    z 0.000000 0.000000 3.417960 
# 
# 
# High freq. dielectric constant tensor:
#      x y z
#    x 1.688100 0.000000 0.000000 
#    y 0.000000 1.736960 0.000000 
#    z 0.000000 0.000000 1.720860 
# 
# From -- ./inp_files/7825.got.cif
#   From: 2010.03.12/outbox.cif.g09.slc.cpg/sg40_4_cif.got.tgz:7825.got - 2010.04.14 01:38:03.
