data_PCOD8184312
_publ_section_title
;
Structure prediction by ZEFSAII (Michael W. Deem and Ramdas Pophale) SiO2 
 PCOD8184312
Probable space group: A M A 2
;
_chemical_formula_sum "Si O2"
_cell_formula_units_Z 40
_cell_length_a 13.478285
_cell_length_b 17.951016
_cell_length_c 7.675508
_cell_angle_alpha 90.000000
_cell_angle_beta 90.000000
_cell_angle_gamma 90.000000
_cell_volume 1857.080792
_symmetry_space_group_name_H-M "A M A 2"
_symmetry_group_IT_number 40
_symmetry_cell_setting 'orthorhombic'
loop_
_space_group_symop_operation_xyz
x,y,z
-x,-y,z
1/2-x,y,z
1/2+x,-y,z
x,1/2+y,1/2+z
-x,1/2-y,1/2+z
1/2-x,1/2+y,1/2+z
1/2+x,1/2-y,1/2+z
loop_
_atom_site_type_symbol
_atom_site_label
_atom_site_fract_x
_atom_site_fract_y
_atom_site_fract_z
Si Si1 0.445807 0.645577 0.820040
Si Si2 0.861917 0.193682 0.837415
Si Si3 0.364005 0.052946 0.627653
Si Si4 0.360847 0.393484 0.997746
Si Si5 0.981857 0.914898 0.965163
O O1 0.424959 0.731508 0.857534
O O2 0.418967 0.622463 0.622378
O O3 0.378599 0.598424 0.950993
O O4 0.562847 0.627972 0.845948
O O5 0.750000 0.204115 0.909222
O O6 0.858787 0.173552 0.634223
O O7 0.914126 0.128584 0.947737
O O8 0.250000 0.052637 0.682308
O O9 0.422578 0.092130 0.784499
O O10 0.399948 0.967827 0.597375
O O11 0.250000 0.406774 0.919728
O O12 0.000000 0.000000 0.017405
#
# Coordination Sequence:
#
# PCOD8184312 Si02
#       5
#     8   8   8   8   8
#     4  12  24  43  67 101 133 171 221 278 332 390
#     4  11  24  44  66  95 137 176 216 273 335 395
#     4  11  23  43  69  97 132 176 224 273 329 392
#     4  10  21  43  70  94 133 179 220 271 334 397
#     4  12  24  41  70  99 131 174 222 273 328 396
#
# _framework density 21.539180999999999
#
# number of rings (size 3 to 8) (size 9 to 14) (size 15 to 20)
#    0.000    0.800    4.000    3.600    0.000    2.400 
#    0.000    1.000    0.000    0.000    0.000    0.000 
#    0.000    0.000    0.000    0.000    0.000    0.000 
#
# Total GULP energy -248093.273367 kJ/mol
# GULP energy per Si atom -12404.663668 kJ/mol
# Density = 2.149016 g / cm^3
# Si number density = 21.539181 Si / 1000 Ang^3
#
#
#
# Elastic Constant Matrix: (Units=GPa)
#
#
# Indices 1 2 3 4 5 6 
#
# 1 110.6137 64.1486 42.2243 0.0000 0.0000 0.0000
# 2 64.1486 136.7910 36.5348 0.0000 0.0000 0.0000
# 3 42.2243 36.5348 105.2953 0.0000 0.0000 0.0000
# 4 0.0000 0.0000 0.0000 29.0019 0.0000 0.0000
# 5 0.0000 0.0000 0.0000 0.0000 20.7867 0.0000
# 6 0.0000 0.0000 0.0000 0.0000 0.0000 37.6704
#
#
#
# Elastic Compliance Matrix: (Units=1/GPa)
#
#
# Indices 1 2 3 4 5 6 
#
# 1 0.013524 -0.005394 -0.003552 0.000000 0.000000 0.000000
# 2 -0.005394 0.010208 -0.001379 0.000000 0.000000 0.000000
# 3 -0.003552 -0.001379 0.011400 0.000000 0.000000 0.000000
# 4 0.000000 0.000000 0.000000 0.034481 0.000000 0.000000
# 5 0.000000 0.000000 0.000000 0.000000 0.048108 0.000000
# 6 0.000000 0.000000 0.000000 0.000000 0.000000 0.026546
#
#
# Mechanical properties :
#
#
# Convention : Reuss Voigt Hill
#
# Bulk Modulus (GPa) = 69.04568 70.94616 69.99592
# Shear Modulus (GPa) = 29.45624 31.47795 30.46710
#
# Velocity S-wave (km/s) = 3.70207 3.82701 3.76506
# Velocity P-wave (km/s) = 7.09924 7.24829 7.17415
#
# Compressibility (1/GPa) = 0.01448317
#
# Stress axis : x y z
#
# Youngs Moduli (GPa) = 73.94125 97.96147 87.71975
#
# Poissons Ratio (x) = 0.52836 0.31157
# Poissons Ratio (y) = 0.39881 0.12097
# Poissons Ratio (z) = 0.26263 0.13510
#
# Static dielectric constant tensor:
#      x y z
#    x 3.956690 0.000000 0.000000 
#    y 0.000000 3.899710 0.000000 
#    z 0.000000 0.000000 3.717240 
# 
# 
# High freq. dielectric constant tensor:
#      x y z
#    x 1.850350 0.000000 0.000000 
#    y 0.000000 1.852360 0.000000 
#    z 0.000000 0.000000 1.835360 
# 
# From -- ./inp_files/6132.got.cif
#   From: 2010.03.12/outbox.cif.g09.slc.cpg/sg40_4_cif.got.tgz:6132.got - 2010.04.14 01:38:03.
