data_PCOD8184993
_publ_section_title
;
Structure prediction by ZEFSAII (Michael W. Deem and Ramdas Pophale) SiO2 
 PCOD8184993
Probable space group: A B A 2
;
_chemical_formula_sum "Si O2"
_cell_formula_units_Z 64
_cell_length_a 14.365195
_cell_length_b 17.258341
_cell_length_c 11.827490
_cell_angle_alpha 90.000000
_cell_angle_beta 90.000000
_cell_angle_gamma 90.000000
_cell_volume 2932.264625
_symmetry_space_group_name_H-M "A B A 2"
_symmetry_group_IT_number 41
_symmetry_cell_setting 'orthorhombic'
loop_
_space_group_symop_operation_xyz
x,y,z
-x,-y,z
1/2-x,y,1/2+z
1/2+x,-y,1/2+z
x,1/2+y,1/2+z
-x,1/2-y,1/2+z
1/2-x,1/2+y,z
1/2+x,1/2-y,z
loop_
_atom_site_type_symbol
_atom_site_label
_atom_site_fract_x
_atom_site_fract_y
_atom_site_fract_z
Si Si1 0.399062 0.474449 0.562920
Si Si2 0.731902 0.924115 0.631659
Si Si3 0.553825 0.160946 0.736765
Si Si4 0.606811 0.507739 0.305514
Si Si5 0.435908 0.767960 0.376506
Si Si6 0.674217 0.762856 0.100603
Si Si7 0.859768 0.192286 0.638742
Si Si8 0.565569 0.349397 0.036334
O O1 0.500000 0.500000 0.611583
O O2 0.307352 0.508237 0.622919
O O3 0.384922 0.507206 0.437723
O O4 0.399970 0.382777 0.577334
O O5 0.787916 0.844603 0.644431
O O6 0.655774 0.907799 0.529310
O O7 0.673233 0.945975 0.743594
O O8 0.630535 0.098630 0.780119
O O9 0.485949 0.188053 0.838049
O O10 0.594758 0.241506 0.690141
O O11 0.501293 0.117091 0.633666
O O12 0.500000 0.500000 0.267182
O O13 0.364353 0.739314 0.472988
O O14 0.380039 0.806869 0.273130
O O15 0.508595 0.834804 0.420210
O O16 0.750169 0.695322 0.114422
O O17 0.905215 0.264595 0.577211
#
# Coordination Sequence:
#
# PCOD8184993 Si02
#       8
#     8   8   8   8   8   8   8   8
#     4  11  27  42  67  98 139 178 222 279 343 420
#     4  11  24  42  66 100 138 171 227 283 337 408
#     4  10  20  39  69  91 128 177 226 274 333 408
#     4  11  23  42  69  93 131 186 225 269 350 408
#     4  10  22  38  72  97 133 176 228 290 355 386
#     4  10  24  40  68 100 135 170 233 287 334 420
#     4  10  22  43  64  97 136 175 226 280 342 419
#     4   9  20  39  65  99 123 168 231 280 326 407
#
# _framework density 21.826134
#
# number of rings (size 3 to 8) (size 9 to 14) (size 15 to 20)
#    0.000    1.750    1.250    1.500    8.750    5.000 
#    0.000    0.000    0.000    0.000    0.000    0.000 
#    0.000    0.000    0.000    0.000    0.000    0.000 
#
# Total GULP energy -396459.882251 kJ/mol
# GULP energy per Si atom -12389.371320 kJ/mol
# Density = 2.177646 g / cm^3
# Si number density = 21.826134 Si / 1000 Ang^3
#
#
#
# Elastic Constant Matrix: (Units=GPa)
#
#
# Indices 1 2 3 4 5 6 
#
# 1 98.8835 20.1580 46.6378 0.0000 0.0000 0.0000
# 2 20.1580 68.2655 25.4650 0.0000 0.0000 0.0000
# 3 46.6378 25.4650 100.0200 0.0000 0.0000 0.0000
# 4 0.0000 0.0000 0.0000 22.6051 0.0000 0.0000
# 5 0.0000 0.0000 0.0000 0.0000 37.4066 0.0000
# 6 0.0000 0.0000 0.0000 0.0000 0.0000 43.8517
#
#
#
# Elastic Compliance Matrix: (Units=1/GPa)
#
#
# Indices 1 2 3 4 5 6 
#
# 1 0.013153 -0.001764 -0.005684 0.000000 0.000000 0.000000
# 2 -0.001764 0.016422 -0.003359 0.000000 0.000000 0.000000
# 3 -0.005684 -0.003359 0.013504 0.000000 0.000000 0.000000
# 4 0.000000 0.000000 0.000000 0.044238 0.000000 0.000000
# 5 0.000000 0.000000 0.000000 0.000000 0.026733 0.000000
# 6 0.000000 0.000000 0.000000 0.000000 0.000000 0.022804
#
#
# Mechanical properties :
#
#
# Convention : Reuss Voigt Hill
#
# Bulk Modulus (GPa) = 46.58503 50.18785 48.38644
# Shear Modulus (GPa) = 30.18904 32.43324 31.31114
#
# Velocity S-wave (km/s) = 3.72312 3.85903 3.79168
# Velocity P-wave (km/s) = 6.31444 6.54984 6.43322
#
# Compressibility (1/GPa) = 0.02146612
#
# Stress axis : x y z
#
# Youngs Moduli (GPa) = 76.02628 60.89242 74.05445
#
# Poissons Ratio (x) = 0.10739 0.42094
# Poissons Ratio (y) = 0.13408 0.24873
# Poissons Ratio (z) = 0.43215 0.20452
#
# Static dielectric constant tensor:
#      x y z
#    x 4.517910 0.000000 0.000000 
#    y 0.000000 3.885480 0.000000 
#    z 0.000000 0.000000 3.773150 
# 
# 
# High freq. dielectric constant tensor:
#      x y z
#    x 1.871080 0.000000 0.000000 
#    y 0.000000 1.853270 0.000000 
#    z 0.000000 0.000000 1.841540 
# 
# From -- ./inp_files/5740.got.cif
#   From: 2010.03.12/outbox.cif.g09.slc.cpg/sg41_3_cif.got.tgz:5740.got - 2010.04.14 01:55:53.
