data_PCOD8184191
_publ_section_title
;
Structure prediction by ZEFSAII (Michael W. Deem and Ramdas Pophale) SiO2 
 PCOD8184191
Probable space group: A M A 2
;
_chemical_formula_sum "Si O2"
_cell_formula_units_Z 48
_cell_length_a 14.571731
_cell_length_b 15.340727
_cell_length_c 9.426781
_cell_angle_alpha 90.000000
_cell_angle_beta 90.000000
_cell_angle_gamma 90.000000
_cell_volume 2107.271554
_symmetry_space_group_name_H-M "A M A 2"
_symmetry_group_IT_number 40
_symmetry_cell_setting 'orthorhombic'
loop_
_space_group_symop_operation_xyz
x,y,z
-x,-y,z
1/2-x,y,z
1/2+x,-y,z
x,1/2+y,1/2+z
-x,1/2-y,1/2+z
1/2-x,1/2+y,1/2+z
1/2+x,1/2-y,1/2+z
loop_
_atom_site_type_symbol
_atom_site_label
_atom_site_fract_x
_atom_site_fract_y
_atom_site_fract_z
Si Si1 0.589932 0.441976 0.927900
Si Si2 0.437742 0.737749 0.057706
Si Si3 0.750000 0.673116 0.560472
Si Si4 0.106608 0.016457 0.737257
Si Si5 0.919501 0.310315 0.362081
Si Si6 0.250000 0.475145 0.777188
Si Si7 0.750000 0.195618 0.454555
Si Si8 0.750000 0.126585 0.758360
O O1 0.500000 0.500000 0.902190
O O2 0.565249 0.339226 0.938581
O O3 0.660261 0.463629 0.799511
O O4 0.639335 0.462127 0.077641
O O5 0.505275 0.809675 0.989101
O O6 0.340755 0.776861 0.109242
O O7 0.473454 0.704649 0.211423
O O8 0.750000 0.573904 0.623947
O O9 0.750000 0.687678 0.393145
O O10 0.128334 0.094638 0.847979
O O11 0.159244 0.930337 0.780327
O O12 0.000000 0.000000 0.739950
O O13 0.841504 0.241110 0.399842
O O14 0.250000 0.402253 0.898497
O O15 0.750000 0.189842 0.624089
#
# Coordination Sequence:
#
# PCOD8184191 Si02
#       8
#     8   8   4   8   8   4   4   4
#     4  10  21  38  69  97 125 171 230 274 320 402
#     4  11  24  43  67 100 138 178 224 283 341 399
#     4  12  27  43  63  97 144 173 215 290 350 397
#     4  10  21  40  66  96 130 172 223 273 330 399
#     4  11  24  42  69 100 135 177 229 283 337 402
#     4  12  21  43  63  97 128 170 219 274 337 393
#     4  12  23  41  71  95 128 176 233 274 329 415
#     4  12  25  43  69  93 132 179 225 276 346 411
#
# _framework density 22.778268000000001
#
# number of rings (size 3 to 8) (size 9 to 14) (size 15 to 20)
#    0.000    1.000    3.333    3.000    7.000    2.667 
#    3.000    2.500    0.000    0.000    0.000    0.000 
#    0.000    0.000    0.000    0.000    0.000    0.000 
#
# Total GULP energy -297486.962604 kJ/mol
# GULP energy per Si atom -12395.290109 kJ/mol
# Density = 2.272642 g / cm^3
# Si number density = 22.778268 Si / 1000 Ang^3
#
#
#
# Elastic Constant Matrix: (Units=GPa)
#
#
# Indices 1 2 3 4 5 6 
#
# 1 113.7240 21.3413 22.7892 0.0000 0.0000 0.0000
# 2 21.3413 77.8038 27.0604 0.0000 0.0000 0.0000
# 3 22.7892 27.0604 110.1820 0.0000 0.0000 0.0000
# 4 0.0000 0.0000 0.0000 33.8780 0.0000 0.0000
# 5 0.0000 0.0000 0.0000 0.0000 22.7114 0.0000
# 6 0.0000 0.0000 0.0000 0.0000 0.0000 8.8234
#
#
#
# Elastic Compliance Matrix: (Units=1/GPa)
#
#
# Indices 1 2 3 4 5 6 
#
# 1 0.009476 -0.002097 -0.001445 0.000000 0.000000 0.000000
# 2 -0.002097 0.014517 -0.003132 0.000000 0.000000 0.000000
# 3 -0.001445 -0.003132 0.010144 0.000000 0.000000 0.000000
# 4 0.000000 0.000000 0.000000 0.029518 0.000000 0.000000
# 5 0.000000 0.000000 0.000000 0.000000 0.044031 0.000000
# 6 0.000000 0.000000 0.000000 0.000000 0.000000 0.113336
#
#
# Mechanical properties :
#
#
# Convention : Reuss Voigt Hill
#
# Bulk Modulus (GPa) = 48.09910 49.34352 48.72131
# Shear Modulus (GPa) = 20.72123 28.45049 24.58586
#
# Velocity S-wave (km/s) = 3.01938 3.53798 3.28892
# Velocity P-wave (km/s) = 5.77214 6.19672 5.98819
#
# Compressibility (1/GPa) = 0.02079041
#
# Stress axis : x y z
#
# Youngs Moduli (GPa) = 105.52691 68.88390 98.58126
#
# Poissons Ratio (x) = 0.14443 0.14246
# Poissons Ratio (y) = 0.22126 0.30873
# Poissons Ratio (z) = 0.15249 0.21572
#
# Static dielectric constant tensor:
#      x y z
#    x 4.090150 0.000000 0.000000 
#    y 0.000000 4.095930 0.000000 
#    z 0.000000 0.000000 4.052090 
# 
# 
# High freq. dielectric constant tensor:
#      x y z
#    x 1.901370 0.000000 0.000000 
#    y 0.000000 1.894290 0.000000 
#    z 0.000000 0.000000 1.887310 
# 
# From -- ./inp_files/6544.got.cif
#   From: 2010.03.12/outbox.cif.g09.slc.cpg/sg40_4_cif.got.tgz:6544.got - 2010.04.14 01:38:03.
