data_PCOD8184558
_publ_section_title
;
Structure prediction by ZEFSAII (Michael W. Deem and Ramdas Pophale) SiO2 
 PCOD8184558
Probable space group: A M A 2
;
_chemical_formula_sum "Si O2"
_cell_formula_units_Z 64
_cell_length_a 18.738778
_cell_length_b 14.531249
_cell_length_c 11.487894
_cell_angle_alpha 90.000000
_cell_angle_beta 90.000000
_cell_angle_gamma 90.000000
_cell_volume 3128.128827
_symmetry_space_group_name_H-M "A M A 2"
_symmetry_group_IT_number 40
_symmetry_cell_setting 'orthorhombic'
loop_
_space_group_symop_operation_xyz
x,y,z
-x,-y,z
1/2-x,y,z
1/2+x,-y,z
x,1/2+y,1/2+z
-x,1/2-y,1/2+z
1/2-x,1/2+y,1/2+z
1/2+x,1/2-y,1/2+z
loop_
_atom_site_type_symbol
_atom_site_label
_atom_site_fract_x
_atom_site_fract_y
_atom_site_fract_z
Si Si1 0.902186 0.283716 0.836750
Si Si2 0.047980 0.276068 0.938935
Si Si3 0.669775 0.649716 0.786100
Si Si4 0.403924 0.569408 0.230416
Si Si5 0.834096 0.951433 0.205795
Si Si6 0.058718 0.873802 0.677310
Si Si7 0.169885 0.220772 0.579672
Si Si8 0.932262 0.431795 0.482772
O O1 0.857243 0.367471 0.786810
O O2 0.892340 0.196581 0.751004
O O3 0.986401 0.305179 0.847466
O O4 0.877908 0.261839 0.967344
O O5 0.122248 0.290300 0.872901
O O6 0.039715 0.173043 0.988473
O O7 0.044344 0.343635 0.047012
O O8 0.750000 0.661736 0.833116
O O9 0.648426 0.542647 0.780509
O O10 0.662966 0.687214 0.655084
O O11 0.401278 0.471096 0.167429
O O12 0.482590 0.614457 0.239611
O O13 0.351455 0.634070 0.159067
O O14 0.384164 0.555250 0.366235
O O15 0.750000 0.944944 0.175866
O O16 0.879772 0.952426 0.088776
O O17 0.250000 0.203124 0.537034
O O18 0.000000 0.500000 0.485436
#
# Coordination Sequence:
#
# PCOD8184558 Si02
#       8
#     8   8   8   8   8   8   8   8
#     4  12  24  42  68  95 134 172 225 281 328 396
#     4  12  24  42  70  99 130 178 224 278 338 400
#     4  10  25  46  68  98 135 177 227 274 335 411
#     4  11  22  42  64  96 135 163 219 273 331 393
#     4  11  28  46  66  99 141 183 225 277 340 411
#     4  11  23  41  63 100 130 166 215 281 328 386
#     4  11  24  43  66  92 132 178 216 267 332 399
#     4  12  24  41  71 101 134 172 224 287 335 401
#
# _framework density 20.459515
#
# number of rings (size 3 to 8) (size 9 to 14) (size 15 to 20)
#    0.000    0.750    6.250    0.375    7.000    1.000 
#    0.000    1.250    0.000    0.000    0.000    0.000 
#    0.000    0.000    0.000    0.000    0.000    0.000 
#
# Total GULP energy -396890.085491 kJ/mol
# GULP energy per Si atom -12402.815172 kJ/mol
# Density = 2.041295 g / cm^3
# Si number density = 20.459515 Si / 1000 Ang^3
#
#
#
# Elastic Constant Matrix: (Units=GPa)
#
#
# Indices 1 2 3 4 5 6 
#
# 1 88.4235 41.2780 27.5191 0.0000 0.0000 0.0000
# 2 41.2780 120.0279 22.7187 0.0000 0.0000 0.0000
# 3 27.5191 22.7187 77.8280 0.0000 0.0000 0.0000
# 4 0.0000 0.0000 0.0000 32.7492 0.0000 0.0000
# 5 0.0000 0.0000 0.0000 0.0000 29.2302 0.0000
# 6 0.0000 0.0000 0.0000 0.0000 0.0000 27.1079
#
#
#
# Elastic Compliance Matrix: (Units=1/GPa)
#
#
# Indices 1 2 3 4 5 6 
#
# 1 0.014504 -0.004252 -0.003887 0.000000 0.000000 0.000000
# 2 -0.004252 0.010065 -0.001435 0.000000 0.000000 0.000000
# 3 -0.003887 -0.001435 0.014642 0.000000 0.000000 0.000000
# 4 0.000000 0.000000 0.000000 0.030535 0.000000 0.000000
# 5 0.000000 0.000000 0.000000 0.000000 0.034211 0.000000
# 6 0.000000 0.000000 0.000000 0.000000 0.000000 0.036890
#
#
# Mechanical properties :
#
#
# Convention : Reuss Voigt Hill
#
# Bulk Modulus (GPa) = 49.84212 52.14566 50.99389
# Shear Modulus (GPa) = 29.99704 30.80170 30.39937
#
# Velocity S-wave (km/s) = 3.83321 3.88428 3.85883
# Velocity P-wave (km/s) = 6.63367 6.75718 6.69571
#
# Compressibility (1/GPa) = 0.02006335
#
# Stress axis : x y z
#
# Youngs Moduli (GPa) = 68.94640 99.35135 68.29623
#
# Poissons Ratio (x) = 0.42246 0.26548
# Poissons Ratio (y) = 0.29318 0.09798
# Poissons Ratio (z) = 0.26801 0.14253
#
# Static dielectric constant tensor:
#      x y z
#    x 3.690600 0.000000 0.000000 
#    y 0.000000 3.867340 0.000000 
#    z 0.000000 0.000000 3.737660 
# 
# 
# High freq. dielectric constant tensor:
#      x y z
#    x 1.787450 0.000000 0.000000 
#    y 0.000000 1.814660 0.000000 
#    z 0.000000 0.000000 1.808750 
# 
# From -- ./inp_files/13110.got.cif
#   From: 2010.03.12/outbox.cif.g09.slc.cpg/sg40_7_cif.got.tgz:13110.got - 2010.04.14 01:38:03.
