data_PCOD8184571
_publ_section_title
;
Structure prediction by ZEFSAII (Michael W. Deem and Ramdas Pophale) SiO2 
 PCOD8184571
Probable space group: A M A 2
;
_chemical_formula_sum "Si O2"
_cell_formula_units_Z 64
_cell_length_a 8.627267
_cell_length_b 23.414580
_cell_length_c 19.101592
_cell_angle_alpha 90.000000
_cell_angle_beta 90.000000
_cell_angle_gamma 90.000000
_cell_volume 3858.594807
_symmetry_space_group_name_H-M "A M A 2"
_symmetry_group_IT_number 40
_symmetry_cell_setting 'orthorhombic'
loop_
_space_group_symop_operation_xyz
x,y,z
-x,-y,z
1/2-x,y,z
1/2+x,-y,z
x,1/2+y,1/2+z
-x,1/2-y,1/2+z
1/2-x,1/2+y,1/2+z
1/2+x,1/2-y,1/2+z
loop_
_atom_site_type_symbol
_atom_site_label
_atom_site_fract_x
_atom_site_fract_y
_atom_site_fract_z
Si Si1 0.066952 0.561035 0.937800
Si Si2 0.431883 0.061216 0.715954
Si Si3 0.428938 0.845532 0.807097
Si Si4 0.565918 0.834001 0.351508
Si Si5 0.930088 0.762137 0.580445
Si Si6 0.067764 0.773804 0.932048
Si Si7 0.931722 0.613772 0.076339
Si Si8 0.072158 0.730866 0.719228
O O1 0.250000 0.557529 0.937207
O O2 0.003922 0.604942 0.878398
O O3 0.000000 0.500000 0.917995
O O4 0.016479 0.581103 0.014176
O O5 0.250000 0.057381 0.701342
O O6 0.464333 0.102828 0.781359
O O7 0.517654 0.085037 0.648176
O O8 0.500000 0.000000 0.735840
O O9 0.250000 0.865422 0.807575
O O10 0.489657 0.827516 0.885129
O O11 0.450409 0.791801 0.755826
O O12 0.750000 0.832622 0.356469
O O13 0.496252 0.785481 0.402950
O O14 0.516289 0.819710 0.271660
O O15 0.750000 0.779234 0.578050
O O16 0.973815 0.721553 0.514205
O O17 0.029080 0.819560 0.577517
O O18 0.967499 0.726621 0.650079
O O19 0.250000 0.771060 0.919029
O O20 0.750000 0.605778 0.066734
O O21 0.250000 0.722214 0.697219
#
# Coordination Sequence:
#
# PCOD8184571 Si02
#       8
#     8   8   8   8   8   8   8   8
#     4  11  21  35  52  71  97 131 170 207 244 286
#     4  12  24  37  52  71  97 131 169 205 242 286
#     4   9  17  32  52  72  96 127 164 202 243 289
#     4   8  15  30  50  69  93 131 166 196 239 294
#     4  11  19  30  50  76 102 132 164 198 245 292
#     4   8  15  29  50  72  96 129 162 194 241 298
#     4  12  23  35  48  69 100 135 171 204 237 281
#     4   9  17  30  50  72  97 129 164 199 244 293
#
# _framework density 16.586348999999998
#
# number of rings (size 3 to 8) (size 9 to 14) (size 15 to 20)
#    0.000    2.000    2.500    4.875    0.000    0.000 
#    0.000    2.500    0.000    0.000    0.000    0.875 
#    0.000    4.000    0.000    0.000    0.000    0.000 
#
# Total GULP energy -396694.382402 kJ/mol
# GULP energy per Si atom -12396.699450 kJ/mol
# Density = 1.654860 g / cm^3
# Si number density = 16.586349 Si / 1000 Ang^3
#
#
#
# Elastic Constant Matrix: (Units=GPa)
#
#
# Indices 1 2 3 4 5 6 
#
# 1 46.9267 19.4718 18.0659 0.0000 0.0000 0.0000
# 2 19.4718 94.0235 55.4311 0.0000 0.0000 0.0000
# 3 18.0659 55.4311 108.6177 0.0000 0.0000 0.0000
# 4 0.0000 0.0000 0.0000 20.8046 0.0000 0.0000
# 5 0.0000 0.0000 0.0000 0.0000 16.3833 0.0000
# 6 0.0000 0.0000 0.0000 0.0000 0.0000 5.5548
#
#
#
# Elastic Compliance Matrix: (Units=1/GPa)
#
#
# Indices 1 2 3 4 5 6 
#
# 1 0.023628 -0.003685 -0.002049 0.000000 0.000000 0.000000
# 2 -0.003685 0.015787 -0.007444 0.000000 0.000000 0.000000
# 3 -0.002049 -0.007444 0.013346 0.000000 0.000000 0.000000
# 4 0.000000 0.000000 0.000000 0.048066 0.000000 0.000000
# 5 0.000000 0.000000 0.000000 0.000000 0.061038 0.000000
# 6 0.000000 0.000000 0.000000 0.000000 0.000000 0.180024
#
#
# Mechanical properties :
#
#
# Convention : Reuss Voigt Hill
#
# Bulk Modulus (GPa) = 37.87157 48.38949 43.13053
# Shear Modulus (GPa) = 13.26093 18.98848 16.12471
#
# Velocity S-wave (km/s) = 2.83063 3.38720 3.12134
# Velocity P-wave (km/s) = 5.79360 6.67346 6.24904
#
# Compressibility (1/GPa) = 0.02640503
#
# Stress axis : x y z
#
# Youngs Moduli (GPa) = 42.32289 63.34211 74.92716
#
# Poissons Ratio (x) = 0.23342 0.15355
# Poissons Ratio (y) = 0.15596 0.55775
# Poissons Ratio (z) = 0.08673 0.47151
#
# Static dielectric constant tensor:
#      x y z
#    x 2.980020 0.000000 0.000000 
#    y 0.000000 3.151130 0.000000 
#    z 0.000000 0.000000 3.348600 
# 
# 
# High freq. dielectric constant tensor:
#      x y z
#    x 1.627520 0.000000 0.000000 
#    y 0.000000 1.613880 0.000000 
#    z 0.000000 0.000000 1.637570 
# 
# From -- ./inp_files/19733.got.cif
#   From: 2010.03.12/outbox.cif.g09.slc.cpg/sg40_10_cif.got.tgz:19733.got - 2010.04.14 01:38:03.
