data_PCOD8184780
_publ_section_title
;
Structure prediction by ZEFSAII (Michael W. Deem and Ramdas Pophale) SiO2 
 PCOD8184780
Probable space group: A B A 2
;
_chemical_formula_sum "Si O2"
_cell_formula_units_Z 48
_cell_length_a 13.830401
_cell_length_b 8.305412
_cell_length_c 17.449806
_cell_angle_alpha 90.000000
_cell_angle_beta 90.000000
_cell_angle_gamma 90.000000
_cell_volume 2004.409979
_symmetry_space_group_name_H-M "A B A 2"
_symmetry_group_IT_number 41
_symmetry_cell_setting 'orthorhombic'
loop_
_space_group_symop_operation_xyz
x,y,z
-x,-y,z
1/2-x,y,1/2+z
1/2+x,-y,1/2+z
x,1/2+y,1/2+z
-x,1/2-y,1/2+z
1/2-x,1/2+y,z
1/2+x,1/2-y,z
loop_
_atom_site_type_symbol
_atom_site_label
_atom_site_fract_x
_atom_site_fract_y
_atom_site_fract_z
Si Si1 0.938784 0.841130 0.445680
Si Si2 0.295897 0.101805 0.215208
Si Si3 0.396613 0.189353 0.530066
Si Si4 0.509982 0.813043 0.169870
Si Si5 0.781587 0.000160 0.548031
Si Si6 0.365330 0.802864 0.293780
O O1 0.865524 0.878913 0.515976
O O2 0.872833 0.765760 0.379102
O O3 0.019030 0.705785 0.467229
O O4 0.000000 0.000000 0.421068
O O5 0.378023 0.227703 0.185494
O O6 0.273073 0.997225 0.139875
O O7 0.205505 0.196886 0.243503
O O8 0.330308 0.988064 0.286079
O O9 0.453957 0.197562 0.610872
O O10 0.329420 0.031306 0.518313
O O11 0.313124 0.323800 0.522082
O O12 0.468676 0.789028 0.254603
O O13 0.500000 0.000000 0.140925
#
# Coordination Sequence:
#
# PCOD8184780 Si02
#       6
#     8   8   8   8   8   8
#     4  10  24  43  66  97 142 186 225 284 358 414
#     4  11  21  40  67  97 130 179 232 277 342 410
#     4  11  20  40  70  97 130 175 236 280 347 408
#     4  10  18  37  65  91 128 177 223 274 337 409
#     4  11  20  39  71  96 127 183 228 284 336 414
#     4  11  24  39  65 100 136 176 222 289 351 407
#
# _framework density 23.947195000000001
#
# number of rings (size 3 to 8) (size 9 to 14) (size 15 to 20)
#    0.000    1.333    6.667    0.500    0.000    5.333 
#    0.000    4.167    0.000    0.000    0.000    0.000 
#    0.000    0.000    0.000    0.000    0.000    0.000 
#
# Total GULP energy -297344.129269 kJ/mol
# GULP energy per Si atom -12389.338720 kJ/mol
# Density = 2.389269 g / cm^3
# Si number density = 23.947195 Si / 1000 Ang^3
#
#
#
# Elastic Constant Matrix: (Units=GPa)
#
#
# Indices 1 2 3 4 5 6 
#
# 1 74.0075 16.9900 25.3223 0.0000 0.0000 0.0000
# 2 16.9900 32.4687 25.4545 0.0000 0.0000 0.0000
# 3 25.3223 25.4545 86.2475 0.0000 0.0000 0.0000
# 4 0.0000 0.0000 0.0000 22.8087 0.0000 0.0000
# 5 0.0000 0.0000 0.0000 0.0000 40.4357 0.0000
# 6 0.0000 0.0000 0.0000 0.0000 0.0000 39.3564
#
#
#
# Elastic Compliance Matrix: (Units=1/GPa)
#
#
# Indices 1 2 3 4 5 6 
#
# 1 0.015887 -0.006058 -0.002876 0.000000 0.000000 0.000000
# 2 -0.006058 0.042380 -0.010729 0.000000 0.000000 0.000000
# 3 -0.002876 -0.010729 0.015606 0.000000 0.000000 0.000000
# 4 0.000000 0.000000 0.000000 0.043843 0.000000 0.000000
# 5 0.000000 0.000000 0.000000 0.000000 0.024731 0.000000
# 6 0.000000 0.000000 0.000000 0.000000 0.000000 0.025409
#
#
# Mechanical properties :
#
#
# Convention : Reuss Voigt Hill
#
# Bulk Modulus (GPa) = 28.94749 36.47307 32.71028
# Shear Modulus (GPa) = 22.86255 28.85061 25.85658
#
# Velocity S-wave (km/s) = 3.09318 3.47473 3.28949
# Velocity P-wave (km/s) = 4.98712 5.60018 5.30252
#
# Compressibility (1/GPa) = 0.03454531
#
# Stress axis : x y z
#
# Youngs Moduli (GPa) = 62.94392 23.59586 64.07956
#
# Poissons Ratio (x) = 0.14295 0.18432
# Poissons Ratio (y) = 0.38133 0.68752
# Poissons Ratio (z) = 0.18106 0.25316
#
# Static dielectric constant tensor:
#      x y z
#    x 4.738930 0.000000 0.000000 
#    y 0.000000 4.067910 0.000000 
#    z 0.000000 0.000000 4.017520 
# 
# 
# High freq. dielectric constant tensor:
#      x y z
#    x 1.976810 0.000000 0.000000 
#    y 0.000000 1.919440 0.000000 
#    z 0.000000 0.000000 1.928040 
# 
# From -- ./inp_files/10313.got.cif
#   From: 2010.03.12/outbox.cif.g09.slc.cpg/sg41_6_cif.got.tgz:10313.got - 2010.04.14 01:55:53.
