data_PCOD8184738
_publ_section_title
;
Structure prediction by ZEFSAII (Michael W. Deem and Ramdas Pophale) SiO2 
 PCOD8184738
Probable space group: A B A 2
;
_chemical_formula_sum "Si O2"
_cell_formula_units_Z 36
_cell_length_a 5.371334
_cell_length_b 22.205940
_cell_length_c 11.631709
_cell_angle_alpha 90.000000
_cell_angle_beta 90.000000
_cell_angle_gamma 90.000000
_cell_volume 1387.378146
_symmetry_space_group_name_H-M "A B A 2"
_symmetry_group_IT_number 41
_symmetry_cell_setting 'orthorhombic'
loop_
_space_group_symop_operation_xyz
x,y,z
-x,-y,z
1/2-x,y,1/2+z
1/2+x,-y,1/2+z
x,1/2+y,1/2+z
-x,1/2-y,1/2+z
1/2-x,1/2+y,z
1/2+x,1/2-y,z
loop_
_atom_site_type_symbol
_atom_site_label
_atom_site_fract_x
_atom_site_fract_y
_atom_site_fract_z
Si Si1 0.639592 0.275223 0.550590
Si Si2 0.307326 0.088773 0.104669
Si Si3 0.360408 0.775223 0.803940
Si Si4 0.500000 0.000000 0.927265
Si Si5 0.692674 0.588773 0.249861
O O1 0.363781 0.265126 0.492847
O O2 0.708304 0.344910 0.551162
O O3 0.577258 0.250000 0.677265
O O4 0.557292 0.078103 0.178119
O O5 0.057292 0.078103 0.176411
O O6 0.314039 0.041198 0.001737
O O7 0.636219 0.765126 0.861683
O O8 0.291696 0.844910 0.803368
O O9 0.685961 0.041198 0.852793
#
# Coordination Sequence:
#
# PCOD8184738 Si02
#       5
#     8   8   8   4   8
#     4  10  16  34  68  99 122 167 219 264 348 395
#     4  12  24  46  73  95 140 182 219 286 333 395
#     4  10  16  34  68  99 122 167 219 264 348 395
#     4  12  32  46  64 108 132 186 244 256 332 416
#     4  12  24  46  73  95 140 182 219 286 333 395
#
# _framework density 25.948225000000001
#
# number of rings (size 3 to 8) (size 9 to 14) (size 15 to 20)
#    0.000    0.889    8.889    1.333    0.000    3.556 
#    0.000    2.222    0.000    0.000    0.000    0.000 
#    0.000    0.000    0.000    0.000    0.000    0.000 
#
# Total GULP energy -223362.062025 kJ/mol
# GULP energy per Si atom -12409.003446 kJ/mol
# Density = 2.588917 g / cm^3
# Si number density = 25.948225 Si / 1000 Ang^3
#
#
#
# Elastic Constant Matrix: (Units=GPa)
#
#
# Indices 1 2 3 4 5 6 
#
# 1 203.7522 24.3786 61.5024 0.0000 0.0000 0.0000
# 2 24.3786 181.5231 49.6082 0.0000 0.0000 0.0000
# 3 61.5024 49.6082 110.4154 0.0000 0.0000 0.0000
# 4 0.0000 0.0000 0.0000 45.5114 0.0000 0.0000
# 5 0.0000 0.0000 0.0000 0.0000 26.5756 0.0000
# 6 0.0000 0.0000 0.0000 0.0000 0.0000 13.6827
#
#
#
# Elastic Compliance Matrix: (Units=1/GPa)
#
#
# Indices 1 2 3 4 5 6 
#
# 1 0.005902 0.000121 -0.003342 0.000000 0.000000 0.000000
# 2 0.000121 0.006282 -0.002890 0.000000 0.000000 0.000000
# 3 -0.003342 -0.002890 0.012216 0.000000 0.000000 0.000000
# 4 0.000000 0.000000 0.000000 0.021973 0.000000 0.000000
# 5 0.000000 0.000000 0.000000 0.000000 0.037629 0.000000
# 6 0.000000 0.000000 0.000000 0.000000 0.000000 0.073085
#
#
# Mechanical properties :
#
#
# Convention : Reuss Voigt Hill
#
# Bulk Modulus (GPa) = 82.10729 85.18548 83.64639
# Shear Modulus (GPa) = 28.84021 41.16735 35.00378
#
# Velocity S-wave (km/s) = 3.33746 3.98743 3.67684
# Velocity P-wave (km/s) = 6.82371 7.35526 7.09446
#
# Compressibility (1/GPa) = 0.01217919
#
# Stress axis : x y z
#
# Youngs Moduli (GPa) = 169.42830 159.17231 81.85675
#
# Poissons Ratio (x) = -0.01920 0.27355
# Poissons Ratio (y) = -0.02043 0.23655
# Poissons Ratio (z) = 0.56619 0.45998
#
# Static dielectric constant tensor:
#      x y z
#    x 5.224590 0.000000 0.000000 
#    y 0.000000 4.797670 0.000000 
#    z 0.000000 0.000000 5.849590 
# 
# 
# High freq. dielectric constant tensor:
#      x y z
#    x 2.078420 0.000000 0.000000 
#    y 0.000000 2.036280 0.000000 
#    z 0.000000 0.000000 2.102050 
# 
# From -- ./inp_files/6792.got.cif
#   From: 2010.03.12/outbox.cif.g09.slc.cpg/sg41_4_cif.got.tgz:6792.got - 2010.04.14 01:55:53.
