data_PCOD8184212
_publ_section_title
;
Structure prediction by ZEFSAII (Michael W. Deem and Ramdas Pophale) SiO2 
 PCOD8184212
Probable space group: A M A 2
;
_chemical_formula_sum "Si O2"
_cell_formula_units_Z 48
_cell_length_a 8.647835
_cell_length_b 20.276079
_cell_length_c 14.356321
_cell_angle_alpha 90.000000
_cell_angle_beta 90.000000
_cell_angle_gamma 90.000000
_cell_volume 2517.297415
_symmetry_space_group_name_H-M "A M A 2"
_symmetry_group_IT_number 40
_symmetry_cell_setting 'orthorhombic'
loop_
_space_group_symop_operation_xyz
x,y,z
-x,-y,z
1/2-x,y,z
1/2+x,-y,z
x,1/2+y,1/2+z
-x,1/2-y,1/2+z
1/2-x,1/2+y,1/2+z
1/2+x,1/2-y,1/2+z
loop_
_atom_site_type_symbol
_atom_site_label
_atom_site_fract_x
_atom_site_fract_y
_atom_site_fract_z
Si Si1 0.569014 0.622185 0.950420
Si Si2 0.932285 0.430828 0.763104
Si Si3 0.931413 0.810956 0.135767
Si Si4 0.568727 0.431032 0.139679
Si Si5 0.071338 0.764331 0.952677
Si Si6 0.571858 0.681794 0.252562
O O1 0.750000 0.612003 0.938776
O O2 0.485770 0.585201 0.866792
O O3 0.532368 0.699372 0.951852
O O4 0.515339 0.589121 0.045256
O O5 0.750000 0.434676 0.763623
O O6 0.989651 0.374668 0.692148
O O7 0.000000 0.500000 0.728360
O O8 0.750000 0.814343 0.114003
O O9 0.973348 0.747419 0.196854
O O10 0.026050 0.809497 0.039980
O O11 0.500000 0.500000 0.175189
O O12 0.750000 0.436795 0.121765
O O13 0.536487 0.377416 0.219477
O O14 0.250000 0.742462 0.957724
O O15 0.039149 0.807155 0.861171
O O16 0.750000 0.663251 0.233779
#
# Coordination Sequence:
#
# PCOD8184212 Si02
#       6
#     8   8   8   8   8   8
#     4  12  23  37  60  90 125 160 197 245 301 360
#     4  11  23  41  61  88 124 161 201 248 300 356
#     4  10  21  39  62  87 123 160 199 247 298 354
#     4  12  25  41  62  89 122 160 201 246 301 361
#     4  11  22  38  62  92 123 155 201 250 297 350
#     4  10  21  40  62  88 122 159 198 248 298 352
#
# _framework density 19.068068
#
# number of rings (size 3 to 8) (size 9 to 14) (size 15 to 20)
#    0.000    1.000    3.333    4.500    0.000    2.667 
#    0.000    0.833    0.000    2.000    0.000    0.000 
#    0.000    0.000    0.000    0.000    0.000    0.000 
#
# Total GULP energy -297769.844239 kJ/mol
# GULP energy per Si atom -12407.076843 kJ/mol
# Density = 1.902467 g / cm^3
# Si number density = 19.068068 Si / 1000 Ang^3
#
#
#
# Elastic Constant Matrix: (Units=GPa)
#
#
# Indices 1 2 3 4 5 6 
#
# 1 49.8112 30.9490 23.3490 0.0000 0.0000 0.0000
# 2 30.9490 132.9599 46.6842 0.0000 0.0000 0.0000
# 3 23.3490 46.6842 117.9284 0.0000 0.0000 0.0000
# 4 0.0000 0.0000 0.0000********** 0.0000 0.0000
# 5 0.0000 0.0000 0.0000 0.0000 14.6619 0.0000
# 6 0.0000 0.0000 0.0000 0.0000 0.0000 26.2553
#
#
#
# Elastic Compliance Matrix: (Units=1/GPa)
#
#
# Indices 1 2 3 4 5 6 
#
# 1 0.024347 -0.004616 -0.002993 0.000000 0.000000 0.000000
# 2 -0.004616 0.009611 -0.002891 0.000000 0.000000 0.000000
# 3 -0.002993 -0.002891 0.010217 0.000000 0.000000 0.000000
# 4 0.000000 0.000000 0.000000 -0.000022 0.000000 0.000000
# 5 0.000000 0.000000 0.000000 0.000000 0.068204 0.000000
# 6 0.000000 0.000000 0.000000 0.000000 0.000000 0.038087
#
#
# Mechanical properties :
#
#
# Convention : Reuss Voigt Hill
#
# Bulk Modulus (GPa) = 43.15123 55.85154 49.50138
# Shear Modulus (GPa) = 27.90681 -8980.90626 -4476.49973
#
# Velocity S-wave (km/s) = 3.82977 -68.70331 -48.50504
# Velocity P-wave (km/s) = 6.49888 79.14652 55.77605
#
# Compressibility (1/GPa) = 0.02317431
#
# Stress axis : x y z
#
# Youngs Moduli (GPa) = 41.07276 104.05286 97.87997
#
# Poissons Ratio (x) = 0.48034 0.29296
# Poissons Ratio (y) = 0.18961 0.28292
# Poissons Ratio (z) = 0.12293 0.30076
#
# Static dielectric constant tensor:
#      x y z
#    x 3.522740 0.000000 0.000000 
#    y 0.000000 103.595580 0.000000 
#    z 0.000000 0.000000 3.563200 
# 
# 
# High freq. dielectric constant tensor:
#      x y z
#    x 1.749360 0.000000 0.000000 
#    y 0.000000 1.742640 0.000000 
#    z 0.000000 0.000000 1.743620 
# 
# From -- ./inp_files/15027.got.cif
#   From: 2010.03.12/outbox.cif.g09.slc.cpg/sg40_8_cif.got.tgz:15027.got - 2010.04.14 01:38:03.
