data_PCOD8184765
_publ_section_title
;
Structure prediction by ZEFSAII (Michael W. Deem and Ramdas Pophale) SiO2 
 PCOD8184765
Probable space group: A B A 2
;
_chemical_formula_sum "Si O2"
_cell_formula_units_Z 64
_cell_length_a 12.020722
_cell_length_b 15.266961
_cell_length_c 16.953071
_cell_angle_alpha 90.000000
_cell_angle_beta 90.000000
_cell_angle_gamma 90.000000
_cell_volume 3111.225792
_symmetry_space_group_name_H-M "A B A 2"
_symmetry_group_IT_number 41
_symmetry_cell_setting 'orthorhombic'
loop_
_space_group_symop_operation_xyz
x,y,z
-x,-y,z
1/2-x,y,1/2+z
1/2+x,-y,1/2+z
x,1/2+y,1/2+z
-x,1/2-y,1/2+z
1/2-x,1/2+y,z
1/2+x,1/2-y,z
loop_
_atom_site_type_symbol
_atom_site_label
_atom_site_fract_x
_atom_site_fract_y
_atom_site_fract_z
Si Si1 0.045211 0.800959 0.930430
Si Si2 0.902719 0.373207 0.708987
Si Si3 0.592221 0.932266 0.344107
Si Si4 0.427305 0.293007 0.107771
Si Si5 0.818766 0.791576 0.740462
Si Si6 0.566001 0.149342 0.838157
Si Si7 0.261889 0.436532 0.922647
Si Si8 0.124768 0.983525 0.079036
O O1 0.162782 0.848959 0.912145
O O2 0.947448 0.873172 0.919014
O O3 0.022015 0.714866 0.879218
O O4 0.045912 0.765748 0.019268
O O5 0.805785 0.323167 0.754434
O O6 0.854763 0.449161 0.651177
O O7 0.958235 0.296555 0.656691
O O8 0.991611 0.406998 0.775620
O O9 0.603034 0.869835 0.269426
O O10 0.500000 0.000000 0.318134
O O11 0.704681 0.985618 0.362954
O O12 0.344386 0.223020 0.147732
O O13 0.370964 0.387976 0.116909
O O14 0.840723 0.703535 0.790232
O O15 0.633515 0.088978 0.901825
O O16 0.282086 0.480888 0.009498
O O17 0.000000 0.000000 0.042791
#
# Coordination Sequence:
#
# PCOD8184765 Si02
#       8
#     8   8   8   8   8   8   8   8
#     4   9  18  36  57  82 113 141 184 245 294 337
#     4  10  20  36  54  79 116 152 189 237 291 354
#     4   9  18  34  56  79 106 142 185 231 280 341
#     4   9  19  34  56  80 105 143 191 236 285 348
#     4  10  21  35  53  79 110 150 189 230 293 349
#     4  10  21  35  56  86 113 145 193 245 293 343
#     4  10  18  33  58  83 107 145 192 234 284 346
#     4   9  18  35  57  80 109 148 192 236 290 354
#
# _framework density 20.57067
#
# number of rings (size 3 to 8) (size 9 to 14) (size 15 to 20)
#    0.000    2.500    0.000    3.375    0.000    7.000 
#    0.000    2.500    0.000    1.500    0.000    0.000 
#    0.000    0.000    0.000    0.000    0.000    0.000 
#
# Total GULP energy -396420.449639 kJ/mol
# GULP energy per Si atom -12388.139051 kJ/mol
# Density = 2.052385 g / cm^3
# Si number density = 20.570670 Si / 1000 Ang^3
#
#
#
# Elastic Constant Matrix: (Units=GPa)
#
#
# Indices 1 2 3 4 5 6 
#
# 1 77.8868 31.7374 53.6931 0.0000 0.0000 0.0000
# 2 31.7374 74.9679 43.9124 0.0000 0.0000 0.0000
# 3 53.6931 43.9124 119.1187 0.0000 0.0000 0.0000
# 4 0.0000 0.0000 0.0000 31.0202 0.0000 0.0000
# 5 0.0000 0.0000 0.0000 0.0000 29.4664 0.0000
# 6 0.0000 0.0000 0.0000 0.0000 0.0000 22.6969
#
#
#
# Elastic Compliance Matrix: (Units=1/GPa)
#
#
# Indices 1 2 3 4 5 6 
#
# 1 0.019509 -0.003964 -0.007332 0.000000 0.000000 0.000000
# 2 -0.003964 0.017818 -0.004782 0.000000 0.000000 0.000000
# 3 -0.007332 -0.004782 0.013463 0.000000 0.000000 0.000000
# 4 0.000000 0.000000 0.000000 0.032237 0.000000 0.000000
# 5 0.000000 0.000000 0.000000 0.000000 0.033937 0.000000
# 6 0.000000 0.000000 0.000000 0.000000 0.000000 0.044059
#
#
# Mechanical properties :
#
#
# Convention : Reuss Voigt Hill
#
# Bulk Modulus (GPa) = 53.66655 58.96212 56.31433
# Shear Modulus (GPa) = 25.07633 26.14540 25.61086
#
# Velocity S-wave (km/s) = 3.49525 3.56898 3.53231
# Velocity P-wave (km/s) = 6.51418 6.76084 6.63866
#
# Compressibility (1/GPa) = 0.01863358
#
# Stress axis : x y z
#
# Youngs Moduli (GPa) = 51.25757 56.12258 74.27834
#
# Poissons Ratio (x) = 0.22248 0.54465
# Poissons Ratio (y) = 0.20319 0.35518
# Poissons Ratio (z) = 0.37585 0.26836
#
# Static dielectric constant tensor:
#      x y z
#    x 3.503920 0.000000 0.000000 
#    y 0.000000 3.693810 0.000000 
#    z 0.000000 0.000000 3.771790 
# 
# 
# High freq. dielectric constant tensor:
#      x y z
#    x 1.774830 0.000000 0.000000 
#    y 0.000000 1.795180 0.000000 
#    z 0.000000 0.000000 1.804290 
# 
# From -- ./inp_files/10133.got.cif
#   From: 2010.03.12/outbox.cif.g09.slc.cpg/sg41_6_cif.got.tgz:10133.got - 2010.04.14 01:55:53.
