data_PCOD8184967
_publ_section_title
;
Structure prediction by ZEFSAII (Michael W. Deem and Ramdas Pophale) SiO2 
 PCOD8184967
Probable space group: A B A 2
;
_chemical_formula_sum "Si O2"
_cell_formula_units_Z 60
_cell_length_a 13.863907
_cell_length_b 21.799187
_cell_length_c 9.096255
_cell_angle_alpha 90.000000
_cell_angle_beta 90.000000
_cell_angle_gamma 90.000000
_cell_volume 2749.087480
_symmetry_space_group_name_H-M "A B A 2"
_symmetry_group_IT_number 41
_symmetry_cell_setting 'orthorhombic'
loop_
_space_group_symop_operation_xyz
x,y,z
-x,-y,z
1/2-x,y,1/2+z
1/2+x,-y,1/2+z
x,1/2+y,1/2+z
-x,1/2-y,1/2+z
1/2-x,1/2+y,z
1/2+x,1/2-y,z
loop_
_atom_site_type_symbol
_atom_site_label
_atom_site_fract_x
_atom_site_fract_y
_atom_site_fract_z
Si Si1 0.953839 0.079904 0.594420
Si Si2 0.398701 0.288606 0.652476
Si Si3 0.927829 0.256553 0.974865
Si Si4 0.210582 0.428972 0.858476
Si Si5 0.656319 0.384380 0.574950
Si Si6 0.699448 0.154684 0.583441
Si Si7 0.500000 0.500000 0.845703
Si Si8 0.688994 0.943535 0.376019
O O1 0.945052 0.145161 0.672961
O O2 0.881952 0.066130 0.462970
O O3 0.063133 0.073664 0.531423
O O4 0.930964 0.037076 0.732892
O O5 0.458336 0.259661 0.514969
O O6 0.413003 0.248513 0.799553
O O7 0.286941 0.297524 0.611771
O O8 0.865308 0.314155 0.032862
O O9 0.893738 0.196071 0.061001
O O10 0.180931 0.395705 0.708426
O O11 0.251649 0.496277 0.825049
O O12 0.287623 0.384348 0.935098
O O13 0.674884 0.393908 0.747552
O O14 0.753613 0.407994 0.500512
O O15 0.580663 0.462213 0.937954
#
# Coordination Sequence:
#
# PCOD8184967 Si02
#       8
#     8   8   8   8   8   8   4   8
#     4   9  20  41  66  93 123 172 214 268 329 392
#     4  10  23  42  63  95 128 171 225 266 336 393
#     4  11  25  42  66  94 130 176 217 275 336 395
#     4  11  21  39  68  92 124 163 217 271 322 385
#     4  10  24  42  63  91 131 170 216 261 335 393
#     4  11  23  39  63  96 127 163 219 277 323 389
#     4  10  20  38  64  90 130 172 208 262 332 388
#     4  11  22  42  63  93 125 173 213 264 322 401
#
# _framework density 21.825424000000002
#
# number of rings (size 3 to 8) (size 9 to 14) (size 15 to 20)
#    0.000    1.600    1.333    4.000    7.467    0.000 
#    4.800    2.667    0.000    0.000    0.000    0.000 
#    0.000    0.000    0.000    0.000    0.000    0.000 
#
# Total GULP energy -371744.495180 kJ/mol
# GULP energy per Si atom -12391.483173 kJ/mol
# Density = 2.177575 g / cm^3
# Si number density = 21.825424 Si / 1000 Ang^3
#
#
#
# Elastic Constant Matrix: (Units=GPa)
#
#
# Indices 1 2 3 4 5 6 
#
# 1 85.4513 1.7070 10.8071 0.0000 0.0000 0.0000
# 2 1.7070 68.0985 12.5934 0.0000 0.0000 0.0000
# 3 10.8071 12.5934 49.8761 0.0000 0.0000 0.0000
# 4 0.0000 0.0000 0.0000 25.9557 0.0000 0.0000
# 5 0.0000 0.0000 0.0000 0.0000 36.2205 0.0000
# 6 0.0000 0.0000 0.0000 0.0000 0.0000 31.0538
#
#
#
# Elastic Compliance Matrix: (Units=1/GPa)
#
#
# Indices 1 2 3 4 5 6 
#
# 1 0.012035 0.000189 -0.002655 0.000000 0.000000 0.000000
# 2 0.000189 0.015407 -0.003931 0.000000 0.000000 0.000000
# 3 -0.002655 -0.003931 0.021618 0.000000 0.000000 0.000000
# 4 0.000000 0.000000 0.000000 0.038527 0.000000 0.000000
# 5 0.000000 0.000000 0.000000 0.000000 0.027609 0.000000
# 6 0.000000 0.000000 0.000000 0.000000 0.000000 0.032202
#
#
# Mechanical properties :
#
#
# Convention : Reuss Voigt Hill
#
# Bulk Modulus (GPa) = 27.57504 28.18231 27.87867
# Shear Modulus (GPa) = 29.02257 30.53392 29.77824
#
# Velocity S-wave (km/s) = 3.65054 3.74439 3.69776
# Velocity P-wave (km/s) = 5.51638 5.62446 5.57068
#
# Compressibility (1/GPa) = 0.03626468
#
# Stress axis : x y z
#
# Youngs Moduli (GPa) = 83.09354 64.90624 46.25851
#
# Poissons Ratio (x) = -0.01229 0.12284
# Poissons Ratio (y) = -0.01574 0.18185
# Poissons Ratio (z) = 0.22065 0.25516
#
# Static dielectric constant tensor:
#      x y z
#    x 4.303320 0.000000 0.000000 
#    y 0.000000 4.163700 0.000000 
#    z 0.000000 0.000000 3.728560 
# 
# 
# High freq. dielectric constant tensor:
#      x y z
#    x 1.867060 0.000000 0.000000 
#    y 0.000000 1.864540 0.000000 
#    z 0.000000 0.000000 1.838250 
# 
# From -- ./inp_files/2749.got.cif
#   From: 2010.03.12/outbox.cif.g09.slc.cpg/sg41_2_cif.got.tgz:2749.got - 2010.04.14 01:55:53.
