data_PCOD8184964
_publ_section_title
;
Structure prediction by ZEFSAII (Michael W. Deem and Ramdas Pophale) SiO2 
 PCOD8184964
Probable space group: A B A 2
;
_chemical_formula_sum "Si O2"
_cell_formula_units_Z 64
_cell_length_a 21.717456
_cell_length_b 8.262144
_cell_length_c 16.793732
_cell_angle_alpha 90.000000
_cell_angle_beta 90.000000
_cell_angle_gamma 90.000000
_cell_volume 3013.345495
_symmetry_space_group_name_H-M "A B A 2"
_symmetry_group_IT_number 41
_symmetry_cell_setting 'orthorhombic'
loop_
_space_group_symop_operation_xyz
x,y,z
-x,-y,z
1/2-x,y,1/2+z
1/2+x,-y,1/2+z
x,1/2+y,1/2+z
-x,1/2-y,1/2+z
1/2-x,1/2+y,z
1/2+x,1/2-y,z
loop_
_atom_site_type_symbol
_atom_site_label
_atom_site_fract_x
_atom_site_fract_y
_atom_site_fract_z
Si Si1 0.311575 0.076588 0.948990
Si Si2 0.784993 0.670006 0.248318
Si Si3 0.468099 0.340372 0.599610
Si Si4 0.820060 0.060094 0.913927
Si Si5 0.163800 0.484873 0.777830
Si Si6 0.648839 0.489939 0.620768
Si Si7 0.065379 0.554880 0.499744
Si Si8 0.084150 0.334141 0.651657
O O1 0.319816 0.268607 0.959393
O O2 0.349360 0.013465 0.871530
O O3 0.239105 0.044023 0.938897
O O4 0.337993 0.989055 0.026885
O O5 0.823040 0.586797 0.319561
O O6 0.712490 0.662624 0.269140
O O7 0.805878 0.855280 0.238004
O O8 0.794046 0.563086 0.168910
O O9 0.500000 0.500000 0.562763
O O10 0.409035 0.399997 0.649245
O O11 0.443862 0.239875 0.524666
O O12 0.515098 0.241118 0.656952
O O13 0.881175 0.958565 0.934704
O O14 0.101111 0.435309 0.731473
O O15 0.635956 0.303003 0.640285
O O16 0.085325 0.452706 0.576848
O O17 0.000000 0.500000 0.462879
#
# Coordination Sequence:
#
# PCOD8184964 Si02
#       8
#     8   8   8   8   8   8   8   8
#     4  10  23  38  62  93 131 164 210 265 327 380
#     4  10  22  37  61  90 132 163 210 261 324 375
#     4   9  21  38  61  91 123 160 214 269 309 379
#     4  10  22  41  59  93 133 169 210 270 323 390
#     4  10  21  40  59  90 126 169 204 265 318 386
#     4  11  21  38  62  93 121 162 208 260 318 383
#     4  10  20  38  63  88 125 170 213 263 318 383
#     4  10  20  38  64  85 121 160 214 255 317 377
#
# _framework density 21.238852000000001
#
# number of rings (size 3 to 8) (size 9 to 14) (size 15 to 20)
#    0.000    2.000    1.250    1.500    3.500    2.000 
#    0.000    1.875    2.750    5.250    0.000    0.000 
#    0.000    0.000    0.000    0.000    0.000    0.000 
#
# Total GULP energy -396716.290875 kJ/mol
# GULP energy per Si atom -12397.384090 kJ/mol
# Density = 2.119051 g / cm^3
# Si number density = 21.238852 Si / 1000 Ang^3
#
#
#
# Elastic Constant Matrix: (Units=GPa)
#
#
# Indices 1 2 3 4 5 6 
#
# 1 92.4684 33.9014 38.9133 0.0000 0.0000 0.0000
# 2 33.9014 94.4828 26.3294 0.0000 0.0000 0.0000
# 3 38.9133 26.3294 101.9955 0.0000 0.0000 0.0000
# 4 0.0000 0.0000 0.0000 24.7533 0.0000 0.0000
# 5 0.0000 0.0000 0.0000 0.0000 36.0037 0.0000
# 6 0.0000 0.0000 0.0000 0.0000 0.0000 34.7280
#
#
#
# Elastic Compliance Matrix: (Units=1/GPa)
#
#
# Indices 1 2 3 4 5 6 
#
# 1 0.014058 -0.003825 -0.004376 0.000000 0.000000 0.000000
# 2 -0.003825 0.012445 -0.001753 0.000000 0.000000 0.000000
# 3 -0.004376 -0.001753 0.011927 0.000000 0.000000 0.000000
# 4 0.000000 0.000000 0.000000 0.040399 0.000000 0.000000
# 5 0.000000 0.000000 0.000000 0.000000 0.027775 0.000000
# 6 0.000000 0.000000 0.000000 0.000000 0.000000 0.028795
#
#
# Mechanical properties :
#
#
# Convention : Reuss Voigt Hill
#
# Bulk Modulus (GPa) = 53.99212 54.13721 54.06466
# Shear Modulus (GPa) = 30.96337 31.75050 31.35694
#
# Velocity S-wave (km/s) = 3.82234 3.87062 3.84656
# Velocity P-wave (km/s) = 6.70500 6.74690 6.72598
#
# Compressibility (1/GPa) = 0.01852122
#
# Stress axis : x y z
#
# Youngs Moduli (GPa) = 71.13188 80.35413 83.84639
#
# Poissons Ratio (x) = 0.30734 0.36693
# Poissons Ratio (y) = 0.27206 0.14701
# Poissons Ratio (z) = 0.31129 0.14089
#
# Static dielectric constant tensor:
#      x y z
#    x 3.817300 0.000000 0.000000 
#    y 0.000000 4.002160 0.000000 
#    z 0.000000 0.000000 3.582620 
# 
# 
# High freq. dielectric constant tensor:
#      x y z
#    x 1.825210 0.000000 0.000000 
#    y 0.000000 1.848780 0.000000 
#    z 0.000000 0.000000 1.805910 
# 
# From -- ./inp_files/10698.got.cif
#   From: 2010.03.12/outbox.cif.g09.slc.cpg/sg41_6_cif.got.tgz:10698.got - 2010.04.14 01:55:53.
