data_PCOD8184762
_publ_section_title
;
Structure prediction by ZEFSAII (Michael W. Deem and Ramdas Pophale) SiO2 
 PCOD8184762
Probable space group: A B A 2
;
_chemical_formula_sum "Si O2"
_cell_formula_units_Z 52
_cell_length_a 19.323760
_cell_length_b 15.397298
_cell_length_c 8.215632
_cell_angle_alpha 90.000000
_cell_angle_beta 90.000000
_cell_angle_gamma 90.000000
_cell_volume 2444.427315
_symmetry_space_group_name_H-M "A B A 2"
_symmetry_group_IT_number 41
_symmetry_cell_setting 'orthorhombic'
loop_
_space_group_symop_operation_xyz
x,y,z
-x,-y,z
1/2-x,y,1/2+z
1/2+x,-y,1/2+z
x,1/2+y,1/2+z
-x,1/2-y,1/2+z
1/2-x,1/2+y,z
1/2+x,1/2-y,z
loop_
_atom_site_type_symbol
_atom_site_label
_atom_site_fract_x
_atom_site_fract_y
_atom_site_fract_z
Si Si1 0.864224 0.388849 0.924590
Si Si2 0.843687 0.701278 0.965135
Si Si3 0.000000 0.500000 0.386809
Si Si4 0.384495 0.966955 0.146351
Si Si5 0.719629 0.435891 0.845456
Si Si6 0.899554 0.875676 0.063412
Si Si7 0.793359 0.262160 0.143598
O O1 0.797172 0.453452 0.905614
O O2 0.904582 0.374795 0.758065
O O3 0.909675 0.445612 0.050630
O O4 0.845196 0.294240 0.000198
O O5 0.878046 0.612681 0.023726
O O6 0.899491 0.777165 0.997899
O O7 0.773268 0.717940 0.064796
O O8 0.829263 0.695258 0.770288
O O9 0.943210 0.550607 0.279657
O O10 0.966341 0.425445 0.497469
O O11 0.311224 0.986026 0.237675
O O12 0.727869 0.346613 0.745688
O O13 0.670922 0.421845 0.002887
#
# Coordination Sequence:
#
# PCOD8184762 Si02
#       7
#     8   8   4   8   8   8   8
#     4  11  18  37  61  94 116 165 191 247 307 399
#     4  11  20  37  57  96 120 161 182 266 310 368
#     4  10  24  48  56  82 112 182 218 262 278 382
#     4  10  24  36  61  85 129 153 213 249 307 351
#     4   9  17  35  59  92 118 161 186 242 302 394
#     4  10  19  38  67  80 120 157 216 240 311 351
#     4  10  18  32  59  90 133 144 189 230 330 385
#
# _framework density 21.272877000000001
#
# number of rings (size 3 to 8) (size 9 to 14) (size 15 to 20)
#    0.000    1.846    4.615    1.846    2.154    0.615 
#    0.000    4.615    0.000    0.000    0.000    0.000 
#    0.000    0.000    0.000    0.000    0.000    0.000 
#
# Total GULP energy -322322.516897 kJ/mol
# GULP energy per Si atom -12397.019881 kJ/mol
# Density = 2.122446 g / cm^3
# Si number density = 21.272877 Si / 1000 Ang^3
#
#
#
# Elastic Constant Matrix: (Units=GPa)
#
#
# Indices 1 2 3 4 5 6 
#
# 1 51.2877 15.9870 28.4194 0.0000 0.0000 0.0000
# 2 15.9870 69.1069 21.0429 0.0000 0.0000 0.0000
# 3 28.4194 21.0429 131.4212 0.0000 0.0000 0.0000
# 4 0.0000 0.0000 0.0000 35.6361 0.0000 0.0000
# 5 0.0000 0.0000 0.0000 0.0000 29.4366 0.0000
# 6 0.0000 0.0000 0.0000 0.0000 0.0000 19.2526
#
#
#
# Elastic Compliance Matrix: (Units=1/GPa)
#
#
# Indices 1 2 3 4 5 6 
#
# 1 0.023174 -0.004032 -0.004366 0.000000 0.000000 0.000000
# 2 -0.004032 0.015913 -0.001676 0.000000 0.000000 0.000000
# 3 -0.004366 -0.001676 0.008822 0.000000 0.000000 0.000000
# 4 0.000000 0.000000 0.000000 0.028061 0.000000 0.000000
# 5 0.000000 0.000000 0.000000 0.000000 0.033971 0.000000
# 6 0.000000 0.000000 0.000000 0.000000 0.000000 0.051941
#
#
# Mechanical properties :
#
#
# Convention : Reuss Voigt Hill
#
# Bulk Modulus (GPa) = 36.02092 42.52385 39.27238
# Shear Modulus (GPa) = 26.13922 29.28947 27.71434
#
# Velocity S-wave (km/s) = 3.50917 3.71461 3.61335
# Velocity P-wave (km/s) = 5.77828 6.19927 5.99247
#
# Compressibility (1/GPa) = 0.02776165
#
# Stress axis : x y z
#
# Youngs Moduli (GPa) = 43.15241 62.84018 113.35837
#
# Poissons Ratio (x) = 0.25335 0.49489
# Poissons Ratio (y) = 0.17397 0.19001
# Poissons Ratio (z) = 0.18839 0.10533
#
# Static dielectric constant tensor:
#      x y z
#    x 3.548390 0.000000 0.000000 
#    y 0.000000 3.524920 0.000000 
#    z 0.000000 0.000000 4.237320 
# 
# 
# High freq. dielectric constant tensor:
#      x y z
#    x 1.796350 0.000000 0.000000 
#    y 0.000000 1.806350 0.000000 
#    z 0.000000 0.000000 1.859400 
# 
# From -- ./inp_files/3405.got.cif
#   From: 2010.03.12/outbox.cif.g09.slc.cpg/sg41_2_cif.got.tgz:3405.got - 2010.04.14 01:55:53.
