data_PCOD8184466
_publ_section_title
;
Structure prediction by ZEFSAII (Michael W. Deem and Ramdas Pophale) SiO2 
 PCOD8184466
Probable space group: A M A 2
;
_chemical_formula_sum "Si O2"
_cell_formula_units_Z 44
_cell_length_a 23.563858
_cell_length_b 6.654997
_cell_length_c 13.512253
_cell_angle_alpha 90.000000
_cell_angle_beta 90.000000
_cell_angle_gamma 90.000000
_cell_volume 2118.956442
_symmetry_space_group_name_H-M "A M A 2"
_symmetry_group_IT_number 40
_symmetry_cell_setting 'orthorhombic'
loop_
_space_group_symop_operation_xyz
x,y,z
-x,-y,z
1/2-x,y,z
1/2+x,-y,z
x,1/2+y,1/2+z
-x,1/2-y,1/2+z
1/2-x,1/2+y,1/2+z
1/2+x,1/2-y,1/2+z
loop_
_atom_site_type_symbol
_atom_site_label
_atom_site_fract_x
_atom_site_fract_y
_atom_site_fract_z
Si Si1 0.314019 0.929129 0.581960
Si Si2 0.500000 0.500000 0.690354
Si Si3 0.642655 0.749998 0.440354
Si Si4 0.185981 0.070876 0.798748
Si Si5 0.892863 0.927505 0.088625
Si Si6 0.892863 0.572492 0.792084
O O1 0.250000 0.842481 0.581571
O O2 0.332579 0.000005 0.690354
O O3 0.357884 0.759057 0.544785
O O4 0.316577 0.116187 0.508203
O O5 0.541978 0.367303 0.619520
O O6 0.541979 0.632695 0.761189
O O7 0.683423 0.616184 0.372504
O O8 0.603669 0.607311 0.508791
O O9 0.603668 0.892685 0.371917
O O10 0.250000 0.157524 0.799138
O O11 0.142116 0.240947 0.835924
O O12 0.861431 0.999998 0.190354
#
# Coordination Sequence:
#
# PCOD8184466 Si02
#       6
#     8   4   8   8   8   8
#     4  11  23  41  68  99 136 173 212 268 325 393
#     4   8  20  48  64  92 130 166 220 286 318 376
#     4  12  23  42  66  98 130 176 215 258 334 396
#     4  11  23  41  68  99 136 173 212 268 325 393
#     4  10  22  44  66  94 128 169 220 268 322 383
#     4  10  22  44  66  94 128 169 220 268 322 383
#
# _framework density 20.764938999999998
#
# number of rings (size 3 to 8) (size 9 to 14) (size 15 to 20)
#    1.091    0.364    3.636    1.636    0.000    5.091 
#    6.545    6.364    0.000    0.000    0.000    0.000 
#    0.000    0.000    0.000    0.000    0.000    0.000 
#
# Total GULP energy -272606.232995 kJ/mol
# GULP energy per Si atom -12391.192409 kJ/mol
# Density = 2.071768 g / cm^3
# Si number density = 20.764939 Si / 1000 Ang^3
#
#
#
# Elastic Constant Matrix: (Units=GPa)
#
#
# Indices 1 2 3 4 5 6 
#
# 1 141.7772 63.8984 30.9741 0.0000 0.0000 0.0000
# 2 63.8984 124.6847 57.2897 0.0000 0.0000 0.0000
# 3 30.9741 57.2897 126.5961 0.0000 0.0000 0.0000
# 4 0.0000 0.0000 0.0000 37.7685 0.0000 0.0000
# 5 0.0000 0.0000 0.0000 0.0000 -1.3229 0.0000
# 6 0.0000 0.0000 0.0000 0.0000 0.0000 106.8007
#
#
#
# Elastic Compliance Matrix: (Units=1/GPa)
#
#
# Indices 1 2 3 4 5 6 
#
# 1 0.009174 -0.004634 -0.000148 0.000000 0.000000 0.000000
# 2 -0.004634 0.012466 -0.004508 0.000000 0.000000 0.000000
# 3 -0.000148 -0.004508 0.009975 0.000000 0.000000 0.000000
# 4 0.000000 0.000000 0.000000 0.026477 0.000000 0.000000
# 5 0.000000 0.000000 0.000000 0.000000 -0.755943 0.000000
# 6 0.000000 0.000000 0.000000 0.000000 0.000000 0.009363
#
#
# Mechanical properties :
#
#
# Convention : Reuss Voigt Hill
#
# Bulk Modulus (GPa) = 76.70349 77.48693 77.09521
# Shear Modulus (GPa) = -7.51243 44.70898 18.59828
#
# Velocity S-wave (km/s) = -1.90413 4.64518 2.99600
# Velocity P-wave (km/s) = 5.67317 8.13434 7.01258
#
# Compressibility (1/GPa) = 0.01303722
#
# Stress axis : x y z
#
# Youngs Moduli (GPa) = 109.00449 80.21797 100.24890
#
# Poissons Ratio (x) = 0.37170 0.01481
# Poissons Ratio (y) = 0.50508 0.45189
# Poissons Ratio (z) = 0.01610 0.36160
#
# Static dielectric constant tensor:
#      x y z
#    x 3.386290 0.000000 0.000000 
#    y 0.000000 3.537050 0.000000 
#    z 0.000000 0.000000 3.943960 
# 
# 
# High freq. dielectric constant tensor:
#      x y z
#    x 1.787580 0.000000 0.000000 
#    y 0.000000 1.790590 0.000000 
#    z 0.000000 0.000000 1.834650 
# 
# From -- ./inp_files/18615.got.cif
#   From: 2010.03.12/outbox.cif.g09.slc.cpg/sg40_10_cif.got.tgz:18615.got - 2010.04.14 01:38:03.
