data_PCOD8184536
_publ_section_title
;
Structure prediction by ZEFSAII (Michael W. Deem and Ramdas Pophale) SiO2 
 PCOD8184536
Probable space group: A M A 2
;
_chemical_formula_sum "Si O2"
_cell_formula_units_Z 44
_cell_length_a 9.140490
_cell_length_b 26.099234
_cell_length_c 8.186317
_cell_angle_alpha 90.000000
_cell_angle_beta 90.000000
_cell_angle_gamma 90.000000
_cell_volume 1952.926043
_symmetry_space_group_name_H-M "A M A 2"
_symmetry_group_IT_number 40
_symmetry_cell_setting 'orthorhombic'
loop_
_space_group_symop_operation_xyz
x,y,z
-x,-y,z
1/2-x,y,z
1/2+x,-y,z
x,1/2+y,1/2+z
-x,1/2-y,1/2+z
1/2-x,1/2+y,1/2+z
1/2+x,1/2-y,1/2+z
loop_
_atom_site_type_symbol
_atom_site_label
_atom_site_fract_x
_atom_site_fract_y
_atom_site_fract_z
Si Si1 0.500000 0.500000 0.431660
Si Si2 0.917237 0.219163 0.587901
Si Si3 0.082267 0.180627 0.899542
Si Si4 0.583953 0.099498 0.093026
Si Si5 0.922614 0.862802 0.406337
Si Si6 0.408262 0.045097 0.614889
O O1 0.589425 0.539345 0.544655
O O2 0.401531 0.535865 0.311149
O O3 0.750000 0.201062 0.615803
O O4 0.921029 0.279679 0.550651
O O5 0.017245 0.208845 0.743177
O O6 0.988154 0.189440 0.433210
O O7 0.250000 0.163767 0.862091
O O8 0.982763 0.132035 0.943473
O O9 0.750000 0.117225 0.129153
O O10 0.479811 0.107549 0.247808
O O11 0.750000 0.851259 0.387610
O O12 0.962206 0.898105 0.565504
O O13 0.250000 0.039216 0.535824
O O14 0.500000 0.000000 0.528192
#
# Coordination Sequence:
#
# PCOD8184536 Si02
#       6
#     4   8   8   8   8   8
#     4  10  24  42  64  92 126 168 214 266 324 380
#     4  11  24  43  69  99 131 173 219 265 322 391
#     4  11  25  44  68  98 134 172 215 269 327 385
#     4  12  26  43  66  96 131 174 221 270 324 391
#     4  11  24  42  66  96 132 172 216 270 329 387
#     4   9  21  40  62  88 121 162 209 259 315 378
#
# _framework density 22.530296
#
# number of rings (size 3 to 8) (size 9 to 14) (size 15 to 20)
#    0.545    0.727    0.000    4.909    1.273   11.636 
#    0.000    0.000    0.000    0.000    0.000    0.000 
#    0.000    0.000    0.000    0.000    0.000    0.000 
#
# Total GULP energy -272717.411854 kJ/mol
# GULP energy per Si atom -12396.245993 kJ/mol
# Density = 2.247902 g / cm^3
# Si number density = 22.530296 Si / 1000 Ang^3
#
#
#
# Elastic Constant Matrix: (Units=GPa)
#
#
# Indices 1 2 3 4 5 6 
#
# 1 142.0641 35.3720 20.3087 0.0000 0.0000 0.0000
# 2 35.3720 90.0747 10.8901 0.0000 0.0000 0.0000
# 3 20.3087 10.8901 81.0011 0.0000 0.0000 0.0000
# 4 0.0000 0.0000 0.0000 39.0516 0.0000 0.0000
# 5 0.0000 0.0000 0.0000 0.0000 33.5409 0.0000
# 6 0.0000 0.0000 0.0000 0.0000 0.0000 32.9342
#
#
#
# Elastic Compliance Matrix: (Units=1/GPa)
#
#
# Indices 1 2 3 4 5 6 
#
# 1 0.008003 -0.002948 -0.001610 0.000000 0.000000 0.000000
# 2 -0.002948 0.012371 -0.000924 0.000000 0.000000 0.000000
# 3 -0.001610 -0.000924 0.012873 0.000000 0.000000 0.000000
# 4 0.000000 0.000000 0.000000 0.025607 0.000000 0.000000
# 5 0.000000 0.000000 0.000000 0.000000 0.029814 0.000000
# 6 0.000000 0.000000 0.000000 0.000000 0.000000 0.030364
#
#
# Mechanical properties :
#
#
# Convention : Reuss Voigt Hill
#
# Bulk Modulus (GPa) = 44.87699 49.58683 47.23191
# Shear Modulus (GPa) = 36.38321 37.54326 36.96323
#
# Velocity S-wave (km/s) = 4.02289 4.08652 4.05483
# Velocity P-wave (km/s) = 6.44515 6.65755 6.55221
#
# Compressibility (1/GPa) = 0.02228313
#
# Stress axis : x y z
#
# Youngs Moduli (GPa) = 124.94798 80.83187 77.67909
#
# Poissons Ratio (x) = 0.23831 0.12508
# Poissons Ratio (y) = 0.36837 0.07178
# Poissons Ratio (z) = 0.20120 0.07469
#
# Static dielectric constant tensor:
#      x y z
#    x 3.957210 0.000000 0.000000 
#    y 0.000000 4.133870 0.000000 
#    z 0.000000 0.000000 3.831100 
# 
# 
# High freq. dielectric constant tensor:
#      x y z
#    x 1.888820 0.000000 0.000000 
#    y 0.000000 1.896810 0.000000 
#    z 0.000000 0.000000 1.881540 
# 
# From -- ./inp_files/4476.got.cif
#   From: 2010.03.12/outbox.cif.g09.slc.cpg/sg40_3_cif.got.tgz:4476.got - 2010.04.14 01:38:03.
