data_PCOD8184873
_publ_section_title
;
Structure prediction by ZEFSAII (Michael W. Deem and Ramdas Pophale) SiO2 
 PCOD8184873
Probable space group: A B A 2
;
_chemical_formula_sum "Si O2"
_cell_formula_units_Z 64
_cell_length_a 9.508730
_cell_length_b 19.408599
_cell_length_c 16.688891
_cell_angle_alpha 90.000000
_cell_angle_beta 90.000000
_cell_angle_gamma 90.000000
_cell_volume 3079.953652
_symmetry_space_group_name_H-M "A B A 2"
_symmetry_group_IT_number 41
_symmetry_cell_setting 'orthorhombic'
loop_
_space_group_symop_operation_xyz
x,y,z
-x,-y,z
1/2-x,y,1/2+z
1/2+x,-y,1/2+z
x,1/2+y,1/2+z
-x,1/2-y,1/2+z
1/2-x,1/2+y,z
1/2+x,1/2-y,z
loop_
_atom_site_type_symbol
_atom_site_label
_atom_site_fract_x
_atom_site_fract_y
_atom_site_fract_z
Si Si1 0.017112 0.576846 0.275620
Si Si2 0.434072 0.213783 0.767236
Si Si3 0.010246 0.574707 0.838431
Si Si4 0.847727 0.300017 0.190695
Si Si5 0.214547 0.683464 0.518631
Si Si6 0.290377 0.054193 0.425980
Si Si7 0.940670 0.230656 0.938417
Si Si8 0.292945 0.902391 0.396435
O O1 0.863971 0.600356 0.307726
O O2 0.000000 0.500000 0.239608
O O3 0.079395 0.626071 0.207203
O O4 0.118824 0.581950 0.352023
O O5 0.453835 0.131457 0.772064
O O6 0.528806 0.242591 0.693577
O O7 0.267855 0.224470 0.755332
O O8 0.484072 0.256145 0.845963
O O9 0.873148 0.601700 0.884921
O O10 0.000000 0.500000 0.794254
O O11 0.127072 0.563146 0.905960
O O12 0.761641 0.302977 0.108680
O O13 0.179277 0.602688 0.502739
O O14 0.344660 0.704906 0.462430
O O15 0.077256 0.728075 0.495268
O O16 0.331165 0.974375 0.441952
O O17 0.850252 0.160538 0.949431
#
# Coordination Sequence:
#
# PCOD8184873 Si02
#       8
#     8   8   8   8   8   8   8   8
#     4  10  19  38  66  92 119 163 221 261 306 387
#     4  12  22  41  67  92 122 170 224 267 320 390
#     4  10  20  35  62  98 123 153 214 278 313 361
#     4  12  25  41  61  95 134 172 207 274 343 386
#     4  12  25  40  61  91 133 169 204 271 333 390
#     4  10  19  39  63  92 122 163 211 268 311 380
#     4  12  22  40  67  94 118 171 225 265 313 390
#     4  10  20  34  66  99 118 152 223 269 308 369
#
# _framework density 20.779532
#
# number of rings (size 3 to 8) (size 9 to 14) (size 15 to 20)
#    0.000    1.000    5.000    3.000    0.000    0.000 
#    0.000    1.875    5.500    0.000    0.000    0.000 
#    0.000    0.000    0.000    0.000    0.000    0.000 
#
# Total GULP energy -396709.744874 kJ/mol
# GULP energy per Si atom -12397.179527 kJ/mol
# Density = 2.073224 g / cm^3
# Si number density = 20.779532 Si / 1000 Ang^3
#
#
#
# Elastic Constant Matrix: (Units=GPa)
#
#
# Indices 1 2 3 4 5 6 
#
# 1 108.1621 27.7824 20.2447 0.0000 0.0000 0.0000
# 2 27.7824 129.2497 32.0826 0.0000 0.0000 0.0000
# 3 20.2447 32.0826 64.5103 0.0000 0.0000 0.0000
# 4 0.0000 0.0000 0.0000 22.6304 0.0000 0.0000
# 5 0.0000 0.0000 0.0000 0.0000 30.2179 0.0000
# 6 0.0000 0.0000 0.0000 0.0000 0.0000 35.6556
#
#
#
# Elastic Compliance Matrix: (Units=1/GPa)
#
#
# Indices 1 2 3 4 5 6 
#
# 1 0.010097 -0.001579 -0.002384 0.000000 0.000000 0.000000
# 2 -0.001579 0.009073 -0.004017 0.000000 0.000000 0.000000
# 3 -0.002384 -0.004017 0.018247 0.000000 0.000000 0.000000
# 4 0.000000 0.000000 0.000000 0.044188 0.000000 0.000000
# 5 0.000000 0.000000 0.000000 0.000000 0.033093 0.000000
# 6 0.000000 0.000000 0.000000 0.000000 0.000000 0.028046
#
#
# Mechanical properties :
#
#
# Convention : Reuss Voigt Hill
#
# Bulk Modulus (GPa) = 46.60026 51.34904 48.97465
# Shear Modulus (GPa) = 30.14652 32.48826 31.31739
#
# Velocity S-wave (km/s) = 3.81304 3.95837 3.88638
# Velocity P-wave (km/s) = 6.46997 6.75697 6.61502
#
# Compressibility (1/GPa) = 0.02145911
#
# Stress axis : x y z
#
# Youngs Moduli (GPa) = 99.03915 110.21203 54.80302
#
# Poissons Ratio (x) = 0.17399 0.13062
# Poissons Ratio (y) = 0.15636 0.22014
# Poissons Ratio (z) = 0.23606 0.44272
#
# Static dielectric constant tensor:
#      x y z
#    x 4.083860 0.000000 0.000000 
#    y 0.000000 4.103530 0.000000 
#    z 0.000000 0.000000 3.196400 
# 
# 
# High freq. dielectric constant tensor:
#      x y z
#    x 1.839630 0.000000 0.000000 
#    y 0.000000 1.833060 0.000000 
#    z 0.000000 0.000000 1.747280 
# 
# From -- ./inp_files/9858.got.cif
#   From: 2010.03.12/outbox.cif.g09.slc.cpg/sg41_5_cif.got.tgz:9858.got - 2010.04.14 01:55:53.
