data_PCOD8184296
_publ_section_title
;
Structure prediction by ZEFSAII (Michael W. Deem and Ramdas Pophale) SiO2 
 PCOD8184296
Probable space group: A M A 2
;
_chemical_formula_sum "Si O2"
_cell_formula_units_Z 64
_cell_length_a 17.384666
_cell_length_b 11.601463
_cell_length_c 15.108664
_cell_angle_alpha 90.000000
_cell_angle_beta 90.000000
_cell_angle_gamma 90.000000
_cell_volume 3047.229567
_symmetry_space_group_name_H-M "A M A 2"
_symmetry_group_IT_number 40
_symmetry_cell_setting 'orthorhombic'
loop_
_space_group_symop_operation_xyz
x,y,z
-x,-y,z
1/2-x,y,z
1/2+x,-y,z
x,1/2+y,1/2+z
-x,1/2-y,1/2+z
1/2-x,1/2+y,1/2+z
1/2+x,1/2-y,1/2+z
loop_
_atom_site_type_symbol
_atom_site_label
_atom_site_fract_x
_atom_site_fract_y
_atom_site_fract_z
Si Si1 0.840779 0.417477 0.803070
Si Si2 0.661594 0.317295 0.195285
Si Si3 0.160721 0.440533 0.122855
Si Si4 0.077869 0.931785 0.443863
Si Si5 0.162225 0.011311 0.951247
Si Si6 0.340710 0.928967 0.142192
Si Si7 0.562030 0.814802 0.863294
Si Si8 0.107290 0.342534 0.307351
O O1 0.750000 0.405053 0.798925
O O2 0.862882 0.490854 0.888927
O O3 0.873713 0.481077 0.714903
O O4 0.876849 0.292414 0.811890
O O5 0.750000 0.301784 0.222541
O O6 0.652285 0.420629 0.124969
O O7 0.626072 0.199519 0.156823
O O8 0.617177 0.348291 0.283206
O O9 0.250000 0.402694 0.120934
O O10 0.120217 0.384094 0.207461
O O11 0.118133 0.395113 0.035451
O O12 0.058051 0.819267 0.386724
O O13 0.000000 0.000000 0.464126
O O14 0.250000 0.057660 0.956594
O O15 0.160521 0.914202 0.874654
O O16 0.101416 0.114742 0.942375
O O17 0.134579 0.959235 0.043888
O O18 0.250000 0.925778 0.153154
O O19 0.479379 0.865149 0.838557
#
# Coordination Sequence:
#
# PCOD8184296 Si02
#       8
#     8   8   8   8   8   8   8   8
#     4  11  23  44  69  95 135 183 230 281 337 405
#     4  10  21  41  69  98 129 176 229 279 339 405
#     4  11  26  45  71 101 132 180 233 282 340 404
#     4  12  27  46  65 103 143 181 226 280 344 417
#     4  11  24  43  69 100 132 175 232 285 337 407
#     4   9  21  40  67 100 130 169 226 282 331 390
#     4  12  25  44  68  96 138 183 221 281 350 409
#     4  12  26  45  65 100 141 178 227 283 352 407
#
# _framework density 21.002683999999999
#
# number of rings (size 3 to 8) (size 9 to 14) (size 15 to 20)
#    0.000    1.000    3.750    2.250    5.250    1.500 
#    0.000    2.500    0.000    0.000    0.000    0.000 
#    0.000    0.000    0.000    0.000    0.000    0.000 
#
# Total GULP energy -396885.086692 kJ/mol
# GULP energy per Si atom -12402.658959 kJ/mol
# Density = 2.095488 g / cm^3
# Si number density = 21.002684 Si / 1000 Ang^3
#
#
#
# Elastic Constant Matrix: (Units=GPa)
#
#
# Indices 1 2 3 4 5 6 
#
# 1 93.1981 14.0345 23.7358 0.0000 0.0000 0.0000
# 2 14.0345 76.9110 7.2204 0.0000 0.0000 0.0000
# 3 23.7358 7.2204 110.5878 0.0000 0.0000 0.0000
# 4 0.0000 0.0000 0.0000 29.7736 0.0000 0.0000
# 5 0.0000 0.0000 0.0000 0.0000 8.4112 0.0000
# 6 0.0000 0.0000 0.0000 0.0000 0.0000 34.3340
#
#
#
# Elastic Compliance Matrix: (Units=1/GPa)
#
#
# Indices 1 2 3 4 5 6 
#
# 1 0.011619 -0.001898 -0.002370 0.000000 0.000000 0.000000
# 2 -0.001898 0.013392 -0.000467 0.000000 0.000000 0.000000
# 3 -0.002370 -0.000467 0.009582 0.000000 0.000000 0.000000
# 4 0.000000 0.000000 0.000000 0.033587 0.000000 0.000000
# 5 0.000000 0.000000 0.000000 0.000000 0.118889 0.000000
# 6 0.000000 0.000000 0.000000 0.000000 0.000000 0.029126
#
#
# Mechanical properties :
#
#
# Convention : Reuss Voigt Hill
#
# Bulk Modulus (GPa) = 39.80324 41.18649 40.49487
# Shear Modulus (GPa) = 21.36397 30.21751 25.79074
#
# Velocity S-wave (km/s) = 3.19282 3.79719 3.50805
# Velocity P-wave (km/s) = 5.70831 6.23519 5.97756
#
# Compressibility (1/GPa) = 0.02512358
#
# Stress axis : x y z
#
# Youngs Moduli (GPa) = 86.06443 74.67037 104.36504
#
# Poissons Ratio (x) = 0.14171 0.24734
# Poissons Ratio (y) = 0.16333 0.04875
# Poissons Ratio (z) = 0.20397 0.03488
#
# Static dielectric constant tensor:
#      x y z
#    x 3.792350 0.000000 0.000000 
#    y 0.000000 4.024740 0.000000 
#    z 0.000000 0.000000 3.810110 
# 
# 
# High freq. dielectric constant tensor:
#      x y z
#    x 1.818310 0.000000 0.000000 
#    y 0.000000 1.835340 0.000000 
#    z 0.000000 0.000000 1.826750 
# 
# From -- ./inp_files/17843.got.cif
#   From: 2010.03.12/outbox.cif.g09.slc.cpg/sg40_9_cif.got.tgz:17843.got - 2010.04.14 01:38:03.
