data_PCOD8184668
_publ_section_title
;
Structure prediction by ZEFSAII (Michael W. Deem and Ramdas Pophale) SiO2 
 PCOD8184668
Probable space group: A M A 2
;
_chemical_formula_sum "Si O2"
_cell_formula_units_Z 44
_cell_length_a 9.248045
_cell_length_b 23.344232
_cell_length_c 9.472019
_cell_angle_alpha 90.000000
_cell_angle_beta 90.000000
_cell_angle_gamma 90.000000
_cell_volume 2044.900050
_symmetry_space_group_name_H-M "A M A 2"
_symmetry_group_IT_number 40
_symmetry_cell_setting 'orthorhombic'
loop_
_space_group_symop_operation_xyz
x,y,z
-x,-y,z
1/2-x,y,z
1/2+x,-y,z
x,1/2+y,1/2+z
-x,1/2-y,1/2+z
1/2-x,1/2+y,1/2+z
1/2+x,1/2-y,1/2+z
loop_
_atom_site_type_symbol
_atom_site_label
_atom_site_fract_x
_atom_site_fract_y
_atom_site_fract_z
Si Si1 0.000000 0.500000 0.265000
Si Si2 0.914950 0.795252 0.633201
Si Si3 0.915027 0.206604 0.886730
Si Si4 0.908428 0.097371 0.562506
Si Si5 0.583520 0.057644 0.247417
Si Si6 0.414888 0.596630 0.477762
O O1 0.092207 0.460575 0.157344
O O2 0.086210 0.542040 0.371701
O O3 0.750000 0.797030 0.686988
O O4 0.931541 0.756388 0.497725
O O5 0.022430 0.765178 0.744382
O O6 0.964137 0.860386 0.607039
O O7 0.750000 0.185838 0.873099
O O8 0.016443 0.151480 0.903570
O O9 0.750000 0.125250 0.586572
O O10 0.929407 0.089371 0.395770
O O11 0.750000 0.046537 0.205314
O O12 0.508742 0.090874 0.119525
O O13 0.500000 0.000000 0.270082
O O14 0.250000 0.608926 0.520836
#
# Coordination Sequence:
#
# PCOD8184668 Si02
#       6
#     4   8   8   8   8   8
#     4  12  24  42  70 108 138 182 222 286 340 412
#     4  11  26  46  70 101 134 177 230 284 342 410
#     4  11  26  47  70 100 136 178 228 286 343 408
#     4  11  25  44  69  99 137 181 225 282 344 408
#     4  11  24  42  64  95 133 177 221 270 331 400
#     4  12  26  43  69 101 137 182 228 283 342 413
#
# _framework density 21.516943000000001
#
# number of rings (size 3 to 8) (size 9 to 14) (size 15 to 20)
#    0.000    0.727    3.636    2.727    2.545    6.545 
#    0.000    0.000    0.000    0.000    0.000    0.000 
#    0.000    0.000    0.000    0.000    0.000    0.000 
#
# Total GULP energy -272669.356145 kJ/mol
# GULP energy per Si atom -12394.061643 kJ/mol
# Density = 2.146797 g / cm^3
# Si number density = 21.516943 Si / 1000 Ang^3
#
#
#
# Elastic Constant Matrix: (Units=GPa)
#
#
# Indices 1 2 3 4 5 6 
#
# 1 172.1242 51.4664 65.1836 0.0000 0.0000 0.0000
# 2 51.4664 90.5279 28.2440 0.0000 0.0000 0.0000
# 3 65.1836 28.2440 132.1326 0.0000 0.0000 0.0000
# 4 0.0000 0.0000 0.0000 28.3181 0.0000 0.0000
# 5 0.0000 0.0000 0.0000 0.0000 33.8993 0.0000
# 6 0.0000 0.0000 0.0000 0.0000 0.0000 20.9617
#
#
#
# Elastic Compliance Matrix: (Units=1/GPa)
#
#
# Indices 1 2 3 4 5 6 
#
# 1 0.008111 -0.003603 -0.003231 0.000000 0.000000 0.000000
# 2 -0.003603 0.013436 -0.001095 0.000000 0.000000 0.000000
# 3 -0.003231 -0.001095 0.009396 0.000000 0.000000 0.000000
# 4 0.000000 0.000000 0.000000 0.035313 0.000000 0.000000
# 5 0.000000 0.000000 0.000000 0.000000 0.029499 0.000000
# 6 0.000000 0.000000 0.000000 0.000000 0.000000 0.047706
#
#
# Mechanical properties :
#
#
# Convention : Reuss Voigt Hill
#
# Bulk Modulus (GPa) = 66.28800 76.06364 71.17582
# Shear Modulus (GPa) = 30.42343 33.29520 31.85932
#
# Velocity S-wave (km/s) = 3.76430 3.93796 3.85211
# Velocity P-wave (km/s) = 7.05461 7.49026 7.27570
#
# Compressibility (1/GPa) = 0.01508569
#
# Stress axis : x y z
#
# Youngs Moduli (GPa) = 123.29456 74.42589 106.42771
#
# Poissons Ratio (x) = 0.26816 0.34387
# Poissons Ratio (y) = 0.44423 0.11650
# Poissons Ratio (z) = 0.39836 0.08147
#
# Static dielectric constant tensor:
#      x y z
#    x 3.980980 0.000000 0.000000 
#    y 0.000000 3.621660 0.000000 
#    z 0.000000 0.000000 4.226870 
# 
# 
# High freq. dielectric constant tensor:
#      x y z
#    x 1.854480 0.000000 0.000000 
#    y 0.000000 1.836820 0.000000 
#    z 0.000000 0.000000 1.872490 
# 
# From -- ./inp_files/10189.got.cif
#   From: 2010.03.12/outbox.cif.g09.slc.cpg/sg40_6_cif.got.tgz:10189.got - 2010.04.14 01:38:03.
