data_PCOD8184073
_publ_section_title
;
Structure prediction by ZEFSAII (Michael W. Deem and Ramdas Pophale) SiO2 
 PCOD8184073
Probable space group: A M A 2
;
_chemical_formula_sum "Si O2"
_cell_formula_units_Z 64
_cell_length_a 16.332194
_cell_length_b 12.748222
_cell_length_c 15.533057
_cell_angle_alpha 90.000000
_cell_angle_beta 90.000000
_cell_angle_gamma 90.000000
_cell_volume 3234.082420
_symmetry_space_group_name_H-M "A M A 2"
_symmetry_group_IT_number 40
_symmetry_cell_setting 'orthorhombic'
loop_
_space_group_symop_operation_xyz
x,y,z
-x,-y,z
1/2-x,y,z
1/2+x,-y,z
x,1/2+y,1/2+z
-x,1/2-y,1/2+z
1/2-x,1/2+y,1/2+z
1/2+x,1/2-y,1/2+z
loop_
_atom_site_type_symbol
_atom_site_label
_atom_site_fract_x
_atom_site_fract_y
_atom_site_fract_z
Si Si1 0.592821 0.180697 0.838480
Si Si2 0.342284 0.272256 0.510320
Si Si3 0.917491 0.293824 0.400746
Si Si4 0.654957 0.113066 0.502716
Si Si5 0.430232 0.299429 0.149811
Si Si6 0.087893 0.573413 0.105811
Si Si7 0.996024 0.116813 0.062286
Si Si8 0.343707 0.031794 0.793226
O O1 0.648401 0.245614 0.906659
O O2 0.499724 0.218450 0.846168
O O3 0.616077 0.204781 0.740281
O O4 0.603497 0.054261 0.846254
O O5 0.250000 0.303971 0.533065
O O6 0.368601 0.176076 0.569004
O O7 0.403274 0.368056 0.529552
O O8 0.881953 0.177261 0.420970
O O9 0.854025 0.356643 0.340755
O O10 0.939711 0.359742 0.486109
O O11 0.750000 0.085463 0.486841
O O12 0.644289 0.193360 0.582543
O O13 0.602811 0.008948 0.526918
O O14 0.492079 0.400150 0.129844
O O15 0.483423 0.194124 0.140791
O O16 0.131776 0.535337 0.192731
O O17 0.000000 0.000000 0.097656
O O18 0.250000 0.997185 0.797877
#
# Coordination Sequence:
#
# PCOD8184073 Si02
#       8
#     8   8   8   8   8   8   8   8
#     4  11  21  36  55  86 117 154 202 245 300 356
#     4  10  21  37  59  86 119 153 196 250 303 357
#     4  10  21  36  54  82 122 157 190 241 302 363
#     4  11  22  37  58  88 122 154 199 251 305 356
#     4  10  21  36  59  85 114 156 200 251 297 361
#     4  11  22  39  63  89 119 159 202 247 303 369
#     4   9  19  37  57  79 111 153 198 239 299 365
#     4  12  22  34  61  93 119 152 200 256 304 347
#
# _framework density 19.789228999999999
#
# number of rings (size 3 to 8) (size 9 to 14) (size 15 to 20)
#    0.000    1.500    2.500    4.875    0.000    0.500 
#    0.000    3.750    0.000    0.000    0.000    0.000 
#    0.000    0.000    0.000    0.000    0.000    0.000 
#
# Total GULP energy -396513.352480 kJ/mol
# GULP energy per Si atom -12391.042265 kJ/mol
# Density = 1.974419 g / cm^3
# Si number density = 19.789229 Si / 1000 Ang^3
#
#
#
# Elastic Constant Matrix: (Units=GPa)
#
#
# Indices 1 2 3 4 5 6 
#
# 1 98.3907 23.6210 14.4883 0.0000 0.0000 0.0000
# 2 23.6210 78.6336 15.3222 0.0000 0.0000 0.0000
# 3 14.4883 15.3222 58.0527 0.0000 0.0000 0.0000
# 4 0.0000 0.0000 0.0000 38.4264 0.0000 0.0000
# 5 0.0000 0.0000 0.0000 0.0000 23.4514 0.0000
# 6 0.0000 0.0000 0.0000 0.0000 0.0000 17.5763
#
#
#
# Elastic Compliance Matrix: (Units=1/GPa)
#
#
# Indices 1 2 3 4 5 6 
#
# 1 0.011171 -0.002965 -0.002005 0.000000 0.000000 0.000000
# 2 -0.002965 0.014194 -0.003006 0.000000 0.000000 0.000000
# 3 -0.002005 -0.003006 0.018520 0.000000 0.000000 0.000000
# 4 0.000000 0.000000 0.000000 0.026024 0.000000 0.000000
# 5 0.000000 0.000000 0.000000 0.000000 0.042641 0.000000
# 6 0.000000 0.000000 0.000000 0.000000 0.000000 0.056895
#
#
# Mechanical properties :
#
#
# Convention : Reuss Voigt Hill
#
# Bulk Modulus (GPa) = 35.80246 37.99331 36.89789
# Shear Modulus (GPa) = 25.67961 28.00053 26.84007
#
# Velocity S-wave (km/s) = 3.60621 3.76565 3.68679
# Velocity P-wave (km/s) = 5.95574 6.17636 6.06705
#
# Compressibility (1/GPa) = 0.02793104
#
# Stress axis : x y z
#
# Youngs Moduli (GPa) = 89.52044 70.45423 53.99663
#
# Poissons Ratio (x) = 0.20888 0.10828
# Poissons Ratio (y) = 0.26541 0.16233
# Poissons Ratio (z) = 0.17952 0.21180
#
# Static dielectric constant tensor:
#      x y z
#    x 3.590840 0.000000 0.000000 
#    y 0.000000 3.609360 0.000000 
#    z 0.000000 0.000000 3.595920 
# 
# 
# High freq. dielectric constant tensor:
#      x y z
#    x 1.769500 0.000000 0.000000 
#    y 0.000000 1.759240 0.000000 
#    z 0.000000 0.000000 1.762190 
# 
# From -- ./inp_files/21203.got.cif
#   From: 2010.03.12/outbox.cif.g09.slc.cpg/sg40_11_cif.got.tgz:21203.got - 2010.04.14 01:38:03.
