data_PCOD8184076
_publ_section_title
;
Structure prediction by ZEFSAII (Michael W. Deem and Ramdas Pophale) SiO2 
 PCOD8184076
Probable space group: A M A 2
;
_chemical_formula_sum "Si O2"
_cell_formula_units_Z 40
_cell_length_a 8.918250
_cell_length_b 28.929017
_cell_length_c 7.382393
_cell_angle_alpha 90.000000
_cell_angle_beta 90.000000
_cell_angle_gamma 90.000000
_cell_volume 1904.629384
_symmetry_space_group_name_H-M "A M A 2"
_symmetry_group_IT_number 40
_symmetry_cell_setting 'orthorhombic'
loop_
_space_group_symop_operation_xyz
x,y,z
-x,-y,z
1/2-x,y,z
1/2+x,-y,z
x,1/2+y,1/2+z
-x,1/2-y,1/2+z
1/2-x,1/2+y,1/2+z
1/2+x,1/2-y,1/2+z
loop_
_atom_site_type_symbol
_atom_site_label
_atom_site_fract_x
_atom_site_fract_y
_atom_site_fract_z
Si Si1 0.086014 0.806603 0.884160
Si Si2 0.072701 0.952184 0.109282
Si Si3 0.072790 0.603793 0.308359
Si Si4 0.574060 0.617918 0.925557
Si Si5 0.912536 0.717698 0.971228
O O1 0.250000 0.818041 0.969326
O O2 0.104960 0.799490 0.673380
O O3 0.974404 0.849255 0.914195
O O4 0.029323 0.759198 0.972273
O O5 0.250000 0.957428 0.088684
O O6 0.028172 0.914528 0.260009
O O7 0.000000 0.000000 0.173538
O O8 0.002506 0.938457 0.915840
O O9 0.250000 0.598726 0.313600
O O10 0.018419 0.602299 0.101520
O O11 0.750000 0.614406 0.972763
O O12 0.533887 0.671192 0.865064
O O13 0.750000 0.734626 0.896962
#
# Coordination Sequence:
#
# PCOD8184076 Si02
#       5
#     8   8   8   8   8
#     4  10  21  36  55  83 119 160 202 248 300 360
#     4  11  24  43  67  95 124 161 207 259 313 370
#     4  11  23  40  63  91 125 164 206 255 307 369
#     4   9  21  42  64  88 123 163 205 256 311 366
#     4   9  19  35  54  83 116 154 202 248 300 360
#
# _framework density 21.001462
#
# number of rings (size 3 to 8) (size 9 to 14) (size 15 to 20)
#    0.000    2.000    0.000    4.200    2.800    6.400 
#    0.000    2.000    0.000    0.000    0.000    0.000 
#    0.000    0.000    0.000    0.000    0.000    0.000 
#
# Total GULP energy -247971.254308 kJ/mol
# GULP energy per Si atom -12398.562715 kJ/mol
# Density = 2.095366 g / cm^3
# Si number density = 21.001462 Si / 1000 Ang^3
#
#
#
# Elastic Constant Matrix: (Units=GPa)
#
#
# Indices 1 2 3 4 5 6 
#
# 1 127.9167 38.8491 33.1805 0.0000 0.0000 0.0000
# 2 38.8491 90.6472 17.0392 0.0000 0.0000 0.0000
# 3 33.1805 17.0392 38.5987 0.0000 0.0000 0.0000
# 4 0.0000 0.0000 0.0000 35.0272 0.0000 0.0000
# 5 0.0000 0.0000 0.0000 0.0000 28.0931 0.0000
# 6 0.0000 0.0000 0.0000 0.0000 0.0000 39.9375
#
#
#
# Elastic Compliance Matrix: (Units=1/GPa)
#
#
# Indices 1 2 3 4 5 6 
#
# 1 0.010829 -0.003153 -0.007917 0.000000 0.000000 0.000000
# 2 -0.003153 0.012948 -0.003006 0.000000 0.000000 0.000000
# 3 -0.007917 -0.003006 0.034040 0.000000 0.000000 0.000000
# 4 0.000000 0.000000 0.000000 0.028549 0.000000 0.000000
# 5 0.000000 0.000000 0.000000 0.000000 0.035596 0.000000
# 6 0.000000 0.000000 0.000000 0.000000 0.000000 0.025039
#
#
# Mechanical properties :
#
#
# Convention : Reuss Voigt Hill
#
# Bulk Modulus (GPa) = 33.70844 48.36667 41.03755
# Shear Modulus (GPa) = 27.02118 31.81781 29.41950
#
# Velocity S-wave (km/s) = 3.59086 3.89656 3.74683
# Velocity P-wave (km/s) = 5.76868 6.58213 6.18878
#
# Compressibility (1/GPa) = 0.02966616
#
# Stress axis : x y z
#
# Youngs Moduli (GPa) = 92.34752 77.23244 29.37723
#
# Poissons Ratio (x) = 0.24349 0.23258
# Poissons Ratio (y) = 0.29115 0.08830
# Poissons Ratio (z) = 0.73110 0.23213
#
# Static dielectric constant tensor:
#      x y z
#    x 3.674380 0.000000 0.000000 
#    y 0.000000 4.228680 0.000000 
#    z 0.000000 0.000000 3.698030 
# 
# 
# High freq. dielectric constant tensor:
#      x y z
#    x 1.822200 0.000000 0.000000 
#    y 0.000000 1.825050 0.000000 
#    z 0.000000 0.000000 1.819240 
# 
# From -- ./inp_files/4247.got.cif
#   From: 2010.03.12/outbox.cif.g09.slc.cpg/sg40_3_cif.got.tgz:4247.got - 2010.04.14 01:38:03.
