data_PCOD8184411
_publ_section_title
;
Structure prediction by ZEFSAII (Michael W. Deem and Ramdas Pophale) SiO2 
 PCOD8184411
Probable space group: A M A 2
;
_chemical_formula_sum "Si O2"
_cell_formula_units_Z 28
_cell_length_a 14.216030
_cell_length_b 9.938776
_cell_length_c 9.087072
_cell_angle_alpha 90.000000
_cell_angle_beta 90.000000
_cell_angle_gamma 90.000000
_cell_volume 1283.911837
_symmetry_space_group_name_H-M "A M A 2"
_symmetry_group_IT_number 40
_symmetry_cell_setting 'orthorhombic'
loop_
_space_group_symop_operation_xyz
x,y,z
-x,-y,z
1/2-x,y,z
1/2+x,-y,z
x,1/2+y,1/2+z
-x,1/2-y,1/2+z
1/2-x,1/2+y,1/2+z
1/2+x,1/2-y,1/2+z
loop_
_atom_site_type_symbol
_atom_site_label
_atom_site_fract_x
_atom_site_fract_y
_atom_site_fract_z
Si Si1 0.750000 0.378411 0.129761
Si Si2 0.552821 0.636712 0.392138
Si Si3 0.750000 0.221366 0.850545
Si Si4 0.094394 0.788800 0.222447
Si Si5 0.750000 0.520974 0.845201
O O1 0.845916 0.352732 0.220886
O O2 0.750000 0.242858 0.026613
O O3 0.750000 0.510773 0.026088
O O4 0.500000 0.500000 0.355337
O O5 0.656566 0.634827 0.313484
O O6 0.496240 0.761973 0.323022
O O7 0.558159 0.661658 0.565236
O O8 0.750000 0.369975 0.774854
O O9 0.155355 0.905675 0.297705
#
# Coordination Sequence:
#
# PCOD8184411 Si02
#       5
#     4   8   4   8   4
#     4   7  17  39  62  92 131 160 217 264 301 388
#     4  11  25  41  64  95 135 164 219 270 318 392
#     4   8  20  42  59  94 126 169 211 269 310 376
#     4  10  22  41  65  98 126 174 214 266 325 380
#     4   9  19  41  71  90 131 173 218 259 317 394
#
# _framework density 21.808350999999998
#
# number of rings (size 3 to 8) (size 9 to 14) (size 15 to 20)
#    0.857    1.714    0.000    0.857    4.000    4.571 
#    0.000    2.857    0.000    0.000    0.000    0.000 
#    0.000    0.000    0.000    0.000    0.000    0.000 
#
# Total GULP energy -173453.101561 kJ/mol
# GULP energy per Si atom -12389.507254 kJ/mol
# Density = 2.175871 g / cm^3
# Si number density = 21.808351 Si / 1000 Ang^3
#
#
#
# Elastic Constant Matrix: (Units=GPa)
#
#
# Indices 1 2 3 4 5 6 
#
# 1 190.7221 81.6329 43.5400 0.0000 0.0000 0.0000
# 2 81.6329 120.0429 38.4124 0.0000 0.0000 0.0000
# 3 43.5400 38.4124 63.0674 0.0000 0.0000 0.0000
# 4 0.0000 0.0000 0.0000 31.2429 0.0000 0.0000
# 5 0.0000 0.0000 0.0000 0.0000 28.6082 0.0000
# 6 0.0000 0.0000 0.0000 0.0000 0.0000 23.2601
#
#
#
# Elastic Compliance Matrix: (Units=1/GPa)
#
#
# Indices 1 2 3 4 5 6 
#
# 1 0.007738 -0.004413 -0.002654 0.000000 0.000000 0.000000
# 2 -0.004413 0.012863 -0.004788 0.000000 0.000000 0.000000
# 3 -0.002654 -0.004788 0.020605 0.000000 0.000000 0.000000
# 4 0.000000 0.000000 0.000000 0.032007 0.000000 0.000000
# 5 0.000000 0.000000 0.000000 0.000000 0.034955 0.000000
# 6 0.000000 0.000000 0.000000 0.000000 0.000000 0.042992
#
#
# Mechanical properties :
#
#
# Convention : Reuss Voigt Hill
#
# Bulk Modulus (GPa) = 57.15759 77.88924 67.52342
# Shear Modulus (GPa) = 27.66972 30.63872 29.15422
#
# Velocity S-wave (km/s) = 3.56584 3.75228 3.66025
# Velocity P-wave (km/s) = 6.57416 7.38686 6.99232
#
# Compressibility (1/GPa) = 0.01749549
#
# Stress axis : x y z
#
# Youngs Moduli (GPa) = 129.23398 77.74074 48.53196
#
# Poissons Ratio (x) = 0.34304 0.12883
# Poissons Ratio (y) = 0.57026 0.23238
# Poissons Ratio (z) = 0.34304 0.37224
#
# Static dielectric constant tensor:
#      x y z
#    x 4.252550 0.000000 0.000000 
#    y 0.000000 3.584270 0.000000 
#    z 0.000000 0.000000 3.613910 
# 
# 
# High freq. dielectric constant tensor:
#      x y z
#    x 1.877160 0.000000 0.000000 
#    y 0.000000 1.843420 0.000000 
#    z 0.000000 0.000000 1.836050 
# 
# From -- ./inp_files/10858.got.cif
#   From: 2010.03.12/outbox.cif.g09.slc.cpg/sg40_6_cif.got.tgz:10858.got - 2010.04.14 01:38:03.
