data_PCOD8184551
_publ_section_title
;
Structure prediction by ZEFSAII (Michael W. Deem and Ramdas Pophale) SiO2 
 PCOD8184551
Probable space group: A M A 2
;
_chemical_formula_sum "Si O2"
_cell_formula_units_Z 48
_cell_length_a 17.641987
_cell_length_b 8.629831
_cell_length_c 14.858153
_cell_angle_alpha 90.000000
_cell_angle_beta 90.000000
_cell_angle_gamma 90.000000
_cell_volume 2262.114663
_symmetry_space_group_name_H-M "A M A 2"
_symmetry_group_IT_number 40
_symmetry_cell_setting 'orthorhombic'
loop_
_space_group_symop_operation_xyz
x,y,z
-x,-y,z
1/2-x,y,z
1/2+x,-y,z
x,1/2+y,1/2+z
-x,1/2-y,1/2+z
1/2-x,1/2+y,1/2+z
1/2+x,1/2-y,1/2+z
loop_
_atom_site_type_symbol
_atom_site_label
_atom_site_fract_x
_atom_site_fract_y
_atom_site_fract_z
Si Si1 0.899429 0.631310 0.162840
Si Si2 0.837418 0.125410 0.015539
Si Si3 0.568347 0.284508 0.164908
Si Si4 0.922288 0.090369 0.343375
Si Si5 0.337443 0.711786 0.831977
Si Si6 0.664360 0.269707 0.491914
O O1 0.887221 0.446748 0.162453
O O2 0.885375 0.684252 0.264323
O O3 0.982882 0.685365 0.133146
O O4 0.840723 0.709872 0.094391
O O5 0.750000 0.145317 0.045152
O O6 0.858006 0.238474 0.933312
O O7 0.854349 0.950700 0.986000
O O8 0.891518 0.164601 0.098489
O O9 0.568388 0.213586 0.264266
O O10 0.896987 0.180108 0.432525
O O11 0.857578 0.967541 0.317490
O O12 0.000000 0.000000 0.363824
O O13 0.250000 0.739001 0.810886
O O14 0.750000 0.238325 0.457434
#
# Coordination Sequence:
#
# PCOD8184551 Si02
#       6
#     8   8   8   8   8   8
#     4  11  24  42  67  96 133 173 216 271 321 388
#     4  10  24  44  69  98 131 173 218 269 327 386
#     4  11  25  42  64  97 133 171 222 263 327 383
#     4  12  25  43  65  98 130 175 216 267 321 386
#     4  11  23  43  68  96 130 170 216 266 324 383
#     4  11  25  44  67  98 131 171 218 268 328 386
#
# _framework density 21.219083000000001
#
# number of rings (size 3 to 8) (size 9 to 14) (size 15 to 20)
#    0.000    1.000    1.667    4.000    4.667    5.333 
#    0.000    0.000    0.000    0.000    0.000    0.000 
#    0.000    0.000    0.000    0.000    0.000    0.000 
#
# Total GULP energy -297772.521743 kJ/mol
# GULP energy per Si atom -12407.188406 kJ/mol
# Density = 2.117079 g / cm^3
# Si number density = 21.219083 Si / 1000 Ang^3
#
#
#
# Elastic Constant Matrix: (Units=GPa)
#
#
# Indices 1 2 3 4 5 6 
#
# 1 84.2186 43.9512 42.4784 0.0000 0.0000 0.0000
# 2 43.9512 110.7937 26.2750 0.0000 0.0000 0.0000
# 3 42.4784 26.2750 89.4800 0.0000 0.0000 0.0000
# 4 0.0000 0.0000 0.0000 42.9092 0.0000 0.0000
# 5 0.0000 0.0000 0.0000 0.0000 38.3976 0.0000
# 6 0.0000 0.0000 0.0000 0.0000 0.0000 34.2542
#
#
#
# Elastic Compliance Matrix: (Units=1/GPa)
#
#
# Indices 1 2 3 4 5 6 
#
# 1 0.018369 -0.005609 -0.007073 0.000000 0.000000 0.000000
# 2 -0.005609 0.011414 -0.000689 0.000000 0.000000 0.000000
# 3 -0.007073 -0.000689 0.014736 0.000000 0.000000 0.000000
# 4 0.000000 0.000000 0.000000 0.023305 0.000000 0.000000
# 5 0.000000 0.000000 0.000000 0.000000 0.026043 0.000000
# 6 0.000000 0.000000 0.000000 0.000000 0.000000 0.029194
#
#
# Mechanical properties :
#
#
# Convention : Reuss Voigt Hill
#
# Bulk Modulus (GPa) = 56.25424 56.65571 56.45498
# Shear Modulus (GPa) = 32.10721 34.56471 33.33596
#
# Velocity S-wave (km/s) = 3.89412 4.04040 3.96793
# Velocity P-wave (km/s) = 6.84014 6.96597 6.90334
#
# Compressibility (1/GPa) = 0.01777644
#
# Stress axis : x y z
#
# Youngs Moduli (GPa) = 54.44043 87.60904 67.86264
#
# Poissons Ratio (x) = 0.49143 0.47999
# Poissons Ratio (y) = 0.30538 0.04674
# Poissons Ratio (z) = 0.38505 0.06035
#
# Static dielectric constant tensor:
#      x y z
#    x 3.812570 0.000000 0.000000 
#    y 0.000000 3.972860 0.000000 
#    z 0.000000 0.000000 3.710890 
# 
# 
# High freq. dielectric constant tensor:
#      x y z
#    x 1.836980 0.000000 0.000000 
#    y 0.000000 1.847630 0.000000 
#    z 0.000000 0.000000 1.834810 
# 
# From -- ./inp_files/17617.got.cif
#   From: 2010.03.12/outbox.cif.g09.slc.cpg/sg40_9_cif.got.tgz:17617.got - 2010.04.14 01:38:03.
