data_PCOD8184121
_publ_section_title
;
Structure prediction by ZEFSAII (Michael W. Deem and Ramdas Pophale) SiO2 
 PCOD8184121
Probable space group: A M A 2
;
_chemical_formula_sum "Si O2"
_cell_formula_units_Z 64
_cell_length_a 8.925308
_cell_length_b 24.080455
_cell_length_c 14.430422
_cell_angle_alpha 90.000000
_cell_angle_beta 90.000000
_cell_angle_gamma 90.000000
_cell_volume 3101.465341
_symmetry_space_group_name_H-M "A M A 2"
_symmetry_group_IT_number 40
_symmetry_cell_setting 'orthorhombic'
loop_
_space_group_symop_operation_xyz
x,y,z
-x,-y,z
1/2-x,y,z
1/2+x,-y,z
x,1/2+y,1/2+z
-x,1/2-y,1/2+z
1/2-x,1/2+y,1/2+z
1/2+x,1/2-y,1/2+z
loop_
_atom_site_type_symbol
_atom_site_label
_atom_site_fract_x
_atom_site_fract_y
_atom_site_fract_z
Si Si1 0.576707 0.558399 0.940320
Si Si2 0.427401 0.614800 0.317702
Si Si3 0.415824 0.737291 0.326451
Si Si4 0.073488 0.443667 0.481569
Si Si5 0.414665 0.227872 0.606851
Si Si6 0.420905 0.379450 0.124893
Si Si7 0.925994 0.652453 0.621493
Si Si8 0.573407 0.847106 0.319147
O O1 0.500000 0.500000 0.919563
O O2 0.750000 0.554919 0.911851
O O3 0.498960 0.604959 0.879391
O O4 0.558524 0.572938 0.048603
O O5 0.250000 0.606919 0.322542
O O6 0.474953 0.676102 0.355091
O O7 0.508658 0.569326 0.380166
O O8 0.476285 0.605123 0.211810
O O9 0.250000 0.748508 0.367521
O O10 0.407023 0.736807 0.216283
O O11 0.524840 0.786659 0.360266
O O12 0.250000 0.450757 0.474241
O O13 0.025479 0.395987 0.552578
O O14 0.000000 0.500000 0.519014
O O15 0.250000 0.210678 0.569235
O O16 0.530853 0.179760 0.579745
O O17 0.463501 0.288819 0.569257
O O18 0.250000 0.374273 0.157999
O O19 0.750000 0.650011 0.646956
O O20 0.021776 0.645120 0.713944
O O21 0.750000 0.851780 0.325423
#
# Coordination Sequence:
#
# PCOD8184121 Si02
#       8
#     8   8   8   8   8   8   8   8
#     4  11  25  43  60  81 112 150 195 243 286 336
#     4  10  21  38  61  87 118 154 189 234 288 338
#     4   8  16  33  56  84 118 152 186 228 281 338
#     4  11  24  41  60  83 113 151 197 243 284 336
#     4   8  15  31  56  85 115 147 184 228 283 342
#     4  10  21  37  59  87 117 149 186 233 287 342
#     4   9  20  39  60  83 116 154 189 234 287 336
#     4  11  22  36  60  90 118 151 189 233 285 342
#
# _framework density 20.635408000000002
#
# number of rings (size 3 to 8) (size 9 to 14) (size 15 to 20)
#    0.000    2.250    0.000    4.125    0.000   10.000 
#    0.000    5.000    0.000    0.000    0.000    0.000 
#    0.000    0.000    0.000    0.000    0.000    0.000 
#
# Total GULP energy -396781.931230 kJ/mol
# GULP energy per Si atom -12399.435351 kJ/mol
# Density = 2.058844 g / cm^3
# Si number density = 20.635408 Si / 1000 Ang^3
#
#
#
# Elastic Constant Matrix: (Units=GPa)
#
#
# Indices 1 2 3 4 5 6 
#
# 1 104.9354 25.7995 20.4196 0.0000 0.0000 0.0000
# 2 25.7995 77.1714 5.5333 0.0000 0.0000 0.0000
# 3 20.4196 5.5333 31.7505 0.0000 0.0000 0.0000
# 4 0.0000 0.0000 0.0000 32.9916 0.0000 0.0000
# 5 0.0000 0.0000 0.0000 0.0000 18.7912 0.0000
# 6 0.0000 0.0000 0.0000 0.0000 0.0000 38.7505
#
#
#
# Elastic Compliance Matrix: (Units=1/GPa)
#
#
# Indices 1 2 3 4 5 6 
#
# 1 0.011722 -0.003421 -0.006942 0.000000 0.000000 0.000000
# 2 -0.003421 0.014121 -0.000261 0.000000 0.000000 0.000000
# 3 -0.006942 -0.000261 0.036006 0.000000 0.000000 0.000000
# 4 0.000000 0.000000 0.000000 0.030311 0.000000 0.000000
# 5 0.000000 0.000000 0.000000 0.000000 0.053216 0.000000
# 6 0.000000 0.000000 0.000000 0.000000 0.000000 0.025806
#
#
# Mechanical properties :
#
#
# Convention : Reuss Voigt Hill
#
# Bulk Modulus (GPa) = 24.63053 35.26244 29.94649
# Shear Modulus (GPa) = 24.27624 28.91366 26.59495
#
# Velocity S-wave (km/s) = 3.43364 3.74728 3.59388
# Velocity P-wave (km/s) = 5.26135 5.98734 5.63605
#
# Compressibility (1/GPa) = 0.04060001
#
# Stress axis : x y z
#
# Youngs Moduli (GPa) = 85.31197 70.81888 27.77323
#
# Poissons Ratio (x) = 0.24227 0.19281
# Poissons Ratio (y) = 0.29185 0.00724
# Poissons Ratio (z) = 0.59227 0.01846
#
# Static dielectric constant tensor:
#      x y z
#    x 3.741180 0.000000 0.000000 
#    y 0.000000 4.116010 0.000000 
#    z 0.000000 0.000000 3.493810 
# 
# 
# High freq. dielectric constant tensor:
#      x y z
#    x 1.809140 0.000000 0.000000 
#    y 0.000000 1.814680 0.000000 
#    z 0.000000 0.000000 1.792230 
# 
# From -- ./inp_files/15639.got.cif
#   From: 2010.03.12/outbox.cif.g09.slc.cpg/sg40_8_cif.got.tgz:15639.got - 2010.04.14 01:38:03.
