data_PCOD8184938
_publ_section_title
;
Structure prediction by ZEFSAII (Michael W. Deem and Ramdas Pophale) SiO2 
 PCOD8184938
Probable space group: A B A 2
;
_chemical_formula_sum "Si O2"
_cell_formula_units_Z 48
_cell_length_a 9.520449
_cell_length_b 13.390858
_cell_length_c 17.313035
_cell_angle_alpha 90.000000
_cell_angle_beta 90.000000
_cell_angle_gamma 90.000000
_cell_volume 2207.186558
_symmetry_space_group_name_H-M "A B A 2"
_symmetry_group_IT_number 41
_symmetry_cell_setting 'orthorhombic'
loop_
_space_group_symop_operation_xyz
x,y,z
-x,-y,z
1/2-x,y,1/2+z
1/2+x,-y,1/2+z
x,1/2+y,1/2+z
-x,1/2-y,1/2+z
1/2-x,1/2+y,z
1/2+x,1/2-y,z
loop_
_atom_site_type_symbol
_atom_site_label
_atom_site_fract_x
_atom_site_fract_y
_atom_site_fract_z
Si Si1 0.146999 0.542108 0.573400
Si Si2 0.856604 0.049666 0.814129
Si Si3 0.526605 0.758565 0.529706
Si Si4 0.766107 0.875542 0.229185
Si Si5 0.737133 0.137415 0.470111
Si Si6 0.476029 0.288467 0.707839
O O1 0.111187 0.637866 0.521228
O O2 0.243795 0.572654 0.645218
O O3 0.226999 0.463003 0.520276
O O4 0.000000 0.500000 0.606905
O O5 0.793062 0.117768 0.880819
O O6 0.888275 0.116507 0.738480
O O7 0.746060 0.962634 0.792639
O O8 0.000000 0.000000 0.845151
O O9 0.367335 0.776504 0.502280
O O10 0.604277 0.678553 0.475169
O O11 0.532568 0.714939 0.615810
O O12 0.910231 0.814341 0.241704
O O13 0.636696 0.797365 0.235680
#
# Coordination Sequence:
#
# PCOD8184938 Si02
#       6
#     8   8   8   8   8   8
#     4   9  19  36  61  87 117 154 195 242 295 359
#     4  10  22  38  58  85 121 160 197 244 304 361
#     4  10  20  37  60  88 117 154 199 245 297 356
#     4  10  21  39  63  89 119 155 200 249 298 356
#     4  11  22  38  61  86 119 157 197 246 302 358
#     4  10  21  38  63  91 120 158 202 250 299 356
#
# _framework density 21.747140000000002
#
# number of rings (size 3 to 8) (size 9 to 14) (size 15 to 20)
#    0.000    2.000    0.000    4.500    0.000    6.667 
#    0.000    2.500    0.000    8.000    0.000    0.000 
#    0.000    0.000    0.000    0.000    0.000    0.000 
#
# Total GULP energy -297627.831420 kJ/mol
# GULP energy per Si atom -12401.159642 kJ/mol
# Density = 2.169764 g / cm^3
# Si number density = 21.747140 Si / 1000 Ang^3
#
#
#
# Elastic Constant Matrix: (Units=GPa)
#
#
# Indices 1 2 3 4 5 6 
#
# 1 52.7114 33.5520 28.2439 0.0000 0.0000 0.0000
# 2 33.5520 87.3679 36.6273 0.0000 0.0000 0.0000
# 3 28.2439 36.6273 81.9199 0.0000 0.0000 0.0000
# 4 0.0000 0.0000 0.0000 30.0829 0.0000 0.0000
# 5 0.0000 0.0000 0.0000 0.0000 22.0475 0.0000
# 6 0.0000 0.0000 0.0000 0.0000 0.0000 39.0719
#
#
#
# Elastic Compliance Matrix: (Units=1/GPa)
#
#
# Indices 1 2 3 4 5 6 
#
# 1 0.027169 -0.008008 -0.005787 0.000000 0.000000 0.000000
# 2 -0.008008 0.016446 -0.004593 0.000000 0.000000 0.000000
# 3 -0.005787 -0.004593 0.016256 0.000000 0.000000 0.000000
# 4 0.000000 0.000000 0.000000 0.033241 0.000000 0.000000
# 5 0.000000 0.000000 0.000000 0.000000 0.045357 0.000000
# 6 0.000000 0.000000 0.000000 0.000000 0.000000 0.025594
#
#
# Mechanical properties :
#
#
# Convention : Reuss Voigt Hill
#
# Bulk Modulus (GPa) = 43.29599 46.53840 44.91719
# Shear Modulus (GPa) = 23.97667 26.47886 25.22776
#
# Velocity S-wave (km/s) = 3.32402 3.49317 3.40965
# Velocity P-wave (km/s) = 5.88933 6.14132 6.01665
#
# Compressibility (1/GPa) = 0.02309683
#
# Stress axis : x y z
#
# Youngs Moduli (GPa) = 36.80661 60.80355 61.51737
#
# Poissons Ratio (x) = 0.48690 0.35599
# Poissons Ratio (y) = 0.29474 0.28252
# Poissons Ratio (z) = 0.21299 0.27924
#
# Static dielectric constant tensor:
#      x y z
#    x 3.876890 0.000000 0.000000 
#    y 0.000000 4.114660 0.000000 
#    z 0.000000 0.000000 3.611490 
# 
# 
# High freq. dielectric constant tensor:
#      x y z
#    x 1.842480 0.000000 0.000000 
#    y 0.000000 1.864900 0.000000 
#    z 0.000000 0.000000 1.835610 
# 
# From -- ./inp_files/9970.got.cif
#   From: 2010.03.12/outbox.cif.g09.slc.cpg/sg41_5_cif.got.tgz:9970.got - 2010.04.14 01:55:53.
