data_PCOD8184789
_publ_section_title
;
Structure prediction by ZEFSAII (Michael W. Deem and Ramdas Pophale) SiO2 
 PCOD8184789
Probable space group: A B A 2
;
_chemical_formula_sum "Si O2"
_cell_formula_units_Z 60
_cell_length_a 11.778796
_cell_length_b 13.870618
_cell_length_c 17.766049
_cell_angle_alpha 90.000000
_cell_angle_beta 90.000000
_cell_angle_gamma 90.000000
_cell_volume 2902.602514
_symmetry_space_group_name_H-M "A B A 2"
_symmetry_group_IT_number 41
_symmetry_cell_setting 'orthorhombic'
loop_
_space_group_symop_operation_xyz
x,y,z
-x,-y,z
1/2-x,y,1/2+z
1/2+x,-y,1/2+z
x,1/2+y,1/2+z
-x,1/2-y,1/2+z
1/2-x,1/2+y,z
1/2+x,1/2-y,z
loop_
_atom_site_type_symbol
_atom_site_label
_atom_site_fract_x
_atom_site_fract_y
_atom_site_fract_z
Si Si1 0.000000 0.000000 0.657240
Si Si2 0.624645 0.786786 0.959650
Si Si3 0.871550 0.961460 0.343963
Si Si4 0.423067 0.837493 0.052230
Si Si5 0.780337 0.248016 0.111599
Si Si6 0.230304 0.907326 0.944375
Si Si7 0.271854 0.071435 0.198274
Si Si8 0.877483 0.040573 0.085594
O O1 0.000434 0.091378 0.601249
O O2 0.110629 0.011717 0.711310
O O3 0.627824 0.874906 0.902646
O O4 0.668930 0.691094 0.916654
O O5 0.497999 0.774353 0.994209
O O6 0.703549 0.804446 0.032247
O O7 0.818076 0.929338 0.265573
O O8 0.782270 0.041563 0.371957
O O9 0.000000 0.000000 0.332896
O O10 0.354543 0.773939 0.113111
O O11 0.331983 0.894520 0.003317
O O12 0.805780 0.317006 0.182180
O O13 0.860224 0.152167 0.113896
O O14 0.138753 0.966631 0.994632
O O15 0.215255 0.025961 0.124972
O O16 0.000000 0.000000 0.108082
#
# Coordination Sequence:
#
# PCOD8184789 Si02
#       8
#     4   8   8   8   8   8   8   8
#     4  12  20  42  64  92 128 170 218 270 328 398
#     4  10  20  39  68  98 123 171 217 274 320 393
#     4  12  25  46  65  91 135 184 220 264 336 411
#     4  10  18  38  70  95 123 160 217 276 323 388
#     4  10  23  38  67 104 126 165 223 272 329 381
#     4  10  22  40  67 100 129 165 225 269 331 392
#     4  12  25  40  66  95 134 177 219 269 336 399
#     4  10  22  42  66 101 134 166 217 282 325 383
#
# _framework density 20.671102999999999
#
# number of rings (size 3 to 8) (size 9 to 14) (size 15 to 20)
#    0.000    1.600    5.333    2.000    3.733    1.067 
#    1.200    1.333    0.000    0.000    0.000    0.000 
#    0.000    0.000    0.000    0.000    0.000    0.000 
#
# Total GULP energy -371697.290481 kJ/mol
# GULP energy per Si atom -12389.909683 kJ/mol
# Density = 2.062406 g / cm^3
# Si number density = 20.671103 Si / 1000 Ang^3
#
#
#
# Elastic Constant Matrix: (Units=GPa)
#
#
# Indices 1 2 3 4 5 6 
#
# 1 136.5047 64.4555 35.9840 0.0000 0.0000 0.0000
# 2 64.4555 106.9272 51.2432 0.0000 0.0000 0.0000
# 3 35.9840 51.2432 64.0242 0.0000 0.0000 0.0000
# 4 0.0000 0.0000 0.0000 18.8763 0.0000 0.0000
# 5 0.0000 0.0000 0.0000 0.0000 25.9624 0.0000
# 6 0.0000 0.0000 0.0000 0.0000 0.0000 29.3434
#
#
#
# Elastic Compliance Matrix: (Units=1/GPa)
#
#
# Indices 1 2 3 4 5 6 
#
# 1 0.010310 -0.005577 -0.001331 0.000000 0.000000 0.000000
# 2 -0.005577 0.018188 -0.011423 0.000000 0.000000 0.000000
# 3 -0.001331 -0.011423 0.025510 0.000000 0.000000 0.000000
# 4 0.000000 0.000000 0.000000 0.052976 0.000000 0.000000
# 5 0.000000 0.000000 0.000000 0.000000 0.038517 0.000000
# 6 0.000000 0.000000 0.000000 0.000000 0.000000 0.034079
#
#
# Mechanical properties :
#
#
# Convention : Reuss Voigt Hill
#
# Bulk Modulus (GPa) = 57.64924 67.86907 62.75915
# Shear Modulus (GPa) = 22.52006 25.22132 23.87069
#
# Velocity S-wave (km/s) = 3.30426 3.49682 3.40190
# Velocity P-wave (km/s) = 6.51973 7.01482 6.77180
#
# Compressibility (1/GPa) = 0.01734628
#
# Stress axis : x y z
#
# Youngs Moduli (GPa) = 96.99340 54.98072 39.20090
#
# Poissons Ratio (x) = 0.30663 0.05217
# Poissons Ratio (y) = 0.54093 0.44779
# Poissons Ratio (z) = 0.12909 0.62804
#
# Static dielectric constant tensor:
#      x y z
#    x 4.238150 0.000000 0.000000 
#    y 0.000000 3.942880 0.000000 
#    z 0.000000 0.000000 3.465790 
# 
# 
# High freq. dielectric constant tensor:
#      x y z
#    x 1.825280 0.000000 0.000000 
#    y 0.000000 1.808410 0.000000 
#    z 0.000000 0.000000 1.771720 
# 
# From -- ./inp_files/10100.got.cif
#   From: 2010.03.12/outbox.cif.g09.slc.cpg/sg41_6_cif.got.tgz:10100.got - 2010.04.14 01:55:53.
