data_PCOD8184805
_publ_section_title
;
Structure prediction by ZEFSAII (Michael W. Deem and Ramdas Pophale) SiO2 
 PCOD8184805
Probable space group: A B A 2
;
_chemical_formula_sum "Si O2"
_cell_formula_units_Z 48
_cell_length_a 18.415418
_cell_length_b 9.128920
_cell_length_c 16.000300
_cell_angle_alpha 90.000000
_cell_angle_beta 90.000000
_cell_angle_gamma 90.000000
_cell_volume 2689.856477
_symmetry_space_group_name_H-M "A B A 2"
_symmetry_group_IT_number 41
_symmetry_cell_setting 'orthorhombic'
loop_
_space_group_symop_operation_xyz
x,y,z
-x,-y,z
1/2-x,y,1/2+z
1/2+x,-y,1/2+z
x,1/2+y,1/2+z
-x,1/2-y,1/2+z
1/2-x,1/2+y,z
1/2+x,1/2-y,z
loop_
_atom_site_type_symbol
_atom_site_label
_atom_site_fract_x
_atom_site_fract_y
_atom_site_fract_z
Si Si1 0.086184 0.660346 0.704720
Si Si2 0.794266 0.679715 0.793162
Si Si3 0.170750 0.168971 0.553239
Si Si4 0.205878 0.856249 0.630094
Si Si5 0.677155 0.380829 0.363727
Si Si6 0.578036 0.179111 0.681282
O O1 0.133685 0.760537 0.643713
O O2 0.114692 0.670032 0.799731
O O3 0.090246 0.494774 0.671094
O O4 0.004154 0.719455 0.704083
O O5 0.746350 0.612322 0.717581
O O6 0.811097 0.554542 0.860466
O O7 0.754273 0.810012 0.840210
O O8 0.869757 0.740686 0.754880
O O9 0.241628 0.267781 0.568108
O O10 0.152491 0.164147 0.455590
O O11 0.099930 0.241607 0.595274
O O12 0.184189 0.008554 0.589475
#
# Coordination Sequence:
#
# PCOD8184805 Si02
#       6
#     8   8   8   8   8   8
#     4   9  19  36  55  71 100 141 172 196 248 312
#     4   9  17  32  52  71  98 136 168 197 247 305
#     4  11  20  32  52  79 104 127 167 218 252 286
#     4  10  19  33  53  75 101 136 170 202 249 306
#     4  10  19  32  51  77 101 127 166 214 251 289
#     4   9  18  35  55  73 100 139 171 201 247 308
#
# _framework density 17.844816999999999
#
# number of rings (size 3 to 8) (size 9 to 14) (size 15 to 20)
#    0.000    2.333    0.000    6.000    0.000    0.667 
#    0.000    8.333    0.000    8.000    0.000    0.000 
#    0.000    0.000    0.000    0.000    0.000    0.000 
#
# Total GULP energy -297627.993102 kJ/mol
# GULP energy per Si atom -12401.166379 kJ/mol
# Density = 1.780420 g / cm^3
# Si number density = 17.844817 Si / 1000 Ang^3
#
#
#
# Elastic Constant Matrix: (Units=GPa)
#
#
# Indices 1 2 3 4 5 6 
#
# 1 128.7649 31.5699 31.0944 0.0000 0.0000 0.0000
# 2 31.5699 61.7287 36.2709 0.0000 0.0000 0.0000
# 3 31.0944 36.2709 99.9059 0.0000 0.0000 0.0000
# 4 0.0000 0.0000 0.0000 25.9076 0.0000 0.0000
# 5 0.0000 0.0000 0.0000 0.0000 14.7146 0.0000
# 6 0.0000 0.0000 0.0000 0.0000 0.0000 28.2910
#
#
#
# Elastic Compliance Matrix: (Units=1/GPa)
#
#
# Indices 1 2 3 4 5 6 
#
# 1 0.009040 -0.003776 -0.001443 0.000000 0.000000 0.000000
# 2 -0.003776 0.022170 -0.006874 0.000000 0.000000 0.000000
# 3 -0.001443 -0.006874 0.012954 0.000000 0.000000 0.000000
# 4 0.000000 0.000000 0.000000 0.038599 0.000000 0.000000
# 5 0.000000 0.000000 0.000000 0.000000 0.067960 0.000000
# 6 0.000000 0.000000 0.000000 0.000000 0.000000 0.035347
#
#
# Mechanical properties :
#
#
# Convention : Reuss Voigt Hill
#
# Bulk Modulus (GPa) = 50.05096 54.25221 52.15159
# Shear Modulus (GPa) = 23.05068 26.54693 24.79880
#
# Velocity S-wave (km/s) = 3.59796 3.86120 3.73190
# Velocity P-wave (km/s) = 6.73567 7.09554 6.91794
#
# Compressibility (1/GPa) = 0.01997964
#
# Stress axis : x y z
#
# Youngs Moduli (GPa) = 110.61689 45.10657 77.19642
#
# Poissons Ratio (x) = 0.17030 0.11139
# Poissons Ratio (y) = 0.41765 0.53062
# Poissons Ratio (z) = 0.15961 0.31005
#
# Static dielectric constant tensor:
#      x y z
#    x 3.429390 0.000000 0.000000 
#    y 0.000000 3.298870 0.000000 
#    z 0.000000 0.000000 3.213520 
# 
# 
# High freq. dielectric constant tensor:
#      x y z
#    x 1.687440 0.000000 0.000000 
#    y 0.000000 1.692790 0.000000 
#    z 0.000000 0.000000 1.676670 
# 
# From -- ./inp_files/8701.got.cif
#   From: 2010.03.12/outbox.cif.g09.slc.cpg/sg41_5_cif.got.tgz:8701.got - 2010.04.14 01:55:53.
