data_PCOD8184163
_publ_section_title
;
Structure prediction by ZEFSAII (Michael W. Deem and Ramdas Pophale) SiO2 
 PCOD8184163
Probable space group: A M A 2
;
_chemical_formula_sum "Si O2"
_cell_formula_units_Z 64
_cell_length_a 17.343578
_cell_length_b 9.964725
_cell_length_c 19.094987
_cell_angle_alpha 90.000000
_cell_angle_beta 90.000000
_cell_angle_gamma 90.000000
_cell_volume 3300.071752
_symmetry_space_group_name_H-M "A M A 2"
_symmetry_group_IT_number 40
_symmetry_cell_setting 'orthorhombic'
loop_
_space_group_symop_operation_xyz
x,y,z
-x,-y,z
1/2-x,y,z
1/2+x,-y,z
x,1/2+y,1/2+z
-x,1/2-y,1/2+z
1/2-x,1/2+y,1/2+z
1/2+x,1/2-y,1/2+z
loop_
_atom_site_type_symbol
_atom_site_label
_atom_site_fract_x
_atom_site_fract_y
_atom_site_fract_z
Si Si1 0.338912 0.020127 0.054400
Si Si2 0.541037 0.208291 0.794417
Si Si3 0.922285 0.255846 0.063841
Si Si4 0.572989 0.271229 0.645329
Si Si5 0.009798 0.845233 0.430853
Si Si6 0.664697 0.304767 0.421831
Si Si7 0.883581 0.437938 0.285009
Si Si8 0.337945 0.001953 0.631724
O O1 0.250000 0.030159 0.074787
O O2 0.385796 0.101742 0.112216
O O3 0.363547 0.866438 0.057534
O O4 0.355413 0.078616 0.977263
O O5 0.577461 0.288674 0.729157
O O6 0.532851 0.309077 0.858800
O O7 0.459949 0.147199 0.770416
O O8 0.597135 0.085803 0.814644
O O9 0.873431 0.389173 0.079049
O O10 0.983380 0.231858 0.125271
O O11 0.969353 0.262476 0.991843
O O12 0.613359 0.133419 0.620854
O O13 0.100690 0.810908 0.428038
O O14 0.000000 0.000000 0.446592
O O15 0.750000 0.243957 0.436891
O O16 0.667255 0.366843 0.344162
O O17 0.838697 0.446487 0.211748
O O18 0.250000 0.973660 0.609815
#
# Coordination Sequence:
#
# PCOD8184163 Si02
#       8
#     8   8   8   8   8   8   8   8
#     4  11  24  40  60  89 120 154 200 252 309 358
#     4   9  19  35  60  87 118 155 203 247 284 355
#     4  12  23  39  60  88 119 161 200 251 296 362
#     4  11  21  39  62  88 119 160 204 244 298 358
#     4  11  23  39  60  88 121 159 206 245 300 362
#     4  10  21  38  61  87 117 152 195 249 304 360
#     4   9  17  35  60  89 116 152 198 244 296 354
#     4  11  22  37  61  90 123 157 198 252 303 351
#
# _framework density 19.393518
#
# number of rings (size 3 to 8) (size 9 to 14) (size 15 to 20)
#    0.000    1.500    2.500    3.375    0.000    2.000 
#    0.000    0.625    0.000    6.000    0.000    0.000 
#    0.000    0.000    0.000    0.000    0.000    0.000 
#
# Total GULP energy -396888.038983 kJ/mol
# GULP energy per Si atom -12402.751218 kJ/mol
# Density = 1.934938 g / cm^3
# Si number density = 19.393518 Si / 1000 Ang^3
#
#
#
# Elastic Constant Matrix: (Units=GPa)
#
#
# Indices 1 2 3 4 5 6 
#
# 1 84.7327 15.4110 17.3417 0.0000 0.0000 0.0000
# 2 15.4110 68.9013 18.5600 0.0000 0.0000 0.0000
# 3 17.3417 18.5600 76.8768 0.0000 0.0000 0.0000
# 4 0.0000 0.0000 0.0000 25.4156 0.0000 0.0000
# 5 0.0000 0.0000 0.0000 0.0000 23.7326 0.0000
# 6 0.0000 0.0000 0.0000 0.0000 0.0000 25.1639
#
#
#
# Elastic Compliance Matrix: (Units=1/GPa)
#
#
# Indices 1 2 3 4 5 6 
#
# 1 0.012680 -0.002209 -0.002327 0.000000 0.000000 0.000000
# 2 -0.002209 0.015908 -0.003342 0.000000 0.000000 0.000000
# 3 -0.002327 -0.003342 0.014340 0.000000 0.000000 0.000000
# 4 0.000000 0.000000 0.000000 0.039346 0.000000 0.000000
# 5 0.000000 0.000000 0.000000 0.000000 0.042136 0.000000
# 6 0.000000 0.000000 0.000000 0.000000 0.000000 0.039740
#
#
# Mechanical properties :
#
#
# Convention : Reuss Voigt Hill
#
# Bulk Modulus (GPa) = 36.80447 37.01514 36.90981
# Shear Modulus (GPa) = 26.46023 26.80894 26.63459
#
# Velocity S-wave (km/s) = 3.69777 3.72205 3.70993
# Velocity P-wave (km/s) = 6.10330 6.13183 6.11758
#
# Compressibility (1/GPa) = 0.02717061
#
# Stress axis : x y z
#
# Youngs Moduli (GPa) = 78.86508 62.86163 69.73680
#
# Poissons Ratio (x) = 0.13888 0.16227
# Poissons Ratio (y) = 0.17423 0.23308
# Poissons Ratio (z) = 0.18351 0.21010
#
# Static dielectric constant tensor:
#      x y z
#    x 3.568210 0.000000 0.000000 
#    y 0.000000 3.362200 0.000000 
#    z 0.000000 0.000000 3.578800 
# 
# 
# High freq. dielectric constant tensor:
#      x y z
#    x 1.756880 0.000000 0.000000 
#    y 0.000000 1.743330 0.000000 
#    z 0.000000 0.000000 1.763760 
# 
# From -- ./inp_files/23352.got.cif
#   From: 2010.03.12/outbox.cif.g09.slc.cpg/sg40_12_cif.got.tgz:23352.got - 2010.04.14 01:38:03.
