data_PCOD8184568
_publ_section_title
;
Structure prediction by ZEFSAII (Michael W. Deem and Ramdas Pophale) SiO2 
 PCOD8184568
Probable space group: A M A 2
;
_chemical_formula_sum "Si O2"
_cell_formula_units_Z 64
_cell_length_a 17.569827
_cell_length_b 9.771595
_cell_length_c 19.717304
_cell_angle_alpha 90.000000
_cell_angle_beta 90.000000
_cell_angle_gamma 90.000000
_cell_volume 3385.169944
_symmetry_space_group_name_H-M "A M A 2"
_symmetry_group_IT_number 40
_symmetry_cell_setting 'orthorhombic'
loop_
_space_group_symop_operation_xyz
x,y,z
-x,-y,z
1/2-x,y,z
1/2+x,-y,z
x,1/2+y,1/2+z
-x,1/2-y,1/2+z
1/2-x,1/2+y,1/2+z
1/2+x,1/2-y,1/2+z
loop_
_atom_site_type_symbol
_atom_site_label
_atom_site_fract_x
_atom_site_fract_y
_atom_site_fract_z
Si Si1 0.390954 0.436908 0.618430
Si Si2 0.665898 0.010262 0.255691
Si Si3 0.069671 0.778991 0.335961
Si Si4 0.660368 0.988964 0.840615
Si Si5 0.412907 0.275745 0.262134
Si Si6 0.032182 0.226702 0.122275
Si Si7 0.920970 0.085872 0.974466
Si Si8 0.982700 0.159991 0.479650
O O1 0.327797 0.435002 0.677511
O O2 0.434444 0.577159 0.631393
O O3 0.441713 0.299226 0.626041
O O4 0.365220 0.437715 0.539494
O O5 0.750000 0.029136 0.287548
O O6 0.642935 0.852870 0.260656
O O7 0.601255 0.090188 0.296672
O O8 0.124257 0.653733 0.318320
O O9 0.073152 0.808286 0.416667
O O10 0.983544 0.747670 0.313030
O O11 0.750000 0.972115 0.846779
O O12 0.638669 0.097926 0.783952
O O13 0.626099 0.036852 0.911338
O O14 0.442330 0.315842 0.186862
O O15 0.056349 0.300150 0.051747
O O16 0.941826 0.246840 0.968794
O O17 0.000000 0.000000 0.983507
O O18 0.000000 0.000000 0.480174
#
# Coordination Sequence:
#
# PCOD8184568 Si02
#       8
#     8   8   8   8   8   8   8   8
#     4   9  16  33  59  85 114 153 194 242 285 347
#     4  11  23  37  58  91 126 156 194 250 310 356
#     4  12  22  39  61  86 117 162 203 248 296 363
#     4  12  25  39  57  86 122 157 198 252 315 361
#     4  11  21  39  63  88 113 161 208 247 290 359
#     4   9  17  33  57  86 116 144 198 247 286 336
#     4  11  18  38  63  86 116 152 201 249 286 356
#     4  11  21  34  59  94 117 143 197 259 293 341
#
# _framework density 18.905992999999999
#
# number of rings (size 3 to 8) (size 9 to 14) (size 15 to 20)
#    0.000    1.250    6.250    2.250    0.000    1.500 
#    0.000    0.000    0.000    2.250    0.000    0.000 
#    0.000    0.000    0.000    0.000    0.000    0.000 
#
# Total GULP energy -396553.743664 kJ/mol
# GULP energy per Si atom -12392.304490 kJ/mol
# Density = 1.886296 g / cm^3
# Si number density = 18.905993 Si / 1000 Ang^3
#
#
#
# Elastic Constant Matrix: (Units=GPa)
#
#
# Indices 1 2 3 4 5 6 
#
# 1 67.8107 13.5359 16.0054 0.0000 0.0000 0.0000
# 2 13.5359 91.4970 25.7684 0.0000 0.0000 0.0000
# 3 16.0054 25.7684 127.4914 0.0000 0.0000 0.0000
# 4 0.0000 0.0000 0.0000 25.4359 0.0000 0.0000
# 5 0.0000 0.0000 0.0000 0.0000 16.7792 0.0000
# 6 0.0000 0.0000 0.0000 0.0000 0.0000 17.4620
#
#
#
# Elastic Compliance Matrix: (Units=1/GPa)
#
#
# Indices 1 2 3 4 5 6 
#
# 1 0.015487 -0.001849 -0.001571 0.000000 0.000000 0.000000
# 2 -0.001849 0.011810 -0.002155 0.000000 0.000000 0.000000
# 3 -0.001571 -0.002155 0.008476 0.000000 0.000000 0.000000
# 4 0.000000 0.000000 0.000000 0.039315 0.000000 0.000000
# 5 0.000000 0.000000 0.000000 0.000000 0.059597 0.000000
# 6 0.000000 0.000000 0.000000 0.000000 0.000000 0.057267
#
#
# Mechanical properties :
#
#
# Convention : Reuss Voigt Hill
#
# Bulk Modulus (GPa) = 40.61012 44.15762 42.38387
# Shear Modulus (GPa) = 23.66210 27.36804 25.51507
#
# Velocity S-wave (km/s) = 3.54159 3.80884 3.67764
# Velocity P-wave (km/s) = 6.18469 6.53836 6.36398
#
# Compressibility (1/GPa) = 0.02462441
#
# Stress axis : x y z
#
# Youngs Moduli (GPa) = 64.57162 84.67609 117.97491
#
# Poissons Ratio (x) = 0.15655 0.18529
# Poissons Ratio (y) = 0.11938 0.25422
# Poissons Ratio (z) = 0.10141 0.18247
#
# Static dielectric constant tensor:
#      x y z
#    x 3.176470 0.000000 0.000000 
#    y 0.000000 3.492100 0.000000 
#    z 0.000000 0.000000 3.909940 
# 
# 
# High freq. dielectric constant tensor:
#      x y z
#    x 1.693970 0.000000 0.000000 
#    y 0.000000 1.734010 0.000000 
#    z 0.000000 0.000000 1.756950 
# 
# From -- ./inp_files/23353.got.cif
#   From: 2010.03.12/outbox.cif.g09.slc.cpg/sg40_12_cif.got.tgz:23353.got - 2010.04.14 01:38:03.
