data_PCOD8184570
_publ_section_title
;
Structure prediction by ZEFSAII (Michael W. Deem and Ramdas Pophale) SiO2 
 PCOD8184570
Probable space group: A M A 2
;
_chemical_formula_sum "Si O2"
_cell_formula_units_Z 64
_cell_length_a 8.840314
_cell_length_b 23.239341
_cell_length_c 18.962327
_cell_angle_alpha 90.000000
_cell_angle_beta 90.000000
_cell_angle_gamma 90.000000
_cell_volume 3895.678703
_symmetry_space_group_name_H-M "A M A 2"
_symmetry_group_IT_number 40
_symmetry_cell_setting 'orthorhombic'
loop_
_space_group_symop_operation_xyz
x,y,z
-x,-y,z
1/2-x,y,z
1/2+x,-y,z
x,1/2+y,1/2+z
-x,1/2-y,1/2+z
1/2-x,1/2+y,1/2+z
1/2+x,1/2-y,1/2+z
loop_
_atom_site_type_symbol
_atom_site_label
_atom_site_fract_x
_atom_site_fract_y
_atom_site_fract_z
Si Si1 0.925811 0.240292 0.933120
Si Si2 0.928701 0.060750 0.798524
Si Si3 0.575111 0.842335 0.711516
Si Si4 0.428344 0.616948 0.433927
Si Si5 0.072322 0.561753 0.581422
Si Si6 0.573029 0.269335 0.086261
Si Si7 0.572904 0.158232 0.164026
Si Si8 0.078338 0.772928 0.299285
O O1 0.750000 0.223279 0.931704
O O2 0.024742 0.183095 0.930519
O O3 0.968248 0.279771 0.866427
O O4 0.964438 0.276915 0.003736
O O5 0.750000 0.054993 0.802945
O O6 0.972445 0.105400 0.737235
O O7 0.989845 0.080661 0.873914
O O8 0.000000 0.000000 0.777797
O O9 0.750000 0.862061 0.710505
O O10 0.514759 0.823072 0.633511
O O11 0.552532 0.788819 0.763737
O O12 0.250000 0.612457 0.421545
O O13 0.479957 0.590675 0.508301
O O14 0.250000 0.555152 0.585118
O O15 0.000000 0.500000 0.588943
O O16 0.016397 0.600196 0.646799
O O17 0.750000 0.265906 0.102805
O O18 0.506674 0.208492 0.113253
O O19 0.750000 0.147896 0.150780
O O20 0.540476 0.175986 0.244824
O O21 0.250000 0.778392 0.325754
#
# Coordination Sequence:
#
# PCOD8184570 Si02
#       8
#     8   8   8   8   8   8   8   8
#     4  11  19  29  50  77 102 132 167 203 244 293
#     4  12  24  36  51  72  97 132 172 209 246 288
#     4   9  17  33  52  70  97 131 166 203 243 292
#     4  11  22  35  48  69 101 136 171 205 241 285
#     4  11  23  35  50  71  97 132 171 211 247 289
#     4   8  16  30  50  73  98 131 163 197 247 295
#     4   9  17  33  52  70  96 132 167 202 244 295
#     4   9  18  31  50  72 100 134 163 197 249 297
#
# _framework density 16.428460000000001
#
# number of rings (size 3 to 8) (size 9 to 14) (size 15 to 20)
#    0.000    2.000    2.500    4.125    0.000    3.000 
#    0.000    3.125    0.000    0.000    0.000    0.875 
#    0.000    6.000    0.000    0.000    0.000    0.000 
#
# Total GULP energy -396789.954558 kJ/mol
# GULP energy per Si atom -12399.686080 kJ/mol
# Density = 1.639107 g / cm^3
# Si number density = 16.428460 Si / 1000 Ang^3
#
#
#
# Elastic Constant Matrix: (Units=GPa)
#
#
# Indices 1 2 3 4 5 6 
#
# 1 69.9736 39.3009 41.9663 0.0000 0.0000 0.0000
# 2 39.3009 89.0608 56.2412 0.0000 0.0000 0.0000
# 3 41.9663 56.2412 111.5634 0.0000 0.0000 0.0000
# 4 0.0000 0.0000 0.0000 20.6867 0.0000 0.0000
# 5 0.0000 0.0000 0.0000 0.0000 17.4380 0.0000
# 6 0.0000 0.0000 0.0000 0.0000 0.0000 20.1492
#
#
#
# Elastic Compliance Matrix: (Units=1/GPa)
#
#
# Indices 1 2 3 4 5 6 
#
# 1 0.020507 -0.006129 -0.004624 0.000000 0.000000 0.000000
# 2 -0.006129 0.018304 -0.006922 0.000000 0.000000 0.000000
# 3 -0.004624 -0.006922 0.014192 0.000000 0.000000 0.000000
# 4 0.000000 0.000000 0.000000 0.048340 0.000000 0.000000
# 5 0.000000 0.000000 0.000000 0.000000 0.057346 0.000000
# 6 0.000000 0.000000 0.000000 0.000000 0.000000 0.049630
#
#
# Mechanical properties :
#
#
# Convention : Reuss Voigt Hill
#
# Bulk Modulus (GPa) = 56.64763 60.62386 58.63574
# Shear Modulus (GPa) = 20.03574 20.52741 20.28158
#
# Velocity S-wave (km/s) = 3.49603 3.53867 3.51741
# Velocity P-wave (km/s) = 7.13110 7.32653 7.22947
#
# Compressibility (1/GPa) = 0.01765299
#
# Stress axis : x y z
#
# Youngs Moduli (GPa) = 48.76410 54.63268 70.46038
#
# Poissons Ratio (x) = 0.33486 0.32582
# Poissons Ratio (y) = 0.29889 0.48771
# Poissons Ratio (z) = 0.22549 0.37816
#
# Static dielectric constant tensor:
#      x y z
#    x 3.011950 0.000000 0.000000 
#    y 0.000000 2.967170 0.000000 
#    z 0.000000 0.000000 3.295990 
# 
# 
# High freq. dielectric constant tensor:
#      x y z
#    x 1.629110 0.000000 0.000000 
#    y 0.000000 1.606760 0.000000 
#    z 0.000000 0.000000 1.630740 
# 
# From -- ./inp_files/19752.got.cif
#   From: 2010.03.12/outbox.cif.g09.slc.cpg/sg40_10_cif.got.tgz:19752.got - 2010.04.14 01:38:03.
