data_PCOD8184603
_publ_section_title
;
Structure prediction by ZEFSAII (Michael W. Deem and Ramdas Pophale) SiO2 
 PCOD8184603
Probable space group: A M A 2
;
_chemical_formula_sum "Si O2"
_cell_formula_units_Z 40
_cell_length_a 24.861481
_cell_length_b 4.981254
_cell_length_c 14.088303
_cell_angle_alpha 90.000000
_cell_angle_beta 90.000000
_cell_angle_gamma 90.000000
_cell_volume 1744.714486
_symmetry_space_group_name_H-M "A M A 2"
_symmetry_group_IT_number 40
_symmetry_cell_setting 'orthorhombic'
loop_
_space_group_symop_operation_xyz
x,y,z
-x,-y,z
1/2-x,y,z
1/2+x,-y,z
x,1/2+y,1/2+z
-x,1/2-y,1/2+z
1/2-x,1/2+y,1/2+z
1/2+x,1/2-y,1/2+z
loop_
_atom_site_type_symbol
_atom_site_label
_atom_site_fract_x
_atom_site_fract_y
_atom_site_fract_z
Si Si1 0.625307 0.601514 0.501240
Si Si2 0.555751 0.109262 0.529526
Si Si3 0.188991 0.362910 0.689823
Si Si4 0.534476 0.233643 0.746640
Si Si5 0.348386 0.348453 0.298988
O O1 0.575942 0.392710 0.487621
O O2 0.660285 0.533942 0.594177
O O3 0.664374 0.586062 0.409160
O O4 0.602882 0.899270 0.511989
O O5 0.546583 0.148781 0.640003
O O6 0.500000 0.000000 0.481744
O O7 0.250000 0.274239 0.668522
O O8 0.190302 0.613903 0.761799
O O9 0.157189 0.113704 0.735194
O O10 0.500000 0.500000 0.750878
O O11 0.590816 0.268201 0.799865
O O12 0.500000 0.000000 0.796924
#
# Coordination Sequence:
#
# PCOD8184603 Si02
#       5
#     8   8   8   8   8
#     4  12  24  45  70 101 136 179 227 278 339 409
#     4  11  22  40  69 100 141 183 221 268 333 407
#     4  12  26  48  71  97 135 177 230 295 351 396
#     4  11  21  38  65  98 138 180 217 263 326 402
#     4  12  26  45  71 104 136 177 231 280 342 412
#
# _framework density 22.926387999999999
#
# number of rings (size 3 to 8) (size 9 to 14) (size 15 to 20)
#    0.000    0.400    4.000    6.000    0.000    4.000 
#    0.000    0.000    0.000    0.000    0.000    0.000 
#    0.000    0.000    0.000    0.000    0.000    0.000 
#
# Total GULP energy -248069.756571 kJ/mol
# GULP energy per Si atom -12403.487829 kJ/mol
# Density = 2.287421 g / cm^3
# Si number density = 22.926388 Si / 1000 Ang^3
#
#
#
# Elastic Constant Matrix: (Units=GPa)
#
#
# Indices 1 2 3 4 5 6 
#
# 1 101.0828 16.5175 39.0487 0.0000 0.0000 0.0000
# 2 16.5175 98.3839 41.8171 0.0000 0.0000 0.0000
# 3 39.0487 41.8171 113.0413 0.0000 0.0000 0.0000
# 4 0.0000 0.0000 0.0000 28.9111 0.0000 0.0000
# 5 0.0000 0.0000 0.0000 0.0000 15.1033 0.0000
# 6 0.0000 0.0000 0.0000 0.0000 0.0000 35.2351
#
#
#
# Elastic Compliance Matrix: (Units=1/GPa)
#
#
# Indices 1 2 3 4 5 6 
#
# 1 0.011423 -0.000285 -0.003840 0.000000 0.000000 0.000000
# 2 -0.000285 0.012068 -0.004366 0.000000 0.000000 0.000000
# 3 -0.003840 -0.004366 0.011788 0.000000 0.000000 0.000000
# 4 0.000000 0.000000 0.000000 0.034589 0.000000 0.000000
# 5 0.000000 0.000000 0.000000 0.000000 0.066211 0.000000
# 6 0.000000 0.000000 0.000000 0.000000 0.000000 0.028381
#
#
# Mechanical properties :
#
#
# Convention : Reuss Voigt Hill
#
# Bulk Modulus (GPa) = 54.65719 56.36385 55.51052
# Shear Modulus (GPa) = 26.66095 30.19155 28.42625
#
# Velocity S-wave (km/s) = 3.41382 3.63284 3.52503
# Velocity P-wave (km/s) = 6.27941 6.49883 6.39006
#
# Compressibility (1/GPa) = 0.01829586
#
# Stress axis : x y z
#
# Youngs Moduli (GPa) = 87.54211 82.86558 84.83295
#
# Poissons Ratio (x) = 0.02366 0.32579
# Poissons Ratio (y) = 0.02499 0.37034
# Poissons Ratio (z) = 0.33619 0.36176
#
# Static dielectric constant tensor:
#      x y z
#    x 4.187930 0.000000 0.000000 
#    y 0.000000 4.217040 0.000000 
#    z 0.000000 0.000000 4.529410 
# 
# 
# High freq. dielectric constant tensor:
#      x y z
#    x 1.892000 0.000000 0.000000 
#    y 0.000000 1.919440 0.000000 
#    z 0.000000 0.000000 1.906800 
# 
# From -- ./inp_files/18373.got.cif
#   From: 2010.03.12/outbox.cif.g09.slc.cpg/sg40_10_cif.got.tgz:18373.got - 2010.04.14 01:38:03.
