data_PCOD8184409
_publ_section_title
;
Structure prediction by ZEFSAII (Michael W. Deem and Ramdas Pophale) SiO2 
 PCOD8184409
Probable space group: A M A 2
;
_chemical_formula_sum "Si O2"
_cell_formula_units_Z 64
_cell_length_a 19.635404
_cell_length_b 17.336066
_cell_length_c 9.310808
_cell_angle_alpha 90.000000
_cell_angle_beta 90.000000
_cell_angle_gamma 90.000000
_cell_volume 3169.405185
_symmetry_space_group_name_H-M "A M A 2"
_symmetry_group_IT_number 40
_symmetry_cell_setting 'orthorhombic'
loop_
_space_group_symop_operation_xyz
x,y,z
-x,-y,z
1/2-x,y,z
1/2+x,-y,z
x,1/2+y,1/2+z
-x,1/2-y,1/2+z
1/2-x,1/2+y,1/2+z
1/2+x,1/2-y,1/2+z
loop_
_atom_site_type_symbol
_atom_site_label
_atom_site_fract_x
_atom_site_fract_y
_atom_site_fract_z
Si Si1 0.326465 0.558027 0.643680
Si Si2 0.329081 0.793350 0.404846
Si Si3 0.063277 0.700336 0.227758
Si Si4 0.173826 0.963961 0.430550
Si Si5 0.928882 0.477093 0.158183
Si Si6 0.064273 0.786980 0.933713
Si Si7 0.070120 0.462041 0.463173
Si Si8 0.170686 0.227094 0.211448
O O1 0.250000 0.564448 0.581579
O O2 0.327296 0.518610 0.796088
O O3 0.368209 0.508619 0.531004
O O4 0.357707 0.642889 0.666928
O O5 0.250000 0.782065 0.363939
O O6 0.370060 0.736873 0.300427
O O7 0.355052 0.880903 0.381720
O O8 0.341934 0.779636 0.573093
O O9 0.074061 0.609184 0.218380
O O10 0.998954 0.719670 0.326360
O O11 0.051141 0.730889 0.067458
O O12 0.250000 0.952286 0.491281
O O13 0.132161 0.006968 0.552202
O O14 0.923130 0.534758 0.292092
O O15 0.000000 0.500000 0.079705
O O16 0.073454 0.871873 0.002039
O O17 0.131729 0.761173 0.848588
O O18 0.000000 0.500000 0.519163
O O19 0.250000 0.222440 0.255086
#
# Coordination Sequence:
#
# PCOD8184409 Si02
#       8
#     8   8   8   8   8   8   8   8
#     4  10  22  41  64  92 124 159 203 252 304 365
#     4  10  22  41  66  94 125 162 204 251 307 372
#     4  12  25  40  62  90 124 164 207 257 308 363
#     4  10  22  41  64  92 124 159 203 252 304 365
#     4  11  23  41  60  88 125 160 204 255 300 365
#     4  12  25  40  62  90 124 164 207 257 308 363
#     4  11  23  41  60  88 125 160 204 255 300 365
#     4  10  22  41  66  94 125 162 204 251 307 372
#
# _framework density 20.193062000000001
#
# number of rings (size 3 to 8) (size 9 to 14) (size 15 to 20)
#    0.000    1.250    2.500    3.750    3.500    2.500 
#    0.000    0.000    0.000    0.000    0.000    0.000 
#    0.000    0.000    0.000    0.000    0.000    0.000 
#
# Total GULP energy -396923.422383 kJ/mol
# GULP energy per Si atom -12403.856949 kJ/mol
# Density = 2.014710 g / cm^3
# Si number density = 20.193062 Si / 1000 Ang^3
#
#
#
# Elastic Constant Matrix: (Units=GPa)
#
#
# Indices 1 2 3 4 5 6 
#
# 1 96.1062 28.0981 43.1681 0.0000 0.0000 0.0000
# 2 28.0981 111.3164 34.9530 0.0000 0.0000 0.0000
# 3 43.1681 34.9530 66.0739 0.0000 0.0000 0.0000
# 4 0.0000 0.0000 0.0000 18.4332 0.0000 0.0000
# 5 0.0000 0.0000 0.0000 0.0000 31.1179 0.0000
# 6 0.0000 0.0000 0.0000 0.0000 0.0000 31.0454
#
#
#
# Elastic Compliance Matrix: (Units=1/GPa)
#
#
# Indices 1 2 3 4 5 6 
#
# 1 0.014792 -0.000839 -0.009220 0.000000 0.000000 0.000000
# 2 -0.000839 0.010820 -0.005176 0.000000 0.000000 0.000000
# 3 -0.009220 -0.005176 0.023897 0.000000 0.000000 0.000000
# 4 0.000000 0.000000 0.000000 0.054250 0.000000 0.000000
# 5 0.000000 0.000000 0.000000 0.000000 0.032136 0.000000
# 6 0.000000 0.000000 0.000000 0.000000 0.000000 0.032211
#
#
# Mechanical properties :
#
#
# Convention : Reuss Voigt Hill
#
# Bulk Modulus (GPa) = 52.52425 53.99277 53.25851
# Shear Modulus (GPa) = 24.39956 27.27113 25.83535
#
# Velocity S-wave (km/s) = 3.47985 3.67893 3.58077
# Velocity P-wave (km/s) = 6.49718 6.69644 6.59756
#
# Compressibility (1/GPa) = 0.01903882
#
# Stress axis : x y z
#
# Youngs Moduli (GPa) = 67.60487 92.41854 41.84682
#
# Poissons Ratio (x) = 0.07750 0.38584
# Poissons Ratio (y) = 0.05669 0.21660
# Poissons Ratio (z) = 0.62334 0.47837
#
# Static dielectric constant tensor:
#      x y z
#    x 3.991330 0.000000 0.000000 
#    y 0.000000 3.869040 0.000000 
#    z 0.000000 0.000000 3.478950 
# 
# 
# High freq. dielectric constant tensor:
#      x y z
#    x 1.791940 0.000000 0.000000 
#    y 0.000000 1.809220 0.000000 
#    z 0.000000 0.000000 1.783400 
# 
# From -- ./inp_files/8441.got.cif
#   From: 2010.03.12/outbox.cif.g09.slc.cpg/sg40_5_cif.got.tgz:8441.got - 2010.04.14 01:38:03.
