data_PCOD8184506
_publ_section_title
;
Structure prediction by ZEFSAII (Michael W. Deem and Ramdas Pophale) SiO2 
 PCOD8184506
Probable space group: A M A 2
;
_chemical_formula_sum "Si O2"
_cell_formula_units_Z 48
_cell_length_a 15.351822
_cell_length_b 8.077917
_cell_length_c 18.120198
_cell_angle_alpha 90.000000
_cell_angle_beta 90.000000
_cell_angle_gamma 90.000000
_cell_volume 2247.099234
_symmetry_space_group_name_H-M "A M A 2"
_symmetry_group_IT_number 40
_symmetry_cell_setting 'orthorhombic'
loop_
_space_group_symop_operation_xyz
x,y,z
-x,-y,z
1/2-x,y,z
1/2+x,-y,z
x,1/2+y,1/2+z
-x,1/2-y,1/2+z
1/2-x,1/2+y,1/2+z
1/2+x,1/2-y,1/2+z
loop_
_atom_site_type_symbol
_atom_site_label
_atom_site_fract_x
_atom_site_fract_y
_atom_site_fract_z
Si Si1 0.848943 0.329707 0.795610
Si Si2 0.844803 0.146563 0.573229
Si Si3 0.099030 0.995105 0.715322
Si Si4 0.520827 0.674486 0.568951
Si Si5 0.088531 0.076317 0.449939
Si Si6 0.852269 0.654294 0.707879
O O1 0.750000 0.304833 0.772706
O O2 0.895432 0.160197 0.770983
O O3 0.856320 0.348445 0.883509
O O4 0.883942 0.497790 0.756993
O O5 0.750000 0.237844 0.571477
O O6 0.842431 0.017536 0.641288
O O7 0.925295 0.263541 0.594477
O O8 0.856267 0.061423 0.493600
O O9 0.129317 0.171247 0.751582
O O10 0.000000 0.000000 0.687839
O O11 0.500000 0.500000 0.531497
O O12 0.565572 0.783080 0.507611
O O13 0.586945 0.655956 0.636325
O O14 0.000000 0.000000 0.416901
O O15 0.750000 0.637714 0.688173
#
# Coordination Sequence:
#
# PCOD8184506 Si02
#       6
#     8   8   8   8   8   8
#     4  11  26  44  66  98 133 173 219 271 333 391
#     4  11  21  41  67  93 128 171 220 269 321 388
#     4  12  23  40  69  98 131 171 219 271 326 387
#     4  11  23  41  66  97 131 168 222 268 326 392
#     4  10  23  42  65  92 128 176 213 265 333 387
#     4  11  24  42  68 101 133 172 221 274 326 390
#
# _framework density 21.360870999999999
#
# number of rings (size 3 to 8) (size 9 to 14) (size 15 to 20)
#    0.000    1.000    3.333    3.500    2.333    3.333 
#    3.000    0.000    0.000    0.000    0.000    0.000 
#    0.000    0.000    0.000    0.000    0.000    0.000 
#
# Total GULP energy -297456.810486 kJ/mol
# GULP energy per Si atom -12394.033770 kJ/mol
# Density = 2.131225 g / cm^3
# Si number density = 21.360871 Si / 1000 Ang^3
#
#
#
# Elastic Constant Matrix: (Units=GPa)
#
#
# Indices 1 2 3 4 5 6 
#
# 1 130.5197 30.2359 32.3894 0.0000 0.0000 0.0000
# 2 30.2359 132.4807 30.1755 0.0000 0.0000 0.0000
# 3 32.3894 30.1755 93.5478 0.0000 0.0000 0.0000
# 4 0.0000 0.0000 0.0000 12.5969 0.0000 0.0000
# 5 0.0000 0.0000 0.0000 0.0000 18.9741 0.0000
# 6 0.0000 0.0000 0.0000 0.0000 0.0000 13.4219
#
#
#
# Elastic Compliance Matrix: (Units=1/GPa)
#
#
# Indices 1 2 3 4 5 6 
#
# 1 0.008612 -0.001388 -0.002534 0.000000 0.000000 0.000000
# 2 -0.001388 0.008371 -0.002219 0.000000 0.000000 0.000000
# 3 -0.002534 -0.002219 0.012283 0.000000 0.000000 0.000000
# 4 0.000000 0.000000 0.000000 0.079384 0.000000 0.000000
# 5 0.000000 0.000000 0.000000 0.000000 0.052703 0.000000
# 6 0.000000 0.000000 0.000000 0.000000 0.000000 0.074505
#
#
# Mechanical properties :
#
#
# Convention : Reuss Voigt Hill
#
# Bulk Modulus (GPa) = 58.88488 60.23885 59.56187
# Shear Modulus (GPa) = 19.70035 26.58177 23.14106
#
# Velocity S-wave (km/s) = 3.04017 3.53145 3.29498
# Velocity P-wave (km/s) = 6.32061 6.70000 6.51307
#
# Compressibility (1/GPa) = 0.01698229
#
# Stress axis : x y z
#
# Youngs Moduli (GPa) = 116.11539 119.46499 81.41348
#
# Poissons Ratio (x) = 0.16586 0.20630
# Poissons Ratio (y) = 0.16121 0.18069
# Poissons Ratio (z) = 0.29423 0.26514
#
# Static dielectric constant tensor:
#      x y z
#    x 4.085280 0.000000 0.000000 
#    y 0.000000 4.297380 0.000000 
#    z 0.000000 0.000000 3.516940 
# 
# 
# High freq. dielectric constant tensor:
#      x y z
#    x 1.854690 0.000000 0.000000 
#    y 0.000000 1.846040 0.000000 
#    z 0.000000 0.000000 1.813290 
# 
# From -- ./inp_files/20549.got.cif
#   From: 2010.03.12/outbox.cif.g09.slc.cpg/sg40_11_cif.got.tgz:20549.got - 2010.04.14 01:38:03.
