data_PCOD8184886
_publ_section_title
;
Structure prediction by ZEFSAII (Michael W. Deem and Ramdas Pophale) SiO2 
 PCOD8184886
Probable space group: A B A 2
;
_chemical_formula_sum "Si O2"
_cell_formula_units_Z 48
_cell_length_a 14.163278
_cell_length_b 16.841658
_cell_length_c 8.451148
_cell_angle_alpha 90.000000
_cell_angle_beta 90.000000
_cell_angle_gamma 90.000000
_cell_volume 2015.878398
_symmetry_space_group_name_H-M "A B A 2"
_symmetry_group_IT_number 41
_symmetry_cell_setting 'orthorhombic'
loop_
_space_group_symop_operation_xyz
x,y,z
-x,-y,z
1/2-x,y,1/2+z
1/2+x,-y,1/2+z
x,1/2+y,1/2+z
-x,1/2-y,1/2+z
1/2-x,1/2+y,z
1/2+x,1/2-y,z
loop_
_atom_site_type_symbol
_atom_site_label
_atom_site_fract_x
_atom_site_fract_y
_atom_site_fract_z
Si Si1 0.833102 0.197818 0.750000
Si Si2 0.438359 0.654308 0.120975
Si Si3 0.635973 0.222104 0.619658
Si Si4 0.152033 0.966351 0.618922
Si Si5 0.815662 0.466540 0.791566
Si Si6 0.870643 0.883618 0.787773
O O1 0.869650 0.272055 0.651219
O O2 0.721787 0.187819 0.721260
O O3 0.884573 0.119019 0.680018
O O4 0.850376 0.208791 0.934247
O O5 0.543609 0.674636 0.176903
O O6 0.405396 0.576251 0.213844
O O7 0.437192 0.638898 0.933364
O O8 0.624690 0.315450 0.654960
O O9 0.145370 0.977516 0.431047
O O10 0.263605 0.977001 0.663967
O O11 0.091181 0.035864 0.704337
O O12 0.738097 0.399515 0.848317
#
# Coordination Sequence:
#
# PCOD8184886 Si02
#       6
#     8   8   8   8   8   8
#     4  12  25  45  70 106 141 176 236 308 342 420
#     4  12  24  44  73 104 136 187 240 287 342 430
#     4  12  26  43  73 103 138 185 241 291 353 415
#     4  10  21  40  72  98 137 194 222 284 367 408
#     4  10  19  41  70  98 136 188 231 270 355 422
#     4  10  21  43  66  95 138 188 226 272 355 409
#
# _framework density 23.810960999999999
#
# number of rings (size 3 to 8) (size 9 to 14) (size 15 to 20)
#    1.000    0.000    3.333    4.000    0.000    0.000 
#    0.000    7.500    0.000    8.000    0.000    0.000 
#    0.000    0.000    0.000    0.000    0.000    0.000 
#
# Total GULP energy -297596.618893 kJ/mol
# GULP energy per Si atom -12399.859121 kJ/mol
# Density = 2.375677 g / cm^3
# Si number density = 23.810961 Si / 1000 Ang^3
#
#
#
# Elastic Constant Matrix: (Units=GPa)
#
#
# Indices 1 2 3 4 5 6 
#
# 1 60.7865 -6.2440 11.1322 0.0000 0.0000 0.0000
# 2 -6.2440 111.3589 57.7290 0.0000 0.0000 0.0000
# 3 11.1322 57.7290 129.7544 0.0000 0.0000 0.0000
# 4 0.0000 0.0000 0.0000 42.6631 0.0000 0.0000
# 5 0.0000 0.0000 0.0000 0.0000 24.6530 0.0000
# 6 0.0000 0.0000 0.0000 0.0000 0.0000 12.1364
#
#
#
# Elastic Compliance Matrix: (Units=1/GPa)
#
#
# Indices 1 2 3 4 5 6 
#
# 1 0.017133 0.002239 -0.002466 0.000000 0.000000 0.000000
# 2 0.002239 0.011965 -0.005515 0.000000 0.000000 0.000000
# 3 -0.002466 -0.005515 0.010372 0.000000 0.000000 0.000000
# 4 0.000000 0.000000 0.000000 0.023439 0.000000 0.000000
# 5 0.000000 0.000000 0.000000 0.000000 0.040563 0.000000
# 6 0.000000 0.000000 0.000000 0.000000 0.000000 0.082397
#
#
# Mechanical properties :
#
#
# Convention : Reuss Voigt Hill
#
# Bulk Modulus (GPa) = 35.73349 47.45938 41.59644
# Shear Modulus (GPa) = 24.19176 31.84266 28.01721
#
# Velocity S-wave (km/s) = 3.19092 3.66089 3.43396
# Velocity P-wave (km/s) = 5.34937 6.15179 5.76456
#
# Compressibility (1/GPa) = 0.02798495
#
# Stress axis : x y z
#
# Youngs Moduli (GPa) = 58.36814 83.57930 96.41104
#
# Poissons Ratio (x) = -0.18714 0.23776
# Poissons Ratio (y) = -0.13069 0.53174
# Poissons Ratio (z) = 0.14394 0.46097
#
# Static dielectric constant tensor:
#      x y z
#    x 4.142800 0.000000 0.000000 
#    y 0.000000 4.283820 0.000000 
#    z 0.000000 0.000000 4.009210 
# 
# 
# High freq. dielectric constant tensor:
#      x y z
#    x 1.925300 0.000000 0.000000 
#    y 0.000000 1.951140 0.000000 
#    z 0.000000 0.000000 1.940400 
# 
# From -- ./inp_files/2548.got.cif
#   From: 2010.03.12/outbox.cif.g09.slc.cpg/sg41_2_cif.got.tgz:2548.got - 2010.04.14 01:55:53.
