data_PCOD8184777
_publ_section_title
;
Structure prediction by ZEFSAII (Michael W. Deem and Ramdas Pophale) SiO2 
 PCOD8184777
Probable space group: A B A 2
;
_chemical_formula_sum "Si O2"
_cell_formula_units_Z 60
_cell_length_a 18.728307
_cell_length_b 12.441320
_cell_length_c 12.648639
_cell_angle_alpha 90.000000
_cell_angle_beta 90.000000
_cell_angle_gamma 90.000000
_cell_volume 2947.194365
_symmetry_space_group_name_H-M "A B A 2"
_symmetry_group_IT_number 41
_symmetry_cell_setting 'orthorhombic'
loop_
_space_group_symop_operation_xyz
x,y,z
-x,-y,z
1/2-x,y,1/2+z
1/2+x,-y,1/2+z
x,1/2+y,1/2+z
-x,1/2-y,1/2+z
1/2-x,1/2+y,z
1/2+x,1/2-y,z
loop_
_atom_site_type_symbol
_atom_site_label
_atom_site_fract_x
_atom_site_fract_y
_atom_site_fract_z
Si Si1 0.613124 0.181213 0.438690
Si Si2 0.970489 0.810966 0.837792
Si Si3 0.374239 0.284368 0.177080
Si Si4 0.000000 0.000000 0.683331
Si Si5 0.203691 0.124147 0.387817
Si Si6 0.350177 0.551521 0.603110
Si Si7 0.855664 0.941824 0.956697
Si Si8 0.797345 0.003696 0.179891
O O1 0.542332 0.234356 0.389308
O O2 0.595135 0.183301 0.563125
O O3 0.681078 0.250913 0.400456
O O4 0.628862 0.058464 0.404027
O O5 0.931833 0.716146 0.772399
O O6 0.922212 0.864745 0.929970
O O7 0.997267 0.895433 0.752876
O O8 0.341768 0.165048 0.165202
O O9 0.316893 0.374049 0.209589
O O10 0.927356 0.004219 0.614277
O O11 0.161695 0.059173 0.478060
O O12 0.288363 0.114434 0.401764
O O13 0.182733 0.075895 0.274931
O O14 0.286441 0.482911 0.654079
O O15 0.842128 0.955050 0.081508
#
# Coordination Sequence:
#
# PCOD8184777 Si02
#       8
#     8   8   8   4   8   8   8   8
#     4  10  21  39  61  86 121 157 201 251 297 360
#     4  11  20  38  63  89 110 164 204 249 293 359
#     4   9  21  39  59  85 124 152 196 254 300 349
#     4  10  18  36  62  86 110 156 206 238 286 354
#     4  10  21  38  60  89 121 156 193 251 305 346
#     4   9  20  39  61  86 120 154 200 247 292 357
#     4  10  21  39  64  86 119 158 210 242 295 366
#     4  10  21  39  61  90 120 160 194 252 304 355
#
# _framework density 20.358346000000001
#
# number of rings (size 3 to 8) (size 9 to 14) (size 15 to 20)
#    0.000    2.133    1.333    1.600    0.000    3.200 
#    7.200    2.667    0.000    0.000    0.000    0.000 
#    0.000    0.000    0.000    0.000    0.000    0.000 
#
# Total GULP energy -371852.829833 kJ/mol
# GULP energy per Si atom -12395.094328 kJ/mol
# Density = 2.031201 g / cm^3
# Si number density = 20.358346 Si / 1000 Ang^3
#
#
#
# Elastic Constant Matrix: (Units=GPa)
#
#
# Indices 1 2 3 4 5 6 
#
# 1 124.7000 38.7606 36.6739 0.0000 0.0000 0.0000
# 2 38.7606 64.5501 16.5053 0.0000 0.0000 0.0000
# 3 36.6739 16.5053 83.7071 0.0000 0.0000 0.0000
# 4 0.0000 0.0000 0.0000 20.7472 0.0000 0.0000
# 5 0.0000 0.0000 0.0000 0.0000 28.5923 0.0000
# 6 0.0000 0.0000 0.0000 0.0000 0.0000 26.2172
#
#
#
# Elastic Compliance Matrix: (Units=1/GPa)
#
#
# Indices 1 2 3 4 5 6 
#
# 1 0.010821 -0.005566 -0.003643 0.000000 0.000000 0.000000
# 2 -0.005566 0.019177 -0.001343 0.000000 0.000000 0.000000
# 3 -0.003643 -0.001343 0.013807 0.000000 0.000000 0.000000
# 4 0.000000 0.000000 0.000000 0.048199 0.000000 0.000000
# 5 0.000000 0.000000 0.000000 0.000000 0.034974 0.000000
# 6 0.000000 0.000000 0.000000 0.000000 0.000000 0.038143
#
#
# Mechanical properties :
#
#
# Convention : Reuss Voigt Hill
#
# Bulk Modulus (GPa) = 44.05022 50.75966 47.40494
# Shear Modulus (GPa) = 25.80061 27.17915 26.48988
#
# Velocity S-wave (km/s) = 3.56381 3.65778 3.61110
# Velocity P-wave (km/s) = 6.21440 6.54419 6.38142
#
# Compressibility (1/GPa) = 0.02270136
#
# Stress axis : x y z
#
# Youngs Moduli (GPa) = 92.41423 52.14461 72.42482
#
# Poissons Ratio (x) = 0.29024 0.26387
# Poissons Ratio (y) = 0.51438 0.09725
# Poissons Ratio (z) = 0.33670 0.07002
#
# Static dielectric constant tensor:
#      x y z
#    x 4.446200 0.000000 0.000000 
#    y 0.000000 3.664380 0.000000 
#    z 0.000000 0.000000 3.873190 
# 
# 
# High freq. dielectric constant tensor:
#      x y z
#    x 1.794890 0.000000 0.000000 
#    y 0.000000 1.777490 0.000000 
#    z 0.000000 0.000000 1.804830 
# 
# From -- ./inp_files/6280.got.cif
#   From: 2010.03.12/outbox.cif.g09.slc.cpg/sg41_4_cif.got.tgz:6280.got - 2010.04.14 01:55:53.
