data_PCOD8184065
_publ_section_title
;
Structure prediction by ZEFSAII (Michael W. Deem and Ramdas Pophale) SiO2 
 PCOD8184065
Probable space group: A M A 2
;
_chemical_formula_sum "Si O2"
_cell_formula_units_Z 64
_cell_length_a 19.243459
_cell_length_b 15.779341
_cell_length_c 10.668479
_cell_angle_alpha 90.000000
_cell_angle_beta 90.000000
_cell_angle_gamma 90.000000
_cell_volume 3239.474064
_symmetry_space_group_name_H-M "A M A 2"
_symmetry_group_IT_number 40
_symmetry_cell_setting 'orthorhombic'
loop_
_space_group_symop_operation_xyz
x,y,z
-x,-y,z
1/2-x,y,z
1/2+x,-y,z
x,1/2+y,1/2+z
-x,1/2-y,1/2+z
1/2-x,1/2+y,1/2+z
1/2+x,1/2-y,1/2+z
loop_
_atom_site_type_symbol
_atom_site_label
_atom_site_fract_x
_atom_site_fract_y
_atom_site_fract_z
Si Si1 0.426317 0.176600 0.724120
Si Si2 0.673942 0.921412 0.574202
Si Si3 0.327933 0.427862 0.266693
Si Si4 0.066736 0.859749 0.321063
Si Si5 0.572130 0.467966 0.410558
Si Si6 0.168937 0.009210 0.307975
Si Si7 0.073279 0.813615 0.611176
Si Si8 0.071225 0.119544 0.166365
O O1 0.379852 0.153869 0.602711
O O2 0.409652 0.272400 0.759027
O O3 0.404924 0.117746 0.840452
O O4 0.505923 0.160801 0.689652
O O5 0.750000 0.879917 0.558320
O O6 0.673518 0.988371 0.684755
O O7 0.652805 0.972277 0.451768
O O8 0.250000 0.399849 0.305746
O O9 0.371632 0.455777 0.390599
O O10 0.361567 0.351859 0.186586
O O11 0.123680 0.926862 0.274080
O O12 0.065909 0.850835 0.471461
O O13 0.991071 0.886143 0.268002
O O14 0.500000 0.500000 0.351117
O O15 0.559217 0.447613 0.555607
O O16 0.250000 0.992231 0.280023
O O17 0.143097 0.091330 0.231416
O O18 0.080930 0.712389 0.607869
#
# Coordination Sequence:
#
# PCOD8184065 Si02
#       8
#     8   8   8   8   8   8   8   8
#     4  10  21  35  59  94 117 154 201 252 310 362
#     4   9  19  36  58  85 120 153 198 253 302 357
#     4  10  21  37  61  90 118 156 206 254 304 362
#     4  11  22  40  63  91 120 160 208 257 307 366
#     4  11  20  38  61  88 125 162 197 250 307 368
#     4  11  23  41  61  85 119 164 206 251 307 370
#     4  11  21  39  63  88 122 157 207 260 302 360
#     4  11  25  40  60  93 128 163 201 254 317 380
#
# _framework density 19.756292999999999
#
# number of rings (size 3 to 8) (size 9 to 14) (size 15 to 20)
#    0.000    1.500    3.750    1.875    0.000    1.500 
#    0.000    0.000    0.000    0.000    0.000    0.000 
#    0.000    0.000    0.000    0.000    0.000    0.000 
#
# Total GULP energy -396739.433944 kJ/mol
# GULP energy per Si atom -12398.107311 kJ/mol
# Density = 1.971133 g / cm^3
# Si number density = 19.756293 Si / 1000 Ang^3
#
#
#
# Elastic Constant Matrix: (Units=GPa)
#
#
# Indices 1 2 3 4 5 6 
#
# 1 128.0084 56.1201 46.4602 0.0000 0.0000 0.0000
# 2 56.1201 72.4510 40.8720 0.0000 0.0000 0.0000
# 3 46.4602 40.8720 64.1680 0.0000 0.0000 0.0000
# 4 0.0000 0.0000 0.0000 33.5598 0.0000 0.0000
# 5 0.0000 0.0000 0.0000 0.0000 23.6665 0.0000
# 6 0.0000 0.0000 0.0000 0.0000 0.0000 27.6195
#
#
#
# Elastic Compliance Matrix: (Units=1/GPa)
#
#
# Indices 1 2 3 4 5 6 
#
# 1 0.012625 -0.007215 -0.004545 0.000000 0.000000 0.000000
# 2 -0.007215 0.025667 -0.011125 0.000000 0.000000 0.000000
# 3 -0.004545 -0.011125 0.025961 0.000000 0.000000 0.000000
# 4 0.000000 0.000000 0.000000 0.029798 0.000000 0.000000
# 5 0.000000 0.000000 0.000000 0.000000 0.042254 0.000000
# 6 0.000000 0.000000 0.000000 0.000000 0.000000 0.036206
#
#
# Mechanical properties :
#
#
# Convention : Reuss Voigt Hill
#
# Bulk Modulus (GPa) = 54.10432 61.28135 57.69283
# Shear Modulus (GPa) = 22.27756 25.04750 23.66253
#
# Velocity S-wave (km/s) = 3.36165 3.56451 3.46457
# Velocity P-wave (km/s) = 6.52019 6.93015 6.72829
#
# Compressibility (1/GPa) = 0.01848281
#
# Stress axis : x y z
#
# Youngs Moduli (GPa) = 79.20933 38.96070 38.51940
#
# Poissons Ratio (x) = 0.28110 0.17508
# Poissons Ratio (y) = 0.57149 0.42852
# Poissons Ratio (z) = 0.36003 0.43343
#
# Static dielectric constant tensor:
#      x y z
#    x 3.776820 0.000000 0.000000 
#    y 0.000000 3.506650 0.000000 
#    z 0.000000 0.000000 3.583680 
# 
# 
# High freq. dielectric constant tensor:
#      x y z
#    x 1.768910 0.000000 0.000000 
#    y 0.000000 1.768440 0.000000 
#    z 0.000000 0.000000 1.768640 
# 
# From -- ./inp_files/13158.got.cif
#   From: 2010.03.12/outbox.cif.g09.slc.cpg/sg40_7_cif.got.tgz:13158.got - 2010.04.14 01:38:03.
