data_PCOD8184399
_publ_section_title
;
Structure prediction by ZEFSAII (Michael W. Deem and Ramdas Pophale) SiO2 
 PCOD8184399
Probable space group: A M A 2
;
_chemical_formula_sum "Si O2"
_cell_formula_units_Z 40
_cell_length_a 9.874785
_cell_length_b 15.686962
_cell_length_c 12.496286
_cell_angle_alpha 90.000000
_cell_angle_beta 90.000000
_cell_angle_gamma 90.000000
_cell_volume 1935.741895
_symmetry_space_group_name_H-M "A M A 2"
_symmetry_group_IT_number 40
_symmetry_cell_setting 'orthorhombic'
loop_
_space_group_symop_operation_xyz
x,y,z
-x,-y,z
1/2-x,y,z
1/2+x,-y,z
x,1/2+y,1/2+z
-x,1/2-y,1/2+z
1/2-x,1/2+y,1/2+z
1/2+x,1/2-y,1/2+z
loop_
_atom_site_type_symbol
_atom_site_label
_atom_site_fract_x
_atom_site_fract_y
_atom_site_fract_z
Si Si1 0.750000 0.587369 0.528321
Si Si2 0.094922 0.648943 0.034138
Si Si3 0.250000 0.095679 0.085472
Si Si4 0.518368 0.822619 0.968029
Si Si5 0.750000 0.035153 0.255618
Si Si6 0.500000 0.500000 0.890769
Si Si7 0.905901 0.918656 0.762858
O O1 0.750000 0.485741 0.503946
O O2 0.620633 0.627195 0.474085
O O3 0.750000 0.602560 0.657217
O O4 0.250000 0.680573 0.035935
O O5 0.002714 0.721938 0.981303
O O6 0.082588 0.565529 0.962493
O O7 0.044863 0.626361 0.153432
O O8 0.250000 0.061991 0.207868
O O9 0.384159 0.150146 0.065207
O O10 0.584200 0.846195 0.854306
O O11 0.612381 0.049685 0.321190
O O12 0.750000 0.949140 0.751309
O O13 0.000000 0.000000 0.788290
#
# Coordination Sequence:
#
# PCOD8184399 Si02
#       7
#     4   8   4   8   4   4   8
#     4  10  22  41  68  99 138 181 218 282 352 403
#     4  11  26  48  69 101 138 180 239 286 337 415
#     4  10  22  41  62 109 134 171 230 274 340 421
#     4  12  23  43  71 102 140 179 227 293 334 406
#     4  10  24  38  70  98 134 182 222 282 334 414
#     4  12  22  48  68  92 138 188 228 280 348 410
#     4  11  25  46  73 102 137 187 229 281 354 416
#
# _framework density 20.663913000000001
#
# number of rings (size 3 to 8) (size 9 to 14) (size 15 to 20)
#    0.600    0.400    4.000    3.000    1.400    4.000 
#    1.800    0.000    0.000    0.000    0.000    0.000 
#    0.000    0.000    0.000    0.000    0.000    0.000 
#
# Total GULP energy -248045.737828 kJ/mol
# GULP energy per Si atom -12402.286891 kJ/mol
# Density = 2.061688 g / cm^3
# Si number density = 20.663913 Si / 1000 Ang^3
#
#
#
# Elastic Constant Matrix: (Units=GPa)
#
#
# Indices 1 2 3 4 5 6 
#
# 1 103.1396 12.7441 12.4510 0.0000 0.0000 0.0000
# 2 12.7441 89.4767 16.4754 0.0000 0.0000 0.0000
# 3 12.4510 16.4754 99.6567 0.0000 0.0000 0.0000
# 4 0.0000 0.0000 0.0000 31.8524 0.0000 0.0000
# 5 0.0000 0.0000 0.0000 0.0000 34.5356 0.0000
# 6 0.0000 0.0000 0.0000 0.0000 0.0000 34.9116
#
#
#
# Elastic Compliance Matrix: (Units=1/GPa)
#
#
# Indices 1 2 3 4 5 6 
#
# 1 0.009973 -0.001228 -0.001043 0.000000 0.000000 0.000000
# 2 -0.001228 0.011678 -0.001777 0.000000 0.000000 0.000000
# 3 -0.001043 -0.001777 0.010459 0.000000 0.000000 0.000000
# 4 0.000000 0.000000 0.000000 0.031395 0.000000 0.000000
# 5 0.000000 0.000000 0.000000 0.000000 0.028956 0.000000
# 6 0.000000 0.000000 0.000000 0.000000 0.000000 0.028644
#
#
# Mechanical properties :
#
#
# Convention : Reuss Voigt Hill
#
# Bulk Modulus (GPa) = 41.64422 41.73490 41.68956
# Shear Modulus (GPa) = 36.44159 36.96676 36.70417
#
# Velocity S-wave (km/s) = 4.20401 4.23419 4.21912
# Velocity P-wave (km/s) = 6.61527 6.64419 6.62975
#
# Compressibility (1/GPa) = 0.02401294
#
# Stress axis : x y z
#
# Youngs Moduli (GPa) = 100.26776 85.62891 95.61544
#
# Poissons Ratio (x) = 0.10519 0.09972
# Poissons Ratio (y) = 0.12317 0.16993
# Poissons Ratio (z) = 0.10458 0.15218
#
# Static dielectric constant tensor:
#      x y z
#    x 3.617890 0.000000 0.000000 
#    y 0.000000 3.513420 0.000000 
#    z 0.000000 0.000000 3.738920 
# 
# 
# High freq. dielectric constant tensor:
#      x y z
#    x 1.818580 0.000000 0.000000 
#    y 0.000000 1.790790 0.000000 
#    z 0.000000 0.000000 1.813040 
# 
# From -- ./inp_files/10049.got.cif
#   From: 2010.03.12/outbox.cif.g09.slc.cpg/sg40_6_cif.got.tgz:10049.got - 2010.04.14 01:38:03.
