data_PCOD8184662
_publ_section_title
;
Structure prediction by ZEFSAII (Michael W. Deem and Ramdas Pophale) SiO2 
 PCOD8184662
Probable space group: A M A 2
;
_chemical_formula_sum "Si O2"
_cell_formula_units_Z 28
_cell_length_a 13.805588
_cell_length_b 11.282826
_cell_length_c 7.384075
_cell_angle_alpha 90.000000
_cell_angle_beta 90.000000
_cell_angle_gamma 90.000000
_cell_volume 1150.188175
_symmetry_space_group_name_H-M "A M A 2"
_symmetry_group_IT_number 40
_symmetry_cell_setting 'orthorhombic'
loop_
_space_group_symop_operation_xyz
x,y,z
-x,-y,z
1/2-x,y,z
1/2+x,-y,z
x,1/2+y,1/2+z
-x,1/2-y,1/2+z
1/2-x,1/2+y,1/2+z
1/2+x,1/2-y,1/2+z
loop_
_atom_site_type_symbol
_atom_site_label
_atom_site_fract_x
_atom_site_fract_y
_atom_site_fract_z
Si Si1 0.053193 0.394877 0.132270
Si Si2 0.250000 0.995509 0.737024
Si Si3 0.750000 0.497542 0.663646
Si Si4 0.750000 0.250260 0.098770
Si Si5 0.410160 0.167536 0.337273
O O1 0.163723 0.436825 0.121219
O O2 0.041012 0.262567 0.204501
O O3 0.000000 0.500000 0.249899
O O4 0.001819 0.602661 0.938312
O O5 0.250000 0.136680 0.728910
O O6 0.250000 0.969946 0.949126
O O7 0.750000 0.634694 0.731434
O O8 0.654155 0.428103 0.726399
O O9 0.655184 0.255690 0.973285
#
# Coordination Sequence:
#
# PCOD8184662 Si02
#       5
#     8   4   4   4   8
#     4  12  27  50  75 116 153 195 261 320 376 459
#     4  12  25  52  78 107 161 199 253 318 384 445
#     4  11  26  51  80 110 158 205 248 314 387 462
#     4  11  23  51  74 109 153 202 253 308 381 457
#     4  11  27  47  77 117 150 200 262 306 387 445
#
# _framework density 24.343841999999999
#
# number of rings (size 3 to 8) (size 9 to 14) (size 15 to 20)
#    0.000    0.571    5.714    0.857    4.000    4.571 
#    0.000    1.429    0.000    0.000    0.000    0.000 
#    0.000    0.000    0.000    0.000    0.000    0.000 
#
# Total GULP energy -173486.387837 kJ/mol
# GULP energy per Si atom -12391.884846 kJ/mol
# Density = 2.428843 g / cm^3
# Si number density = 24.343842 Si / 1000 Ang^3
#
#
#
# Elastic Constant Matrix: (Units=GPa)
#
#
# Indices 1 2 3 4 5 6 
#
# 1 178.6842 68.2232 68.8592 0.0000 0.0000 0.0000
# 2 68.2232 211.2621 58.8757 0.0000 0.0000 0.0000
# 3 68.8592 58.8757 80.1953 0.0000 0.0000 0.0000
# 4 0.0000 0.0000 0.0000 35.0959 0.0000 0.0000
# 5 0.0000 0.0000 0.0000 0.0000 26.9281 0.0000
# 6 0.0000 0.0000 0.0000 0.0000 0.0000 46.2858
#
#
#
# Elastic Compliance Matrix: (Units=1/GPa)
#
#
# Indices 1 2 3 4 5 6 
#
# 1 0.008496 -0.000893 -0.006639 0.000000 0.000000 0.000000
# 2 -0.000893 0.006045 -0.003671 0.000000 0.000000 0.000000
# 3 -0.006639 -0.003671 0.020865 0.000000 0.000000 0.000000
# 4 0.000000 0.000000 0.000000 0.028493 0.000000 0.000000
# 5 0.000000 0.000000 0.000000 0.000000 0.037136 0.000000
# 6 0.000000 0.000000 0.000000 0.000000 0.000000 0.021605
#
#
# Mechanical properties :
#
#
# Convention : Reuss Voigt Hill
#
# Bulk Modulus (GPa) = 76.92659 95.78419 86.35539
# Shear Modulus (GPa) = 33.47151 39.94085 36.70618
#
# Velocity S-wave (km/s) = 3.71205 4.05495 3.88728
# Velocity P-wave (km/s) = 7.07397 7.83296 7.46312
#
# Compressibility (1/GPa) = 0.01299941
#
# Stress axis : x y z
#
# Youngs Moduli (GPa) = 117.70067 165.42672 47.92651
#
# Poissons Ratio (x) = 0.14779 0.31820
# Poissons Ratio (y) = 0.10515 0.17593
# Poissons Ratio (z) = 0.78144 0.60725
#
# Static dielectric constant tensor:
#      x y z
#    x 4.556370 0.000000 0.000000 
#    y 0.000000 4.817190 0.000000 
#    z 0.000000 0.000000 4.094970 
# 
# 
# High freq. dielectric constant tensor:
#      x y z
#    x 1.977320 0.000000 0.000000 
#    y 0.000000 2.007490 0.000000 
#    z 0.000000 0.000000 1.932680 
# 
# From -- ./inp_files/5858.got.cif
#   From: 2010.03.12/outbox.cif.g09.slc.cpg/sg40_3_cif.got.tgz:5858.got - 2010.04.14 01:38:03.
