data_PCOD8184814
_publ_section_title
;
Structure prediction by ZEFSAII (Michael W. Deem and Ramdas Pophale) SiO2 
 PCOD8184814
Probable space group: A B A 2
;
_chemical_formula_sum "Si O2"
_cell_formula_units_Z 64
_cell_length_a 23.279428
_cell_length_b 8.253919
_cell_length_c 16.482479
_cell_angle_alpha 90.000000
_cell_angle_beta 90.000000
_cell_angle_gamma 90.000000
_cell_volume 3167.050867
_symmetry_space_group_name_H-M "A B A 2"
_symmetry_group_IT_number 41
_symmetry_cell_setting 'orthorhombic'
loop_
_space_group_symop_operation_xyz
x,y,z
-x,-y,z
1/2-x,y,1/2+z
1/2+x,-y,1/2+z
x,1/2+y,1/2+z
-x,1/2-y,1/2+z
1/2-x,1/2+y,z
1/2+x,1/2-y,z
loop_
_atom_site_type_symbol
_atom_site_label
_atom_site_fract_x
_atom_site_fract_y
_atom_site_fract_z
Si Si1 0.118934 0.234072 0.619320
Si Si2 0.301678 0.212151 0.796466
Si Si3 0.177020 0.840063 0.276408
Si Si4 0.491995 0.313948 0.600966
Si Si5 0.109444 0.399885 0.195370
Si Si6 0.507704 0.818204 0.916727
Si Si7 0.627423 0.174240 0.440645
Si Si8 0.587048 0.388437 0.849194
O O1 0.152899 0.337047 0.685283
O O2 0.144639 0.289194 0.533040
O O3 0.050645 0.279595 0.625358
O O4 0.128320 0.039987 0.631235
O O5 0.234951 0.236556 0.780059
O O6 0.336026 0.294567 0.722344
O O7 0.318476 0.291424 0.882626
O O8 0.313593 0.022601 0.803150
O O9 0.132210 0.756112 0.336922
O O10 0.500000 0.500000 0.622610
O O11 0.435745 0.270711 0.655024
O O12 0.480194 0.291646 0.505752
O O13 0.082810 0.490434 0.273271
O O14 0.575455 0.790932 0.914425
O O15 0.475829 0.689884 0.859235
O O16 0.500000 0.000000 0.884731
O O17 0.606616 0.988437 0.429090
#
# Coordination Sequence:
#
# PCOD8184814 Si02
#       8
#     8   8   8   8   8   8   8   8
#     4   9  19  37  59  85 116 148 185 228 276 338
#     4  11  23  41  60  82 111 148 191 237 285 337
#     4  11  23  41  59  81 111 146 192 240 283 336
#     4   8  16  32  55  82 115 148 180 220 273 331
#     4   9  19  36  59  84 113 152 186 227 285 340
#     4  10  19  33  55  86 118 149 187 233 281 338
#     4  10  21  38  59  84 116 152 187 230 285 341
#     4  10  21  36  57  84 114 151 190 235 285 337
#
# _framework density 20.208072999999999
#
# number of rings (size 3 to 8) (size 9 to 14) (size 15 to 20)
#    0.000    2.250    0.000    4.125    0.000   10.000 
#    0.000    9.375    0.000    3.000    0.000    0.000 
#    0.000    0.000    0.000    0.000    0.000    0.000 
#
# Total GULP energy -396759.711338 kJ/mol
# GULP energy per Si atom -12398.740979 kJ/mol
# Density = 2.016208 g / cm^3
# Si number density = 20.208073 Si / 1000 Ang^3
#
#
#
# Elastic Constant Matrix: (Units=GPa)
#
#
# Indices 1 2 3 4 5 6 
#
# 1 47.9324 -7.4626 20.5213 0.0000 0.0000 0.0000
# 2 -7.4626 73.8616 18.4138 0.0000 0.0000 0.0000
# 3 20.5213 18.4138 85.5410 0.0000 0.0000 0.0000
# 4 0.0000 0.0000 0.0000 31.1792 0.0000 0.0000
# 5 0.0000 0.0000 0.0000 0.0000 22.5621 0.0000
# 6 0.0000 0.0000 0.0000 0.0000 0.0000 29.6476
#
#
#
# Elastic Compliance Matrix: (Units=1/GPa)
#
#
# Indices 1 2 3 4 5 6 
#
# 1 0.024396 0.004146 -0.006745 0.000000 0.000000 0.000000
# 2 0.004146 0.015011 -0.004226 0.000000 0.000000 0.000000
# 3 -0.006745 -0.004226 0.014218 0.000000 0.000000 0.000000
# 4 0.000000 0.000000 0.000000 0.032073 0.000000 0.000000
# 5 0.000000 0.000000 0.000000 0.000000 0.044322 0.000000
# 6 0.000000 0.000000 0.000000 0.000000 0.000000 0.033730
#
#
# Mechanical properties :
#
#
# Convention : Reuss Voigt Hill
#
# Bulk Modulus (GPa) = 25.01507 30.03111 27.52309
# Shear Modulus (GPa) = 26.21576 28.40195 27.30885
#
# Velocity S-wave (km/s) = 3.60570 3.75303 3.68010
# Velocity P-wave (km/s) = 5.45348 5.80289 5.63089
#
# Compressibility (1/GPa) = 0.03997589
#
# Stress axis : x y z
#
# Youngs Moduli (GPa) = 40.99016 66.61624 70.33240
#
# Poissons Ratio (x) = -0.27622 0.47441
# Poissons Ratio (y) = -0.16996 0.29723
# Poissons Ratio (z) = 0.27649 0.28153
#
# Static dielectric constant tensor:
#      x y z
#    x 3.721860 0.000000 0.000000 
#    y 0.000000 3.620400 0.000000 
#    z 0.000000 0.000000 3.715810 
# 
# 
# High freq. dielectric constant tensor:
#      x y z
#    x 1.781260 0.000000 0.000000 
#    y 0.000000 1.781660 0.000000 
#    z 0.000000 0.000000 1.783000 
# 
# From -- ./inp_files/10760.got.cif
#   From: 2010.03.12/outbox.cif.g09.slc.cpg/sg41_6_cif.got.tgz:10760.got - 2010.04.14 01:55:53.
