data_PCOD8184851
_publ_section_title
;
Structure prediction by ZEFSAII (Michael W. Deem and Ramdas Pophale) SiO2 
 PCOD8184851
Probable space group: A B A 2
;
_chemical_formula_sum "Si O2"
_cell_formula_units_Z 64
_cell_length_a 5.146204
_cell_length_b 33.160255
_cell_length_c 16.862765
_cell_angle_alpha 90.000000
_cell_angle_beta 90.000000
_cell_angle_gamma 90.000000
_cell_volume 2877.621352
_symmetry_space_group_name_H-M "A B A 2"
_symmetry_group_IT_number 41
_symmetry_cell_setting 'orthorhombic'
loop_
_space_group_symop_operation_xyz
x,y,z
-x,-y,z
1/2-x,y,1/2+z
1/2+x,-y,1/2+z
x,1/2+y,1/2+z
-x,1/2-y,1/2+z
1/2-x,1/2+y,z
1/2+x,1/2-y,z
loop_
_atom_site_type_symbol
_atom_site_label
_atom_site_fract_x
_atom_site_fract_y
_atom_site_fract_z
Si Si1 0.991946 0.727662 0.894170
Si Si2 0.271252 0.645182 0.373583
Si Si3 0.946434 0.725914 0.081654
Si Si4 0.830071 0.135167 0.622577
Si Si5 0.740845 0.609786 0.799349
Si Si6 0.183431 0.110070 0.034625
Si Si7 0.254264 0.984006 0.305257
Si Si8 0.253130 0.019756 0.481522
O O1 0.196049 0.762833 0.867858
O O2 0.111352 0.688718 0.851169
O O3 0.970913 0.721496 0.987799
O O4 0.480401 0.614310 0.340119
O O5 0.250402 0.643497 0.468670
O O6 0.986537 0.636647 0.338036
O O7 0.225745 0.742413 0.110691
O O8 0.870259 0.683152 0.119751
O O9 0.736287 0.121350 0.708181
O O10 0.609570 0.118849 0.562698
O O11 0.106895 0.114184 0.604792
O O12 0.696919 0.562978 0.814756
O O13 0.219766 0.067386 0.991877
O O14 0.500000 0.000000 0.255260
O O15 0.250811 0.008051 0.388953
O O16 0.000000 0.000000 0.258478
O O17 0.500000 0.000000 0.524952
O O18 0.000000 0.000000 0.522739
#
# Coordination Sequence:
#
# PCOD8184851 Si02
#       8
#     8   8   8   8   8   8   8   8
#     4  10  21  37  62  98 132 166 223 287 333 388
#     4  12  23  42  68  99 126 181 226 279 338 409
#     4  10  21  40  67  94 131 182 227 270 332 409
#     4  12  26  45  64 105 140 177 224 288 343 405
#     4  12  26  44  68  98 143 178 220 279 354 415
#     4  12  24  41  71  97 131 171 234 288 332 393
#     4  10  20  39  64  90 122 172 223 263 321 413
#     4  10  19  36  60  93 123 159 217 278 323 390
#
# _framework density 22.240590000000001
#
# number of rings (size 3 to 8) (size 9 to 14) (size 15 to 20)
#    0.000    1.000    1.250    7.500    3.500    0.000 
#    0.000    7.500    0.000    0.000    0.000    0.000 
#    0.000    0.000    0.000    0.000    0.000    0.000 
#
# Total GULP energy -396591.824585 kJ/mol
# GULP energy per Si atom -12393.494518 kJ/mol
# Density = 2.218997 g / cm^3
# Si number density = 22.240590 Si / 1000 Ang^3
#
#
#
# Elastic Constant Matrix: (Units=GPa)
#
#
# Indices 1 2 3 4 5 6 
#
# 1 141.1438 28.5093 29.0580 0.0000 0.0000 0.0000
# 2 28.5093 125.9034 15.8323 0.0000 0.0000 0.0000
# 3 29.0580 15.8323 51.7277 0.0000 0.0000 0.0000
# 4 0.0000 0.0000 0.0000 15.4285 0.0000 0.0000
# 5 0.0000 0.0000 0.0000 0.0000 26.8998 0.0000
# 6 0.0000 0.0000 0.0000 0.0000 0.0000 41.9534
#
#
#
# Elastic Compliance Matrix: (Units=1/GPa)
#
#
# Indices 1 2 3 4 5 6 
#
# 1 0.008221 -0.001332 -0.004210 0.000000 0.000000 0.000000
# 2 -0.001332 0.008476 -0.001846 0.000000 0.000000 0.000000
# 3 -0.004210 -0.001846 0.022262 0.000000 0.000000 0.000000
# 4 0.000000 0.000000 0.000000 0.064815 0.000000 0.000000
# 5 0.000000 0.000000 0.000000 0.000000 0.037175 0.000000
# 6 0.000000 0.000000 0.000000 0.000000 0.000000 0.023836
#
#
# Mechanical properties :
#
#
# Convention : Reuss Voigt Hill
#
# Bulk Modulus (GPa) = 41.35235 51.73046 46.54141
# Shear Modulus (GPa) = 26.64912 33.21468 29.93190
#
# Velocity S-wave (km/s) = 3.46529 3.86868 3.67253
# Velocity P-wave (km/s) = 5.88596 6.57766 6.24140
#
# Compressibility (1/GPa) = 0.02418242
#
# Stress axis : x y z
#
# Youngs Moduli (GPa) = 121.64211 117.97500 44.91921
#
# Poissons Ratio (x) = 0.15715 0.18913
# Poissons Ratio (y) = 0.16203 0.08292
# Poissons Ratio (z) = 0.51216 0.21779
#
# Static dielectric constant tensor:
#      x y z
#    x 6.423670 0.000000 0.000000 
#    y 0.000000 3.982740 0.000000 
#    z 0.000000 0.000000 3.523380 
# 
# 
# High freq. dielectric constant tensor:
#      x y z
#    x 1.911460 0.000000 0.000000 
#    y 0.000000 1.887830 0.000000 
#    z 0.000000 0.000000 1.826650 
# 
# From -- ./inp_files/9523.got.cif
#   From: 2010.03.12/outbox.cif.g09.slc.cpg/sg41_5_cif.got.tgz:9523.got - 2010.04.14 01:55:53.
