data_PCOD8184744
_publ_section_title
;
Structure prediction by ZEFSAII (Michael W. Deem and Ramdas Pophale) SiO2 
 PCOD8184744
Probable space group: A B A 2
;
_chemical_formula_sum "Si O2"
_cell_formula_units_Z 64
_cell_length_a 8.262791
_cell_length_b 17.107120
_cell_length_c 21.083617
_cell_angle_alpha 90.000000
_cell_angle_beta 90.000000
_cell_angle_gamma 90.000000
_cell_volume 2980.223177
_symmetry_space_group_name_H-M "A B A 2"
_symmetry_group_IT_number 41
_symmetry_cell_setting 'orthorhombic'
loop_
_space_group_symop_operation_xyz
x,y,z
-x,-y,z
1/2-x,y,1/2+z
1/2+x,-y,1/2+z
x,1/2+y,1/2+z
-x,1/2-y,1/2+z
1/2-x,1/2+y,z
1/2+x,1/2-y,z
loop_
_atom_site_type_symbol
_atom_site_label
_atom_site_fract_x
_atom_site_fract_y
_atom_site_fract_z
Si Si1 0.691752 0.489902 0.700750
Si Si2 0.293841 0.136933 0.952234
Si Si3 0.611484 0.692572 0.832390
Si Si4 0.735329 0.869422 0.588316
Si Si5 0.265276 0.834115 0.702596
Si Si6 0.003261 0.752394 0.628283
Si Si7 0.136614 0.061050 0.837276
Si Si8 0.398566 0.290174 0.413232
O O1 0.500000 0.500000 0.692126
O O2 0.756643 0.432499 0.645503
O O3 0.784703 0.572410 0.698944
O O4 0.729805 0.459608 0.772015
O O5 0.262642 0.076317 0.894457
O O6 0.173284 0.212100 0.946243
O O7 0.486849 0.158011 0.958891
O O8 0.251191 0.092332 0.018377
O O9 0.703347 0.703260 0.767228
O O10 0.461005 0.637870 0.820739
O O11 0.747222 0.662052 0.883418
O O12 0.532685 0.772353 0.858012
O O13 0.872597 0.803033 0.591328
O O14 0.566653 0.821940 0.588200
O O15 0.432212 0.788615 0.691626
O O16 0.144104 0.812001 0.646188
O O17 0.000000 0.000000 0.858941
#
# Coordination Sequence:
#
# PCOD8184744 Si02
#       8
#     8   8   8   8   8   8   8   8
#     4  11  21  40  65  86 124 166 201 249 318 365
#     4  10  21  39  62  85 121 158 199 253 304 369
#     4  10  17  32  58  85 117 149 193 242 305 361
#     4  11  22  41  62  91 121 165 206 252 308 370
#     4  11  20  38  61  90 122 158 201 256 309 369
#     4  10  23  36  61  91 119 156 210 256 303 365
#     4  10  20  39  60  80 116 166 197 238 307 364
#     4   9  20  34  57  91 116 149 198 255 307 354
#
# _framework density 21.474902
#
# number of rings (size 3 to 8) (size 9 to 14) (size 15 to 20)
#    0.000    1.750    3.750    1.500    0.000    6.500 
#    2.250    1.875    0.000    0.000    0.000    0.000 
#    0.000    0.000    0.000    0.000    0.000    0.000 
#
# Total GULP energy -396418.820334 kJ/mol
# GULP energy per Si atom -12388.088135 kJ/mol
# Density = 2.142602 g / cm^3
# Si number density = 21.474902 Si / 1000 Ang^3
#
#
#
# Elastic Constant Matrix: (Units=GPa)
#
#
# Indices 1 2 3 4 5 6 
#
# 1 55.0666 13.6781 16.0851 0.0000 0.0000 0.0000
# 2 13.6781 70.1839 38.0304 0.0000 0.0000 0.0000
# 3 16.0851 38.0304 123.8028 0.0000 0.0000 0.0000
# 4 0.0000 0.0000 0.0000 11.9959 0.0000 0.0000
# 5 0.0000 0.0000 0.0000 0.0000 21.6080 0.0000
# 6 0.0000 0.0000 0.0000 0.0000 0.0000 16.5888
#
#
#
# Elastic Compliance Matrix: (Units=1/GPa)
#
#
# Indices 1 2 3 4 5 6 
#
# 1 0.019353 -0.002890 -0.001627 0.000000 0.000000 0.000000
# 2 -0.002890 0.017525 -0.005008 0.000000 0.000000 0.000000
# 3 -0.001627 -0.005008 0.009827 0.000000 0.000000 0.000000
# 4 0.000000 0.000000 0.000000 0.083362 0.000000 0.000000
# 5 0.000000 0.000000 0.000000 0.000000 0.046279 0.000000
# 6 0.000000 0.000000 0.000000 0.000000 0.000000 0.060282
#
#
# Mechanical properties :
#
#
# Convention : Reuss Voigt Hill
#
# Bulk Modulus (GPa) = 36.15916 42.73785 39.44851
# Shear Modulus (GPa) = 18.87535 22.12253 20.49894
#
# Velocity S-wave (km/s) = 2.96792 3.21309 3.09294
# Velocity P-wave (km/s) = 5.34969 5.80601 5.58251
#
# Compressibility (1/GPa) = 0.02765551
#
# Stress axis : x y z
#
# Youngs Moduli (GPa) = 51.67190 57.06066 101.75980
#
# Poissons Ratio (x) = 0.16492 0.16552
# Poissons Ratio (y) = 0.14935 0.50961
# Poissons Ratio (z) = 0.08405 0.28576
#
# Static dielectric constant tensor:
#      x y z
#    x 4.046920 0.000000 0.000000 
#    y 0.000000 6.107850 0.000000 
#    z 0.000000 0.000000 3.987900 
# 
# 
# High freq. dielectric constant tensor:
#      x y z
#    x 1.844310 0.000000 0.000000 
#    y 0.000000 1.817210 0.000000 
#    z 0.000000 0.000000 1.839330 
# 
# From -- ./inp_files/11277.got.cif
#   From: 2010.03.12/outbox.cif.g09.slc.cpg/sg41_6_cif.got.tgz:11277.got - 2010.04.14 01:55:53.
