data_PCOD8184342
_publ_section_title
;
Structure prediction by ZEFSAII (Michael W. Deem and Ramdas Pophale) SiO2 
 PCOD8184342
Probable space group: A M A 2
;
_chemical_formula_sum "Si O2"
_cell_formula_units_Z 48
_cell_length_a 9.397368
_cell_length_b 22.896591
_cell_length_c 11.686826
_cell_angle_alpha 90.000000
_cell_angle_beta 90.000000
_cell_angle_gamma 90.000000
_cell_volume 2514.627372
_symmetry_space_group_name_H-M "A M A 2"
_symmetry_group_IT_number 40
_symmetry_cell_setting 'orthorhombic'
loop_
_space_group_symop_operation_xyz
x,y,z
-x,-y,z
1/2-x,y,z
1/2+x,-y,z
x,1/2+y,1/2+z
-x,1/2-y,1/2+z
1/2-x,1/2+y,1/2+z
1/2+x,1/2-y,1/2+z
loop_
_atom_site_type_symbol
_atom_site_label
_atom_site_fract_x
_atom_site_fract_y
_atom_site_fract_z
Si Si1 0.080807 0.562186 0.659120
Si Si2 0.581335 0.125892 0.962920
Si Si3 0.418446 0.273903 0.295871
Si Si4 0.097464 0.949725 0.752190
Si Si5 0.915230 0.352936 0.862890
Si Si6 0.906591 0.655957 0.086317
O O1 0.250000 0.553700 0.635630
O O2 0.054773 0.591041 0.783375
O O3 0.000000 0.500000 0.652533
O O4 0.014047 0.609504 0.572106
O O5 0.750000 0.125616 0.993250
O O6 0.533609 0.188476 0.907931
O O7 0.540183 0.077238 0.869918
O O8 0.250000 0.282208 0.286536
O O9 0.469492 0.207337 0.305518
O O10 0.479344 0.297513 0.174172
O O11 0.250000 0.978096 0.777957
O O12 0.112603 0.903057 0.654266
O O13 0.000000 0.000000 0.704010
O O14 0.750000 0.346707 0.890145
O O15 0.993946 0.359746 0.981573
O O16 0.750000 0.677026 0.043261
#
# Coordination Sequence:
#
# PCOD8184342 Si02
#       6
#     8   8   8   8   8   8
#     4  11  24  39  56  81 116 155 194 235 278 329
#     4   9  18  35  59  84 111 144 181 227 282 336
#     4   8  17  36  59  82 112 144 177 226 288 340
#     4   9  18  32  52  79 107 139 176 220 273 321
#     4  10  22  38  56  80 111 147 185 230 278 329
#     4   9  19  36  56  78 106 141 180 221 273 335
#
# _framework density 19.088315999999999
#
# number of rings (size 3 to 8) (size 9 to 14) (size 15 to 20)
#    0.000    2.667    0.000    3.000    2.333    4.667 
#    0.000    6.667    0.000    0.000    0.000    0.000 
#    0.000    0.000    0.000    0.000    0.000    0.000 
#
# Total GULP energy -297399.462948 kJ/mol
# GULP energy per Si atom -12391.644289 kJ/mol
# Density = 1.904487 g / cm^3
# Si number density = 19.088316 Si / 1000 Ang^3
#
#
#
# Elastic Constant Matrix: (Units=GPa)
#
#
# Indices 1 2 3 4 5 6 
#
# 1 62.2329 30.3109 41.8033 0.0000 0.0000 0.0000
# 2 30.3109 71.1257 14.1280 0.0000 0.0000 0.0000
# 3 41.8033 14.1280 105.3779 0.0000 0.0000 0.0000
# 4 0.0000 0.0000 0.0000 3.1152 0.0000 0.0000
# 5 0.0000 0.0000 0.0000 0.0000 26.8681 0.0000
# 6 0.0000 0.0000 0.0000 0.0000 0.0000 23.1105
#
#
#
# Elastic Compliance Matrix: (Units=1/GPa)
#
#
# Indices 1 2 3 4 5 6 
#
# 1 0.027150 -0.009689 -0.009471 0.000000 0.000000 0.000000
# 2 -0.009689 0.017902 0.001443 0.000000 0.000000 0.000000
# 3 -0.009471 0.001443 0.013053 0.000000 0.000000 0.000000
# 4 0.000000 0.000000 0.000000 0.321011 0.000000 0.000000
# 5 0.000000 0.000000 0.000000 0.000000 0.037219 0.000000
# 6 0.000000 0.000000 0.000000 0.000000 0.000000 0.043270
#
#
# Mechanical properties :
#
#
# Convention : Reuss Voigt Hill
#
# Bulk Modulus (GPa) = 44.10789 45.69121 44.89955
# Shear Modulus (GPa) = 9.94835 20.78505 15.36670
#
# Velocity S-wave (km/s) = 2.28540 3.30341 2.84039
# Velocity P-wave (km/s) = 5.48831 6.20796 5.85919
#
# Compressibility (1/GPa) = 0.02267168
#
# Stress axis : x y z
#
# Youngs Moduli (GPa) = 36.83274 55.86005 76.60846
#
# Poissons Ratio (x) = 0.54122 0.72558
# Poissons Ratio (y) = 0.35687 -0.11058
# Poissons Ratio (z) = 0.34885 -0.08063
#
# Static dielectric constant tensor:
#      x y z
#    x 3.487470 0.000000 0.000000 
#    y 0.000000 3.526680 0.000000 
#    z 0.000000 0.000000 3.536940 
# 
# 
# High freq. dielectric constant tensor:
#      x y z
#    x 1.723800 0.000000 0.000000 
#    y 0.000000 1.745010 0.000000 
#    z 0.000000 0.000000 1.741250 
# 
# From -- ./inp_files/10236.got.cif
#   From: 2010.03.12/outbox.cif.g09.slc.cpg/sg40_6_cif.got.tgz:10236.got - 2010.04.14 01:38:03.
