data_PCOD8184053
_publ_section_title
;
Structure prediction by ZEFSAII (Michael W. Deem and Ramdas Pophale) SiO2 
 PCOD8184053
Probable space group: A M A 2
;
_chemical_formula_sum "Si O2"
_cell_formula_units_Z 48
_cell_length_a 9.492034
_cell_length_b 22.862538
_cell_length_c 11.806550
_cell_angle_alpha 90.000000
_cell_angle_beta 90.000000
_cell_angle_gamma 90.000000
_cell_volume 2562.162887
_symmetry_space_group_name_H-M "A M A 2"
_symmetry_group_IT_number 40
_symmetry_cell_setting 'orthorhombic'
loop_
_space_group_symop_operation_xyz
x,y,z
-x,-y,z
1/2-x,y,z
1/2+x,-y,z
x,1/2+y,1/2+z
-x,1/2-y,1/2+z
1/2-x,1/2+y,1/2+z
1/2+x,1/2-y,1/2+z
loop_
_atom_site_type_symbol
_atom_site_label
_atom_site_fract_x
_atom_site_fract_y
_atom_site_fract_z
Si Si1 0.585812 0.655150 0.152800
Si Si2 0.918891 0.233528 0.101500
Si Si3 0.584295 0.060850 0.470923
Si Si4 0.903313 0.551840 0.566431
Si Si5 0.417278 0.852499 0.907190
Si Si6 0.403923 0.860349 0.271194
O O1 0.750000 0.672875 0.150526
O O2 0.494870 0.704517 0.090954
O O3 0.524981 0.651864 0.280141
O O4 0.562773 0.592768 0.091528
O O5 0.750000 0.240325 0.106893
O O6 0.973900 0.198110 0.215059
O O7 0.967256 0.201011 0.986233
O O8 0.750000 0.047760 0.447558
O O9 0.519911 0.105779 0.375335
O O10 0.500000 0.000000 0.469551
O O11 0.750000 0.526387 0.534434
O O12 0.971574 0.586109 0.459764
O O13 0.886732 0.595766 0.668631
O O14 0.000000 0.500000 0.607421
O O15 0.250000 0.854580 0.908373
O O16 0.250000 0.842422 0.318073
#
# Coordination Sequence:
#
# PCOD8184053 Si02
#       6
#     8   8   8   8   8   8
#     4  10  21  35  52  75 105 137 168 212 264 308
#     4   9  18  34  56  76  99 133 175 213 255 314
#     4  10  21  36  53  75 106 141 176 214 259 310
#     4   9  16  29  50  71  95 128 165 204 247 295
#     4   8  17  34  50  69 100 136 165 198 256 315
#     4   8  16  32  52  74 100 133 168 209 259 304
#
# _framework density 18.734171
#
# number of rings (size 3 to 8) (size 9 to 14) (size 15 to 20)
#    0.000    3.000    0.000    2.500    2.333    1.333 
#    0.000    5.000    0.000    0.000    0.000    0.000 
#    0.000    0.000    0.000    0.000    0.000    0.000 
#
# Total GULP energy -297315.418416 kJ/mol
# GULP energy per Si atom -12388.142434 kJ/mol
# Density = 1.869153 g / cm^3
# Si number density = 18.734171 Si / 1000 Ang^3
#
#
#
# Elastic Constant Matrix: (Units=GPa)
#
#
# Indices 1 2 3 4 5 6 
#
# 1 39.3198 29.9301 14.5872 0.0000 0.0000 0.0000
# 2 29.9301 78.4917 23.8776 0.0000 0.0000 0.0000
# 3 14.5872 23.8776 105.6934 0.0000 0.0000 0.0000
# 4 0.0000 0.0000 0.0000 19.9824 0.0000 0.0000
# 5 0.0000 0.0000 0.0000 0.0000 15.8741 0.0000
# 6 0.0000 0.0000 0.0000 0.0000 0.0000 26.5145
#
#
#
# Elastic Compliance Matrix: (Units=1/GPa)
#
#
# Indices 1 2 3 4 5 6 
#
# 1 0.036230 -0.013201 -0.002018 0.000000 0.000000 0.000000
# 2 -0.013201 0.018490 -0.002355 0.000000 0.000000 0.000000
# 3 -0.002018 -0.002355 0.010272 0.000000 0.000000 0.000000
# 4 0.000000 0.000000 0.000000 0.050044 0.000000 0.000000
# 5 0.000000 0.000000 0.000000 0.000000 0.062996 0.000000
# 6 0.000000 0.000000 0.000000 0.000000 0.000000 0.037715
#
#
# Mechanical properties :
#
#
# Convention : Reuss Voigt Hill
#
# Bulk Modulus (GPa) = 33.50816 40.03274 36.77045
# Shear Modulus (GPa) = 19.16859 22.81487 20.99173
#
# Velocity S-wave (km/s) = 3.20220 3.49352 3.35103
# Velocity P-wave (km/s) = 5.62113 6.13906 5.88580
#
# Compressibility (1/GPa) = 0.02984348
#
# Stress axis : x y z
#
# Youngs Moduli (GPa) = 27.60170 54.08195 97.35272
#
# Poissons Ratio (x) = 0.71394 0.19645
# Poissons Ratio (y) = 0.36437 0.22930
# Poissons Ratio (z) = 0.05570 0.12738
#
# Static dielectric constant tensor:
#      x y z
#    x 3.047750 0.000000 0.000000 
#    y 0.000000 3.423040 0.000000 
#    z 0.000000 0.000000 3.791060 
# 
# 
# High freq. dielectric constant tensor:
#      x y z
#    x 1.682550 0.000000 0.000000 
#    y 0.000000 1.724420 0.000000 
#    z 0.000000 0.000000 1.737150 
# 
# From -- ./inp_files/10230.got.cif
#   From: 2010.03.12/outbox.cif.g09.slc.cpg/sg40_6_cif.got.tgz:10230.got - 2010.04.14 01:38:03.
