data_PCOD8184182
_publ_section_title
;
Structure prediction by ZEFSAII (Michael W. Deem and Ramdas Pophale) SiO2 
 PCOD8184182
Probable space group: A M A 2
;
_chemical_formula_sum "Si O2"
_cell_formula_units_Z 64
_cell_length_a 17.710447
_cell_length_b 18.175048
_cell_length_c 9.520579
_cell_angle_alpha 90.000000
_cell_angle_beta 90.000000
_cell_angle_gamma 90.000000
_cell_volume 3064.562269
_symmetry_space_group_name_H-M "A M A 2"
_symmetry_group_IT_number 40
_symmetry_cell_setting 'orthorhombic'
loop_
_space_group_symop_operation_xyz
x,y,z
-x,-y,z
1/2-x,y,z
1/2+x,-y,z
x,1/2+y,1/2+z
-x,1/2-y,1/2+z
1/2-x,1/2+y,1/2+z
1/2+x,1/2-y,1/2+z
loop_
_atom_site_type_symbol
_atom_site_label
_atom_site_fract_x
_atom_site_fract_y
_atom_site_fract_z
Si Si1 0.164583 0.105356 0.593280
Si Si2 0.964602 0.387210 0.558351
Si Si3 0.840457 0.725918 0.234849
Si Si4 0.431346 0.771424 0.466048
Si Si5 0.122312 0.888310 0.961613
Si Si6 0.834720 0.230845 0.190053
Si Si7 0.433261 0.139674 0.357905
Si Si8 0.833760 0.455833 0.388440
O O1 0.250000 0.081156 0.561771
O O2 0.157262 0.194043 0.602538
O O3 0.113014 0.083960 0.459362
O O4 0.135553 0.062087 0.731633
O O5 0.972603 0.301364 0.521694
O O6 0.967147 0.403906 0.724923
O O7 0.886129 0.416018 0.499677
O O8 0.039137 0.423138 0.489795
O O9 0.750000 0.729385 0.245951
O O10 0.876048 0.660841 0.324326
O O11 0.875752 0.801243 0.290916
O O12 0.866233 0.706787 0.076385
O O13 0.394105 0.762849 0.314519
O O14 0.498763 0.829557 0.453150
O O15 0.173832 0.958352 0.925765
O O16 0.150399 0.840812 0.094437
O O17 0.750000 0.224464 0.250641
O O18 0.750000 0.420614 0.401000
#
# Coordination Sequence:
#
# PCOD8184182 Si02
#       8
#     8   8   8   8   8   8   8   8
#     4  10  21  38  63  93 124 163 214 264 315 377
#     4  11  23  39  64  92 127 171 209 265 317 388
#     4  11  23  37  61  94 129 165 209 263 324 378
#     4  11  22  37  61  95 131 159 210 266 320 371
#     4  12  23  42  64  93 126 168 213 259 321 388
#     4  11  20  37  64  91 126 166 208 258 320 377
#     4  11  22  38  63  93 128 163 211 262 321 377
#     4  11  25  42  64  92 126 166 215 265 320 387
#
# _framework density 20.883894999999999
#
# number of rings (size 3 to 8) (size 9 to 14) (size 15 to 20)
#    0.000    1.000    5.000    2.250    3.500    2.500 
#    0.000    1.250    0.000    1.500    0.000    0.000 
#    0.000    0.000    0.000    0.000    0.000    0.000 
#
# Total GULP energy -396771.472609 kJ/mol
# GULP energy per Si atom -12399.108519 kJ/mol
# Density = 2.083636 g / cm^3
# Si number density = 20.883895 Si / 1000 Ang^3
#
#
#
# Elastic Constant Matrix: (Units=GPa)
#
#
# Indices 1 2 3 4 5 6 
#
# 1 93.8665 8.7963 37.6015 0.0000 0.0000 0.0000
# 2 8.7963 34.5161 21.4766 0.0000 0.0000 0.0000
# 3 37.6015 21.4766 115.4380 0.0000 0.0000 0.0000
# 4 0.0000 0.0000 0.0000 14.5217 0.0000 0.0000
# 5 0.0000 0.0000 0.0000 0.0000 39.9260 0.0000
# 6 0.0000 0.0000 0.0000 0.0000 0.0000 21.9714
#
#
#
# Elastic Compliance Matrix: (Units=1/GPa)
#
#
# Indices 1 2 3 4 5 6 
#
# 1 0.012268 -0.000724 -0.003861 0.000000 0.000000 0.000000
# 2 -0.000724 0.032808 -0.005868 0.000000 0.000000 0.000000
# 3 -0.003861 -0.005868 0.011012 0.000000 0.000000 0.000000
# 4 0.000000 0.000000 0.000000 0.068862 0.000000 0.000000
# 5 0.000000 0.000000 0.000000 0.000000 0.025046 0.000000
# 6 0.000000 0.000000 0.000000 0.000000 0.000000 0.045514
#
#
# Mechanical properties :
#
#
# Convention : Reuss Voigt Hill
#
# Bulk Modulus (GPa) = 28.42402 42.17437 35.29919
# Shear Modulus (GPa) = 21.91602 27.01359 24.46481
#
# Velocity S-wave (km/s) = 3.24299 3.60045 3.42638
# Velocity P-wave (km/s) = 5.25954 6.12559 5.70901
#
# Compressibility (1/GPa) = 0.03518151
#
# Stress axis : x y z
#
# Youngs Moduli (GPa) = 81.51238 30.48078 90.80911
#
# Poissons Ratio (x) = 0.02206 0.35065
# Poissons Ratio (y) = 0.05900 0.53286
# Poissons Ratio (z) = 0.31475 0.17886
#
# Static dielectric constant tensor:
#      x y z
#    x 3.939130 0.000000 0.000000 
#    y 0.000000 3.580110 0.000000 
#    z 0.000000 0.000000 3.969400 
# 
# 
# High freq. dielectric constant tensor:
#      x y z
#    x 1.835970 0.000000 0.000000 
#    y 0.000000 1.781520 0.000000 
#    z 0.000000 0.000000 1.826870 
# 
# From -- ./inp_files/7835.got.cif
#   From: 2010.03.12/outbox.cif.g09.slc.cpg/sg40_4_cif.got.tgz:7835.got - 2010.04.14 01:38:03.
