data_PCOD8184226
_publ_section_title
;
Structure prediction by ZEFSAII (Michael W. Deem and Ramdas Pophale) SiO2 
 PCOD8184226
Probable space group: A M A 2
;
_chemical_formula_sum "Si O2"
_cell_formula_units_Z 64
_cell_length_a 17.832260
_cell_length_b 6.481425
_cell_length_c 26.758430
_cell_angle_alpha 90.000000
_cell_angle_beta 90.000000
_cell_angle_gamma 90.000000
_cell_volume 3092.698018
_symmetry_space_group_name_H-M "A M A 2"
_symmetry_group_IT_number 40
_symmetry_cell_setting 'orthorhombic'
loop_
_space_group_symop_operation_xyz
x,y,z
-x,-y,z
1/2-x,y,z
1/2+x,-y,z
x,1/2+y,1/2+z
-x,1/2-y,1/2+z
1/2-x,1/2+y,1/2+z
1/2+x,1/2-y,1/2+z
loop_
_atom_site_type_symbol
_atom_site_label
_atom_site_fract_x
_atom_site_fract_y
_atom_site_fract_z
Si Si1 0.588570 0.033998 0.897390
Si Si2 0.661523 0.212196 0.697731
Si Si3 0.424158 0.903193 0.049886
Si Si4 0.924666 0.605178 0.721009
Si Si5 0.924158 0.903193 0.632291
Si Si6 0.575334 0.894822 0.461168
Si Si7 0.588570 0.966002 0.784787
Si Si8 0.338477 0.212196 0.984446
O O1 0.609942 0.267985 0.914356
O O2 0.616430 1.000000 0.841089
O O3 0.500000 0.000000 0.902795
O O4 0.632652 0.873972 0.931870
O O5 0.750000 0.206754 0.695741
O O6 0.634219 0.449158 0.695732
O O7 0.632652 0.126028 0.750307
O O8 0.632783 0.083021 0.649559
O O9 0.387082 0.750000 0.091089
O O10 0.500000 0.000000 0.073336
O O11 0.449358 0.773789 0.001825
O O12 0.367217 0.083021 0.032618
O O13 0.949358 0.773788 0.680352
O O14 0.000000 0.500000 0.740813
O O15 0.890058 0.732015 0.767821
O O16 0.000000 0.000000 0.608841
O O17 0.500000 0.000000 0.441364
O O18 0.634218 0.050842 0.486445
O O19 0.500000 0.000000 0.779382
O O20 0.250000 0.206754 0.986436
#
# Coordination Sequence:
#
# PCOD8184226 Si02
#       8
#     8   8   8   8   8   8   8   8
#     4  10  21  39  64  93 122 163 216 263 309 372
#     4  11  24  41  61  93 130 165 204 258 321 379
#     4  11  23  39  68  96 120 161 213 258 310 376
#     4  11  19  39  63  88 125 167 211 255 311 371
#     4  11  23  39  68  96 120 161 213 258 310 376
#     4  11  19  39  63  88 125 167 211 255 311 371
#     4  10  21  39  64  93 122 163 216 263 309 372
#     4  11  24  41  61  93 130 165 204 258 321 379
#
# _framework density 20.693906999999999
#
# number of rings (size 3 to 8) (size 9 to 14) (size 15 to 20)
#    0.000    1.250    5.000    2.250    0.000    6.000 
#    0.000    2.500    0.000    0.000    0.000    0.000 
#    0.000    0.000    0.000    0.000    0.000    0.000 
#
# Total GULP energy -396807.709057 kJ/mol
# GULP energy per Si atom -12400.240908 kJ/mol
# Density = 2.064681 g / cm^3
# Si number density = 20.693907 Si / 1000 Ang^3
#
#
#
# Elastic Constant Matrix: (Units=GPa)
#
#
# Indices 1 2 3 4 5 6 
#
# 1 108.9182 28.0658 14.6471 0.0000 0.0000 0.0000
# 2 28.0658 124.5264 41.5847 0.0000 0.0000 0.0000
# 3 14.6471 41.5847 96.8682 0.0000 0.0000 0.0000
# 4 0.0000 0.0000 0.0000 29.8213 0.0000 0.0000
# 5 0.0000 0.0000 0.0000 0.0000 11.9555 0.0000
# 6 0.0000 0.0000 0.0000 0.0000 0.0000 22.5930
#
#
#
# Elastic Compliance Matrix: (Units=1/GPa)
#
#
# Indices 1 2 3 4 5 6 
#
# 1 0.009779 -0.001996 -0.000622 0.000000 0.000000 0.000000
# 2 -0.001996 0.009782 -0.003897 0.000000 0.000000 0.000000
# 3 -0.000622 -0.003897 0.012090 0.000000 0.000000 0.000000
# 4 0.000000 0.000000 0.000000 0.033533 0.000000 0.000000
# 5 0.000000 0.000000 0.000000 0.000000 0.083643 0.000000
# 6 0.000000 0.000000 0.000000 0.000000 0.000000 0.044262
#
#
# Mechanical properties :
#
#
# Convention : Reuss Voigt Hill
#
# Bulk Modulus (GPa) = 53.70402 55.43423 54.56913
# Shear Modulus (GPa) = 23.54855 29.27497 26.41176
#
# Velocity S-wave (km/s) = 3.37701 3.76528 3.57642
# Velocity P-wave (km/s) = 6.41977 6.76380 6.59403
#
# Compressibility (1/GPa) = 0.01862058
#
# Stress axis : x y z
#
# Youngs Moduli (GPa) = 102.25743 102.22956 82.71007
#
# Poissons Ratio (x) = 0.20410 0.05141
# Poissons Ratio (y) = 0.20415 0.32236
# Poissons Ratio (z) = 0.06356 0.39843
#
# Static dielectric constant tensor:
#      x y z
#    x 3.364630 0.000000 0.000000 
#    y 0.000000 4.285520 0.000000 
#    z 0.000000 0.000000 3.803890 
# 
# 
# High freq. dielectric constant tensor:
#      x y z
#    x 1.774480 0.000000 0.000000 
#    y 0.000000 1.830680 0.000000 
#    z 0.000000 0.000000 1.805620 
# 
# From -- ./inp_files/2473.got.cif
#   From: 2010.03.12/outbox.cif.g09.slc.cpg/sg40_2_cif.got.tgz:2473.got - 2010.04.14 01:38:03.
