data_PCOD8184860
_publ_section_title
;
Structure prediction by ZEFSAII (Michael W. Deem and Ramdas Pophale) SiO2 
 PCOD8184860
Probable space group: A B A 2
;
_chemical_formula_sum "Si O2"
_cell_formula_units_Z 56
_cell_length_a 7.577464
_cell_length_b 20.846246
_cell_length_c 18.788255
_cell_angle_alpha 90.000000
_cell_angle_beta 90.000000
_cell_angle_gamma 90.000000
_cell_volume 2967.824298
_symmetry_space_group_name_H-M "A B A 2"
_symmetry_group_IT_number 41
_symmetry_cell_setting 'orthorhombic'
loop_
_space_group_symop_operation_xyz
x,y,z
-x,-y,z
1/2-x,y,1/2+z
1/2+x,-y,1/2+z
x,1/2+y,1/2+z
-x,1/2-y,1/2+z
1/2-x,1/2+y,z
1/2+x,1/2-y,z
loop_
_atom_site_type_symbol
_atom_site_label
_atom_site_fract_x
_atom_site_fract_y
_atom_site_fract_z
Si Si1 0.128293 0.311644 0.013440
Si Si2 0.849277 0.949424 0.743875
Si Si3 0.349289 0.616308 0.602383
Si Si4 0.500000 0.500000 0.519617
Si Si5 0.370813 0.411291 0.403824
Si Si6 0.516536 0.426786 0.893736
Si Si7 0.540337 0.333240 0.018050
Si Si8 0.500000 0.000000 0.788986
O O1 0.330007 0.332489 0.032535
O O2 0.113870 0.236683 0.999192
O O3 0.999535 0.333201 0.077643
O O4 0.064001 0.344647 0.939253
O O5 0.856634 0.891325 0.687671
O O6 0.863689 0.921390 0.823539
O O7 0.666671 0.989079 0.738227
O O8 0.000000 0.000000 0.726287
O O9 0.382620 0.546942 0.567594
O O10 0.151922 0.641653 0.585504
O O11 0.363628 0.461793 0.469428
O O12 0.490448 0.436608 0.339385
O O13 0.176549 0.401902 0.372193
O O14 0.500000 0.500000 0.920693
O O15 0.596177 0.380934 0.954169
#
# Coordination Sequence:
#
# PCOD8184860 Si02
#       8
#     8   8   8   4   8   8   8   4
#     4  10  22  38  64  88 119 155 205 253 298 355
#     4  11  23  38  57  88 127 159 191 248 310 360
#     4  11  22  39  60  86 124 159 202 248 304 356
#     4   9  18  32  58  92 117 154 192 254 299 348
#     4   9  18  33  59  91 116 148 196 248 294 350
#     4  10  19  37  61  91 120 149 195 252 303 354
#     4  11  22  39  66  90 117 160 208 250 301 357
#     4  11  20  36  60  86 125 158 194 240 313 366
#
# _framework density 18.869042
#
# number of rings (size 3 to 8) (size 9 to 14) (size 15 to 20)
#    0.000    1.714    5.000    0.857    4.000    1.143 
#    3.857    0.000    9.429    0.000    0.000    0.000 
#    0.000    0.000    0.000    0.000    0.000    0.000 
#
# Total GULP energy -347082.714514 kJ/mol
# GULP energy per Si atom -12395.811233 kJ/mol
# Density = 1.882610 g / cm^3
# Si number density = 18.869042 Si / 1000 Ang^3
#
#
#
# Elastic Constant Matrix: (Units=GPa)
#
#
# Indices 1 2 3 4 5 6 
#
# 1 114.6458 26.5207 41.5158 0.0000 0.0000 0.0000
# 2 26.5207 115.5844 50.2146 0.0000 0.0000 0.0000
# 3 41.5158 50.2146 77.2052 0.0000 0.0000 0.0000
# 4 0.0000 0.0000 0.0000 19.7934 0.0000 0.0000
# 5 0.0000 0.0000 0.0000 0.0000 10.0294 0.0000
# 6 0.0000 0.0000 0.0000 0.0000 0.0000 24.8741
#
#
#
# Elastic Compliance Matrix: (Units=1/GPa)
#
#
# Indices 1 2 3 4 5 6 
#
# 1 0.010832 0.000063 -0.005866 0.000000 0.000000 0.000000
# 2 0.000063 0.012060 -0.007877 0.000000 0.000000 0.000000
# 3 -0.005866 -0.007877 0.021230 0.000000 0.000000 0.000000
# 4 0.000000 0.000000 0.000000 0.050522 0.000000 0.000000
# 5 0.000000 0.000000 0.000000 0.000000 0.099707 0.000000
# 6 0.000000 0.000000 0.000000 0.000000 0.000000 0.040202
#
#
# Mechanical properties :
#
#
# Convention : Reuss Voigt Hill
#
# Bulk Modulus (GPa) = 59.66087 60.43751 60.04919
# Shear Modulus (GPa) = 18.69154 23.55167 21.12161
#
# Velocity S-wave (km/s) = 3.15078 3.53677 3.34934
# Velocity P-wave (km/s) = 6.70251 6.98411 6.84476
#
# Compressibility (1/GPa) = 0.01676141
#
# Stress axis : x y z
#
# Youngs Moduli (GPa) = 92.31867 82.92215 47.10296
#
# Poissons Ratio (x) = -0.00521 0.27629
# Poissons Ratio (y) = -0.00580 0.37105
# Poissons Ratio (z) = 0.54151 0.65321
#
# Static dielectric constant tensor:
#      x y z
#    x 3.555230 0.000000 0.000000 
#    y 0.000000 3.486440 0.000000 
#    z 0.000000 0.000000 3.289050 
# 
# 
# High freq. dielectric constant tensor:
#      x y z
#    x 1.748360 0.000000 0.000000 
#    y 0.000000 1.719010 0.000000 
#    z 0.000000 0.000000 1.707130 
# 
# From -- ./inp_files/9818.got.cif
#   From: 2010.03.12/outbox.cif.g09.slc.cpg/sg41_5_cif.got.tgz:9818.got - 2010.04.14 01:55:53.
