data_PCOD8184066
_publ_section_title
;
Structure prediction by ZEFSAII (Michael W. Deem and Ramdas Pophale) SiO2 
 PCOD8184066
Probable space group: A M A 2
;
_chemical_formula_sum "Si O2"
_cell_formula_units_Z 64
_cell_length_a 17.339512
_cell_length_b 9.550536
_cell_length_c 18.160598
_cell_angle_alpha 90.000000
_cell_angle_beta 90.000000
_cell_angle_gamma 90.000000
_cell_volume 3007.424696
_symmetry_space_group_name_H-M "A M A 2"
_symmetry_group_IT_number 40
_symmetry_cell_setting 'orthorhombic'
loop_
_space_group_symop_operation_xyz
x,y,z
-x,-y,z
1/2-x,y,z
1/2+x,-y,z
x,1/2+y,1/2+z
-x,1/2-y,1/2+z
1/2-x,1/2+y,1/2+z
1/2+x,1/2-y,1/2+z
loop_
_atom_site_type_symbol
_atom_site_label
_atom_site_fract_x
_atom_site_fract_y
_atom_site_fract_z
Si Si1 0.411045 0.033963 0.041540
Si Si2 0.938891 0.390298 0.299417
Si Si3 0.838652 0.690326 0.635603
Si Si4 0.660809 0.549589 0.392767
Si Si5 0.072800 0.914132 0.277422
Si Si6 0.159759 0.255076 0.142681
Si Si7 0.659550 0.828317 0.308871
Si Si8 0.580234 0.458759 0.133387
O O1 0.391130 0.183175 0.078402
O O2 0.500000 0.000000 0.058484
O O3 0.349433 0.930273 0.077179
O O4 0.393563 0.017614 0.955431
O O5 0.853991 0.442096 0.325141
O O6 0.953629 0.226506 0.322045
O O7 0.945356 0.400858 0.212481
O O8 0.000000 0.500000 0.336034
O O9 0.750000 0.723917 0.649443
O O10 0.873019 0.638175 0.712333
O O11 0.878387 0.825366 0.597254
O O12 0.750000 0.547249 0.415516
O O13 0.635101 0.705396 0.365734
O O14 0.119019 0.023928 0.330089
O O15 0.000000 0.000000 0.245712
O O16 0.250000 0.227495 0.129245
O O17 0.134470 0.206709 0.224569
O O18 0.142232 0.418560 0.136383
O O19 0.750000 0.849468 0.313246
O O20 0.500000 0.500000 0.092011
#
# Coordination Sequence:
#
# PCOD8184066 Si02
#       8
#     8   8   8   8   8   8   8   8
#     4  12  25  41  64  90 128 169 217 264 326 393
#     4  10  21  37  58  88 125 164 212 263 322 387
#     4  11  22  37  58  89 124 162 212 265 322 385
#     4  11  23  41  63  89 123 170 215 263 329 400
#     4  11  22  34  60  91 126 164 210 269 330 384
#     4  11  21  38  62  92 125 164 213 268 321 383
#     4  10  21  37  61  91 127 164 212 269 329 388
#     4  10  21  35  60  92 125 163 205 267 324 380
#
# _framework density 21.280664999999999
#
# number of rings (size 3 to 8) (size 9 to 14) (size 15 to 20)
#    0.000    1.250    2.500    4.125    3.500    2.500 
#    0.000    1.250    0.000    4.500    0.000    0.000 
#    0.000    0.000    0.000    0.000    0.000    0.000 
#
# Total GULP energy -396569.392782 kJ/mol
# GULP energy per Si atom -12392.793524 kJ/mol
# Density = 2.123223 g / cm^3
# Si number density = 21.280665 Si / 1000 Ang^3
#
#
#
# Elastic Constant Matrix: (Units=GPa)
#
#
# Indices 1 2 3 4 5 6 
#
# 1 99.0098 35.8154 13.7763 0.0000 0.0000 0.0000
# 2 35.8154 150.8845 12.9675 0.0000 0.0000 0.0000
# 3 13.7763 12.9675 38.5598 0.0000 0.0000 0.0000
# 4 0.0000 0.0000 0.0000 20.3312 0.0000 0.0000
# 5 0.0000 0.0000 0.0000 0.0000 23.7215 0.0000
# 6 0.0000 0.0000 0.0000 0.0000 0.0000 41.2893
#
#
#
# Elastic Compliance Matrix: (Units=1/GPa)
#
#
# Indices 1 2 3 4 5 6 
#
# 1 0.011435 -0.002434 -0.003267 0.000000 0.000000 0.000000
# 2 -0.002434 0.007343 -0.001600 0.000000 0.000000 0.000000
# 3 -0.003267 -0.001600 0.027639 0.000000 0.000000 0.000000
# 4 0.000000 0.000000 0.000000 0.049185 0.000000 0.000000
# 5 0.000000 0.000000 0.000000 0.000000 0.042156 0.000000
# 6 0.000000 0.000000 0.000000 0.000000 0.000000 0.024219
#
#
# Mechanical properties :
#
#
# Convention : Reuss Voigt Hill
#
# Bulk Modulus (GPa) = 31.43095 45.95250 38.69173
# Shear Modulus (GPa) = 26.71178 32.12805 29.41992
#
# Velocity S-wave (km/s) = 3.54674 3.88974 3.72219
# Velocity P-wave (km/s) = 5.61910 6.46636 6.05756
#
# Compressibility (1/GPa) = 0.03181577
#
# Stress axis : x y z
#
# Youngs Moduli (GPa) = 87.45182 136.18911 36.18082
#
# Poissons Ratio (x) = 0.33142 0.11820
# Poissons Ratio (y) = 0.21282 0.05789
# Poissons Ratio (z) = 0.28570 0.21789
#
# Static dielectric constant tensor:
#      x y z
#    x 4.018480 0.000000 0.000000 
#    y 0.000000 4.455980 0.000000 
#    z 0.000000 0.000000 3.661220 
# 
# 
# High freq. dielectric constant tensor:
#      x y z
#    x 1.849890 0.000000 0.000000 
#    y 0.000000 1.852630 0.000000 
#    z 0.000000 0.000000 1.781450 
# 
# From -- ./inp_files/21428.got.cif
#   From: 2010.03.12/outbox.cif.g09.slc.cpg/sg40_11_cif.got.tgz:21428.got - 2010.04.14 01:38:03.
