data_PCOD8184325
_publ_section_title
;
Structure prediction by ZEFSAII (Michael W. Deem and Ramdas Pophale) SiO2 
 PCOD8184325
Probable space group: A M A 2
;
_chemical_formula_sum "Si O2"
_cell_formula_units_Z 36
_cell_length_a 10.161713
_cell_length_b 10.123764
_cell_length_c 21.100554
_cell_angle_alpha 90.000000
_cell_angle_beta 90.000000
_cell_angle_gamma 90.000000
_cell_volume 2170.714940
_symmetry_space_group_name_H-M "A M A 2"
_symmetry_group_IT_number 40
_symmetry_cell_setting 'orthorhombic'
loop_
_space_group_symop_operation_xyz
x,y,z
-x,-y,z
1/2-x,y,z
1/2+x,-y,z
x,1/2+y,1/2+z
-x,1/2-y,1/2+z
1/2-x,1/2+y,1/2+z
1/2+x,1/2-y,1/2+z
loop_
_atom_site_type_symbol
_atom_site_label
_atom_site_fract_x
_atom_site_fract_y
_atom_site_fract_z
Si Si1 0.105101 0.113190 0.036430
Si Si2 0.095178 0.238158 0.905907
Si Si3 0.750000 0.403211 0.775239
Si Si4 0.500000 0.500000 0.320416
Si Si5 0.500000 0.000000 0.345798
Si Si6 0.750000 0.612214 0.258348
Si Si7 0.750000 0.786545 0.146148
O O1 0.250000 0.050245 0.020479
O O2 0.119996 0.198775 0.101420
O O3 0.062678 0.208409 0.979190
O O4 0.000000 0.000000 0.047369
O O5 0.250000 0.247311 0.892331
O O6 0.025143 0.375700 0.890856
O O7 0.031066 0.124376 0.863910
O O8 0.623041 0.478621 0.800175
O O9 0.750000 0.249748 0.798204
O O10 0.750000 0.404942 0.698346
O O11 0.622162 0.527926 0.274735
O O12 0.750000 0.645743 0.182665
#
# Coordination Sequence:
#
# PCOD8184325 Si02
#       7
#     8   8   4   4   4   4   4
#     4   9  19  35  59  81 108 150 188 235 272 334
#     4  11  21  35  58  88 115 145 190 236 288 343
#     4  10  22  34  56  84 118 145 185 237 281 340
#     4  12  20  36  60  86 116 148 186 232 296 340
#     4  12  22  38  56  88 118 150 186 234 304 332
#     4  10  22  36  56  86 113 153 183 244 270 342
#     4   8  20  36  56  80 113 144 192 229 277 322
#
# _framework density 16.584396999999999
#
# number of rings (size 3 to 8) (size 9 to 14) (size 15 to 20)
#    1.333    0.444    5.556    0.000    1.556    0.000 
#    2.000    1.111    2.444    0.000    0.000    0.000 
#    0.000    0.000    0.000    0.000    0.000    0.000 
#
# Total GULP energy -223068.713193 kJ/mol
# GULP energy per Si atom -12392.706288 kJ/mol
# Density = 1.654665 g / cm^3
# Si number density = 16.584397 Si / 1000 Ang^3
#
#
#
# Elastic Constant Matrix: (Units=GPa)
#
#
# Indices 1 2 3 4 5 6 
#
# 1 106.3479 45.7541 56.5817 0.0000 0.0000 0.0000
# 2 45.7541 104.4377 57.9264 0.0000 0.0000 0.0000
# 3 56.5817 57.9264 141.1592 0.0000 0.0000 0.0000
# 4 0.0000 0.0000 0.0000 17.3071 0.0000 0.0000
# 5 0.0000 0.0000 0.0000 0.0000 -50.6153 0.0000
# 6 0.0000 0.0000 0.0000 0.0000 0.0000 28.7451
#
#
#
# Elastic Compliance Matrix: (Units=1/GPa)
#
#
# Indices 1 2 3 4 5 6 
#
# 1 0.012924 -0.003611 -0.003699 0.000000 0.000000 0.000000
# 2 -0.003611 0.013405 -0.004054 0.000000 0.000000 0.000000
# 3 -0.003699 -0.004054 0.010230 0.000000 0.000000 0.000000
# 4 0.000000 0.000000 0.000000 0.057780 0.000000 0.000000
# 5 0.000000 0.000000 0.000000 0.000000 -0.019757 0.000000
# 6 0.000000 0.000000 0.000000 0.000000 0.000000 0.034789
#
#
# Mechanical properties :
#
#
# Convention : Reuss Voigt Hill
#
# Bulk Modulus (GPa) = 72.28801 74.71880 73.50340
# Shear Modulus (GPa) = 36.57394 11.86622 24.22008
#
# Velocity S-wave (km/s) = 4.70118 2.67780 3.82568
# Velocity P-wave (km/s) = 8.55282 7.39677 7.99572
#
# Compressibility (1/GPa) = 0.01383355
#
# Stress axis : x y z
#
# Youngs Moduli (GPa) = 77.37249 74.59725 97.74804
#
# Poissons Ratio (x) = 0.26934 0.36156
# Poissons Ratio (y) = 0.27936 0.39625
# Poissons Ratio (z) = 0.28620 0.30240
#
# Static dielectric constant tensor:
#      x y z
#    x 3.168840 0.000000 0.000000 
#    y 0.000000 2.996660 0.000000 
#    z 0.000000 0.000000 3.092380 
# 
# 
# High freq. dielectric constant tensor:
#      x y z
#    x 1.642150 0.000000 0.000000 
#    y 0.000000 1.623030 0.000000 
#    z 0.000000 0.000000 1.637810 
# 
# From -- ./inp_files/22711.got.cif
#   From: 2010.03.12/outbox.cif.g09.slc.cpg/sg40_12_cif.got.tgz:22711.got - 2010.04.14 01:38:03.
