data_PCOD8184559
_publ_section_title
;
Structure prediction by ZEFSAII (Michael W. Deem and Ramdas Pophale) SiO2 
 PCOD8184559
Probable space group: A M A 2
;
_chemical_formula_sum "Si O2"
_cell_formula_units_Z 36
_cell_length_a 14.744889
_cell_length_b 5.199236
_cell_length_c 18.813885
_cell_angle_alpha 90.000000
_cell_angle_beta 90.000000
_cell_angle_gamma 90.000000
_cell_volume 1442.313019
_symmetry_space_group_name_H-M "A M A 2"
_symmetry_group_IT_number 40
_symmetry_cell_setting 'orthorhombic'
loop_
_space_group_symop_operation_xyz
x,y,z
-x,-y,z
1/2-x,y,z
1/2+x,-y,z
x,1/2+y,1/2+z
-x,1/2-y,1/2+z
1/2-x,1/2+y,1/2+z
1/2+x,1/2-y,1/2+z
loop_
_atom_site_type_symbol
_atom_site_label
_atom_site_fract_x
_atom_site_fract_y
_atom_site_fract_z
Si Si1 0.000000 0.000000 0.598861
Si Si2 0.350421 0.401656 0.355903
Si Si3 0.650490 0.348068 0.642066
Si Si4 0.600139 0.095221 0.277449
Si Si5 0.646876 0.189811 0.012471
O O1 0.074402 0.123619 0.547684
O O2 0.939297 0.172918 0.652491
O O3 0.250000 0.512242 0.364332
O O4 0.399984 0.615848 0.307962
O O5 0.392223 0.383765 0.435066
O O6 0.344371 0.118838 0.321540
O O7 0.750000 0.216994 0.657318
O O8 0.637878 0.589720 0.696220
O O9 0.649996 0.436167 0.560621
O O10 0.500000 0.000000 0.282787
O O11 0.750000 0.308378 0.008180
#
# Coordination Sequence:
#
# PCOD8184559 Si02
#       5
#     4   8   8   8   8
#     4  12  24  42  76 110 144 190 252 312 364 448
#     4  11  26  48  73 105 148 195 242 301 371 441
#     4  11  26  47  72 103 144 194 245 304 372 446
#     4  12  27  46  73 109 146 191 247 306 371 438
#     4  10  25  46  72 105 145 194 245 302 370 444
#
# _framework density 24.959910000000001
#
# number of rings (size 3 to 8) (size 9 to 14) (size 15 to 20)
#    0.000    0.889    0.000    5.333   10.889    1.778 
#    0.000    0.000    0.000    0.000    0.000    0.000 
#    0.000    0.000    0.000    0.000    0.000    0.000 
#
# Total GULP energy -223045.646335 kJ/mol
# GULP energy per Si atom -12391.424796 kJ/mol
# Density = 2.490310 g / cm^3
# Si number density = 24.959910 Si / 1000 Ang^3
#
#
#
# Elastic Constant Matrix: (Units=GPa)
#
#
# Indices 1 2 3 4 5 6 
#
# 1 143.9790 21.5936 -0.6711 0.0000 0.0000 0.0000
# 2 21.5936 89.8312 28.8870 0.0000 0.0000 0.0000
# 3 -0.6711 28.8870 137.2047 0.0000 0.0000 0.0000
# 4 0.0000 0.0000 0.0000 34.5628 0.0000 0.0000
# 5 0.0000 0.0000 0.0000 0.0000 112.6031 0.0000
# 6 0.0000 0.0000 0.0000 0.0000 0.0000 49.6547
#
#
#
# Elastic Compliance Matrix: (Units=1/GPa)
#
#
# Indices 1 2 3 4 5 6 
#
# 1 0.007229 -0.001876 0.000430 0.000000 0.000000 0.000000
# 2 -0.001876 0.012427 -0.002626 0.000000 0.000000 0.000000
# 3 0.000430 -0.002626 0.007843 0.000000 0.000000 0.000000
# 4 0.000000 0.000000 0.000000 0.028933 0.000000 0.000000
# 5 0.000000 0.000000 0.000000 0.000000 0.008881 0.000000
# 6 0.000000 0.000000 0.000000 0.000000 0.000000 0.020139
#
#
# Mechanical properties :
#
#
# Convention : Reuss Voigt Hill
#
# Bulk Modulus (GPa) = 51.66160 52.29268 51.97714
# Shear Modulus (GPa) = 49.97655 60.77781 55.37718
#
# Velocity S-wave (km/s) = 4.47953 4.93994 4.71536
# Velocity P-wave (km/s) = 6.89186 7.31666 7.10743
#
# Compressibility (1/GPa) = 0.01935674
#
# Stress axis : x y z
#
# Youngs Moduli (GPa) = 138.33501 80.46824 127.49771
#
# Poissons Ratio (x) = 0.15096 -0.05487
# Poissons Ratio (y) = 0.25952 0.33476
# Poissons Ratio (z) = -0.05953 0.21128
#
# Static dielectric constant tensor:
#      x y z
#    x 4.392040 0.000000 0.000000 
#    y 0.000000 4.554160 0.000000 
#    z 0.000000 0.000000 4.810890 
# 
# 
# High freq. dielectric constant tensor:
#      x y z
#    x 2.021450 0.000000 0.000000 
#    y 0.000000 1.966690 0.000000 
#    z 0.000000 0.000000 2.005770 
# 
# From -- ./inp_files/22945.got.cif
#   From: 2010.03.12/outbox.cif.g09.slc.cpg/sg40_12_cif.got.tgz:22945.got - 2010.04.14 01:38:03.
