data_PCOD8184453
_publ_section_title
;
Structure prediction by ZEFSAII (Michael W. Deem and Ramdas Pophale) SiO2 
 PCOD8184453
Probable space group: A M A 2
;
_chemical_formula_sum "Si O2"
_cell_formula_units_Z 48
_cell_length_a 8.534142
_cell_length_b 27.594342
_cell_length_c 9.753539
_cell_angle_alpha 90.000000
_cell_angle_beta 90.000000
_cell_angle_gamma 90.000000
_cell_volume 2296.900235
_symmetry_space_group_name_H-M "A M A 2"
_symmetry_group_IT_number 40
_symmetry_cell_setting 'orthorhombic'
loop_
_space_group_symop_operation_xyz
x,y,z
-x,-y,z
1/2-x,y,z
1/2+x,-y,z
x,1/2+y,1/2+z
-x,1/2-y,1/2+z
1/2-x,1/2+y,1/2+z
1/2+x,1/2-y,1/2+z
loop_
_atom_site_type_symbol
_atom_site_label
_atom_site_fract_x
_atom_site_fract_y
_atom_site_fract_z
Si Si1 0.563700 0.297587 0.590610
Si Si2 0.933302 0.947350 0.732065
Si Si3 0.569075 0.949190 0.285489
Si Si4 0.930474 0.902889 0.007038
Si Si5 0.566078 0.285248 0.905389
Si Si6 0.568753 0.617355 0.998713
O O1 0.750000 0.292591 0.574414
O O2 0.499918 0.351492 0.556399
O O3 0.512943 0.283841 0.745924
O O4 0.477352 0.264553 0.479117
O O5 0.750000 0.953934 0.751624
O O6 0.966659 0.910114 0.611141
O O7 0.010599 0.924563 0.870180
O O8 0.000000 0.000000 0.697103
O O9 0.750000 0.945269 0.330117
O O10 0.547376 0.943518 0.123241
O O11 0.470668 0.906144 0.352670
O O12 0.500000 0.000000 0.335381
O O13 0.750000 0.893063 0.975605
O O14 0.750000 0.295799 0.913956
O O15 0.476173 0.326495 0.990751
O O16 0.750000 0.611920 0.035947
#
# Coordination Sequence:
#
# PCOD8184453 Si02
#       6
#     8   8   8   8   8   8
#     4  10  22  43  66  94 128 164 208 257 310 374
#     4  11  23  41  64  93 127 169 211 258 314 372
#     4  11  21  39  64  93 124 160 204 255 312 373
#     4   9  20  40  65  90 124 164 206 256 310 367
#     4  11  24  43  67  95 127 165 206 257 315 375
#     4  12  25  42  63  91 125 165 211 262 308 368
#
# _framework density 20.897729000000002
#
# number of rings (size 3 to 8) (size 9 to 14) (size 15 to 20)
#    0.000    1.333    1.667    4.000    2.333    1.333 
#    0.000    3.333    0.000    0.000    0.000    0.000 
#    0.000    0.000    0.000    0.000    0.000    0.000 
#
# Total GULP energy -297668.425962 kJ/mol
# GULP energy per Si atom -12402.851082 kJ/mol
# Density = 2.085017 g / cm^3
# Si number density = 20.897729 Si / 1000 Ang^3
#
#
#
# Elastic Constant Matrix: (Units=GPa)
#
#
# Indices 1 2 3 4 5 6 
#
# 1 58.2156 19.9724 16.8035 0.0000 0.0000 0.0000
# 2 19.9724 91.4055 19.7707 0.0000 0.0000 0.0000
# 3 16.8035 19.7707 102.5927 0.0000 0.0000 0.0000
# 4 0.0000 0.0000 0.0000 39.7098 0.0000 0.0000
# 5 0.0000 0.0000 0.0000 0.0000 23.9834 0.0000
# 6 0.0000 0.0000 0.0000 0.0000 0.0000 29.7644
#
#
#
# Elastic Compliance Matrix: (Units=1/GPa)
#
#
# Indices 1 2 3 4 5 6 
#
# 1 0.019133 -0.003655 -0.002429 0.000000 0.000000 0.000000
# 2 -0.003655 0.012114 -0.001736 0.000000 0.000000 0.000000
# 3 -0.002429 -0.001736 0.010480 0.000000 0.000000 0.000000
# 4 0.000000 0.000000 0.000000 0.025183 0.000000 0.000000
# 5 0.000000 0.000000 0.000000 0.000000 0.041696 0.000000
# 6 0.000000 0.000000 0.000000 0.000000 0.000000 0.033597
#
#
# Mechanical properties :
#
#
# Convention : Reuss Voigt Hill
#
# Bulk Modulus (GPa) = 38.33459 40.58967 39.46213
# Shear Modulus (GPa) = 30.02311 31.73598 30.87955
#
# Velocity S-wave (km/s) = 3.79445 3.90119 3.84819
# Velocity P-wave (km/s) = 6.13033 6.30536 6.21846
#
# Compressibility (1/GPa) = 0.02608610
#
# Stress axis : x y z
#
# Youngs Moduli (GPa) = 52.26649 82.54652 95.42258
#
# Poissons Ratio (x) = 0.30172 0.23181
# Poissons Ratio (y) = 0.19104 0.16564
# Poissons Ratio (z) = 0.12697 0.14329
#
# Static dielectric constant tensor:
#      x y z
#    x 3.572430 0.000000 0.000000 
#    y 0.000000 3.863460 0.000000 
#    z 0.000000 0.000000 3.868320 
# 
# 
# High freq. dielectric constant tensor:
#      x y z
#    x 1.801420 0.000000 0.000000 
#    y 0.000000 1.829170 0.000000 
#    z 0.000000 0.000000 1.829730 
# 
# From -- ./inp_files/4612.got.cif
#   From: 2010.03.12/outbox.cif.g09.slc.cpg/sg40_3_cif.got.tgz:4612.got - 2010.04.14 01:38:03.
