data_PCOD8184770
_publ_section_title
;
Structure prediction by ZEFSAII (Michael W. Deem and Ramdas Pophale) SiO2 
 PCOD8184770
Probable space group: A B A 2
;
_chemical_formula_sum "Si O2"
_cell_formula_units_Z 48
_cell_length_a 18.178660
_cell_length_b 15.614669
_cell_length_c 8.995180
_cell_angle_alpha 90.000000
_cell_angle_beta 90.000000
_cell_angle_gamma 90.000000
_cell_volume 2553.315654
_symmetry_space_group_name_H-M "A B A 2"
_symmetry_group_IT_number 41
_symmetry_cell_setting 'orthorhombic'
loop_
_space_group_symop_operation_xyz
x,y,z
-x,-y,z
1/2-x,y,1/2+z
1/2+x,-y,1/2+z
x,1/2+y,1/2+z
-x,1/2-y,1/2+z
1/2-x,1/2+y,z
1/2+x,1/2-y,z
loop_
_atom_site_type_symbol
_atom_site_label
_atom_site_fract_x
_atom_site_fract_y
_atom_site_fract_z
Si Si1 0.949975 0.424389 0.199870
Si Si2 0.665332 0.857564 0.696728
Si Si3 0.084113 0.312640 0.546601
Si Si4 0.681713 0.341455 0.538369
Si Si5 0.529548 0.746481 0.743988
Si Si6 0.919675 0.494885 0.524237
O O1 0.873853 0.409690 0.113004
O O2 0.926948 0.443474 0.369713
O O3 0.000000 0.500000 0.132008
O O4 0.004188 0.344213 0.179188
O O5 0.737341 0.841256 0.602607
O O6 0.607421 0.779278 0.676777
O O7 0.632678 0.947008 0.638836
O O8 0.687074 0.867931 0.867450
O O9 0.156688 0.256097 0.568778
O O10 0.035309 0.263545 0.421324
O O11 0.109019 0.407823 0.498195
O O12 0.033975 0.314537 0.696193
O O13 0.000000 0.500000 0.598377
#
# Coordination Sequence:
#
# PCOD8184770 Si02
#       6
#     8   8   8   8   8   8
#     4  10  19  37  64  87 118 152 197 242 299 353
#     4  11  22  39  59  83 122 156 198 245 302 351
#     4  10  20  37  59  91 113 155 197 238 294 355
#     4  10  24  40  58  82 121 160 196 244 301 360
#     4  10  18  35  60  86 113 152 193 239 291 357
#     4  11  19  37  65  90 119 155 194 253 295 352
#
# _framework density 18.799085000000002
#
# number of rings (size 3 to 8) (size 9 to 14) (size 15 to 20)
#    0.000    1.667    5.000    1.000    0.000    2.000 
#    6.000    1.667    0.000    0.000    0.000    0.000 
#    0.000    0.000    0.000    0.000    0.000    0.000 
#
# Total GULP energy -297451.621343 kJ/mol
# GULP energy per Si atom -12393.817556 kJ/mol
# Density = 1.875630 g / cm^3
# Si number density = 18.799085 Si / 1000 Ang^3
#
#
#
# Elastic Constant Matrix: (Units=GPa)
#
#
# Indices 1 2 3 4 5 6 
#
# 1 131.9493 60.1979 67.5827 0.0000 0.0000 0.0000
# 2 60.1979 114.6375 51.4365 0.0000 0.0000 0.0000
# 3 67.5827 51.4365 101.0485 0.0000 0.0000 0.0000
# 4 0.0000 0.0000 0.0000 23.7435 0.0000 0.0000
# 5 0.0000 0.0000 0.0000 0.0000 28.3983 0.0000
# 6 0.0000 0.0000 0.0000 0.0000 0.0000 28.7986
#
#
#
# Elastic Compliance Matrix: (Units=1/GPa)
#
#
# Indices 1 2 3 4 5 6 
#
# 1 0.012622 -0.003681 -0.006568 0.000000 0.000000 0.000000
# 2 -0.003681 0.012379 -0.003839 0.000000 0.000000 0.000000
# 3 -0.006568 -0.003839 0.016243 0.000000 0.000000 0.000000
# 4 0.000000 0.000000 0.000000 0.042117 0.000000 0.000000
# 5 0.000000 0.000000 0.000000 0.000000 0.035213 0.000000
# 6 0.000000 0.000000 0.000000 0.000000 0.000000 0.034724
#
#
# Mechanical properties :
#
#
# Convention : Reuss Voigt Hill
#
# Bulk Modulus (GPa) = 76.52563 78.45218 77.48891
# Shear Modulus (GPa) = 26.90619 27.41595 27.16107
#
# Velocity S-wave (km/s) = 3.78729 3.82300 3.80519
# Velocity P-wave (km/s) = 7.74082 7.83005 7.78556
#
# Compressibility (1/GPa) = 0.01306752
#
# Stress axis : x y z
#
# Youngs Moduli (GPa) = 79.22585 80.78384 61.56364
#
# Poissons Ratio (x) = 0.29737 0.40436
# Poissons Ratio (y) = 0.29163 0.23635
# Poissons Ratio (z) = 0.52037 0.31014
#
# Static dielectric constant tensor:
#      x y z
#    x 3.437230 0.000000 0.000000 
#    y 0.000000 3.638470 0.000000 
#    z 0.000000 0.000000 3.470510 
# 
# 
# High freq. dielectric constant tensor:
#      x y z
#    x 1.724280 0.000000 0.000000 
#    y 0.000000 1.732440 0.000000 
#    z 0.000000 0.000000 1.726030 
# 
# From -- ./inp_files/3362.got.cif
#   From: 2010.03.12/outbox.cif.g09.slc.cpg/sg41_2_cif.got.tgz:3362.got - 2010.04.14 01:55:53.
