data_PCOD8184732
_publ_section_title
;
Structure prediction by ZEFSAII (Michael W. Deem and Ramdas Pophale) SiO2 
 PCOD8184732
Probable space group: A B A 2
;
_chemical_formula_sum "Si O2"
_cell_formula_units_Z 64
_cell_length_a 17.340366
_cell_length_b 10.899514
_cell_length_c 16.171150
_cell_angle_alpha 90.000000
_cell_angle_beta 90.000000
_cell_angle_gamma 90.000000
_cell_volume 3056.372609
_symmetry_space_group_name_H-M "A B A 2"
_symmetry_group_IT_number 41
_symmetry_cell_setting 'orthorhombic'
loop_
_space_group_symop_operation_xyz
x,y,z
-x,-y,z
1/2-x,y,1/2+z
1/2+x,-y,1/2+z
x,1/2+y,1/2+z
-x,1/2-y,1/2+z
1/2-x,1/2+y,z
1/2+x,1/2-y,z
loop_
_atom_site_type_symbol
_atom_site_label
_atom_site_fract_x
_atom_site_fract_y
_atom_site_fract_z
Si Si1 0.891513 0.820561 0.291970
Si Si2 0.816964 0.572653 0.775033
Si Si3 0.844316 0.096119 0.710550
Si Si4 0.085000 0.520677 0.366718
Si Si5 0.058822 0.235782 0.759072
Si Si6 0.069710 0.576070 0.100529
Si Si7 0.176726 0.187095 0.474053
Si Si8 0.236138 0.939915 0.946463
O O1 0.849565 0.743781 0.217559
O O2 0.855327 0.787225 0.381751
O O3 0.983777 0.808870 0.289055
O O4 0.873799 0.959319 0.272285
O O5 0.742779 0.548573 0.718539
O O6 0.868219 0.680477 0.736810
O O7 0.784729 0.599340 0.866312
O O8 0.902795 0.064072 0.786091
O O9 0.870844 0.031668 0.626628
O O10 0.090967 0.660419 0.337312
O O11 0.149816 0.490013 0.432927
O O12 0.000000 0.500000 0.404929
O O13 0.039137 0.150843 0.680254
O O14 0.000000 0.500000 0.058644
O O15 0.104627 0.673107 0.036060
O O16 0.227019 0.310407 0.497838
O O17 0.222082 0.058010 0.486966
#
# Coordination Sequence:
#
# PCOD8184732 Si02
#       8
#     8   8   8   8   8   8   8   8
#     4  11  20  39  64  93 127 162 221 270 316 394
#     4  10  22  32  64  95 122 162 215 281 316 373
#     4  10  19  37  59  90 120 161 218 260 314 385
#     4  10  16  31  59  86 114 158 216 263 307 374
#     4  11  20  37  61  92 125 164 222 265 326 386
#     4  11  24  42  63  89 124 175 212 264 335 402
#     4  11  23  40  65  91 136 168 212 275 332 392
#     4  10  21  39  59  95 129 167 218 272 329 392
#
# _framework density 20.939855000000001
#
# number of rings (size 3 to 8) (size 9 to 14) (size 15 to 20)
#    0.000    1.500    5.000    1.875    5.250    3.000 
#    0.000    1.250    0.000    4.500    0.000    0.000 
#    0.000    0.000    0.000    0.000    0.000    0.000 
#
# Total GULP energy -396501.616754 kJ/mol
# GULP energy per Si atom -12390.675524 kJ/mol
# Density = 2.089219 g / cm^3
# Si number density = 20.939855 Si / 1000 Ang^3
#
#
#
# Elastic Constant Matrix: (Units=GPa)
#
#
# Indices 1 2 3 4 5 6 
#
# 1 106.0780 54.7987 17.8188 0.0000 0.0000 0.0000
# 2 54.7987 123.1282 33.4311 0.0000 0.0000 0.0000
# 3 17.8188 33.4311 33.4318 0.0000 0.0000 0.0000
# 4 0.0000 0.0000 0.0000 23.2808 0.0000 0.0000
# 5 0.0000 0.0000 0.0000 0.0000 22.8096 0.0000
# 6 0.0000 0.0000 0.0000 0.0000 0.0000 45.7679
#
#
#
# Elastic Compliance Matrix: (Units=1/GPa)
#
#
# Indices 1 2 3 4 5 6 
#
# 1 0.012295 -0.005069 -0.001484 0.000000 0.000000 0.000000
# 2 -0.005069 0.013238 -0.010536 0.000000 0.000000 0.000000
# 3 -0.001484 -0.010536 0.041239 0.000000 0.000000 0.000000
# 4 0.000000 0.000000 0.000000 0.042954 0.000000 0.000000
# 5 0.000000 0.000000 0.000000 0.000000 0.043841 0.000000
# 6 0.000000 0.000000 0.000000 0.000000 0.000000 0.021849
#
#
# Mechanical properties :
#
#
# Convention : Reuss Voigt Hill
#
# Bulk Modulus (GPa) = 30.68137 52.74836 41.71486
# Shear Modulus (GPa) = 22.67984 28.81095 25.74540
#
# Velocity S-wave (km/s) = 3.29461 3.71332 3.51022
# Velocity P-wave (km/s) = 5.39968 6.60531 6.03269
#
# Compressibility (1/GPa) = 0.03259307
#
# Stress axis : x y z
#
# Youngs Moduli (GPa) = 81.33464 75.53827 24.24891
#
# Poissons Ratio (x) = 0.38289 0.03599
# Poissons Ratio (y) = 0.41228 0.25550
# Poissons Ratio (z) = 0.12072 0.79590
#
# Static dielectric constant tensor:
#      x y z
#    x 3.822040 0.000000 0.000000 
#    y 0.000000 4.039270 0.000000 
#    z 0.000000 0.000000 3.263390 
# 
# 
# High freq. dielectric constant tensor:
#      x y z
#    x 1.833460 0.000000 0.000000 
#    y 0.000000 1.835610 0.000000 
#    z 0.000000 0.000000 1.762940 
# 
# From -- ./inp_files/10404.got.cif
#   From: 2010.03.12/outbox.cif.g09.slc.cpg/sg41_6_cif.got.tgz:10404.got - 2010.04.14 01:55:53.
