data_PCOD8184452
_publ_section_title
;
Structure prediction by ZEFSAII (Michael W. Deem and Ramdas Pophale) SiO2 
 PCOD8184452
Probable space group: A M A 2
;
_chemical_formula_sum "Si O2"
_cell_formula_units_Z 36
_cell_length_a 18.001629
_cell_length_b 10.669172
_cell_length_c 9.025256
_cell_angle_alpha 90.000000
_cell_angle_beta 90.000000
_cell_angle_gamma 90.000000
_cell_volume 1733.413015
_symmetry_space_group_name_H-M "A M A 2"
_symmetry_group_IT_number 40
_symmetry_cell_setting 'orthorhombic'
loop_
_space_group_symop_operation_xyz
x,y,z
-x,-y,z
1/2-x,y,z
1/2+x,-y,z
x,1/2+y,1/2+z
-x,1/2-y,1/2+z
1/2-x,1/2+y,1/2+z
1/2+x,1/2-y,1/2+z
loop_
_atom_site_type_symbol
_atom_site_label
_atom_site_fract_x
_atom_site_fract_y
_atom_site_fract_z
Si Si1 0.250000 0.530426 0.625000
Si Si2 0.750000 0.181186 0.548834
Si Si3 0.488309 0.854692 0.141925
Si Si4 0.407738 0.203816 0.388055
Si Si5 0.750000 0.164982 0.870995
Si Si6 0.630373 0.060483 0.350231
O O1 0.250000 0.673022 0.578853
O O2 0.250000 0.453287 0.475159
O O3 0.322424 0.500508 0.718409
O O4 0.750000 0.109059 0.705332
O O5 0.676745 0.145246 0.460437
O O6 0.561203 0.790311 0.217522
O O7 0.428965 0.847749 0.275614
O O8 0.500000 0.000000 0.094593
O O9 0.461658 0.778162 0.999312
O O10 0.323415 0.252260 0.397860
O O11 0.407450 0.056842 0.436198
#
# Coordination Sequence:
#
# PCOD8184452 Si02
#       6
#     4   4   8   8   4   8
#     4  11  21  41  64  92 134 175 217 269 324 392
#     4  11  24  39  67 101 130 171 228 268 326 389
#     4  10  24  43  67  96 133 176 218 269 339 391
#     4  11  23  45  69  95 134 172 219 276 327 398
#     4  12  23  40  69  95 130 172 219 273 328 393
#     4  10  22  43  66  92 132 177 215 268 332 390
#
# _framework density 20.768274000000002
#
# number of rings (size 3 to 8) (size 9 to 14) (size 15 to 20)
#    0.000    1.333    4.444    0.667    3.111    1.778 
#    4.000    0.000    0.000    0.000    0.000    0.000 
#    0.000    0.000    0.000    0.000    0.000    0.000 
#
# Total GULP energy -223154.454591 kJ/mol
# GULP energy per Si atom -12397.469700 kJ/mol
# Density = 2.072100 g / cm^3
# Si number density = 20.768274 Si / 1000 Ang^3
#
#
#
# Elastic Constant Matrix: (Units=GPa)
#
#
# Indices 1 2 3 4 5 6 
#
# 1 91.7184 30.2093 31.1439 0.0000 0.0000 0.0000
# 2 30.2093 82.0823 65.2268 0.0000 0.0000 0.0000
# 3 31.1439 65.2268 108.5620 0.0000 0.0000 0.0000
# 4 0.0000 0.0000 0.0000 36.6640 0.0000 0.0000
# 5 0.0000 0.0000 0.0000 0.0000 4.4611 0.0000
# 6 0.0000 0.0000 0.0000 0.0000 0.0000 9.9241
#
#
#
# Elastic Compliance Matrix: (Units=1/GPa)
#
#
# Indices 1 2 3 4 5 6 
#
# 1 0.012547 -0.003363 -0.001579 0.000000 0.000000 0.000000
# 2 -0.003363 0.024216 -0.013585 0.000000 0.000000 0.000000
# 3 -0.001579 -0.013585 0.017826 0.000000 0.000000 0.000000
# 4 0.000000 0.000000 0.000000 0.027275 0.000000 0.000000
# 5 0.000000 0.000000 0.000000 0.000000 0.224160 0.000000
# 6 0.000000 0.000000 0.000000 0.000000 0.000000 0.100764
#
#
# Mechanical properties :
#
#
# Convention : Reuss Voigt Hill
#
# Bulk Modulus (GPa) = 57.02645 59.50253 58.26449
# Shear Modulus (GPa) = 11.11889 20.59537 15.85713
#
# Velocity S-wave (km/s) = 2.31633 3.15250 2.76620
# Velocity P-wave (km/s) = 5.88829 6.47796 6.19015
#
# Compressibility (1/GPa) = 0.01753572
#
# Stress axis : x y z
#
# Youngs Moduli (GPa) = 79.70214 41.29559 56.09725
#
# Poissons Ratio (x) = 0.13888 0.08856
# Poissons Ratio (y) = 0.26805 0.76206
# Poissons Ratio (z) = 0.12583 0.56098
#
# Static dielectric constant tensor:
#      x y z
#    x 4.197920 0.000000 0.000000 
#    y 0.000000 3.660340 0.000000 
#    z 0.000000 0.000000 4.031440 
# 
# 
# High freq. dielectric constant tensor:
#      x y z
#    x 1.837820 0.000000 0.000000 
#    y 0.000000 1.807620 0.000000 
#    z 0.000000 0.000000 1.804020 
# 
# From -- ./inp_files/7175.got.cif
#   From: 2010.03.12/outbox.cif.g09.slc.cpg/sg40_4_cif.got.tgz:7175.got - 2010.04.14 01:38:03.
