data_PCOD8184510
_publ_section_title
;
Structure prediction by ZEFSAII (Michael W. Deem and Ramdas Pophale) SiO2 
 PCOD8184510
Probable space group: A M A 2
;
_chemical_formula_sum "Si O2"
_cell_formula_units_Z 36
_cell_length_a 13.820506
_cell_length_b 5.474044
_cell_length_c 18.620444
_cell_angle_alpha 90.000000
_cell_angle_beta 90.000000
_cell_angle_gamma 90.000000
_cell_volume 1408.712149
_symmetry_space_group_name_H-M "A M A 2"
_symmetry_group_IT_number 40
_symmetry_cell_setting 'orthorhombic'
loop_
_space_group_symop_operation_xyz
x,y,z
-x,-y,z
1/2-x,y,z
1/2+x,-y,z
x,1/2+y,1/2+z
-x,1/2-y,1/2+z
1/2-x,1/2+y,1/2+z
1/2+x,1/2-y,1/2+z
loop_
_atom_site_type_symbol
_atom_site_label
_atom_site_fract_x
_atom_site_fract_y
_atom_site_fract_z
Si Si1 0.500000 0.500000 0.167310
Si Si2 0.634831 0.871080 0.914377
Si Si3 0.861879 0.368433 0.847015
Si Si4 0.358465 0.690244 0.575724
Si Si5 0.643276 0.626391 0.708091
O O1 0.423023 0.390139 0.112964
O O2 0.557805 0.319444 0.220577
O O3 0.750000 0.872393 0.904695
O O4 0.592452 0.619911 0.879858
O O5 0.590184 0.116513 0.876513
O O6 0.602951 0.882480 0.997416
O O7 0.750000 0.359019 0.869610
O O8 0.874837 0.392111 0.760290
O O9 0.250000 0.797166 0.570291
O O10 0.361031 0.449197 0.625005
O O11 0.750000 0.737800 0.726668
#
# Coordination Sequence:
#
# PCOD8184510 Si02
#       5
#     4   8   8   8   8
#     4  12  24  40  68 100 144 180 238 300 350 426
#     4   9  19  37  66 100 131 169 222 281 344 413
#     4   9  19  37  66 100 131 169 222 281 344 413
#     4  10  23  42  69  99 134 185 236 288 353 424
#     4  10  23  42  69  99 134 185 236 288 353 424
#
# _framework density 25.555257000000001
#
# number of rings (size 3 to 8) (size 9 to 14) (size 15 to 20)
#    0.000    2.222    0.000    1.333    6.222    0.000 
#    0.000    0.000    9.778    0.000    0.000    0.000 
#    0.000    1.778    0.000    0.000    0.000    0.000 
#
# Total GULP energy -223140.234149 kJ/mol
# GULP energy per Si atom -12396.679675 kJ/mol
# Density = 2.549709 g / cm^3
# Si number density = 25.555257 Si / 1000 Ang^3
#
#
#
# Elastic Constant Matrix: (Units=GPa)
#
#
# Indices 1 2 3 4 5 6 
#
# 1 61.2447 36.4493 5.8990 0.0000 0.0000 0.0000
# 2 36.4493 163.0028 51.4951 0.0000 0.0000 0.0000
# 3 5.8990 51.4951 147.9812 0.0000 0.0000 0.0000
# 4 0.0000 0.0000 0.0000 35.7354 0.0000 0.0000
# 5 0.0000 0.0000 0.0000 0.0000 -6.1219 0.0000
# 6 0.0000 0.0000 0.0000 0.0000 0.0000 40.7853
#
#
#
# Elastic Compliance Matrix: (Units=1/GPa)
#
#
# Indices 1 2 3 4 5 6 
#
# 1 0.018920 -0.004486 0.000807 0.000000 0.000000 0.000000
# 2 -0.004486 0.007956 -0.002590 0.000000 0.000000 0.000000
# 3 0.000807 -0.002590 0.007627 0.000000 0.000000 0.000000
# 4 0.000000 0.000000 0.000000 0.027983 0.000000 0.000000
# 5 0.000000 0.000000 0.000000 0.000000 -0.163348 0.000000
# 6 0.000000 0.000000 0.000000 0.000000 0.000000 0.024519
#
#
# Mechanical properties :
#
#
# Convention : Reuss Voigt Hill
#
# Bulk Modulus (GPa) = 45.52645 62.21285 53.86965
# Shear Modulus (GPa) = -88.52056 32.63876 -27.94090
#
# Velocity S-wave (km/s) = -5.89187 3.57765 -3.31018
# Velocity P-wave (km/s) = 5.33215 6.43921 2.55260
#
# Compressibility (1/GPa) = 0.02196525
#
# Stress axis : x y z
#
# Youngs Moduli (GPa) = 52.85475 125.69090 131.11904
#
# Poissons Ratio (x) = 0.56379 -0.10577
# Poissons Ratio (y) = 0.23708 0.33957
# Poissons Ratio (z) = -0.04264 0.32551
#
# Static dielectric constant tensor:
#      x y z
#    x 4.605350 0.000000 0.000000 
#    y 0.000000 4.545420 0.000000 
#    z 0.000000 0.000000 4.568180 
# 
# 
# High freq. dielectric constant tensor:
#      x y z
#    x 2.024410 0.000000 0.000000 
#    y 0.000000 2.009000 0.000000 
#    z 0.000000 0.000000 2.021450 
# 
# From -- ./inp_files/22921.got.cif
#   From: 2010.03.12/outbox.cif.g09.slc.cpg/sg40_12_cif.got.tgz:22921.got - 2010.04.14 01:38:03.
