data_PCOD8184564
_publ_section_title
;
Structure prediction by ZEFSAII (Michael W. Deem and Ramdas Pophale) SiO2 
 PCOD8184564
Probable space group: A M A 2
;
_chemical_formula_sum "Si O2"
_cell_formula_units_Z 48
_cell_length_a 13.420501
_cell_length_b 19.964584
_cell_length_c 8.399027
_cell_angle_alpha 90.000000
_cell_angle_beta 90.000000
_cell_angle_gamma 90.000000
_cell_volume 2250.390944
_symmetry_space_group_name_H-M "A M A 2"
_symmetry_group_IT_number 40
_symmetry_cell_setting 'orthorhombic'
loop_
_space_group_symop_operation_xyz
x,y,z
-x,-y,z
1/2-x,y,z
1/2+x,-y,z
x,1/2+y,1/2+z
-x,1/2-y,1/2+z
1/2-x,1/2+y,1/2+z
1/2+x,1/2-y,1/2+z
loop_
_atom_site_type_symbol
_atom_site_label
_atom_site_fract_x
_atom_site_fract_y
_atom_site_fract_z
Si Si1 0.250000 0.735533 0.572011
Si Si2 0.250000 0.161174 0.733402
Si Si3 0.563262 0.158150 0.891727
Si Si4 0.369422 0.896284 0.206210
Si Si5 0.500000 0.500000 0.892593
Si Si6 0.561380 0.715930 0.937755
Si Si7 0.551780 0.386650 0.119077
Si Si8 0.250000 0.747435 0.911577
O O1 0.250000 0.691437 0.410777
O O2 0.349756 0.780931 0.567639
O O3 0.250000 0.699859 0.749275
O O4 0.346394 0.114996 0.717460
O O5 0.250000 0.212529 0.583005
O O6 0.573557 0.107178 0.038468
O O7 0.467098 0.208203 0.891353
O O8 0.543173 0.110266 0.739098
O O9 0.659153 0.203165 0.889856
O O10 0.250000 0.904832 0.191627
O O11 0.416231 0.960763 0.292671
O O12 0.395462 0.825576 0.289248
O O13 0.559758 0.449678 0.004700
O O14 0.463923 0.679846 0.010388
#
# Coordination Sequence:
#
# PCOD8184564 Si02
#       8
#     4   4   8   8   4   8   8   4
#     4  12  22  34  61 102 143 178 214 264 350 430
#     4  12  24  40  65  99 146 182 216 281 343 421
#     4  12  22  38  67 102 137 169 217 282 348 424
#     4  11  24  44  72  98 136 181 233 286 346 419
#     4  10  28  48  70  86 124 190 240 296 338 398
#     4  11  21  37  63 101 140 173 211 268 351 424
#     4  11  24  43  65  93 136 178 228 281 339 404
#     4  12  24  36  64 111 141 176 218 265 365 425
#
# _framework density 21.329626000000001
#
# number of rings (size 3 to 8) (size 9 to 14) (size 15 to 20)
#    0.000    0.667    6.667    2.000    1.167    0.667 
#    0.000    0.000    7.333    0.000    0.000    0.000 
#    0.000    0.000    0.000    0.000    0.000    0.000 
#
# Total GULP energy -297367.354329 kJ/mol
# GULP energy per Si atom -12390.306430 kJ/mol
# Density = 2.128108 g / cm^3
# Si number density = 21.329626 Si / 1000 Ang^3
#
#
#
# Elastic Constant Matrix: (Units=GPa)
#
#
# Indices 1 2 3 4 5 6 
#
# 1 89.6387 41.3980 10.6284 0.0000 0.0000 0.0000
# 2 41.3980 93.0808 52.9887 0.0000 0.0000 0.0000
# 3 10.6284 52.9887 137.5976 0.0000 0.0000 0.0000
# 4 0.0000 0.0000 0.0000 18.6939 0.0000 0.0000
# 5 0.0000 0.0000 0.0000 0.0000 39.7834 0.0000
# 6 0.0000 0.0000 0.0000 0.0000 0.0000 22.8703
#
#
#
# Elastic Compliance Matrix: (Units=1/GPa)
#
#
# Indices 1 2 3 4 5 6 
#
# 1 0.014354 -0.007368 0.001729 0.000000 0.000000 0.000000
# 2 -0.007368 0.017542 -0.006186 0.000000 0.000000 0.000000
# 3 0.001729 -0.006186 0.009516 0.000000 0.000000 0.000000
# 4 0.000000 0.000000 0.000000 0.053493 0.000000 0.000000
# 5 0.000000 0.000000 0.000000 0.000000 0.025136 0.000000
# 6 0.000000 0.000000 0.000000 0.000000 0.000000 0.043725
#
#
# Mechanical properties :
#
#
# Convention : Reuss Voigt Hill
#
# Bulk Modulus (GPa) = 56.30336 58.92748 57.61542
# Shear Modulus (GPa) = 25.86147 30.62299 28.24223
#
# Velocity S-wave (km/s) = 3.48583 3.79318 3.64275
# Velocity P-wave (km/s) = 6.53111 6.84626 6.69054
#
# Compressibility (1/GPa) = 0.01776093
#
# Stress axis : x y z
#
# Youngs Moduli (GPa) = 69.66853 57.00609 105.08204
#
# Poissons Ratio (x) = 0.42002 -0.18165
# Poissons Ratio (y) = 0.51331 0.65007
# Poissons Ratio (z) = -0.12043 0.35266
#
# Static dielectric constant tensor:
#      x y z
#    x 0.897790 0.000000 0.000000 
#    y 0.000000 3.541500 0.000000 
#    z 0.000000 0.000000 4.282860 
# 
# 
# High freq. dielectric constant tensor:
#      x y z
#    x 1.855020 0.000000 0.000000 
#    y 0.000000 1.792440 0.000000 
#    z 0.000000 0.000000 1.858400 
# 
# From -- ./inp_files/6507.got.cif
#   From: 2010.03.12/outbox.cif.g09.slc.cpg/sg40_4_cif.got.tgz:6507.got - 2010.04.14 01:38:03.
