data_PCOD8184067
_publ_section_title
;
Structure prediction by ZEFSAII (Michael W. Deem and Ramdas Pophale) SiO2 
 PCOD8184067
Probable space group: A M A 2
;
_chemical_formula_sum "Si O2"
_cell_formula_units_Z 64
_cell_length_a 18.809770
_cell_length_b 11.646254
_cell_length_c 15.321036
_cell_angle_alpha 90.000000
_cell_angle_beta 90.000000
_cell_angle_gamma 90.000000
_cell_volume 3356.277611
_symmetry_space_group_name_H-M "A M A 2"
_symmetry_group_IT_number 40
_symmetry_cell_setting 'orthorhombic'
loop_
_space_group_symop_operation_xyz
x,y,z
-x,-y,z
1/2-x,y,z
1/2+x,-y,z
x,1/2+y,1/2+z
-x,1/2-y,1/2+z
1/2-x,1/2+y,1/2+z
1/2+x,1/2-y,1/2+z
loop_
_atom_site_type_symbol
_atom_site_label
_atom_site_fract_x
_atom_site_fract_y
_atom_site_fract_z
Si Si1 0.916322 0.204881 0.140090
Si Si2 0.831648 0.940689 0.407330
Si Si3 0.917131 0.979645 0.233230
Si Si4 0.926675 0.933482 0.735882
Si Si5 0.931703 0.814640 0.079786
Si Si6 0.918523 0.545355 0.065375
Si Si7 0.583313 0.479333 0.425605
Si Si8 0.670311 0.698520 0.481147
O O1 0.938516 0.300285 0.211009
O O2 0.983324 0.170633 0.079683
O O3 0.886673 0.092197 0.186597
O O4 0.854936 0.247593 0.075021
O O5 0.750000 0.983451 0.404146
O O6 0.872128 0.968470 0.319517
O O7 0.834853 0.803636 0.414711
O O8 0.871202 0.004525 0.485589
O O9 0.903775 0.869624 0.170720
O O10 0.000000 0.000000 0.255933
O O11 0.887842 0.939076 0.829888
O O12 0.885183 0.994292 0.655468
O O13 0.000000 0.000000 0.745624
O O14 0.912052 0.681958 0.071408
O O15 0.898686 0.882051 0.997170
O O16 0.000000 0.500000 0.054282
O O17 0.500000 0.500000 0.422416
O O18 0.621495 0.596666 0.448364
O O19 0.750000 0.651953 0.489353
#
# Coordination Sequence:
#
# PCOD8184067 Si02
#       8
#     8   8   8   8   8   8   8   8
#     4  11  19  40  61  91 123 158 203 251 309 364
#     4  11  25  43  61  89 125 168 211 251 308 374
#     4  10  23  37  64  94 120 158 207 257 307 368
#     4  10  21  35  60  95 123 153 199 256 310 360
#     4  11  20  38  63  94 124 153 203 258 311 356
#     4  11  21  39  62  92 126 159 198 257 310 365
#     4  11  22  37  63  93 123 158 203 261 307 363
#     4  11  23  41  63  85 122 169 208 250 307 373
#
# _framework density 19.068743999999999
#
# number of rings (size 3 to 8) (size 9 to 14) (size 15 to 20)
#    0.000    1.250    6.250    0.750    3.500    1.500 
#    0.000    2.500    0.000    0.000    0.000    0.000 
#    0.000    0.000    0.000    0.000    0.000    0.000 
#
# Total GULP energy -396691.496295 kJ/mol
# GULP energy per Si atom -12396.609259 kJ/mol
# Density = 1.902534 g / cm^3
# Si number density = 19.068744 Si / 1000 Ang^3
#
#
#
# Elastic Constant Matrix: (Units=GPa)
#
#
# Indices 1 2 3 4 5 6 
#
# 1 76.4250 33.7138 55.7847 0.0000 0.0000 0.0000
# 2 33.7138 129.3021 56.7819 0.0000 0.0000 0.0000
# 3 55.7847 56.7819 160.7418 0.0000 0.0000 0.0000
# 4 0.0000 0.0000 0.0000 24.3229 0.0000 0.0000
# 5 0.0000 0.0000 0.0000 0.0000 -14.6195 0.0000
# 6 0.0000 0.0000 0.0000 0.0000 0.0000 20.8387
#
#
#
# Elastic Compliance Matrix: (Units=1/GPa)
#
#
# Indices 1 2 3 4 5 6 
#
# 1 0.018093 -0.002320 -0.005460 0.000000 0.000000 0.000000
# 2 -0.002320 0.009451 -0.002534 0.000000 0.000000 0.000000
# 3 -0.005460 -0.002534 0.009011 0.000000 0.000000 0.000000
# 4 0.000000 0.000000 0.000000 0.041113 0.000000 0.000000
# 5 0.000000 0.000000 0.000000 0.000000 -0.068402 0.000000
# 6 0.000000 0.000000 0.000000 0.000000 0.000000 0.047988
#
#
# Mechanical properties :
#
#
# Convention : Reuss Voigt Hill
#
# Bulk Modulus (GPa) = 62.77818 73.22553 68.00186
# Shear Modulus (GPa) = 60.10270 20.78766 40.44518
#
# Velocity S-wave (km/s) = 5.62027 3.30531 4.61045
# Velocity P-wave (km/s) = 8.66660 7.28361 8.00503
#
# Compressibility (1/GPa) = 0.01592910
#
# Stress axis : x y z
#
# Youngs Moduli (GPa) = 55.26900 105.80538 110.97711
#
# Poissons Ratio (x) = 0.24547 0.60590
# Poissons Ratio (y) = 0.12823 0.28116
# Poissons Ratio (z) = 0.30175 0.26806
#
# Static dielectric constant tensor:
#      x y z
#    x 3.281020 0.000000 0.000000 
#    y 0.000000 3.598050 0.000000 
#    z 0.000000 0.000000 3.945690 
# 
# 
# High freq. dielectric constant tensor:
#      x y z
#    x 1.701160 0.000000 0.000000 
#    y 0.000000 1.755530 0.000000 
#    z 0.000000 0.000000 1.756270 
# 
# From -- ./inp_files/17836.got.cif
#   From: 2010.03.12/outbox.cif.g09.slc.cpg/sg40_9_cif.got.tgz:17836.got - 2010.04.14 01:38:03.
