data_PCOD8184595
_publ_section_title
;
Structure prediction by ZEFSAII (Michael W. Deem and Ramdas Pophale) SiO2 
 PCOD8184595
Probable space group: A M A 2
;
_chemical_formula_sum "Si O2"
_cell_formula_units_Z 64
_cell_length_a 8.846328
_cell_length_b 25.048878
_cell_length_c 15.104963
_cell_angle_alpha 90.000000
_cell_angle_beta 90.000000
_cell_angle_gamma 90.000000
_cell_volume 3347.117675
_symmetry_space_group_name_H-M "A M A 2"
_symmetry_group_IT_number 40
_symmetry_cell_setting 'orthorhombic'
loop_
_space_group_symop_operation_xyz
x,y,z
-x,-y,z
1/2-x,y,z
1/2+x,-y,z
x,1/2+y,1/2+z
-x,1/2-y,1/2+z
1/2-x,1/2+y,1/2+z
1/2+x,1/2-y,1/2+z
loop_
_atom_site_type_symbol
_atom_site_label
_atom_site_fract_x
_atom_site_fract_y
_atom_site_fract_z
Si Si1 0.072305 0.169177 0.740470
Si Si2 0.925128 0.359359 0.049377
Si Si3 0.928625 0.555993 0.922797
Si Si4 0.581086 0.236441 0.469204
Si Si5 0.571732 0.555346 0.553018
Si Si6 0.572527 0.356743 0.432497
Si Si7 0.069539 0.398533 0.737231
Si Si8 0.579955 0.716368 0.765023
O O1 0.250000 0.179511 0.753787
O O2 0.038222 0.133513 0.654218
O O3 0.016553 0.140041 0.829905
O O4 0.998444 0.228976 0.731834
O O5 0.750000 0.370467 0.029357
O O6 0.027018 0.400227 0.995447
O O7 0.963509 0.298038 0.026175
O O8 0.750000 0.550354 0.922688
O O9 0.991153 0.572622 0.825946
O O10 0.000000 0.500000 0.951113
O O11 0.750000 0.229323 0.508062
O O12 0.533997 0.298464 0.471866
O O13 0.577901 0.213874 0.370612
O O14 0.500000 0.500000 0.522019
O O15 0.750000 0.549748 0.552046
O O16 0.524167 0.600623 0.484979
O O17 0.512346 0.569293 0.651679
O O18 0.750000 0.369509 0.441269
O O19 0.250000 0.395500 0.741863
O O20 0.000471 0.338256 0.731131
O O21 0.750000 0.715684 0.728281
#
# Coordination Sequence:
#
# PCOD8184595 Si02
#       8
#     8   8   8   8   8   8   8   8
#     4   8  17  32  54  80 112 149 183 223 272 329
#     4  11  21  33  54  86 116 146 187 231 273 324
#     4  11  22  39  59  80 110 150 189 230 277 332
#     4   9  17  32  55  80 111 149 183 219 272 330
#     4  11  23  38  58  83 110 144 187 236 282 329
#     4   9  19  38  60  81 109 147 189 231 278 331
#     4   9  18  32  55  82 111 147 184 221 270 332
#     4   8  13  28  52  78 107 145 183 211 258 328
#
# _framework density 19.120929
#
# number of rings (size 3 to 8) (size 9 to 14) (size 15 to 20)
#    0.000    2.500    1.250    3.000    1.750    0.500 
#    0.000    3.750    0.000    1.500    0.000    0.000 
#    0.000    0.000    0.000    0.000    0.000    0.000 
#
# Total GULP energy -396666.228926 kJ/mol
# GULP energy per Si atom -12395.819654 kJ/mol
# Density = 1.907741 g / cm^3
# Si number density = 19.120929 Si / 1000 Ang^3
#
#
#
# Elastic Constant Matrix: (Units=GPa)
#
#
# Indices 1 2 3 4 5 6 
#
# 1 47.5770 33.3464 31.0442 0.0000 0.0000 0.0000
# 2 33.3464 120.5593 57.5676 0.0000 0.0000 0.0000
# 3 31.0442 57.5676 103.8727 0.0000 0.0000 0.0000
# 4 0.0000 0.0000 0.0000 25.6949 0.0000 0.0000
# 5 0.0000 0.0000 0.0000 0.0000 21.0017 0.0000
# 6 0.0000 0.0000 0.0000 0.0000 0.0000 28.8058
#
#
#
# Elastic Compliance Matrix: (Units=1/GPa)
#
#
# Indices 1 2 3 4 5 6 
#
# 1 0.028280 -0.005149 -0.005598 0.000000 0.000000 0.000000
# 2 -0.005149 0.012217 -0.005232 0.000000 0.000000 0.000000
# 3 -0.005598 -0.005232 0.014200 0.000000 0.000000 0.000000
# 4 0.000000 0.000000 0.000000 0.038918 0.000000 0.000000
# 5 0.000000 0.000000 0.000000 0.000000 0.047615 0.000000
# 6 0.000000 0.000000 0.000000 0.000000 0.000000 0.034715
#
#
# Mechanical properties :
#
#
# Convention : Reuss Voigt Hill
#
# Bulk Modulus (GPa) = 43.97800 57.32506 50.65153
# Shear Modulus (GPa) = 23.20347 25.10387 24.15367
#
# Velocity S-wave (km/s) = 3.48733 3.62733 3.55802
# Velocity P-wave (km/s) = 6.26619 6.89846 6.58991
#
# Compressibility (1/GPa) = 0.02273864
#
# Stress axis : x y z
#
# Youngs Moduli (GPa) = 35.36007 81.85169 70.42228
#
# Poissons Ratio (x) = 0.42146 0.39426
# Poissons Ratio (y) = 0.18207 0.36845
# Poissons Ratio (z) = 0.19796 0.42825
#
# Static dielectric constant tensor:
#      x y z
#    x 3.104700 0.000000 0.000000 
#    y 0.000000 3.509710 0.000000 
#    z 0.000000 0.000000 3.539770 
# 
# 
# High freq. dielectric constant tensor:
#      x y z
#    x 1.706000 0.000000 0.000000 
#    y 0.000000 1.745060 0.000000 
#    z 0.000000 0.000000 1.742660 
# 
# From -- ./inp_files/15667.got.cif
#   From: 2010.03.12/outbox.cif.g09.slc.cpg/sg40_8_cif.got.tgz:15667.got - 2010.04.14 01:38:03.
