data_PCOD8184008
_publ_section_title
;
Structure prediction by ZEFSAII (Michael W. Deem and Ramdas Pophale) SiO2 
 PCOD8184008
Probable space group: A M A 2
;
_chemical_formula_sum "Si O2"
_cell_formula_units_Z 36
_cell_length_a 15.621416
_cell_length_b 15.963135
_cell_length_c 7.321503
_cell_angle_alpha 90.000000
_cell_angle_beta 90.000000
_cell_angle_gamma 90.000000
_cell_volume 1825.739573
_symmetry_space_group_name_H-M "A M A 2"
_symmetry_group_IT_number 40
_symmetry_cell_setting 'orthorhombic'
loop_
_space_group_symop_operation_xyz
x,y,z
-x,-y,z
1/2-x,y,z
1/2+x,-y,z
x,1/2+y,1/2+z
-x,1/2-y,1/2+z
1/2-x,1/2+y,1/2+z
1/2+x,1/2-y,1/2+z
loop_
_atom_site_type_symbol
_atom_site_label
_atom_site_fract_x
_atom_site_fract_y
_atom_site_fract_z
Si Si1 0.082437 0.442522 0.857720
Si Si2 0.918143 0.706101 0.576195
Si Si3 0.250000 0.717504 0.650387
Si Si4 0.250000 0.708554 0.051764
Si Si5 0.750000 0.448047 0.831448
Si Si6 0.914438 0.190260 0.650373
O O1 0.069786 0.374835 0.699404
O O2 0.166477 0.495889 0.817989
O O3 0.000000 0.500000 0.856225
O O4 0.090758 0.400412 0.056333
O O5 0.836023 0.759115 0.650915
O O6 0.908804 0.677627 0.366814
O O7 0.998455 0.766525 0.590271
O O8 0.250000 0.615665 0.656679
O O9 0.162822 0.753656 0.563416
O O10 0.250000 0.753704 0.855768
O O11 0.250000 0.607232 0.019972
#
# Coordination Sequence:
#
# PCOD8184008 Si02
#       6
#     8   8   4   4   4   8
#     4  12  24  38  64  92 128 160 198 264 314 346
#     4  11  21  40  64  89 120 165 209 246 299 376
#     4   8  19  38  63  85 116 162 205 243 296 375
#     4   8  19  38  63  85 116 162 205 243 296 375
#     4  10  20  40  62  90 124 158 198 266 316 342
#     4  11  21  40  64  89 120 165 209 246 299 376
#
# _framework density 19.718038
#
# number of rings (size 3 to 8) (size 9 to 14) (size 15 to 20)
#    0.667    0.889    2.222    4.000    0.000    0.889 
#    0.000    0.000    4.889    0.000    0.000    0.000 
#    0.000    0.000    0.000    0.000    0.000    0.000 
#
# Total GULP energy -223079.376256 kJ/mol
# GULP energy per Si atom -12393.298681 kJ/mol
# Density = 1.967316 g / cm^3
# Si number density = 19.718038 Si / 1000 Ang^3
#
#
#
# Elastic Constant Matrix: (Units=GPa)
#
#
# Indices 1 2 3 4 5 6 
#
# 1 161.1227 37.2705 -11.1645 0.0000 0.0000 0.0000
# 2 37.2705 90.3501 0.5657 0.0000 0.0000 0.0000
# 3 -11.1645 0.5657 57.8003 0.0000 0.0000 0.0000
# 4 0.0000 0.0000 0.0000 43.8172 0.0000 0.0000
# 5 0.0000 0.0000 0.0000 0.0000 19.3446 0.0000
# 6 0.0000 0.0000 0.0000 0.0000 0.0000 45.8187
#
#
#
# Elastic Compliance Matrix: (Units=1/GPa)
#
#
# Indices 1 2 3 4 5 6 
#
# 1 0.006969 -0.002883 0.001374 0.000000 0.000000 0.000000
# 2 -0.002883 0.012262 -0.000677 0.000000 0.000000 0.000000
# 3 0.001374 -0.000677 0.017573 0.000000 0.000000 0.000000
# 4 0.000000 0.000000 0.000000 0.022822 0.000000 0.000000
# 5 0.000000 0.000000 0.000000 0.000000 0.051694 0.000000
# 6 0.000000 0.000000 0.000000 0.000000 0.000000 0.021825
#
#
# Mechanical properties :
#
#
# Convention : Reuss Voigt Hill
#
# Bulk Modulus (GPa) = 30.83426 40.29073 35.56250
# Shear Modulus (GPa) = 33.70937 40.63621 37.17279
#
# Velocity S-wave (km/s) = 4.13918 4.54460 4.34662
# Velocity P-wave (km/s) = 6.20607 6.92933 6.57765
#
# Compressibility (1/GPa) = 0.03243146
#
# Stress axis : x y z
#
# Youngs Moduli (GPa) = 143.50050 81.55496 56.90547
#
# Poissons Ratio (x) = 0.23514 -0.07820
# Poissons Ratio (y) = 0.41375 0.03852
# Poissons Ratio (z) = -0.19721 0.05521
#
# Static dielectric constant tensor:
#      x y z
#    x 3.868220 0.000000 0.000000 
#    y 0.000000 3.571190 0.000000 
#    z 0.000000 0.000000 3.450890 
# 
# 
# High freq. dielectric constant tensor:
#      x y z
#    x 1.797960 0.000000 0.000000 
#    y 0.000000 1.762120 0.000000 
#    z 0.000000 0.000000 1.751390 
# 
# From -- ./inp_files/6093.got.cif
#   From: 2010.03.12/outbox.cif.g09.slc.cpg/sg40_4_cif.got.tgz:6093.got - 2010.04.14 01:38:03.
