data_PCOD8184125
_publ_section_title
;
Structure prediction by ZEFSAII (Michael W. Deem and Ramdas Pophale) SiO2 
 PCOD8184125
Probable space group: A M A 2
;
_chemical_formula_sum "Si O2"
_cell_formula_units_Z 64
_cell_length_a 8.761817
_cell_length_b 30.915822
_cell_length_c 11.982087
_cell_angle_alpha 90.000000
_cell_angle_beta 90.000000
_cell_angle_gamma 90.000000
_cell_volume 3245.693046
_symmetry_space_group_name_H-M "A M A 2"
_symmetry_group_IT_number 40
_symmetry_cell_setting 'orthorhombic'
loop_
_space_group_symop_operation_xyz
x,y,z
-x,-y,z
1/2-x,y,z
1/2+x,-y,z
x,1/2+y,1/2+z
-x,1/2-y,1/2+z
1/2-x,1/2+y,1/2+z
1/2+x,1/2-y,1/2+z
loop_
_atom_site_type_symbol
_atom_site_label
_atom_site_fract_x
_atom_site_fract_y
_atom_site_fract_z
Si Si1 0.930993 0.374201 0.301360
Si Si2 0.569868 0.295557 0.699957
Si Si3 0.568399 0.374368 0.554061
Si Si4 0.930882 0.699432 0.156433
Si Si5 0.568838 0.955336 0.655309
Si Si6 0.931354 0.956801 0.191965
Si Si7 0.427907 0.932129 0.420272
Si Si8 0.573974 0.668728 0.915808
O O1 0.750000 0.371916 0.298256
O O2 0.992758 0.377192 0.427856
O O3 0.989732 0.416051 0.233230
O O4 0.995404 0.330195 0.250731
O O5 0.750000 0.296088 0.691296
O O6 0.502462 0.331210 0.613940
O O7 0.507203 0.248215 0.669283
O O8 0.523602 0.305840 0.825645
O O9 0.750000 0.373665 0.555582
O O10 0.508024 0.415971 0.621539
O O11 0.750000 0.696387 0.168950
O O12 0.986080 0.682963 0.036433
O O13 0.750000 0.958226 0.655577
O O14 0.510229 0.948356 0.530754
O O15 0.500000 0.000000 0.703454
O O16 0.750000 0.958575 0.194227
O O17 0.995741 0.955930 0.316886
O O18 0.000000 0.000000 0.134714
O O19 0.250000 0.943873 0.428294
O O20 0.455491 0.881679 0.402903
O O21 0.750000 0.681157 0.899618
#
# Coordination Sequence:
#
# PCOD8184125 Si02
#       8
#     8   8   8   8   8   8   8   8
#     4  10  22  40  62  85 113 153 198 237 284 345
#     4  10  21  38  61  86 116 153 194 234 283 344
#     4   9  20  39  60  82 112 152 192 233 282 339
#     4  10  22  39  59  88 120 153 190 238 292 338
#     4  11  23  38  59  87 116 151 193 239 288 346
#     4  11  22  38  60  85 116 150 190 239 288 345
#     4  11  21  37  60  86 118 153 190 236 288 345
#     4  10  21  37  60  87 119 152 188 236 291 339
#
# _framework density 19.718437999999999
#
# number of rings (size 3 to 8) (size 9 to 14) (size 15 to 20)
#    0.000    1.750    2.500    1.500    1.750    2.500 
#    0.000    1.875    0.000    0.000    0.000    0.000 
#    0.000    0.000    0.000    0.000    0.000    0.000 
#
# Total GULP energy -396902.625456 kJ/mol
# GULP energy per Si atom -12403.207046 kJ/mol
# Density = 1.967356 g / cm^3
# Si number density = 19.718438 Si / 1000 Ang^3
#
#
#
# Elastic Constant Matrix: (Units=GPa)
#
#
# Indices 1 2 3 4 5 6 
#
# 1 36.7790 39.1945 17.7080 0.0000 0.0000 0.0000
# 2 39.1945 152.2427 68.8992 0.0000 0.0000 0.0000
# 3 17.7080 68.8992 136.8233 0.0000 0.0000 0.0000
# 4 0.0000 0.0000 0.0000 68.2419 0.0000 0.0000
# 5 0.0000 0.0000 0.0000 0.0000 13.8164 0.0000
# 6 0.0000 0.0000 0.0000 0.0000 0.0000 30.1744
#
#
#
# Elastic Compliance Matrix: (Units=1/GPa)
#
#
# Indices 1 2 3 4 5 6 
#
# 1 0.037469 -0.009651 0.000011 0.000000 0.000000 0.000000
# 2 -0.009651 0.010993 -0.004287 0.000000 0.000000 0.000000
# 3 0.000011 -0.004287 0.009466 0.000000 0.000000 0.000000
# 4 0.000000 0.000000 0.000000 0.014654 0.000000 0.000000
# 5 0.000000 0.000000 0.000000 0.000000 0.072378 0.000000
# 6 0.000000 0.000000 0.000000 0.000000 0.000000 0.033141
#
#
# Mechanical properties :
#
#
# Convention : Reuss Voigt Hill
#
# Bulk Modulus (GPa) = 33.25136 64.16093 48.70615
# Shear Modulus (GPa) = 23.15034 35.78277 29.46655
#
# Velocity S-wave (km/s) = 3.43015 4.26453 3.86990
# Velocity P-wave (km/s) = 5.70856 7.54039 6.68749
#
# Compressibility (1/GPa) = 0.03007395
#
# Stress axis : x y z
#
# Youngs Moduli (GPa) = 26.68846 90.96605 105.64214
#
# Poissons Ratio (x) = 0.87793 -0.00112
# Poissons Ratio (y) = 0.25758 0.45285
# Poissons Ratio (z) = -0.00028 0.38994
#
# Static dielectric constant tensor:
#      x y z
#    x 3.363150 0.000000 0.000000 
#    y 0.000000 3.184490 0.000000 
#    z 0.000000 0.000000 3.668810 
# 
# 
# High freq. dielectric constant tensor:
#      x y z
#    x 1.749610 0.000000 0.000000 
#    y 0.000000 1.789050 0.000000 
#    z 0.000000 0.000000 1.771420 
# 
# From -- ./inp_files/10650.got.cif
#   From: 2010.03.12/outbox.cif.g09.slc.cpg/sg40_6_cif.got.tgz:10650.got - 2010.04.14 01:38:03.
