data_PCOD8184544
_publ_section_title
;
Structure prediction by ZEFSAII (Michael W. Deem and Ramdas Pophale) SiO2 
 PCOD8184544
Probable space group: A M A 2
;
_chemical_formula_sum "Si O2"
_cell_formula_units_Z 48
_cell_length_a 23.329203
_cell_length_b 8.277644
_cell_length_c 11.678587
_cell_angle_alpha 90.000000
_cell_angle_beta 90.000000
_cell_angle_gamma 90.000000
_cell_volume 2255.261713
_symmetry_space_group_name_H-M "A M A 2"
_symmetry_group_IT_number 40
_symmetry_cell_setting 'orthorhombic'
loop_
_space_group_symop_operation_xyz
x,y,z
-x,-y,z
1/2-x,y,z
1/2+x,-y,z
x,1/2+y,1/2+z
-x,1/2-y,1/2+z
1/2-x,1/2+y,1/2+z
1/2+x,1/2-y,1/2+z
loop_
_atom_site_type_symbol
_atom_site_label
_atom_site_fract_x
_atom_site_fract_y
_atom_site_fract_z
Si Si1 0.838725 0.359078 0.784320
Si Si2 0.861754 0.948203 0.518326
Si Si3 0.750000 0.860449 0.658410
Si Si4 0.500000 0.000000 0.848037
Si Si5 0.750000 0.509344 0.626926
Si Si6 0.250000 0.397065 0.363523
Si Si7 0.070469 0.338216 0.177944
Si Si8 0.981895 0.817777 0.494671
O O1 0.806014 0.415445 0.670881
O O2 0.807042 0.206881 0.843424
O O3 0.902868 0.311586 0.746575
O O4 0.844724 0.491038 0.886309
O O5 0.805995 0.885072 0.581960
O O6 0.913083 0.813988 0.513883
O O7 0.883515 0.107262 0.582728
O O8 0.750000 0.675794 0.695541
O O9 0.750000 0.959118 0.773823
O O10 0.556310 0.016643 0.767012
O O11 0.496136 0.169198 0.916646
O O12 0.750000 0.526741 0.490396
O O13 0.011666 0.284956 0.117197
O O14 0.000000 0.000000 0.450156
#
# Coordination Sequence:
#
# PCOD8184544 Si02
#       8
#     8   8   4   4   4   4   8   8
#     4  11  23  43  69  94 137 180 216 294 339 402
#     4  11  21  43  69  91 138 177 219 286 348 397
#     4  12  23  40  69  97 128 188 223 277 346 411
#     4  12  22  46  74  94 140 190 224 290 356 408
#     4  11  26  43  63 105 136 171 240 274 344 421
#     4  11  23  43  66  96 136 173 233 277 340 414
#     4  11  23  43  69 102 135 180 235 282 355 415
#     4  10  24  44  65 106 138 176 235 288 343 426
#
# _framework density 21.283560000000001
#
# number of rings (size 3 to 8) (size 9 to 14) (size 15 to 20)
#    0.000    1.000    7.500    0.500    0.000    4.000 
#    7.500    0.000    0.000    0.000    0.000    0.000 
#    0.000    0.000    0.000    0.000    0.000    0.000 
#
# Total GULP energy -297360.844260 kJ/mol
# GULP energy per Si atom -12390.035178 kJ/mol
# Density = 2.123512 g / cm^3
# Si number density = 21.283560 Si / 1000 Ang^3
#
#
#
# Elastic Constant Matrix: (Units=GPa)
#
#
# Indices 1 2 3 4 5 6 
#
# 1 117.8294 24.4435 45.9882 0.0000 0.0000 0.0000
# 2 24.4435 88.3141 58.9272 0.0000 0.0000 0.0000
# 3 45.9882 58.9272 157.6790 0.0000 0.0000 0.0000
# 4 0.0000 0.0000 0.0000 39.9636 0.0000 0.0000
# 5 0.0000 0.0000 0.0000 0.0000 -22.6720 0.0000
# 6 0.0000 0.0000 0.0000 0.0000 0.0000 26.4380
#
#
#
# Elastic Compliance Matrix: (Units=1/GPa)
#
#
# Indices 1 2 3 4 5 6 
#
# 1 0.009650 -0.001056 -0.002420 0.000000 0.000000 0.000000
# 2 -0.001056 0.015200 -0.005373 0.000000 0.000000 0.000000
# 3 -0.002420 -0.005373 0.009056 0.000000 0.000000 0.000000
# 4 0.000000 0.000000 0.000000 0.025023 0.000000 0.000000
# 5 0.000000 0.000000 0.000000 0.000000 -0.044107 0.000000
# 6 0.000000 0.000000 0.000000 0.000000 0.000000 0.037824
#
#
# Mechanical properties :
#
#
# Convention : Reuss Voigt Hill
#
# Bulk Modulus (GPa) = 61.69462 69.17114 65.43288
# Shear Modulus (GPa) = 66.00936 24.37681 45.19308
#
# Velocity S-wave (km/s) = 5.57509 3.38795 4.61301
# Velocity P-wave (km/s) = 8.39595 6.91915 7.69307
#
# Compressibility (1/GPa) = 0.01620887
#
# Stress axis : x y z
#
# Youngs Moduli (GPa) = 103.62215 65.78770 110.42942
#
# Poissons Ratio (x) = 0.06950 0.26722
# Poissons Ratio (y) = 0.10947 0.59328
# Poissons Ratio (z) = 0.25075 0.35345
#
# Static dielectric constant tensor:
#      x y z
#    x 4.060020 0.000000 0.000000 
#    y 0.000000 3.638120 0.000000 
#    z 0.000000 0.000000 4.090930 
# 
# 
# High freq. dielectric constant tensor:
#      x y z
#    x 1.847900 0.000000 0.000000 
#    y 0.000000 1.802310 0.000000 
#    z 0.000000 0.000000 1.851690 
# 
# From -- ./inp_files/13957.got.cif
#   From: 2010.03.12/outbox.cif.g09.slc.cpg/sg40_7_cif.got.tgz:13957.got - 2010.04.14 01:38:03.
