data_PCOD8184498
_publ_section_title
;
Structure prediction by ZEFSAII (Michael W. Deem and Ramdas Pophale) SiO2 
 PCOD8184498
Probable space group: A M A 2
;
_chemical_formula_sum "Si O2"
_cell_formula_units_Z 48
_cell_length_a 21.946516
_cell_length_b 8.287304
_cell_length_c 11.827324
_cell_angle_alpha 90.000000
_cell_angle_beta 90.000000
_cell_angle_gamma 90.000000
_cell_volume 2151.123527
_symmetry_space_group_name_H-M "A M A 2"
_symmetry_group_IT_number 40
_symmetry_cell_setting 'orthorhombic'
loop_
_space_group_symop_operation_xyz
x,y,z
-x,-y,z
1/2-x,y,z
1/2+x,-y,z
x,1/2+y,1/2+z
-x,1/2-y,1/2+z
1/2-x,1/2+y,1/2+z
1/2+x,1/2-y,1/2+z
loop_
_atom_site_type_symbol
_atom_site_label
_atom_site_fract_x
_atom_site_fract_y
_atom_site_fract_z
Si Si1 0.978841 0.822045 0.354290
Si Si2 0.680089 0.046439 0.067494
Si Si3 0.682909 0.588421 0.816265
Si Si4 0.562720 0.077261 0.691293
Si Si5 0.401939 0.135884 0.891034
Si Si6 0.630789 0.888805 0.508988
O O1 0.953694 0.759170 0.231409
O O2 0.928961 0.819807 0.451044
O O3 0.032370 0.716958 0.414289
O O4 0.000000 0.000000 0.324098
O O5 0.750000 0.022290 0.024353
O O6 0.673858 0.993484 0.198113
O O7 0.663894 0.237235 0.066369
O O8 0.633745 0.929742 0.000621
O O9 0.750000 0.664575 0.822258
O O10 0.635744 0.732013 0.823607
O O11 0.676119 0.460993 0.916808
O O12 0.500000 0.000000 0.648088
O O13 0.588155 0.012714 0.809393
O O14 0.612956 0.037871 0.594751
#
# Coordination Sequence:
#
# PCOD8184498 Si02
#       6
#     8   8   8   8   8   8
#     4  11  23  44  70 103 142 180 229 286 353 416
#     4  11  25  46  71  99 139 186 229 288 351 410
#     4  11  25  45  67  98 137 182 237 285 339 412
#     4  10  23  41  70 101 137 175 224 276 352 422
#     4  11  22  46  69 101 136 183 224 287 348 417
#     4  12  23  45  71 101 137 181 228 285 347 415
#
# _framework density 22.313921000000001
#
# number of rings (size 3 to 8) (size 9 to 14) (size 15 to 20)
#    0.000    1.000    5.000    1.500    0.000    1.333 
#    3.000    1.667    0.000    0.000    0.000    0.000 
#    0.000    0.000    0.000    0.000    0.000    0.000 
#
# Total GULP energy -297438.343432 kJ/mol
# GULP energy per Si atom -12393.264310 kJ/mol
# Density = 2.226313 g / cm^3
# Si number density = 22.313921 Si / 1000 Ang^3
#
#
#
# Elastic Constant Matrix: (Units=GPa)
#
#
# Indices 1 2 3 4 5 6 
#
# 1 93.9416 15.0462 37.2868 0.0000 0.0000 0.0000
# 2 15.0462 80.2494 30.5950 0.0000 0.0000 0.0000
# 3 37.2868 30.5950 95.6765 0.0000 0.0000 0.0000
# 4 0.0000 0.0000 0.0000 66.1829 0.0000 0.0000
# 5 0.0000 0.0000 0.0000 0.0000 36.0966 0.0000
# 6 0.0000 0.0000 0.0000 0.0000 0.0000 29.4053
#
#
#
# Elastic Compliance Matrix: (Units=1/GPa)
#
#
# Indices 1 2 3 4 5 6 
#
# 1 0.012615 -0.000559 -0.004737 0.000000 0.000000 0.000000
# 2 -0.000559 0.014216 -0.004328 0.000000 0.000000 0.000000
# 3 -0.004737 -0.004328 0.013682 0.000000 0.000000 0.000000
# 4 0.000000 0.000000 0.000000 0.015110 0.000000 0.000000
# 5 0.000000 0.000000 0.000000 0.000000 0.027703 0.000000
# 6 0.000000 0.000000 0.000000 0.000000 0.000000 0.034007
#
#
# Mechanical properties :
#
#
# Convention : Reuss Voigt Hill
#
# Bulk Modulus (GPa) = 47.02808 48.41373 47.72091
# Shear Modulus (GPa) = 34.80182 38.79961 36.80071
#
# Velocity S-wave (km/s) = 3.95352 4.17442 4.06547
# Velocity P-wave (km/s) = 6.47780 6.70658 6.59318
#
# Compressibility (1/GPa) = 0.02126389
#
# Stress axis : x y z
#
# Youngs Moduli (GPa) = 79.27186 70.34305 73.08782
#
# Poissons Ratio (x) = 0.03933 0.34625
# Poissons Ratio (y) = 0.04432 0.31633
# Poissons Ratio (z) = 0.37555 0.30445
#
# Static dielectric constant tensor:
#      x y z
#    x 4.302570 0.000000 0.000000 
#    y 0.000000 3.482890 0.000000 
#    z 0.000000 0.000000 3.988200 
# 
# 
# High freq. dielectric constant tensor:
#      x y z
#    x 1.887920 0.000000 0.000000 
#    y 0.000000 1.874060 0.000000 
#    z 0.000000 0.000000 1.879900 
# 
# From -- ./inp_files/13914.got.cif
#   From: 2010.03.12/outbox.cif.g09.slc.cpg/sg40_7_cif.got.tgz:13914.got - 2010.04.14 01:38:03.
