data_PCOD8184793
_publ_section_title
;
Structure prediction by ZEFSAII (Michael W. Deem and Ramdas Pophale) SiO2 
 PCOD8184793
Probable space group: A B A 2
;
_chemical_formula_sum "Si O2"
_cell_formula_units_Z 44
_cell_length_a 9.785788
_cell_length_b 13.266567
_cell_length_c 15.800893
_cell_angle_alpha 90.000000
_cell_angle_beta 90.000000
_cell_angle_gamma 90.000000
_cell_volume 2051.332165
_symmetry_space_group_name_H-M "A B A 2"
_symmetry_group_IT_number 41
_symmetry_cell_setting 'orthorhombic'
loop_
_space_group_symop_operation_xyz
x,y,z
-x,-y,z
1/2-x,y,1/2+z
1/2+x,-y,1/2+z
x,1/2+y,1/2+z
-x,1/2-y,1/2+z
1/2-x,1/2+y,z
1/2+x,1/2-y,z
loop_
_atom_site_type_symbol
_atom_site_label
_atom_site_fract_x
_atom_site_fract_y
_atom_site_fract_z
Si Si1 0.288510 0.230278 0.973310
Si Si2 0.971903 0.788931 0.870514
Si Si3 0.722226 0.645005 0.616291
Si Si4 0.000000 0.500000 0.434562
Si Si5 0.685998 0.935333 0.584642
Si Si6 0.502153 0.785516 0.685289
O O1 0.444790 0.231739 0.944059
O O2 0.188490 0.211824 0.893460
O O3 0.243986 0.336204 0.015919
O O4 0.286531 0.150775 0.050809
O O5 0.008178 0.729438 0.785767
O O6 0.024688 0.905050 0.871645
O O7 0.732763 0.524625 0.632829
O O8 0.575064 0.686979 0.645398
O O9 0.842691 0.706095 0.664275
O O10 0.123398 0.522119 0.498027
O O11 0.576192 0.887316 0.650552
#
# Coordination Sequence:
#
# PCOD8184793 Si02
#       6
#     8   8   8   4   8   8
#     4  10  21  39  68  89 124 168 216 258 307 387
#     4  11  22  41  62  96 128 163 207 271 321 367
#     4  11  20  42  63  89 124 173 219 250 317 399
#     4  10  18  40  70  80 124 180 210 228 330 400
#     4  10  19  39  67  86 119 177 215 244 318 396
#     4  11  23  38  64  93 129 162 208 274 320 370
#
# _framework density 21.449475
#
# number of rings (size 3 to 8) (size 9 to 14) (size 15 to 20)
#    0.000    1.455    3.636    3.273    0.000    0.000 
#   13.091    6.364    0.000    0.000    0.000    0.000 
#    0.000    0.000    0.000    0.000    0.000    0.000 
#
# Total GULP energy -272584.891774 kJ/mol
# GULP energy per Si atom -12390.222353 kJ/mol
# Density = 2.140066 g / cm^3
# Si number density = 21.449475 Si / 1000 Ang^3
#
#
#
# Elastic Constant Matrix: (Units=GPa)
#
#
# Indices 1 2 3 4 5 6 
#
# 1 62.0086 29.1589 9.1426 0.0000 0.0000 0.0000
# 2 29.1589 110.2163 35.3035 0.0000 0.0000 0.0000
# 3 9.1426 35.3035 88.1693 0.0000 0.0000 0.0000
# 4 0.0000 0.0000 0.0000 21.2641 0.0000 0.0000
# 5 0.0000 0.0000 0.0000 0.0000 26.7278 0.0000
# 6 0.0000 0.0000 0.0000 0.0000 0.0000 26.8270
#
#
#
# Elastic Compliance Matrix: (Units=1/GPa)
#
#
# Indices 1 2 3 4 5 6 
#
# 1 0.018418 -0.004888 0.000047 0.000000 0.000000 0.000000
# 2 -0.004888 0.011705 -0.004180 0.000000 0.000000 0.000000
# 3 0.000047 -0.004180 0.013011 0.000000 0.000000 0.000000
# 4 0.000000 0.000000 0.000000 0.047028 0.000000 0.000000
# 5 0.000000 0.000000 0.000000 0.000000 0.037414 0.000000
# 6 0.000000 0.000000 0.000000 0.000000 0.000000 0.037276
#
#
# Mechanical properties :
#
#
# Convention : Reuss Voigt Hill
#
# Bulk Modulus (GPa) = 39.85194 45.28934 42.57064
# Shear Modulus (GPa) = 26.14282 27.41639 26.77960
#
# Velocity S-wave (km/s) = 3.49493 3.57905 3.53724
# Velocity P-wave (km/s) = 5.90812 6.18383 6.04754
#
# Compressibility (1/GPa) = 0.02509288
#
# Stress axis : x y z
#
# Youngs Moduli (GPa) = 54.29375 85.43286 76.86044
#
# Poissons Ratio (x) = 0.41759 -0.00363
# Poissons Ratio (y) = 0.26538 0.32127
# Poissons Ratio (z) = -0.00257 0.35710
#
# Static dielectric constant tensor:
#      x y z
#    x 3.749390 0.000000 0.000000 
#    y 0.000000 4.533610 0.000000 
#    z 0.000000 0.000000 3.659230 
# 
# 
# High freq. dielectric constant tensor:
#      x y z
#    x 1.833590 0.000000 0.000000 
#    y 0.000000 1.843730 0.000000 
#    z 0.000000 0.000000 1.825270 
# 
# From -- ./inp_files/7826.got.cif
#   From: 2010.03.12/outbox.cif.g09.slc.cpg/sg41_4_cif.got.tgz:7826.got - 2010.04.14 01:55:53.
