data_PCOD8184211
_publ_section_title
;
Structure prediction by ZEFSAII (Michael W. Deem and Ramdas Pophale) SiO2 
 PCOD8184211
Probable space group: A M A 2
;
_chemical_formula_sum "Si O2"
_cell_formula_units_Z 64
_cell_length_a 17.774082
_cell_length_b 20.241615
_cell_length_c 8.884298
_cell_angle_alpha 90.000000
_cell_angle_beta 90.000000
_cell_angle_gamma 90.000000
_cell_volume 3196.358306
_symmetry_space_group_name_H-M "A M A 2"
_symmetry_group_IT_number 40
_symmetry_cell_setting 'orthorhombic'
loop_
_space_group_symop_operation_xyz
x,y,z
-x,-y,z
1/2-x,y,z
1/2+x,-y,z
x,1/2+y,1/2+z
-x,1/2-y,1/2+z
1/2-x,1/2+y,1/2+z
1/2+x,1/2-y,1/2+z
loop_
_atom_site_type_symbol
_atom_site_label
_atom_site_fract_x
_atom_site_fract_y
_atom_site_fract_z
Si Si1 0.411426 0.004853 0.315770
Si Si2 0.575138 0.248292 0.475425
Si Si3 0.663332 0.374580 0.971061
Si Si4 0.836857 0.992274 0.001483
Si Si5 0.662198 0.616835 0.974611
Si Si6 0.416676 0.744561 0.827594
Si Si7 0.835827 0.862129 0.819884
Si Si8 0.337469 0.379380 0.319786
O O1 0.386290 0.063055 0.425671
O O2 0.500000 0.000000 0.322650
O O3 0.376258 0.935987 0.367001
O O4 0.386642 0.021877 0.146916
O O5 0.630527 0.188669 0.434241
O O6 0.569025 0.260874 0.651539
O O7 0.493007 0.230728 0.415765
O O8 0.606309 0.313875 0.399546
O O9 0.750000 0.392953 0.943216
O O10 0.643730 0.310634 0.872748
O O11 0.646746 0.359410 0.144080
O O12 0.750000 0.994834 0.050687
O O13 0.851023 0.935635 0.879072
O O14 0.862180 0.060851 0.926360
O O15 0.750000 0.617013 0.938885
O O16 0.645078 0.599788 0.148288
O O17 0.384873 0.816203 0.871666
O O18 0.750000 0.840577 0.854361
O O19 0.250000 0.361755 0.337112
#
# Coordination Sequence:
#
# PCOD8184211 Si02
#       8
#     8   8   8   8   8   8   8   8
#     4  12  25  39  58  88 122 154 192 240 296 355
#     4  11  23  39  60  88 124 159 196 243 298 355
#     4  11  23  41  64  88 117 156 202 247 294 352
#     4  10  21  39  62  87 116 153 199 245 291 346
#     4  10  21  40  63  85 113 152 196 240 289 346
#     4  11  23  39  60  89 124 160 196 242 298 354
#     4  10  22  40  63  89 117 155 202 249 295 350
#     4   9  20  39  62  86 113 151 197 242 289 344
#
# _framework density 20.022786
#
# number of rings (size 3 to 8) (size 9 to 14) (size 15 to 20)
#    0.000    1.500    0.000    4.875    0.000    9.500 
#    0.000    2.500    0.000    0.000    0.000    0.000 
#    0.000    0.000    0.000    0.000    0.000    0.000 
#
# Total GULP energy -397033.213368 kJ/mol
# GULP energy per Si atom -12407.287918 kJ/mol
# Density = 1.997721 g / cm^3
# Si number density = 20.022786 Si / 1000 Ang^3
#
#
#
# Elastic Constant Matrix: (Units=GPa)
#
#
# Indices 1 2 3 4 5 6 
#
# 1 88.4213 45.7446 30.1140 0.0000 0.0000 0.0000
# 2 45.7446 104.6695 44.1588 0.0000 0.0000 0.0000
# 3 30.1140 44.1588 81.5334 0.0000 0.0000 0.0000
# 4 0.0000 0.0000 0.0000 30.4176 0.0000 0.0000
# 5 0.0000 0.0000 0.0000 0.0000 30.8833 0.0000
# 6 0.0000 0.0000 0.0000 0.0000 0.0000 28.1436
#
#
#
# Elastic Compliance Matrix: (Units=1/GPa)
#
#
# Indices 1 2 3 4 5 6 
#
# 1 0.015022 -0.005476 -0.002583 0.000000 0.000000 0.000000
# 2 -0.005476 0.014379 -0.005766 0.000000 0.000000 0.000000
# 3 -0.002583 -0.005766 0.016341 0.000000 0.000000 0.000000
# 4 0.000000 0.000000 0.000000 0.032876 0.000000 0.000000
# 5 0.000000 0.000000 0.000000 0.000000 0.032380 0.000000
# 6 0.000000 0.000000 0.000000 0.000000 0.000000 0.035532
#
#
# Mechanical properties :
#
#
# Convention : Reuss Voigt Hill
#
# Bulk Modulus (GPa) = 55.26350 57.18432 56.22391
# Shear Modulus (GPa) = 27.74550 28.19603 27.97077
#
# Velocity S-wave (km/s) = 3.72653 3.75667 3.74163
# Velocity P-wave (km/s) = 6.79531 6.88755 6.84159
#
# Compressibility (1/GPa) = 0.01809513
#
# Stress axis : x y z
#
# Youngs Moduli (GPa) = 66.56981 69.54448 61.19416
#
# Poissons Ratio (x) = 0.38079 0.15805
# Poissons Ratio (y) = 0.36450 0.35282
# Poissons Ratio (z) = 0.17193 0.40096
#
# Static dielectric constant tensor:
#      x y z
#    x 3.676040 0.000000 0.000000 
#    y 0.000000 3.701430 0.000000 
#    z 0.000000 0.000000 3.674950 
# 
# 
# High freq. dielectric constant tensor:
#      x y z
#    x 1.785300 0.000000 0.000000 
#    y 0.000000 1.794160 0.000000 
#    z 0.000000 0.000000 1.790220 
# 
# From -- ./inp_files/7832.got.cif
#   From: 2010.03.12/outbox.cif.g09.slc.cpg/sg40_4_cif.got.tgz:7832.got - 2010.04.14 01:38:03.
