data_PCOD8184127
_publ_section_title
;
Structure prediction by ZEFSAII (Michael W. Deem and Ramdas Pophale) SiO2 
 PCOD8184127
Probable space group: A M A 2
;
_chemical_formula_sum "Si O2"
_cell_formula_units_Z 36
_cell_length_a 15.641068
_cell_length_b 10.799662
_cell_length_c 11.197774
_cell_angle_alpha 90.000000
_cell_angle_beta 90.000000
_cell_angle_gamma 90.000000
_cell_volume 1891.508362
_symmetry_space_group_name_H-M "A M A 2"
_symmetry_group_IT_number 40
_symmetry_cell_setting 'orthorhombic'
loop_
_space_group_symop_operation_xyz
x,y,z
-x,-y,z
1/2-x,y,z
1/2+x,-y,z
x,1/2+y,1/2+z
-x,1/2-y,1/2+z
1/2-x,1/2+y,1/2+z
1/2+x,1/2-y,1/2+z
loop_
_atom_site_type_symbol
_atom_site_label
_atom_site_fract_x
_atom_site_fract_y
_atom_site_fract_z
Si Si1 0.656227 0.778687 0.194840
Si Si2 0.250000 0.872284 0.117433
Si Si3 0.750000 0.968792 0.332528
Si Si4 0.250000 0.081098 0.600437
Si Si5 0.595373 0.467977 0.519325
Si Si6 0.093456 0.479247 0.247517
O O1 0.750000 0.725293 0.160201
O O2 0.665969 0.889867 0.291801
O O3 0.614580 0.832714 0.074178
O O4 0.602796 0.669073 0.254285
O O5 0.250000 0.728575 0.086568
O O6 0.250000 0.900453 0.260451
O O7 0.334876 0.931726 0.060525
O O8 0.750000 0.988585 0.473249
O O9 0.164263 0.042025 0.666281
O O10 0.500000 0.500000 0.562867
O O11 0.599629 0.458191 0.376836
O O12 0.000000 0.500000 0.191024
#
# Coordination Sequence:
#
# PCOD8184127 Si02
#       6
#     8   4   4   4   8   8
#     4   9  19  40  61  78 114 153 199 241 288 349
#     4  10  21  37  61  91 111 150 206 234 294 354
#     4   8  19  37  59  83 109 158 194 232 302 340
#     4  12  22  36  58  82 128 154 184 248 292 352
#     4  10  21  39  64  86 112 155 200 245 292 350
#     4  11  24  38  57  90 118 155 198 237 300 353
#
# _framework density 19.032430000000002
#
# number of rings (size 3 to 8) (size 9 to 14) (size 15 to 20)
#    0.667    1.333    2.222    2.000    3.111    1.778 
#    0.000    4.444    0.000    0.000    0.000    0.000 
#    0.000    0.000    0.000    0.000    0.000    0.000 
#
# Total GULP energy -223101.889426 kJ/mol
# GULP energy per Si atom -12394.549413 kJ/mol
# Density = 1.898911 g / cm^3
# Si number density = 19.032430 Si / 1000 Ang^3
#
#
#
# Elastic Constant Matrix: (Units=GPa)
#
#
# Indices 1 2 3 4 5 6 
#
# 1 150.7636 17.7404 49.5318 0.0000 0.0000 0.0000
# 2 17.7404 38.3117 16.0785 0.0000 0.0000 0.0000
# 3 49.5318 16.0785 100.3272 0.0000 0.0000 0.0000
# 4 0.0000 0.0000 0.0000 24.6043 0.0000 0.0000
# 5 0.0000 0.0000 0.0000 0.0000 13.0869 0.0000
# 6 0.0000 0.0000 0.0000 0.0000 0.0000 27.5525
#
#
#
# Elastic Compliance Matrix: (Units=1/GPa)
#
#
# Indices 1 2 3 4 5 6 
#
# 1 0.008089 -0.002219 -0.003638 0.000000 0.000000 0.000000
# 2 -0.002219 0.028592 -0.003487 0.000000 0.000000 0.000000
# 3 -0.003638 -0.003487 0.012322 0.000000 0.000000 0.000000
# 4 0.000000 0.000000 0.000000 0.040643 0.000000 0.000000
# 5 0.000000 0.000000 0.000000 0.000000 0.076413 0.000000
# 6 0.000000 0.000000 0.000000 0.000000 0.000000 0.036294
#
#
# Mechanical properties :
#
#
# Convention : Reuss Voigt Hill
#
# Bulk Modulus (GPa) = 32.98535 50.67822 41.83178
# Shear Modulus (GPa) = 21.63124 26.78553 24.20839
#
# Velocity S-wave (km/s) = 3.37493 3.75555 3.57032
# Velocity P-wave (km/s) = 5.70575 6.74468 6.24685
#
# Compressibility (1/GPa) = 0.03031649
#
# Stress axis : x y z
#
# Youngs Moduli (GPa) = 123.62075 34.97425 81.15369
#
# Poissons Ratio (x) = 0.07761 0.29524
# Poissons Ratio (y) = 0.27431 0.28296
# Poissons Ratio (z) = 0.44974 0.12195
#
# Static dielectric constant tensor:
#      x y z
#    x 3.615230 0.000000 0.000000 
#    y 0.000000 3.401620 0.000000 
#    z 0.000000 0.000000 3.365660 
# 
# 
# High freq. dielectric constant tensor:
#      x y z
#    x 1.743400 0.000000 0.000000 
#    y 0.000000 1.733980 0.000000 
#    z 0.000000 0.000000 1.732490 
# 
# From -- ./inp_files/11921.got.cif
#   From: 2010.03.12/outbox.cif.g09.slc.cpg/sg40_6_cif.got.tgz:11921.got - 2010.04.14 01:38:03.
