data_PCOD8184934
_publ_section_title
;
Structure prediction by ZEFSAII (Michael W. Deem and Ramdas Pophale) SiO2 
 PCOD8184934
Probable space group: A B A 2
;
_chemical_formula_sum "Si O2"
_cell_formula_units_Z 52
_cell_length_a 14.228087
_cell_length_b 20.922573
_cell_length_c 8.496057
_cell_angle_alpha 90.000000
_cell_angle_beta 90.000000
_cell_angle_gamma 90.000000
_cell_volume 2529.175821
_symmetry_space_group_name_H-M "A B A 2"
_symmetry_group_IT_number 41
_symmetry_cell_setting 'orthorhombic'
loop_
_space_group_symop_operation_xyz
x,y,z
-x,-y,z
1/2-x,y,1/2+z
1/2+x,-y,1/2+z
x,1/2+y,1/2+z
-x,1/2-y,1/2+z
1/2-x,1/2+y,z
1/2+x,1/2-y,z
loop_
_atom_site_type_symbol
_atom_site_label
_atom_site_fract_x
_atom_site_fract_y
_atom_site_fract_z
Si Si1 0.000000 0.000000 0.498971
Si Si2 0.340583 0.801055 0.342961
Si Si3 0.341059 0.759463 0.989169
Si Si4 0.161287 0.108862 0.959078
Si Si5 0.008751 0.390339 0.241720
Si Si6 0.358451 0.580824 0.315965
Si Si7 0.458778 0.196171 0.974511
O O1 0.034779 0.942750 0.611237
O O2 0.913316 0.979994 0.387628
O O3 0.235301 0.806486 0.408751
O O4 0.394425 0.869271 0.328844
O O5 0.394414 0.758698 0.472985
O O6 0.339508 0.765891 0.176212
O O7 0.324705 0.685040 0.953850
O O8 0.438242 0.783692 0.914798
O O9 0.069575 0.085428 0.863291
O O10 0.253929 0.078655 0.884515
O O11 0.148110 0.077827 0.129054
O O12 0.963035 0.329118 0.153462
O O13 0.415962 0.644192 0.357642
#
# Coordination Sequence:
#
# PCOD8184934 Si02
#       7
#     4   8   8   8   8   8   8
#     4  10  24  48  62  84 130 172 228 272 308 372
#     4  11  22  36  57  93 134 165 203 262 323 379
#     4  11  22  33  58  95 135 164 209 255 329 395
#     4  12  21  38  67 101 117 167 221 264 321 391
#     4  10  24  41  65  91 129 173 214 265 322 377
#     4  11  23  40  65  95 127 167 221 268 319 380
#     4  10  20  37  57  91 131 166 200 267 320 379
#
# _framework density 20.560058000000001
#
# number of rings (size 3 to 8) (size 9 to 14) (size 15 to 20)
#    0.000    1.231    4.615    1.846    2.154    1.846 
#    0.000    9.231    0.000    1.846    0.000    0.000 
#    0.000    0.000    0.000    0.000    0.000    0.000 
#
# Total GULP energy -322411.950589 kJ/mol
# GULP energy per Si atom -12400.459638 kJ/mol
# Density = 2.051326 g / cm^3
# Si number density = 20.560058 Si / 1000 Ang^3
#
#
#
# Elastic Constant Matrix: (Units=GPa)
#
#
# Indices 1 2 3 4 5 6 
#
# 1 132.6763 35.1406 43.7652 0.0000 0.0000 0.0000
# 2 35.1406 66.5987 33.2157 0.0000 0.0000 0.0000
# 3 43.7652 33.2157 104.8725 0.0000 0.0000 0.0000
# 4 0.0000 0.0000 0.0000 24.4089 0.0000 0.0000
# 5 0.0000 0.0000 0.0000 0.0000 36.1235 0.0000
# 6 0.0000 0.0000 0.0000 0.0000 0.0000 37.5191
#
#
#
# Elastic Compliance Matrix: (Units=1/GPa)
#
#
# Indices 1 2 3 4 5 6 
#
# 1 0.009404 -0.003568 -0.002794 0.000000 0.000000 0.000000
# 2 -0.003568 0.019186 -0.004588 0.000000 0.000000 0.000000
# 3 -0.002794 -0.004588 0.012154 0.000000 0.000000 0.000000
# 4 0.000000 0.000000 0.000000 0.040969 0.000000 0.000000
# 5 0.000000 0.000000 0.000000 0.000000 0.027683 0.000000
# 6 0.000000 0.000000 0.000000 0.000000 0.000000 0.026653
#
#
# Mechanical properties :
#
#
# Convention : Reuss Voigt Hill
#
# Bulk Modulus (GPa) = 53.06667 58.71005 55.88836
# Shear Modulus (GPa) = 30.44489 32.41202 31.42845
#
# Velocity S-wave (km/s) = 3.85226 3.97477 3.91399
# Velocity P-wave (km/s) = 6.75671 7.04858 6.90419
#
# Compressibility (1/GPa) = 0.01884422
#
# Stress axis : x y z
#
# Youngs Moduli (GPa) = 106.33791 52.12083 82.27408
#
# Poissons Ratio (x) = 0.18599 0.22990
# Poissons Ratio (y) = 0.37945 0.37744
# Poissons Ratio (z) = 0.29714 0.23911
#
# Static dielectric constant tensor:
#      x y z
#    x 3.985080 0.000000 0.000000 
#    y 0.000000 3.551100 0.000000 
#    z 0.000000 0.000000 3.745630 
# 
# 
# High freq. dielectric constant tensor:
#      x y z
#    x 1.816120 0.000000 0.000000 
#    y 0.000000 1.774370 0.000000 
#    z 0.000000 0.000000 1.810130 
# 
# From -- ./inp_files/2155.got.cif
#   From: 2010.03.12/outbox.cif.g09.slc.cpg/sg41_2_cif.got.tgz:2155.got - 2010.04.14 01:55:53.
