data_PCOD8184391
_publ_section_title
;
Structure prediction by ZEFSAII (Michael W. Deem and Ramdas Pophale) SiO2 
 PCOD8184391
Probable space group: A M A 2
;
_chemical_formula_sum "Si O2"
_cell_formula_units_Z 48
_cell_length_a 23.194265
_cell_length_b 18.964618
_cell_length_c 5.164692
_cell_angle_alpha 90.000000
_cell_angle_beta 90.000000
_cell_angle_gamma 90.000000
_cell_volume 2271.795009
_symmetry_space_group_name_H-M "A M A 2"
_symmetry_group_IT_number 40
_symmetry_cell_setting 'orthorhombic'
loop_
_space_group_symop_operation_xyz
x,y,z
-x,-y,z
1/2-x,y,z
1/2+x,-y,z
x,1/2+y,1/2+z
-x,1/2-y,1/2+z
1/2-x,1/2+y,1/2+z
1/2+x,1/2-y,1/2+z
loop_
_atom_site_type_symbol
_atom_site_label
_atom_site_fract_x
_atom_site_fract_y
_atom_site_fract_z
Si Si1 0.133526 0.332942 0.215170
Si Si2 0.492473 0.790144 0.581565
Si Si3 0.318066 0.759342 0.221342
Si Si4 0.811091 0.943000 0.289924
Si Si5 0.848457 0.005987 0.783119
Si Si6 0.395111 0.629297 0.106783
O O1 0.166066 0.297353 0.453843
O O2 0.127523 0.416269 0.250788
O O3 0.067372 0.310050 0.211610
O O4 0.167358 0.312242 0.955540
O O5 0.479582 0.762828 0.292288
O O6 0.538836 0.852350 0.551585
O O7 0.250000 0.740644 0.224486
O O8 0.356490 0.688348 0.253917
O O9 0.750000 0.902838 0.247707
O O10 0.804414 0.990277 0.549637
O O11 0.862411 0.885655 0.329579
O O12 0.819370 0.998816 0.061347
O O13 0.897271 0.943795 0.770068
#
# Coordination Sequence:
#
# PCOD8184391 Si02
#       6
#     8   8   8   8   8   8
#     4  12  25  47  67 104 133 180 224 281 348 401
#     4  12  24  44  72  96 134 176 222 286 335 405
#     4  12  26  43  69 100 138 176 228 279 335 408
#     4  10  22  40  66  97 134 175 218 272 333 398
#     4  10  25  40  67  96 134 171 224 274 337 402
#     4  10  25  44  68  96 132 174 231 270 336 393
#
# _framework density 21.128667
#
# number of rings (size 3 to 8) (size 9 to 14) (size 15 to 20)
#    1.000    0.000    3.333    2.500    4.667    4.667 
#    0.000    0.000    3.667    0.000    0.000    0.000 
#    0.000    0.000    0.000    0.000    0.000    0.000 
#
# Total GULP energy -297319.877474 kJ/mol
# GULP energy per Si atom -12388.328228 kJ/mol
# Density = 2.108058 g / cm^3
# Si number density = 21.128667 Si / 1000 Ang^3
#
#
#
# Elastic Constant Matrix: (Units=GPa)
#
#
# Indices 1 2 3 4 5 6 
#
# 1 98.8838 8.4311 15.1809 0.0000 0.0000 0.0000
# 2 8.4311 101.8810 17.4706 0.0000 0.0000 0.0000
# 3 15.1809 17.4706 131.8406 0.0000 0.0000 0.0000
# 4 0.0000 0.0000 0.0000 26.3298 0.0000 0.0000
# 5 0.0000 0.0000 0.0000 0.0000 30.8667 0.0000
# 6 0.0000 0.0000 0.0000 0.0000 0.0000 18.4512
#
#
#
# Elastic Compliance Matrix: (Units=1/GPa)
#
#
# Indices 1 2 3 4 5 6 
#
# 1 0.010339 -0.000667 -0.001102 0.000000 0.000000 0.000000
# 2 -0.000667 0.010087 -0.001260 0.000000 0.000000 0.000000
# 3 -0.001102 -0.001260 0.007879 0.000000 0.000000 0.000000
# 4 0.000000 0.000000 0.000000 0.037980 0.000000 0.000000
# 5 0.000000 0.000000 0.000000 0.000000 0.032397 0.000000
# 6 0.000000 0.000000 0.000000 0.000000 0.000000 0.054197
#
#
# Mechanical properties :
#
#
# Convention : Reuss Voigt Hill
#
# Bulk Modulus (GPa) = 44.94973 46.08564 45.51769
# Shear Modulus (GPa) = 30.05688 34.56439 32.31063
#
# Velocity S-wave (km/s) = 3.77578 4.04901 3.91478
# Velocity P-wave (km/s) = 6.35052 6.61200 6.48258
#
# Compressibility (1/GPa) = 0.02224707
#
# Stress axis : x y z
#
# Youngs Moduli (GPa) = 96.72189 99.14171 126.92330
#
# Poissons Ratio (x) = 0.06609 0.13989
# Poissons Ratio (y) = 0.06447 0.15990
# Poissons Ratio (z) = 0.10660 0.12490
#
# Static dielectric constant tensor:
#      x y z
#    x 3.567010 0.000000 0.000000 
#    y 0.000000 3.723860 0.000000 
#    z 0.000000 0.000000 3.910470 
# 
# 
# High freq. dielectric constant tensor:
#      x y z
#    x 1.824430 0.000000 0.000000 
#    y 0.000000 1.816150 0.000000 
#    z 0.000000 0.000000 1.841450 
# 
# From -- ./inp_files/2725.got.cif
#   From: 2010.03.12/outbox.cif.g09.slc.cpg/sg40_2_cif.got.tgz:2725.got - 2010.04.14 01:38:03.
