data_PCOD8184327
_publ_section_title
;
Structure prediction by ZEFSAII (Michael W. Deem and Ramdas Pophale) SiO2 
 PCOD8184327
Probable space group: A M A 2
;
_chemical_formula_sum "Si O2"
_cell_formula_units_Z 64
_cell_length_a 15.106900
_cell_length_b 7.570964
_cell_length_c 28.018776
_cell_angle_alpha 90.000000
_cell_angle_beta 90.000000
_cell_angle_gamma 90.000000
_cell_volume 3204.613772
_symmetry_space_group_name_H-M "A M A 2"
_symmetry_group_IT_number 40
_symmetry_cell_setting 'orthorhombic'
loop_
_space_group_symop_operation_xyz
x,y,z
-x,-y,z
1/2-x,y,z
1/2+x,-y,z
x,1/2+y,1/2+z
-x,1/2-y,1/2+z
1/2-x,1/2+y,1/2+z
1/2+x,1/2-y,1/2+z
loop_
_atom_site_type_symbol
_atom_site_label
_atom_site_fract_x
_atom_site_fract_y
_atom_site_fract_z
Si Si1 0.647570 0.204451 0.515130
Si Si2 0.146040 0.500247 0.337480
Si Si3 0.500089 0.796066 0.589194
Si Si4 0.147667 0.702568 0.014945
Si Si5 0.851332 0.205931 0.264463
Si Si6 0.148594 0.207291 0.264283
Si Si7 0.645742 0.500381 0.442706
Si Si8 0.500126 0.697971 0.696202
O O1 0.750000 0.239265 0.528662
O O2 0.588387 0.257379 0.560641
O O3 0.615613 0.325217 0.471212
O O4 0.631122 0.001006 0.500518
O O5 0.250000 0.498415 0.344315
O O6 0.117853 0.679049 0.310051
O O7 0.117034 0.322844 0.309630
O O8 0.101372 0.499931 0.390184
O O9 0.588119 0.743110 0.560186
O O10 0.500631 0.699551 0.639456
O O11 0.500000 0.000000 0.601547
O O12 0.250000 0.736909 0.028771
O O13 0.116747 0.822594 0.970683
O O14 0.750000 0.247430 0.250610
O O15 0.910243 0.276053 0.219733
O O16 0.863546 0.999258 0.277136
O O17 0.250000 0.249086 0.250618
O O18 0.089806 0.276262 0.219361
O O19 0.750000 0.497936 0.437801
O O20 0.500000 0.500000 0.714067
#
# Coordination Sequence:
#
# PCOD8184327 Si02
#       8
#     8   8   8   8   8   8   8   8
#     4   9  19  36  54  76 110 142 173 219 266 314
#     4   9  18  33  57  85 108 141 183 216 263 323
#     4  10  22  36  54  79 103 138 184 222 267 320
#     4   9  19  36  54  76 110 142 173 219 266 314
#     4   9  19  36  54  76 110 142 173 219 266 314
#     4   9  19  36  54  76 110 142 173 219 266 314
#     4   9  18  33  57  85 108 141 183 216 263 323
#     4  10  22  36  54  79 103 138 184 222 267 320
#
# _framework density 19.971205999999999
#
# number of rings (size 3 to 8) (size 9 to 14) (size 15 to 20)
#    0.000    2.750    0.000    0.000    3.500    2.000 
#    0.000    7.500    0.000    4.500    0.000    0.000 
#    0.000    0.000    0.000    0.000    0.000    0.000 
#
# Total GULP energy -396595.252093 kJ/mol
# GULP energy per Si atom -12393.601628 kJ/mol
# Density = 1.992575 g / cm^3
# Si number density = 19.971206 Si / 1000 Ang^3
#
#
#
# Elastic Constant Matrix: (Units=GPa)
#
#
# Indices 1 2 3 4 5 6 
#
# 1 48.7615 -49.4347 -55.8210 0.0000 0.0000 0.0000
# 2 -49.4347 -46.8682 -139.5528 0.0000 0.0000 0.0000
# 3 -55.8210 -139.5528 -115.1602 0.0000 0.0000 0.0000
# 4 0.0000 0.0000 0.0000 29.6433 0.0000 0.0000
# 5 0.0000 0.0000 0.0000 0.0000 15.4958 0.0000
# 6 0.0000 0.0000 0.0000 0.0000 0.0000 11.0618
#
#
#
# Elastic Compliance Matrix: (Units=1/GPa)
#
#
# Indices 1 2 3 4 5 6 
#
# 1 0.013679 -0.002038 -0.004161 0.000000 0.000000 0.000000
# 2 -0.002038 0.008484 -0.009293 0.000000 0.000000 0.000000
# 3 -0.004161 -0.009293 0.004595 0.000000 0.000000 0.000000
# 4 0.000000 0.000000 0.000000 0.033734 0.000000 0.000000
# 5 0.000000 0.000000 0.000000 0.000000 0.064533 0.000000
# 6 0.000000 0.000000 0.000000 0.000000 0.000000 0.090401
#
#
# Mechanical properties :
#
#
# Convention : Reuss Voigt Hill
#
# Bulk Modulus (GPa) = -236.61184 -66.98710 -151.79947
# Shear Modulus (GPa) = 20.40801 20.00963 20.20882
#
# Velocity S-wave (km/s) = 3.20014 3.16875 3.18449
# Velocity P-wave (km/s) = 10.25081 4.49741 7.91536
#
# Compressibility (1/GPa) = -0.00422633
#
# Stress axis : x y z
#
# Youngs Moduli (GPa) = 73.10665 117.87029 217.62202
#
# Poissons Ratio (x) = 0.24018 0.90556
# Poissons Ratio (y) = 0.14896 2.02241
# Poissons Ratio (z) = 0.30421 1.09540
#
# Static dielectric constant tensor:
#      x y z
#    x 3.730100 0.000000 0.000000 
#    y 0.000000 3.738140 0.000000 
#    z 0.000000 0.000000 3.633970 
# 
# 
# High freq. dielectric constant tensor:
#      x y z
#    x 1.779160 0.000000 0.000000 
#    y 0.000000 1.784300 0.000000 
#    z 0.000000 0.000000 1.764970 
# 
# From -- ./inp_files/24841.got.cif
#   From: 2010.03.12/outbox.cif.g09.slc.cpg/sg40_13_cif.got.tgz:24841.got - 2010.04.14 01:38:03.
