data_PCOD8184207
_publ_section_title
;
Structure prediction by ZEFSAII (Michael W. Deem and Ramdas Pophale) SiO2 
 PCOD8184207
Probable space group: A M A 2
;
_chemical_formula_sum "Si O2"
_cell_formula_units_Z 28
_cell_length_a 7.520498
_cell_length_b 22.354343
_cell_length_c 9.395826
_cell_angle_alpha 90.000000
_cell_angle_beta 90.000000
_cell_angle_gamma 90.000000
_cell_volume 1579.586728
_symmetry_space_group_name_H-M "A M A 2"
_symmetry_group_IT_number 40
_symmetry_cell_setting 'orthorhombic'
loop_
_space_group_symop_operation_xyz
x,y,z
-x,-y,z
1/2-x,y,z
1/2+x,-y,z
x,1/2+y,1/2+z
-x,1/2-y,1/2+z
1/2-x,1/2+y,1/2+z
1/2+x,1/2-y,1/2+z
loop_
_atom_site_type_symbol
_atom_site_label
_atom_site_fract_x
_atom_site_fract_y
_atom_site_fract_z
Si Si1 0.250000 0.352762 0.501930
Si Si2 0.250000 0.754083 0.791685
Si Si3 0.447581 0.841263 0.266816
Si Si4 0.750000 0.619529 0.194655
Si Si5 0.951205 0.432537 0.000968
O O1 0.250000 0.283402 0.449035
O O2 0.425269 0.362339 0.601441
O O3 0.250000 0.396606 0.364581
O O4 0.427383 0.715972 0.773318
O O5 0.250000 0.808233 0.675751
O O6 0.250000 0.824353 0.326954
O O7 0.528443 0.895379 0.356390
O O8 0.573886 0.592176 0.126452
O O9 0.750000 0.428008 0.056545
O O10 0.000000 0.500000 0.962152
#
# Coordination Sequence:
#
# PCOD8184207 Si02
#       5
#     4   4   8   4   8
#     4   8  23  39  55  93 129 151 208 257 319 362
#     4  10  22  35  62  89 131 167 200 253 326 372
#     4  10  21  39  61  91 130 162 215 252 312 385
#     4  10  23  40  59  94 134 150 218 262 307 394
#     4  12  23  41  70  92 122 173 219 262 314 378
#
# _framework density 17.726154999999999
#
# number of rings (size 3 to 8) (size 9 to 14) (size 15 to 20)
#    1.714    0.000    4.286    0.000    4.000    1.143 
#    2.571    1.429    0.000    0.000    0.000    0.000 
#    0.000    0.000    0.000    0.000    0.000    0.000 
#
# Total GULP energy -173461.972075 kJ/mol
# GULP energy per Si atom -12390.140862 kJ/mol
# Density = 1.768581 g / cm^3
# Si number density = 17.726155 Si / 1000 Ang^3
#
#
#
# Elastic Constant Matrix: (Units=GPa)
#
#
# Indices 1 2 3 4 5 6 
#
# 1 146.0349 45.3644 36.6658 0.0000 0.0000 0.0000
# 2 45.3644 97.5873 36.7705 0.0000 0.0000 0.0000
# 3 36.6658 36.7705 123.7861 0.0000 0.0000 0.0000
# 4 0.0000 0.0000 0.0000 26.0789 0.0000 0.0000
# 5 0.0000 0.0000 0.0000 0.0000 20.7641 0.0000
# 6 0.0000 0.0000 0.0000 0.0000 0.0000 32.8459
#
#
#
# Elastic Compliance Matrix: (Units=1/GPa)
#
#
# Indices 1 2 3 4 5 6 
#
# 1 0.008233 -0.003275 -0.001466 0.000000 0.000000 0.000000
# 2 -0.003275 0.012841 -0.002844 0.000000 0.000000 0.000000
# 3 -0.001466 -0.002844 0.009358 0.000000 0.000000 0.000000
# 4 0.000000 0.000000 0.000000 0.038345 0.000000 0.000000
# 5 0.000000 0.000000 0.000000 0.000000 0.048160 0.000000
# 6 0.000000 0.000000 0.000000 0.000000 0.000000 0.030445
#
#
# Mechanical properties :
#
#
# Convention : Reuss Voigt Hill
#
# Bulk Modulus (GPa) = 65.52405 67.22332 66.37368
# Shear Modulus (GPa) = 29.82582 32.51162 31.16872
#
# Velocity S-wave (km/s) = 4.10639 4.28729 4.19781
# Velocity P-wave (km/s) = 7.71544 7.90654 7.81158
#
# Compressibility (1/GPa) = 0.01526157
#
# Stress axis : x y z
#
# Youngs Moduli (GPa) = 121.46199 77.87322 106.86510
#
# Poissons Ratio (x) = 0.25503 0.15665
# Poissons Ratio (y) = 0.39777 0.30398
# Poissons Ratio (z) = 0.17805 0.22151
#
# Static dielectric constant tensor:
#      x y z
#    x 3.329980 0.000000 0.000000 
#    y 0.000000 3.193310 0.000000 
#    z 0.000000 0.000000 3.219870 
# 
# 
# High freq. dielectric constant tensor:
#      x y z
#    x 1.693080 0.000000 0.000000 
#    y 0.000000 1.675420 0.000000 
#    z 0.000000 0.000000 1.680010 
# 
# From -- ./inp_files/4033.got.cif
#   From: 2010.03.12/outbox.cif.g09.slc.cpg/sg40_3_cif.got.tgz:4033.got - 2010.04.14 01:38:03.
