data_PCOD8184257
_publ_section_title
;
Structure prediction by ZEFSAII (Michael W. Deem and Ramdas Pophale) SiO2 
 PCOD8184257
Probable space group: A M A 2
;
_chemical_formula_sum "Si O2"
_cell_formula_units_Z 64
_cell_length_a 13.948788
_cell_length_b 11.542017
_cell_length_c 19.661444
_cell_angle_alpha 90.000000
_cell_angle_beta 90.000000
_cell_angle_gamma 90.000000
_cell_volume 3165.436414
_symmetry_space_group_name_H-M "A M A 2"
_symmetry_group_IT_number 40
_symmetry_cell_setting 'orthorhombic'
loop_
_space_group_symop_operation_xyz
x,y,z
-x,-y,z
1/2-x,y,z
1/2+x,-y,z
x,1/2+y,1/2+z
-x,1/2-y,1/2+z
1/2-x,1/2+y,1/2+z
1/2+x,1/2-y,1/2+z
loop_
_atom_site_type_symbol
_atom_site_label
_atom_site_fract_x
_atom_site_fract_y
_atom_site_fract_z
Si Si1 0.361239 0.218294 0.495990
Si Si2 0.396647 0.972956 0.334579
Si Si3 0.019247 0.373141 0.596860
Si Si4 0.857863 0.193900 0.217565
Si Si5 0.017876 0.871071 0.739630
Si Si6 0.146468 0.732514 0.841296
Si Si7 0.863687 0.192526 0.614154
Si Si8 0.138114 0.960309 0.484244
O O1 0.250000 0.227722 0.517534
O O2 0.425089 0.299294 0.541858
O O3 0.377336 0.260271 0.419195
O O4 0.400458 0.087011 0.506215
O O5 0.340701 0.094193 0.332395
O O6 0.500000 0.000000 0.303861
O O7 0.348162 0.875027 0.288433
O O8 0.406702 0.922480 0.411684
O O9 0.085652 0.385412 0.663530
O O10 0.000000 0.500000 0.567101
O O11 0.915763 0.316921 0.614028
O O12 0.750000 0.222930 0.192681
O O13 0.914857 0.315277 0.222489
O O14 0.064384 0.789128 0.796347
O O15 0.088215 0.881801 0.674592
O O16 0.000000 0.000000 0.768071
O O17 0.250000 0.786314 0.821305
O O18 0.750000 0.207922 0.626764
O O19 0.885698 0.131533 0.542427
O O20 0.250000 0.971704 0.470646
#
# Coordination Sequence:
#
# PCOD8184257 Si02
#       8
#     8   8   8   8   8   8   8   8
#     4   9  20  39  64  92 121 157 202 252 302 354
#     4  11  20  36  64  95 123 152 201 257 309 349
#     4  11  25  40  59  89 122 165 206 243 296 360
#     4  11  24  41  61  88 123 160 201 251 303 358
#     4  11  25  41  61  89 122 162 203 244 296 363
#     4  10  21  40  65  92 123 160 201 249 303 356
#     4  10  24  41  61  89 124 161 200 249 304 358
#     4   9  20  37  62  94 119 152 200 254 311 353
#
# _framework density 20.218381999999998
#
# number of rings (size 3 to 8) (size 9 to 14) (size 15 to 20)
#    0.000    1.750    1.250    3.000    8.750    2.500 
#    0.000    0.000    0.000    1.500    0.000    0.000 
#    0.000    0.000    0.000    0.000    0.000    0.000 
#
# Total GULP energy -396784.952614 kJ/mol
# GULP energy per Si atom -12399.529769 kJ/mol
# Density = 2.017236 g / cm^3
# Si number density = 20.218382 Si / 1000 Ang^3
#
#
#
# Elastic Constant Matrix: (Units=GPa)
#
#
# Indices 1 2 3 4 5 6 
#
# 1 118.7018 35.2330 39.2228 0.0000 0.0000 0.0000
# 2 35.2330 98.3666 42.3030 0.0000 0.0000 0.0000
# 3 39.2228 42.3030 97.3611 0.0000 0.0000 0.0000
# 4 0.0000 0.0000 0.0000 27.9899 0.0000 0.0000
# 5 0.0000 0.0000 0.0000 0.0000 27.1365 0.0000
# 6 0.0000 0.0000 0.0000 0.0000 0.0000 20.2301
#
#
#
# Elastic Compliance Matrix: (Units=1/GPa)
#
#
# Indices 1 2 3 4 5 6 
#
# 1 0.010125 -0.002303 -0.003079 0.000000 0.000000 0.000000
# 2 -0.002303 0.013026 -0.004732 0.000000 0.000000 0.000000
# 3 -0.003079 -0.004732 0.013567 0.000000 0.000000 0.000000
# 4 0.000000 0.000000 0.000000 0.035727 0.000000 0.000000
# 5 0.000000 0.000000 0.000000 0.000000 0.036851 0.000000
# 6 0.000000 0.000000 0.000000 0.000000 0.000000 0.049431
#
#
# Mechanical properties :
#
#
# Convention : Reuss Voigt Hill
#
# Bulk Modulus (GPa) = 60.63592 60.88299 60.75946
# Shear Modulus (GPa) = 27.10742 28.24934 27.67838
#
# Velocity S-wave (km/s) = 3.66557 3.74198 3.70397
# Velocity P-wave (km/s) = 6.92610 6.98913 6.95769
#
# Compressibility (1/GPa) = 0.01649188
#
# Stress axis : x y z
#
# Youngs Moduli (GPa) = 98.76353 76.77031 73.70673
#
# Poissons Ratio (x) = 0.17678 0.22691
# Poissons Ratio (y) = 0.22743 0.34878
# Poissons Ratio (z) = 0.30404 0.36328
#
# Static dielectric constant tensor:
#      x y z
#    x 3.857730 0.000000 0.000000 
#    y 0.000000 3.378230 0.000000 
#    z 0.000000 0.000000 3.659080 
# 
# 
# High freq. dielectric constant tensor:
#      x y z
#    x 1.809130 0.000000 0.000000 
#    y 0.000000 1.765030 0.000000 
#    z 0.000000 0.000000 1.792830 
# 
# From -- ./inp_files/20765.got.cif
#   From: 2010.03.12/outbox.cif.g09.slc.cpg/sg40_11_cif.got.tgz:20765.got - 2010.04.14 01:38:03.
