data_PCOD8184609
_publ_section_title
;
Structure prediction by ZEFSAII (Michael W. Deem and Ramdas Pophale) SiO2 
 PCOD8184609
Probable space group: A M A 2
;
_chemical_formula_sum "Si O2"
_cell_formula_units_Z 48
_cell_length_a 15.426865
_cell_length_b 18.288835
_cell_length_c 8.530876
_cell_angle_alpha 90.000000
_cell_angle_beta 90.000000
_cell_angle_gamma 90.000000
_cell_volume 2406.896138
_symmetry_space_group_name_H-M "A M A 2"
_symmetry_group_IT_number 40
_symmetry_cell_setting 'orthorhombic'
loop_
_space_group_symop_operation_xyz
x,y,z
-x,-y,z
1/2-x,y,z
1/2+x,-y,z
x,1/2+y,1/2+z
-x,1/2-y,1/2+z
1/2-x,1/2+y,1/2+z
1/2+x,1/2-y,1/2+z
loop_
_atom_site_type_symbol
_atom_site_label
_atom_site_fract_x
_atom_site_fract_y
_atom_site_fract_z
Si Si1 0.418514 0.802248 0.052710
Si Si2 0.250000 0.769278 0.498917
Si Si3 0.585306 0.035530 0.164133
Si Si4 0.750000 0.177916 0.853628
Si Si5 0.750000 0.524645 0.218035
Si Si6 0.750000 0.075676 0.366949
Si Si7 0.918111 0.289375 0.364556
Si Si8 0.914391 0.457728 0.347501
O O1 0.440461 0.886899 0.087472
O O2 0.404718 0.759343 0.212349
O O3 0.333424 0.794480 0.946854
O O4 0.497253 0.763788 0.960290
O O5 0.250000 0.792714 0.678434
O O6 0.250000 0.836180 0.372728
O O7 0.165724 0.719838 0.473603
O O8 0.664685 0.044810 0.282383
O O9 0.500000 0.000000 0.248930
O O10 0.610429 0.979277 0.025639
O O11 0.750000 0.089847 0.846057
O O12 0.835106 0.476528 0.235480
O O13 0.750000 0.551762 0.043128
O O14 0.931668 0.373000 0.320232
O O15 0.000000 0.500000 0.290601
#
# Coordination Sequence:
#
# PCOD8184609 Si02
#       8
#     8   4   8   4   4   4   8   8
#     4  12  23  43  67  97 131 175 228 278 337 403
#     4  11  24  41  66 101 134 173 222 278 346 399
#     4  11  21  44  70  95 128 180 228 266 332 411
#     4  11  22  42  68  92 132 180 217 274 343 410
#     4  11  22  39  66  95 128 171 222 270 337 398
#     4  11  24  42  66 100 134 174 217 286 344 393
#     4  12  24  42  66  99 133 171 229 282 336 406
#     4  11  22  42  67  92 127 176 223 269 331 407
#
# _framework density 19.942696000000002
#
# number of rings (size 3 to 8) (size 9 to 14) (size 15 to 20)
#    0.000    0.667    6.667    3.000    0.000    2.000 
#    3.000    1.667    0.000    0.000    0.000    0.000 
#    0.000    0.000    0.000    0.000    0.000    0.000 
#
# Total GULP energy -297652.822028 kJ/mol
# GULP energy per Si atom -12402.200918 kJ/mol
# Density = 1.989731 g / cm^3
# Si number density = 19.942696 Si / 1000 Ang^3
#
#
#
# Elastic Constant Matrix: (Units=GPa)
#
#
# Indices 1 2 3 4 5 6 
#
# 1 184.0476 29.2573 48.8624 0.0000 0.0000 0.0000
# 2 29.2573 77.1198 22.0875 0.0000 0.0000 0.0000
# 3 48.8624 22.0875 77.8516 0.0000 0.0000 0.0000
# 4 0.0000 0.0000 0.0000 25.9826 0.0000 0.0000
# 5 0.0000 0.0000 0.0000 0.0000 47.5144 0.0000
# 6 0.0000 0.0000 0.0000 0.0000 0.0000 29.3460
#
#
#
# Elastic Compliance Matrix: (Units=1/GPa)
#
#
# Indices 1 2 3 4 5 6 
#
# 1 0.006665 -0.001448 -0.003772 0.000000 0.000000 0.000000
# 2 -0.001448 0.014428 -0.003185 0.000000 0.000000 0.000000
# 3 -0.003772 -0.003185 0.016116 0.000000 0.000000 0.000000
# 4 0.000000 0.000000 0.000000 0.038487 0.000000 0.000000
# 5 0.000000 0.000000 0.000000 0.000000 0.021046 0.000000
# 6 0.000000 0.000000 0.000000 0.000000 0.000000 0.034076
#
#
# Mechanical properties :
#
#
# Convention : Reuss Voigt Hill
#
# Bulk Modulus (GPa) = 49.02128 59.93703 54.47915
# Shear Modulus (GPa) = 32.37727 36.48939 34.43333
#
# Velocity S-wave (km/s) = 4.03366 4.28215 4.15976
# Velocity P-wave (km/s) = 6.80649 7.38708 7.10272
#
# Compressibility (1/GPa) = 0.02039930
#
# Stress axis : x y z
#
# Youngs Moduli (GPa) = 150.03510 69.30825 62.04962
#
# Poissons Ratio (x) = 0.10037 0.23408
# Poissons Ratio (y) = 0.21727 0.19760
# Poissons Ratio (z) = 0.56599 0.22072
#
# Static dielectric constant tensor:
#      x y z
#    x 4.011990 0.000000 0.000000 
#    y 0.000000 3.707120 0.000000 
#    z 0.000000 0.000000 3.507590 
# 
# 
# High freq. dielectric constant tensor:
#      x y z
#    x 1.800280 0.000000 0.000000 
#    y 0.000000 1.774970 0.000000 
#    z 0.000000 0.000000 1.771700 
# 
# From -- ./inp_files/6537.got.cif
#   From: 2010.03.12/outbox.cif.g09.slc.cpg/sg40_4_cif.got.tgz:6537.got - 2010.04.14 01:38:03.
