data_PCOD8184519
_publ_section_title
;
Structure prediction by ZEFSAII (Michael W. Deem and Ramdas Pophale) SiO2 
 PCOD8184519
Probable space group: A M A 2
;
_chemical_formula_sum "Si O2"
_cell_formula_units_Z 40
_cell_length_a 9.184128
_cell_length_b 16.260322
_cell_length_c 11.991187
_cell_angle_alpha 90.000000
_cell_angle_beta 90.000000
_cell_angle_gamma 90.000000
_cell_volume 1790.726437
_symmetry_space_group_name_H-M "A M A 2"
_symmetry_group_IT_number 40
_symmetry_cell_setting 'orthorhombic'
loop_
_space_group_symop_operation_xyz
x,y,z
-x,-y,z
1/2-x,y,z
1/2+x,-y,z
x,1/2+y,1/2+z
-x,1/2-y,1/2+z
1/2-x,1/2+y,1/2+z
1/2+x,1/2-y,1/2+z
loop_
_atom_site_type_symbol
_atom_site_label
_atom_site_fract_x
_atom_site_fract_y
_atom_site_fract_z
Si Si1 0.914238 0.082738 0.085390
Si Si2 0.412670 0.146517 0.292971
Si Si3 0.500000 0.195773 0.895515
Si Si4 0.087330 0.853484 0.498059
Si Si5 0.085762 0.582738 0.205640
O O1 0.750000 0.062249 0.123955
O O2 0.997095 0.131929 0.181478
O O3 0.000000 0.000000 0.056631
O O4 0.903463 0.138550 0.975243
O O5 0.250000 0.109754 0.282158
O O6 0.400116 0.244686 0.318083
O O7 0.500000 0.102978 0.395515
O O8 0.400116 0.255315 0.972947
O O9 0.403463 0.138550 0.815787
O O10 0.250000 0.890247 0.508871
O O11 0.997095 0.868072 0.609551
O O12 0.250000 0.562249 0.167074
O O13 0.000000 0.500000 0.234400
#
# Coordination Sequence:
#
# PCOD8184519 Si02
#       5
#     8   8   8   8   8
#     4  12  26  44  67  99 136 175 219 272 330 391
#     4  10  23  43  69  99 132 173 220 271 326 391
#     4  10  25  42  73  96 130 172 222 270 323 392
#     4  10  23  43  69  99 132 173 220 271 326 391
#     4  12  26  44  67  99 136 175 219 272 330 391
#
# _framework density 22.337305000000001
#
# number of rings (size 3 to 8) (size 9 to 14) (size 15 to 20)
#    1.200    0.000    0.000    5.400    0.000   12.000 
#    0.000    4.000    0.000    0.000    0.000    0.000 
#    0.000    0.000    0.000    0.000    0.000    0.000 
#
# Total GULP energy -247866.747216 kJ/mol
# GULP energy per Si atom -12393.337361 kJ/mol
# Density = 2.228646 g / cm^3
# Si number density = 22.337305 Si / 1000 Ang^3
#
#
#
# Elastic Constant Matrix: (Units=GPa)
#
#
# Indices 1 2 3 4 5 6 
#
# 1 197.1963 24.6444 40.8561 0.0000 0.0000 0.0000
# 2 24.6444 78.8598 28.2451 0.0000 0.0000 0.0000
# 3 40.8561 28.2451 96.5438 0.0000 0.0000 0.0000
# 4 0.0000 0.0000 0.0000 17.4923 0.0000 0.0000
# 5 0.0000 0.0000 0.0000 0.0000 28.7641 0.0000
# 6 0.0000 0.0000 0.0000 0.0000 0.0000 12.9039
#
#
#
# Elastic Compliance Matrix: (Units=1/GPa)
#
#
# Indices 1 2 3 4 5 6 
#
# 1 0.005630 -0.001012 -0.002086 0.000000 0.000000 0.000000
# 2 -0.001012 0.014347 -0.003769 0.000000 0.000000 0.000000
# 3 -0.002086 -0.003769 0.012344 0.000000 0.000000 0.000000
# 4 0.000000 0.000000 0.000000 0.057168 0.000000 0.000000
# 5 0.000000 0.000000 0.000000 0.000000 0.034766 0.000000
# 6 0.000000 0.000000 0.000000 0.000000 0.000000 0.077496
#
#
# Mechanical properties :
#
#
# Convention : Reuss Voigt Hill
#
# Bulk Modulus (GPa) = 53.80590 62.23236 58.01913
# Shear Modulus (GPa) = 22.55502 30.42235 26.48868
#
# Velocity S-wave (km/s) = 3.18110 3.69447 3.44735
# Velocity P-wave (km/s) = 6.13455 6.79114 6.47118
#
# Compressibility (1/GPa) = 0.01858532
#
# Stress axis : x y z
#
# Youngs Moduli (GPa) = 177.62496 69.70103 81.01360
#
# Poissons Ratio (x) = 0.07054 0.16902
# Poissons Ratio (y) = 0.17977 0.30535
# Poissons Ratio (z) = 0.37059 0.26271
#
# Static dielectric constant tensor:
#      x y z
#    x 3.879300 0.000000 0.000000 
#    y 0.000000 3.867520 0.000000 
#    z 0.000000 0.000000 3.951290 
# 
# 
# High freq. dielectric constant tensor:
#      x y z
#    x 1.878260 0.000000 0.000000 
#    y 0.000000 1.868230 0.000000 
#    z 0.000000 0.000000 1.886150 
# 
# From -- ./inp_files/10016.got.cif
#   From: 2010.03.12/outbox.cif.g09.slc.cpg/sg40_6_cif.got.tgz:10016.got - 2010.04.14 01:38:03.
