data_PCOD8184135
_publ_section_title
;
Structure prediction by ZEFSAII (Michael W. Deem and Ramdas Pophale) SiO2 
 PCOD8184135
Probable space group: A M A 2
;
_chemical_formula_sum "Si O2"
_cell_formula_units_Z 64
_cell_length_a 14.107572
_cell_length_b 8.770920
_cell_length_c 21.865792
_cell_angle_alpha 90.000000
_cell_angle_beta 90.000000
_cell_angle_gamma 90.000000
_cell_volume 2705.594066
_symmetry_space_group_name_H-M "A M A 2"
_symmetry_group_IT_number 40
_symmetry_cell_setting 'orthorhombic'
loop_
_space_group_symop_operation_xyz
x,y,z
-x,-y,z
1/2-x,y,z
1/2+x,-y,z
x,1/2+y,1/2+z
-x,1/2-y,1/2+z
1/2-x,1/2+y,1/2+z
1/2+x,1/2-y,1/2+z
loop_
_atom_site_type_symbol
_atom_site_label
_atom_site_fract_x
_atom_site_fract_y
_atom_site_fract_z
Si Si1 0.138850 0.093087 0.551310
Si Si2 0.101092 0.563939 0.262015
Si Si3 0.139241 0.423075 0.599901
Si Si4 0.853966 0.096640 0.885058
Si Si5 0.642420 0.861941 0.991241
Si Si6 0.978932 0.651650 0.711739
Si Si7 0.145217 0.364004 0.158124
Si Si8 0.981066 0.344468 0.935873
O O1 0.250000 0.082038 0.540434
O O2 0.108698 0.258530 0.574914
O O3 0.088089 0.081820 0.486541
O O4 0.107582 0.955329 0.597673
O O5 0.131436 0.523245 0.330485
O O6 0.091876 0.745186 0.252420
O O7 0.167986 0.489167 0.211019
O O8 0.000000 0.500000 0.245887
O O9 0.250000 0.426677 0.612596
O O10 0.111052 0.567574 0.556553
O O11 0.081837 0.439819 0.661331
O O12 0.750000 0.171569 0.878491
O O13 0.932811 0.228387 0.887573
O O14 0.861867 0.007975 0.947865
O O15 0.750000 0.795840 0.993297
O O16 0.572470 0.731098 0.968219
O O17 0.000000 0.500000 0.753003
O O18 0.069478 0.740668 0.682391
O O19 0.250000 0.289226 0.144858
O O20 0.000000 0.500000 0.897381
#
# Coordination Sequence:
#
# PCOD8184135 Si02
#       8
#     8   8   8   8   8   8   8   8
#     4  10  21  37  62  97 136 179 225 270 332 410
#     4  10  21  40  67  94 122 168 226 276 337 398
#     4  10  21  37  62  96 137 179 224 274 332 407
#     4  11  23  43  69  94 126 174 229 283 343 404
#     4  10  23  42  64  95 133 178 225 273 336 407
#     4  11  25  39  66 101 140 177 225 281 342 412
#     4  10  22  41  63  94 136 181 226 273 332 406
#     4  12  26  39  67  99 138 178 225 282 341 412
#
# _framework density 23.654695
#
# number of rings (size 3 to 8) (size 9 to 14) (size 15 to 20)
#    0.000    1.500    2.500    1.875    3.500    2.000 
#    0.000    8.125    0.000    1.500    0.000    0.000 
#    0.000    0.000    0.000    0.000    0.000    0.000 
#
# Total GULP energy -396448.388220 kJ/mol
# GULP energy per Si atom -12389.012132 kJ/mol
# Density = 2.360086 g / cm^3
# Si number density = 23.654695 Si / 1000 Ang^3
#
#
#
# Elastic Constant Matrix: (Units=GPa)
#
#
# Indices 1 2 3 4 5 6 
#
# 1 81.3023 49.3231 19.9904 0.0000 0.0000 0.0000
# 2 49.3231 153.8874 23.0199 0.0000 0.0000 0.0000
# 3 19.9904 23.0199 80.2476 0.0000 0.0000 0.0000
# 4 0.0000 0.0000 0.0000 18.2922 0.0000 0.0000
# 5 0.0000 0.0000 0.0000 0.0000 31.7966 0.0000
# 6 0.0000 0.0000 0.0000 0.0000 0.0000 9.5701
#
#
#
# Elastic Compliance Matrix: (Units=1/GPa)
#
#
# Indices 1 2 3 4 5 6 
#
# 1 0.015767 -0.004666 -0.002589 0.000000 0.000000 0.000000
# 2 -0.004666 0.008171 -0.001181 0.000000 0.000000 0.000000
# 3 -0.002589 -0.001181 0.013445 0.000000 0.000000 0.000000
# 4 0.000000 0.000000 0.000000 0.054668 0.000000 0.000000
# 5 0.000000 0.000000 0.000000 0.000000 0.031450 0.000000
# 6 0.000000 0.000000 0.000000 0.000000 0.000000 0.104492
#
#
# Mechanical properties :
#
#
# Convention : Reuss Voigt Hill
#
# Bulk Modulus (GPa) = 48.75817 55.56711 52.16264
# Shear Modulus (GPa) = 19.86467 26.80539 23.33503
#
# Velocity S-wave (km/s) = 2.90103 3.36995 3.14425
# Velocity P-wave (km/s) = 5.64611 6.21965 5.93980
#
# Compressibility (1/GPa) = 0.02050938
#
# Stress axis : x y z
#
# Youngs Moduli (GPa) = 63.42247 122.38994 74.37533
#
# Poissons Ratio (x) = 0.57111 0.19257
# Poissons Ratio (y) = 0.29595 0.08787
# Poissons Ratio (z) = 0.16421 0.14459
#
# Static dielectric constant tensor:
#      x y z
#    x 4.515420 0.000000 0.000000 
#    y 0.000000 5.081450 0.000000 
#    z 0.000000 0.000000 4.061660 
# 
# 
# High freq. dielectric constant tensor:
#      x y z
#    x 1.949540 0.000000 0.000000 
#    y 0.000000 1.948800 0.000000 
#    z 0.000000 0.000000 1.913710 
# 
# From -- ./inp_files/24792.got.cif
#   From: 2010.03.12/outbox.cif.g09.slc.cpg/sg40_13_cif.got.tgz:24792.got - 2010.04.14 01:38:03.
