data_PCOD8184567
_publ_section_title
;
Structure prediction by ZEFSAII (Michael W. Deem and Ramdas Pophale) SiO2 
 PCOD8184567
Probable space group: A M A 2
;
_chemical_formula_sum "Si O2"
_cell_formula_units_Z 48
_cell_length_a 13.876132
_cell_length_b 8.860325
_cell_length_c 19.771997
_cell_angle_alpha 90.000000
_cell_angle_beta 90.000000
_cell_angle_gamma 90.000000
_cell_volume 2430.908491
_symmetry_space_group_name_H-M "A M A 2"
_symmetry_group_IT_number 40
_symmetry_cell_setting 'orthorhombic'
loop_
_space_group_symop_operation_xyz
x,y,z
-x,-y,z
1/2-x,y,z
1/2+x,-y,z
x,1/2+y,1/2+z
-x,1/2-y,1/2+z
1/2-x,1/2+y,1/2+z
1/2+x,1/2-y,1/2+z
loop_
_atom_site_type_symbol
_atom_site_label
_atom_site_fract_x
_atom_site_fract_y
_atom_site_fract_z
Si Si1 0.750000 0.143342 0.064600
Si Si2 0.250000 0.556885 0.778245
Si Si3 0.441864 0.849497 0.978321
Si Si4 0.463147 0.176167 0.106902
Si Si5 0.542847 0.836714 0.736077
Si Si6 0.557059 0.856686 0.350666
Si Si7 0.250000 0.655748 0.638588
Si Si8 0.250000 0.235086 0.704979
O O1 0.750000 0.278437 0.121113
O O2 0.750000 0.018698 0.121977
O O3 0.659328 0.122618 0.015699
O O4 0.342843 0.580776 0.823566
O O5 0.250000 0.683446 0.719247
O O6 0.250000 0.398527 0.740195
O O7 0.422018 0.755275 0.911785
O O8 0.500000 0.000000 0.956990
O O9 0.506632 0.761084 0.033387
O O10 0.515630 0.270274 0.163764
O O11 0.349966 0.217619 0.108895
O O12 0.500000 0.000000 0.113084
O O13 0.505723 0.722621 0.792966
O O14 0.658054 0.852344 0.735434
O O15 0.500000 0.000000 0.749942
O O16 0.500000 0.000000 0.379227
#
# Coordination Sequence:
#
# PCOD8184567 Si02
#       8
#     4   4   8   8   8   8   4   4
#     4  11  19  38  69  98 127 170 221 276 332 396
#     4  11  21  39  74  97 127 170 233 276 323 407
#     4  11  23  40  64  97 133 176 222 273 331 395
#     4  11  20  39  66  96 130 173 219 270 328 396
#     4  12  25  42  68 100 138 170 217 286 336 392
#     4  12  25  44  65  94 132 183 224 270 330 401
#     4  11  18  33  70 101 120 158 228 274 315 399
#     4  11  22  42  73 104 126 168 230 284 332 400
#
# _framework density 19.745702999999999
#
# number of rings (size 3 to 8) (size 9 to 14) (size 15 to 20)
#    0.000    0.667    8.333    2.500    0.000    2.000 
#    0.000    5.000    0.000    0.000    0.000    0.000 
#    0.000    0.000    0.000    0.000    0.000    0.000 
#
# Total GULP energy -297336.457528 kJ/mol
# GULP energy per Si atom -12389.019064 kJ/mol
# Density = 1.970076 g / cm^3
# Si number density = 19.745703 Si / 1000 Ang^3
#
#
#
# Elastic Constant Matrix: (Units=GPa)
#
#
# Indices 1 2 3 4 5 6 
#
# 1 184.5223 34.5156 44.2474 0.0000 0.0000 0.0000
# 2 34.5156 68.9527 31.1487 0.0000 0.0000 0.0000
# 3 44.2474 31.1487 111.7355 0.0000 0.0000 0.0000
# 4 0.0000 0.0000 0.0000 -2.6908 0.0000 0.0000
# 5 0.0000 0.0000 0.0000 0.0000 26.5694 0.0000
# 6 0.0000 0.0000 0.0000 0.0000 0.0000 26.8539
#
#
#
# Elastic Compliance Matrix: (Units=1/GPa)
#
#
# Indices 1 2 3 4 5 6 
#
# 1 0.006296 -0.002317 -0.001847 0.000000 0.000000 0.000000
# 2 -0.002317 0.017445 -0.003946 0.000000 0.000000 0.000000
# 3 -0.001847 -0.003946 0.010781 0.000000 0.000000 0.000000
# 4 0.000000 0.000000 0.000000 -0.371643 0.000000 0.000000
# 5 0.000000 0.000000 0.000000 0.000000 0.037637 0.000000
# 6 0.000000 0.000000 0.000000 0.000000 0.000000 0.037239
#
#
# Mechanical properties :
#
#
# Convention : Reuss Voigt Hill
#
# Bulk Modulus (GPa) = 54.63840 65.00376 59.82108
# Shear Modulus (GPa) = -20.83981 27.16642 3.16330
#
# Velocity S-wave (km/s) = -3.25223 3.71322 1.26708
# Velocity P-wave (km/s) = 3.69167 7.16770 5.70107
#
# Compressibility (1/GPa) = 0.01830215
#
# Stress axis : x y z
#
# Youngs Moduli (GPa) = 158.83720 57.32333 92.75463
#
# Poissons Ratio (x) = 0.13282 0.17134
# Poissons Ratio (y) = 0.36803 0.36597
# Poissons Ratio (z) = 0.29341 0.22618
#
# Static dielectric constant tensor:
#      x y z
#    x 3.871210 0.000000 0.000000 
#    y 0.000000 3.420850 0.000000 
#    z 0.000000 0.000000 3.745810 
# 
# 
# High freq. dielectric constant tensor:
#      x y z
#    x 1.794840 0.000000 0.000000 
#    y 0.000000 1.735830 0.000000 
#    z 0.000000 0.000000 1.777150 
# 
# From -- ./inp_files/20625.got.cif
#   From: 2010.03.12/outbox.cif.g09.slc.cpg/sg40_11_cif.got.tgz:20625.got - 2010.04.14 01:38:03.
