data_PCOD8184046
_publ_section_title
;
Structure prediction by ZEFSAII (Michael W. Deem and Ramdas Pophale) SiO2 
 PCOD8184046
Probable space group: A M A 2
;
_chemical_formula_sum "Si O2"
_cell_formula_units_Z 64
_cell_length_a 8.917568
_cell_length_b 25.017083
_cell_length_c 15.093418
_cell_angle_alpha 90.000000
_cell_angle_beta 90.000000
_cell_angle_gamma 90.000000
_cell_volume 3367.213848
_symmetry_space_group_name_H-M "A M A 2"
_symmetry_group_IT_number 40
_symmetry_cell_setting 'orthorhombic'
loop_
_space_group_symop_operation_xyz
x,y,z
-x,-y,z
1/2-x,y,z
1/2+x,-y,z
x,1/2+y,1/2+z
-x,1/2-y,1/2+z
1/2-x,1/2+y,1/2+z
1/2+x,1/2-y,1/2+z
loop_
_atom_site_type_symbol
_atom_site_label
_atom_site_fract_x
_atom_site_fract_y
_atom_site_fract_z
Si Si1 0.925147 0.283354 0.111930
Si Si2 0.927627 0.366988 0.411780
Si Si3 0.426009 0.889287 0.585063
Si Si4 0.427585 0.234810 0.807456
Si Si5 0.072658 0.944510 0.407626
Si Si6 0.428873 0.441951 0.268132
Si Si7 0.574354 0.663170 0.583643
Si Si8 0.928183 0.149172 0.283726
O O1 0.750000 0.294891 0.108956
O O2 0.987359 0.284513 0.212260
O O3 0.962664 0.225932 0.069166
O O4 0.007052 0.331292 0.061034
O O5 0.750000 0.375416 0.404033
O O6 0.980364 0.307922 0.380124
O O7 0.010155 0.411339 0.353763
O O8 0.981057 0.371889 0.513253
O O9 0.250000 0.882243 0.585419
O O10 0.475861 0.929756 0.507577
O O11 0.483826 0.911896 0.678984
O O12 0.250000 0.237546 0.802262
O O13 0.489069 0.294844 0.826046
O O14 0.250000 0.949282 0.398659
O O15 0.007292 0.899933 0.340260
O O16 0.000000 0.000000 0.379665
O O17 0.500000 0.500000 0.267555
O O18 0.250000 0.446101 0.272520
O O19 0.750000 0.652350 0.570046
O O20 0.521665 0.644577 0.681214
O O21 0.750000 0.149529 0.288208
#
# Coordination Sequence:
#
# PCOD8184046 Si02
#       8
#     8   8   8   8   8   8   8   8
#     4   9  17  32  53  78 112 149 183 220 268 331
#     4  11  21  34  57  85 113 148 188 232 281 335
#     4  10  21  34  53  83 115 146 181 227 277 330
#     4   8  15  29  51  79 106 140 181 218 263 328
#     4  10  21  37  57  80 107 142 187 231 275 326
#     4  11  23  39  57  80 114 152 190 235 281 334
#     4   9  19  35  55  80 113 149 186 228 278 332
#     4   8  16  34  57  77 104 146 188 226 274 331
#
# _framework density 19.006810999999999
#
# number of rings (size 3 to 8) (size 9 to 14) (size 15 to 20)
#    0.000    2.500    1.250    2.625    1.750    1.500 
#    0.000    1.250    0.000    2.250    0.000    0.000 
#    0.000    0.000    0.000    0.000    0.000    0.000 
#
# Total GULP energy -396707.398196 kJ/mol
# GULP energy per Si atom -12397.106194 kJ/mol
# Density = 1.896355 g / cm^3
# Si number density = 19.006811 Si / 1000 Ang^3
#
#
#
# Elastic Constant Matrix: (Units=GPa)
#
#
# Indices 1 2 3 4 5 6 
#
# 1 39.3201 34.4878 31.6703 0.0000 0.0000 0.0000
# 2 34.4878 125.1511 50.2571 0.0000 0.0000 0.0000
# 3 31.6703 50.2571 90.9699 0.0000 0.0000 0.0000
# 4 0.0000 0.0000 0.0000 29.9683 0.0000 0.0000
# 5 0.0000 0.0000 0.0000 0.0000 19.7076 0.0000
# 6 0.0000 0.0000 0.0000 0.0000 0.0000 30.9900
#
#
#
# Elastic Compliance Matrix: (Units=1/GPa)
#
#
# Indices 1 2 3 4 5 6 
#
# 1 0.039479 -0.006888 -0.009939 0.000000 0.000000 0.000000
# 2 -0.006888 0.011470 -0.003939 0.000000 0.000000 0.000000
# 3 -0.009939 -0.003939 0.016629 0.000000 0.000000 0.000000
# 4 0.000000 0.000000 0.000000 0.033369 0.000000 0.000000
# 5 0.000000 0.000000 0.000000 0.000000 0.050742 0.000000
# 6 0.000000 0.000000 0.000000 0.000000 0.000000 0.032268
#
#
# Mechanical properties :
#
#
# Convention : Reuss Voigt Hill
#
# Bulk Modulus (GPa) = 38.39275 54.25238 46.32256
# Shear Modulus (GPa) = 21.35195 25.40158 23.37676
#
# Velocity S-wave (km/s) = 3.35533 3.65971 3.51082
# Velocity P-wave (km/s) = 5.93753 6.81642 6.39210
#
# Compressibility (1/GPa) = 0.02604659
#
# Stress axis : x y z
#
# Youngs Moduli (GPa) = 25.32987 87.18254 60.13669
#
# Poissons Ratio (x) = 0.60052 0.59769
# Poissons Ratio (y) = 0.17447 0.23687
# Poissons Ratio (z) = 0.25175 0.34339
#
# Static dielectric constant tensor:
#      x y z
#    x 3.109120 0.000000 0.000000 
#    y 0.000000 3.662220 0.000000 
#    z 0.000000 0.000000 3.583860 
# 
# 
# High freq. dielectric constant tensor:
#      x y z
#    x 1.709330 0.000000 0.000000 
#    y 0.000000 1.737660 0.000000 
#    z 0.000000 0.000000 1.739830 
# 
# From -- ./inp_files/15692.got.cif
#   From: 2010.03.12/outbox.cif.g09.slc.cpg/sg40_8_cif.got.tgz:15692.got - 2010.04.14 01:38:03.
