data_PCOD8184613
_publ_section_title
;
Structure prediction by ZEFSAII (Michael W. Deem and Ramdas Pophale) SiO2 
 PCOD8184613
Probable space group: A M A 2
;
_chemical_formula_sum "Si O2"
_cell_formula_units_Z 48
_cell_length_a 8.877509
_cell_length_b 18.679825
_cell_length_c 15.256283
_cell_angle_alpha 90.000000
_cell_angle_beta 90.000000
_cell_angle_gamma 90.000000
_cell_volume 2529.954209
_symmetry_space_group_name_H-M "A M A 2"
_symmetry_group_IT_number 40
_symmetry_cell_setting 'orthorhombic'
loop_
_space_group_symop_operation_xyz
x,y,z
-x,-y,z
1/2-x,y,z
1/2+x,-y,z
x,1/2+y,1/2+z
-x,1/2-y,1/2+z
1/2-x,1/2+y,1/2+z
1/2+x,1/2-y,1/2+z
loop_
_atom_site_type_symbol
_atom_site_label
_atom_site_fract_x
_atom_site_fract_y
_atom_site_fract_z
Si Si1 0.572390 0.924444 0.340300
Si Si2 0.076136 0.321670 0.976193
Si Si3 0.924309 0.845710 0.976972
Si Si4 0.428690 0.158490 0.173152
Si Si5 0.428127 0.923678 0.820239
Si Si6 0.071686 0.816673 0.673545
O O1 0.750000 0.933766 0.339115
O O2 0.530125 0.866634 0.413138
O O3 0.511042 0.897158 0.245743
O O4 0.500000 0.000000 0.363596
O O5 0.250000 0.341619 0.958984
O O6 0.048383 0.237929 0.958905
O O7 0.028462 0.341315 0.075490
O O8 0.750000 0.865523 0.961813
O O9 0.027272 0.892840 0.914333
O O10 0.975990 0.866099 0.075720
O O11 0.250000 0.164127 0.177444
O O12 0.495775 0.237629 0.192927
O O13 0.250000 0.930706 0.815164
O O14 0.493997 0.872004 0.744296
O O15 0.500000 0.000000 0.803863
O O16 0.250000 0.812764 0.681721
#
# Coordination Sequence:
#
# PCOD8184613 Si02
#       6
#     8   8   8   8   8   8
#     4  11  22  35  52  76 108 142 176 213 256 307
#     4   9  18  35  58  81 105 134 170 213 261 311
#     4   9  18  35  58  81 105 134 170 213 261 311
#     4   8  16  33  56  78 101 133 171 212 260 311
#     4  11  22  35  52  76 108 142 176 213 256 307
#     4   8  16  33  56  78 101 133 171 212 260 311
#
# _framework density 18.972674999999999
#
# number of rings (size 3 to 8) (size 9 to 14) (size 15 to 20)
#    0.000    2.667    0.000    4.000    0.000    3.333 
#    0.000    6.667    0.000    4.000    0.000    0.000 
#    0.000    0.000    0.000    0.000    0.000    0.000 
#
# Total GULP energy -297568.110355 kJ/mol
# GULP energy per Si atom -12398.671265 kJ/mol
# Density = 1.892949 g / cm^3
# Si number density = 18.972675 Si / 1000 Ang^3
#
#
#
# Elastic Constant Matrix: (Units=GPa)
#
#
# Indices 1 2 3 4 5 6 
#
# 1 44.3288 17.9076 15.7011 0.0000 0.0000 0.0000
# 2 17.9076 48.0446 15.2738 0.0000 0.0000 0.0000
# 3 15.7011 15.2738 75.1776 0.0000 0.0000 0.0000
# 4 0.0000 0.0000 0.0000 13.9790 0.0000 0.0000
# 5 0.0000 0.0000 0.0000 0.0000 26.4471 0.0000
# 6 0.0000 0.0000 0.0000 0.0000 0.0000 20.3148
#
#
#
# Elastic Compliance Matrix: (Units=1/GPa)
#
#
# Indices 1 2 3 4 5 6 
#
# 1 0.027602 -0.009039 -0.003928 0.000000 0.000000 0.000000
# 2 -0.009039 0.025211 -0.003234 0.000000 0.000000 0.000000
# 3 -0.003928 -0.003234 0.014779 0.000000 0.000000 0.000000
# 4 0.000000 0.000000 0.000000 0.071536 0.000000 0.000000
# 5 0.000000 0.000000 0.000000 0.000000 0.037811 0.000000
# 6 0.000000 0.000000 0.000000 0.000000 0.000000 0.049225
#
#
# Mechanical properties :
#
#
# Convention : Reuss Voigt Hill
#
# Bulk Modulus (GPa) = 28.41795 29.47955 28.94875
# Shear Modulus (GPa) = 18.49812 20.05942 19.27877
#
# Velocity S-wave (km/s) = 3.12587 3.25511 3.19114
# Velocity P-wave (km/s) = 5.29518 5.44971 5.37300
#
# Compressibility (1/GPa) = 0.03518903
#
# Stress axis : x y z
#
# Youngs Moduli (GPa) = 36.22980 39.66463 67.66190
#
# Poissons Ratio (x) = 0.35853 0.26579
# Poissons Ratio (y) = 0.32748 0.21884
# Poissons Ratio (z) = 0.14232 0.12829
#
# Static dielectric constant tensor:
#      x y z
#    x 3.094760 0.000000 0.000000 
#    y 0.000000 3.649340 0.000000 
#    z 0.000000 0.000000 3.748930 
# 
# 
# High freq. dielectric constant tensor:
#      x y z
#    x 1.704950 0.000000 0.000000 
#    y 0.000000 1.736450 0.000000 
#    z 0.000000 0.000000 1.751010 
# 
# From -- ./inp_files/15018.got.cif
#   From: 2010.03.12/outbox.cif.g09.slc.cpg/sg40_8_cif.got.tgz:15018.got - 2010.04.14 01:38:03.
