data_PCOD8184818
_publ_section_title
;
Structure prediction by ZEFSAII (Michael W. Deem and Ramdas Pophale) SiO2 
 PCOD8184818
Probable space group: A B A 2
;
_chemical_formula_sum "Si O2"
_cell_formula_units_Z 52
_cell_length_a 8.923331
_cell_length_b 18.383963
_cell_length_c 16.302081
_cell_angle_alpha 90.000000
_cell_angle_beta 90.000000
_cell_angle_gamma 90.000000
_cell_volume 2674.294227
_symmetry_space_group_name_H-M "A B A 2"
_symmetry_group_IT_number 41
_symmetry_cell_setting 'orthorhombic'
loop_
_space_group_symop_operation_xyz
x,y,z
-x,-y,z
1/2-x,y,1/2+z
1/2+x,-y,1/2+z
x,1/2+y,1/2+z
-x,1/2-y,1/2+z
1/2-x,1/2+y,z
1/2+x,1/2-y,z
loop_
_atom_site_type_symbol
_atom_site_label
_atom_site_fract_x
_atom_site_fract_y
_atom_site_fract_z
Si Si1 0.730051 0.892163 0.464680
Si Si2 0.171585 0.702727 0.827621
Si Si3 0.500000 0.500000 0.029338
Si Si4 0.584945 0.737292 0.219083
Si Si5 0.028593 0.282139 0.468581
Si Si6 0.523618 0.351006 0.580179
Si Si7 0.303583 0.375820 0.092753
O O1 0.814076 0.875428 0.377070
O O2 0.619201 0.961459 0.467366
O O3 0.632644 0.819531 0.472382
O O4 0.840840 0.900338 0.543573
O O5 0.331566 0.733790 0.799908
O O6 0.094027 0.766808 0.879481
O O7 0.069038 0.696916 0.745956
O O8 0.411243 0.446324 0.090651
O O9 0.562863 0.809259 0.163852
O O10 0.674759 0.673735 0.172986
O O11 0.991462 0.206730 0.510437
O O12 0.155333 0.328842 0.513458
O O13 0.372025 0.398815 0.590935
#
# Coordination Sequence:
#
# PCOD8184818 Si02
#       7
#     8   8   4   8   8   8   8
#     4  10  21  37  59  83 118 162 199 241 286 363
#     4  11  20  33  59  93 123 144 182 249 318 351
#     4  10  24  42  60  74 118 170 216 232 272 352
#     4  11  21  33  60  95 122 146 182 255 321 354
#     4   9  18  33  55  88 117 147 185 247 306 349
#     4  10  19  33  59  90 113 146 198 252 303 346
#     4  10  21  37  58  80 118 156 202 237 288 358
#
# _framework density 19.444382000000001
#
# number of rings (size 3 to 8) (size 9 to 14) (size 15 to 20)
#    0.000    1.846    3.077    2.769    6.462    0.615 
#    0.000    0.000   10.154    0.000    0.000    0.000 
#    0.000    0.000    0.000    0.000    0.000    0.000 
#
# Total GULP energy -322132.864452 kJ/mol
# GULP energy per Si atom -12389.725556 kJ/mol
# Density = 1.940013 g / cm^3
# Si number density = 19.444382 Si / 1000 Ang^3
#
#
#
# Elastic Constant Matrix: (Units=GPa)
#
#
# Indices 1 2 3 4 5 6 
#
# 1 123.4151 36.4168 38.2155 0.0000 0.0000 0.0000
# 2 36.4168 67.6063 20.6432 0.0000 0.0000 0.0000
# 3 38.2155 20.6432 81.5533 0.0000 0.0000 0.0000
# 4 0.0000 0.0000 0.0000 16.3028 0.0000 0.0000
# 5 0.0000 0.0000 0.0000 0.0000 18.8700 0.0000
# 6 0.0000 0.0000 0.0000 0.0000 0.0000 32.8051
#
#
#
# Elastic Compliance Matrix: (Units=1/GPa)
#
#
# Indices 1 2 3 4 5 6 
#
# 1 0.010634 -0.004559 -0.003829 0.000000 0.000000 0.000000
# 2 -0.004559 0.017985 -0.002416 0.000000 0.000000 0.000000
# 3 -0.003829 -0.002416 0.014668 0.000000 0.000000 0.000000
# 4 0.000000 0.000000 0.000000 0.061339 0.000000 0.000000
# 5 0.000000 0.000000 0.000000 0.000000 0.052994 0.000000
# 6 0.000000 0.000000 0.000000 0.000000 0.000000 0.030483
#
#
# Mechanical properties :
#
#
# Convention : Reuss Voigt Hill
#
# Bulk Modulus (GPa) = 46.12873 51.45840 48.79357
# Shear Modulus (GPa) = 23.04823 25.41553 24.23188
#
# Velocity S-wave (km/s) = 3.44661 3.61929 3.53401
# Velocity P-wave (km/s) = 6.29395 6.63231 6.46534
#
# Compressibility (1/GPa) = 0.02167846
#
# Stress axis : x y z
#
# Youngs Moduli (GPa) = 94.04219 55.60216 68.17684
#
# Poissons Ratio (x) = 0.25347 0.26104
# Poissons Ratio (y) = 0.42871 0.16473
# Poissons Ratio (z) = 0.36008 0.13435
#
# Static dielectric constant tensor:
#      x y z
#    x 4.225400 0.000000 0.000000 
#    y 0.000000 3.239740 0.000000 
#    z 0.000000 0.000000 3.576730 
# 
# 
# High freq. dielectric constant tensor:
#      x y z
#    x 1.783310 0.000000 0.000000 
#    y 0.000000 1.711310 0.000000 
#    z 0.000000 0.000000 1.748670 
# 
# From -- ./inp_files/7414.got.cif
#   From: 2010.03.12/outbox.cif.g09.slc.cpg/sg41_4_cif.got.tgz:7414.got - 2010.04.14 01:55:53.
