data_PCOD8184383
_publ_section_title
;
Structure prediction by ZEFSAII (Michael W. Deem and Ramdas Pophale) SiO2 
 PCOD8184383
Probable space group: A M A 2
;
_chemical_formula_sum "Si O2"
_cell_formula_units_Z 48
_cell_length_a 18.583083
_cell_length_b 15.038485
_cell_length_c 8.504576
_cell_angle_alpha 90.000000
_cell_angle_beta 90.000000
_cell_angle_gamma 90.000000
_cell_volume 2376.700843
_symmetry_space_group_name_H-M "A M A 2"
_symmetry_group_IT_number 40
_symmetry_cell_setting 'orthorhombic'
loop_
_space_group_symop_operation_xyz
x,y,z
-x,-y,z
1/2-x,y,z
1/2+x,-y,z
x,1/2+y,1/2+z
-x,1/2-y,1/2+z
1/2-x,1/2+y,1/2+z
1/2+x,1/2-y,1/2+z
loop_
_atom_site_type_symbol
_atom_site_label
_atom_site_fract_x
_atom_site_fract_y
_atom_site_fract_z
Si Si1 0.089401 0.777859 0.681160
Si Si2 0.334430 0.934840 0.823827
Si Si3 0.829061 0.871500 0.804470
Si Si4 0.443989 0.767592 0.316085
Si Si5 0.073674 0.449528 0.630569
Si Si6 0.830592 0.895051 0.177923
O O1 0.141770 0.861865 0.697708
O O2 0.066486 0.773231 0.501044
O O3 0.132527 0.692717 0.746584
O O4 0.018227 0.784152 0.786871
O O5 0.250000 0.925964 0.868834
O O6 0.349104 0.030281 0.739916
O O7 0.383437 0.918776 0.976754
O O8 0.750000 0.841823 0.747854
O O9 0.882165 0.795406 0.742542
O O10 0.830498 0.885069 0.991037
O O11 0.443582 0.864132 0.236723
O O12 0.123810 0.518085 0.728445
O O13 0.000000 0.500000 0.582937
O O14 0.750000 0.904728 0.245464
#
# Coordination Sequence:
#
# PCOD8184383 Si02
#       6
#     8   8   8   8   8   8
#     4  11  22  38  62  88 126 159 207 257 304 363
#     4  10  22  40  64  91 118 158 207 250 307 373
#     4   8  18  36  58  82 113 154 199 242 296 366
#     4  11  23  39  59  92 121 163 205 254 307 362
#     4  11  21  39  61  89 121 160 206 249 302 373
#     4   9  18  36  60  82 114 162 201 238 297 367
#
# _framework density 20.196062999999999
#
# number of rings (size 3 to 8) (size 9 to 14) (size 15 to 20)
#    0.000    2.000    1.667    3.000    4.667    2.000 
#    3.000    0.000    0.000    4.000    0.000    0.000 
#    0.000    0.000    0.000    0.000    0.000    0.000 
#
# Total GULP energy -297542.619331 kJ/mol
# GULP energy per Si atom -12397.609139 kJ/mol
# Density = 2.015010 g / cm^3
# Si number density = 20.196063 Si / 1000 Ang^3
#
#
#
# Elastic Constant Matrix: (Units=GPa)
#
#
# Indices 1 2 3 4 5 6 
#
# 1 151.6616 63.3338 26.3689 0.0000 0.0000 0.0000
# 2 63.3338 130.2120 20.0580 0.0000 0.0000 0.0000
# 3 26.3689 20.0580 38.6333 0.0000 0.0000 0.0000
# 4 0.0000 0.0000 0.0000 26.1285 0.0000 0.0000
# 5 0.0000 0.0000 0.0000 0.0000 24.5338 0.0000
# 6 0.0000 0.0000 0.0000 0.0000 0.0000 46.2166
#
#
#
# Elastic Compliance Matrix: (Units=1/GPa)
#
#
# Indices 1 2 3 4 5 6 
#
# 1 0.008842 -0.003664 -0.004133 0.000000 0.000000 0.000000
# 2 -0.003664 0.009866 -0.002621 0.000000 0.000000 0.000000
# 3 -0.004133 -0.002621 0.030066 0.000000 0.000000 0.000000
# 4 0.000000 0.000000 0.000000 0.038272 0.000000 0.000000
# 5 0.000000 0.000000 0.000000 0.000000 0.040760 0.000000
# 6 0.000000 0.000000 0.000000 0.000000 0.000000 0.021637
#
#
# Mechanical properties :
#
#
# Convention : Reuss Voigt Hill
#
# Bulk Modulus (GPa) = 35.79393 60.00315 47.89854
# Shear Modulus (GPa) = 27.84069 33.42553 30.63311
#
# Velocity S-wave (km/s) = 3.71687 4.07265 3.89882
# Velocity P-wave (km/s) = 6.01514 7.20348 6.63596
#
# Compressibility (1/GPa) = 0.02793770
#
# Stress axis : x y z
#
# Youngs Moduli (GPa) = 113.09190 101.36041 33.25997
#
# Poissons Ratio (x) = 0.37140 0.13746
# Poissons Ratio (y) = 0.41439 0.08718
# Poissons Ratio (z) = 0.46740 0.26569
#
# Static dielectric constant tensor:
#      x y z
#    x 3.990250 0.000000 0.000000 
#    y 0.000000 4.014830 0.000000 
#    z 0.000000 0.000000 3.115920 
# 
# 
# High freq. dielectric constant tensor:
#      x y z
#    x 1.810220 0.000000 0.000000 
#    y 0.000000 1.805730 0.000000 
#    z 0.000000 0.000000 1.738860 
# 
# From -- ./inp_files/7465.got.cif
#   From: 2010.03.12/outbox.cif.g09.slc.cpg/sg40_4_cif.got.tgz:7465.got - 2010.04.14 01:38:03.
