data_PCOD8184562
_publ_section_title
;
Structure prediction by ZEFSAII (Michael W. Deem and Ramdas Pophale) SiO2 
 PCOD8184562
Probable space group: A M A 2
;
_chemical_formula_sum "Si O2"
_cell_formula_units_Z 40
_cell_length_a 14.512852
_cell_length_b 9.561493
_cell_length_c 11.953492
_cell_angle_alpha 90.000000
_cell_angle_beta 90.000000
_cell_angle_gamma 90.000000
_cell_volume 1658.720733
_symmetry_space_group_name_H-M "A M A 2"
_symmetry_group_IT_number 40
_symmetry_cell_setting 'orthorhombic'
loop_
_space_group_symop_operation_xyz
x,y,z
-x,-y,z
1/2-x,y,z
1/2+x,-y,z
x,1/2+y,1/2+z
-x,1/2-y,1/2+z
1/2-x,1/2+y,1/2+z
1/2+x,1/2-y,1/2+z
loop_
_atom_site_type_symbol
_atom_site_label
_atom_site_fract_x
_atom_site_fract_y
_atom_site_fract_z
Si Si1 0.250000 0.893883 0.849670
Si Si2 0.750000 0.647999 0.599790
Si Si3 0.500000 0.000000 0.617935
Si Si4 0.250000 0.719419 0.317472
Si Si5 0.908847 0.438277 0.616726
Si Si6 0.053709 0.778162 0.786286
Si Si7 0.410247 0.302300 0.958033
O O1 0.154696 0.851514 0.789365
O O2 0.250000 0.061306 0.863094
O O3 0.250000 0.814738 0.969208
O O4 0.750000 0.783777 0.681219
O O5 0.838329 0.560836 0.633620
O O6 0.514952 0.868197 0.702737
O O7 0.420631 0.946403 0.530514
O O8 0.336951 0.812314 0.358510
O O9 0.934790 0.376993 0.738178
O O10 0.868820 0.314636 0.540666
O O11 0.000000 0.500000 0.558450
O O12 0.007481 0.755245 0.907423
#
# Coordination Sequence:
#
# PCOD8184562 Si02
#       7
#     4   4   4   4   8   8   8
#     4  12  25  46  71 104 147 192 245 298 363 437
#     4  12  25  43  69 105 135 185 241 287 353 440
#     4  10  26  44  68 106 142 180 252 292 360 434
#     4  12  26  43  76 101 146 195 240 301 370 429
#     4  11  23  43  70 101 138 184 242 288 355 435
#     4  11  25  43  71 103 144 190 235 302 364 422
#     4  11  24  46  71 106 144 192 235 306 362 426
#
# _framework density 24.11497
#
# number of rings (size 3 to 8) (size 9 to 14) (size 15 to 20)
#    0.000    0.800    2.000    4.200    5.600    7.200 
#    0.000    1.000    0.000    0.000    0.000    0.000 
#    0.000    0.000    0.000    0.000    0.000    0.000 
#
# Total GULP energy -247772.383827 kJ/mol
# GULP energy per Si atom -12388.619191 kJ/mol
# Density = 2.406008 g / cm^3
# Si number density = 24.114970 Si / 1000 Ang^3
#
#
#
# Elastic Constant Matrix: (Units=GPa)
#
#
# Indices 1 2 3 4 5 6 
#
# 1 116.8495 29.7365 17.7087 0.0000 0.0000 0.0000
# 2 29.7365 53.5865 23.4980 0.0000 0.0000 0.0000
# 3 17.7087 23.4980 122.6631 0.0000 0.0000 0.0000
# 4 0.0000 0.0000 0.0000 37.0309 0.0000 0.0000
# 5 0.0000 0.0000 0.0000 0.0000 31.0676 0.0000
# 6 0.0000 0.0000 0.0000 0.0000 0.0000 24.7845
#
#
#
# Elastic Compliance Matrix: (Units=1/GPa)
#
#
# Indices 1 2 3 4 5 6 
#
# 1 0.009985 -0.005359 -0.000415 0.000000 0.000000 0.000000
# 2 -0.005359 0.023249 -0.003680 0.000000 0.000000 0.000000
# 3 -0.000415 -0.003680 0.008917 0.000000 0.000000 0.000000
# 4 0.000000 0.000000 0.000000 0.027004 0.000000 0.000000
# 5 0.000000 0.000000 0.000000 0.000000 0.032188 0.000000
# 6 0.000000 0.000000 0.000000 0.000000 0.000000 0.040348
#
#
# Mechanical properties :
#
#
# Convention : Reuss Voigt Hill
#
# Bulk Modulus (GPa) = 43.02314 48.33173 45.67744
# Shear Modulus (GPa) = 29.70072 33.38700 31.54386
#
# Velocity S-wave (km/s) = 3.51327 3.72491 3.62064
# Velocity P-wave (km/s) = 5.85977 6.21174 6.03832
#
# Compressibility (1/GPa) = 0.02324331
#
# Stress axis : x y z
#
# Youngs Moduli (GPa) = 100.15398 43.01285 112.14176
#
# Poissons Ratio (x) = 0.23050 0.04653
# Poissons Ratio (y) = 0.53670 0.41269
# Poissons Ratio (z) = 0.04155 0.15829
#
# Static dielectric constant tensor:
#      x y z
#    x 4.232310 0.000000 0.000000 
#    y 0.000000 4.184660 0.000000 
#    z 0.000000 0.000000 4.444260 
# 
# 
# High freq. dielectric constant tensor:
#      x y z
#    x 1.946280 0.000000 0.000000 
#    y 0.000000 1.944980 0.000000 
#    z 0.000000 0.000000 1.972040 
# 
# From -- ./inp_files/12756.got.cif
#   From: 2010.03.12/outbox.cif.g09.slc.cpg/sg40_7_cif.got.tgz:12756.got - 2010.04.14 01:38:03.
