data_PCOD8184423
_publ_section_title
;
Structure prediction by ZEFSAII (Michael W. Deem and Ramdas Pophale) SiO2 
 PCOD8184423
Probable space group: A M A 2
;
_chemical_formula_sum "Si O2"
_cell_formula_units_Z 64
_cell_length_a 33.352350
_cell_length_b 10.007516
_cell_length_c 9.929023
_cell_angle_alpha 90.000000
_cell_angle_beta 90.000000
_cell_angle_gamma 90.000000
_cell_volume 3314.051473
_symmetry_space_group_name_H-M "A M A 2"
_symmetry_group_IT_number 40
_symmetry_cell_setting 'orthorhombic'
loop_
_space_group_symop_operation_xyz
x,y,z
-x,-y,z
1/2-x,y,z
1/2+x,-y,z
x,1/2+y,1/2+z
-x,1/2-y,1/2+z
1/2-x,1/2+y,1/2+z
1/2+x,1/2-y,1/2+z
loop_
_atom_site_type_symbol
_atom_site_label
_atom_site_fract_x
_atom_site_fract_y
_atom_site_fract_z
Si Si1 0.606925 0.163653 0.808790
Si Si2 0.477679 0.865032 0.149127
Si Si3 0.014138 0.350967 0.340369
Si Si4 0.160377 0.106056 0.220393
Si Si5 0.114547 0.352171 0.620091
Si Si6 0.653310 0.406772 0.230575
Si Si7 0.703986 0.297160 0.468885
Si Si8 0.703437 0.985256 0.478630
O O1 0.559437 0.166629 0.792207
O O2 0.623582 0.290848 0.728077
O O3 0.623643 0.030967 0.740467
O O4 0.620785 0.169364 0.962413
O O5 0.486831 0.750124 0.256459
O O6 0.430566 0.895574 0.153552
O O7 0.500000 0.000000 0.193209
O O8 0.490986 0.819509 0.999232
O O9 0.000000 0.500000 0.307765
O O10 0.144611 0.964257 0.171566
O O11 0.180955 0.097851 0.364846
O O12 0.194358 0.159227 0.120238
O O13 0.124891 0.216189 0.695280
O O14 0.675619 0.380522 0.370476
O O15 0.687141 0.435669 0.120991
O O16 0.750000 0.331411 0.436909
O O17 0.695523 0.140744 0.452987
O O18 0.750000 0.949938 0.474699
#
# Coordination Sequence:
#
# PCOD8184423 Si02
#       8
#     8   8   8   8   8   8   8   8
#     4  11  23  39  64  90 126 157 200 251 302 361
#     4  10  22  42  62  91 123 159 200 248 301 360
#     4  10  22  42  62  91 123 159 200 248 301 360
#     4  12  22  42  62  92 121 163 203 248 305 355
#     4  11  23  39  64  90 126 157 200 251 302 361
#     4  12  22  42  62  92 121 163 203 248 305 355
#     4  11  24  41  63  91 123 160 203 253 303 359
#     4  11  24  41  61  91 127 159 201 256 303 357
#
# _framework density 19.311710000000001
#
# number of rings (size 3 to 8) (size 9 to 14) (size 15 to 20)
#    0.000    1.000    5.000    2.250    0.000    0.500 
#    4.500    1.250    0.000    0.000    0.000    0.000 
#    0.000    0.000    0.000    0.000    0.000    0.000 
#
# Total GULP energy -397011.318532 kJ/mol
# GULP energy per Si atom -12406.603704 kJ/mol
# Density = 1.926776 g / cm^3
# Si number density = 19.311710 Si / 1000 Ang^3
#
#
#
# Elastic Constant Matrix: (Units=GPa)
#
#
# Indices 1 2 3 4 5 6 
#
# 1 56.8113 13.6577 15.5196 0.0000 0.0000 0.0000
# 2 13.6577 71.1214 15.6395 0.0000 0.0000 0.0000
# 3 15.5196 15.6395 68.9581 0.0000 0.0000 0.0000
# 4 0.0000 0.0000 0.0000 20.0162 0.0000 0.0000
# 5 0.0000 0.0000 0.0000 0.0000 35.5196 0.0000
# 6 0.0000 0.0000 0.0000 0.0000 0.0000 -23.7964
#
#
#
# Elastic Compliance Matrix: (Units=1/GPa)
#
#
# Indices 1 2 3 4 5 6 
#
# 1 0.019306 -0.002896 -0.003688 0.000000 0.000000 0.000000
# 2 -0.002896 0.015233 -0.002803 0.000000 0.000000 0.000000
# 3 -0.003688 -0.002803 0.015967 0.000000 0.000000 0.000000
# 4 0.000000 0.000000 0.000000 0.049960 0.000000 0.000000
# 5 0.000000 0.000000 0.000000 0.000000 0.028153 0.000000
# 6 0.000000 0.000000 0.000000 0.000000 0.000000 -0.042023
#
#
# Mechanical properties :
#
#
# Convention : Reuss Voigt Hill
#
# Bulk Modulus (GPa) = 31.51446 31.83602 31.67524
# Shear Modulus (GPa) = 43.12272 16.48615 29.80443
#
# Velocity S-wave (km/s) = 4.73057 2.92496 3.93279
# Velocity P-wave (km/s) = 6.79647 5.28473 6.08771
#
# Compressibility (1/GPa) = 0.03173146
#
# Stress axis : x y z
#
# Youngs Moduli (GPa) = 51.79758 65.64681 62.62802
#
# Poissons Ratio (x) = 0.19014 0.23098
# Poissons Ratio (y) = 0.15003 0.17554
# Poissons Ratio (z) = 0.19103 0.18401
#
# Static dielectric constant tensor:
#      x y z
#    x 3.439140 0.000000 0.000000 
#    y 0.000000 3.521740 0.000000 
#    z 0.000000 0.000000 3.551050 
# 
# 
# High freq. dielectric constant tensor:
#      x y z
#    x 1.761040 0.000000 0.000000 
#    y 0.000000 1.760680 0.000000 
#    z 0.000000 0.000000 1.758930 
# 
# From -- ./inp_files/14402.got.cif
#   From: 2010.03.12/outbox.cif.g09.slc.cpg/sg40_8_cif.got.tgz:14402.got - 2010.04.14 01:38:03.
