data_PCOD8184898
_publ_section_title
;
Structure prediction by ZEFSAII (Michael W. Deem and Ramdas Pophale) SiO2 
 PCOD8184898
Probable space group: A B A 2
;
_chemical_formula_sum "Si O2"
_cell_formula_units_Z 64
_cell_length_a 20.520711
_cell_length_b 17.529873
_cell_length_c 9.580465
_cell_angle_alpha 90.000000
_cell_angle_beta 90.000000
_cell_angle_gamma 90.000000
_cell_volume 3446.337157
_symmetry_space_group_name_H-M "A B A 2"
_symmetry_group_IT_number 41
_symmetry_cell_setting 'orthorhombic'
loop_
_space_group_symop_operation_xyz
x,y,z
-x,-y,z
1/2-x,y,1/2+z
1/2+x,-y,1/2+z
x,1/2+y,1/2+z
-x,1/2-y,1/2+z
1/2-x,1/2+y,z
1/2+x,1/2-y,z
loop_
_atom_site_type_symbol
_atom_site_label
_atom_site_fract_x
_atom_site_fract_y
_atom_site_fract_z
Si Si1 0.556315 0.700777 0.700830
Si Si2 0.703247 0.718884 0.719873
Si Si3 0.703756 0.044888 0.263067
Si Si4 0.448430 0.721758 0.487979
Si Si5 0.698813 0.793603 0.009514
Si Si6 0.800269 0.967543 0.470790
Si Si7 0.562292 0.528404 0.745959
Si Si8 0.942571 0.450160 0.956779
O O1 0.629742 0.725398 0.658899
O O2 0.502857 0.742422 0.603716
O O3 0.542555 0.718707 0.862678
O O4 0.549413 0.610721 0.677752
O O5 0.719890 0.634146 0.775760
O O6 0.711191 0.776290 0.847778
O O7 0.753442 0.742575 0.601187
O O8 0.631087 0.028490 0.326017
O O9 0.751198 0.992316 0.350712
O O10 0.706015 0.025377 0.099518
O O11 0.375575 0.727142 0.552838
O O12 0.459006 0.637483 0.425847
O O13 0.714019 0.882961 0.029479
O O14 0.871266 0.971175 0.396339
O O15 0.500000 0.500000 0.840716
O O16 0.563013 0.465932 0.622173
O O17 0.000000 0.500000 0.885530
#
# Coordination Sequence:
#
# PCOD8184898 Si02
#       8
#     8   8   8   8   8   8   8   8
#     4  10  20  35  55  82 110 141 180 229 270 317
#     4  10  21  37  55  79 114 144 176 223 275 322
#     4  10  20  34  56  81 106 140 179 220 264 316
#     4  10  20  35  55  82 110 141 180 229 270 317
#     4  10  21  37  55  79 114 144 176 223 275 322
#     4  10  20  34  56  81 106 140 179 220 264 316
#     4   9  16  33  59  75 100 142 189 210 250 324
#     4   9  16  33  59  75 100 142 189 210 250 324
#
# _framework density 18.570440000000001
#
# number of rings (size 3 to 8) (size 9 to 14) (size 15 to 20)
#    0.000    2.250    2.500    1.500    0.000    1.000 
#    4.500    0.000    0.000    0.000    0.000    0.000 
#    0.000    0.000    0.000    0.000    0.000    0.000 
#
# Total GULP energy -396659.323118 kJ/mol
# GULP energy per Si atom -12395.603847 kJ/mol
# Density = 1.852817 g / cm^3
# Si number density = 18.570440 Si / 1000 Ang^3
#
#
#
# Elastic Constant Matrix: (Units=GPa)
#
#
# Indices 1 2 3 4 5 6 
#
# 1 162.2714 38.9441 46.7516 0.0000 0.0000 0.0000
# 2 38.9441 59.3223 11.5027 0.0000 0.0000 0.0000
# 3 46.7516 11.5027 43.2962 0.0000 0.0000 0.0000
# 4 0.0000 0.0000 0.0000 19.4519 0.0000 0.0000
# 5 0.0000 0.0000 0.0000 0.0000 29.1779 0.0000
# 6 0.0000 0.0000 0.0000 0.0000 0.0000 30.8102
#
#
#
# Elastic Compliance Matrix: (Units=1/GPa)
#
#
# Indices 1 2 3 4 5 6 
#
# 1 0.010072 -0.004748 -0.009614 0.000000 0.000000 0.000000
# 2 -0.004748 0.020011 -0.000190 0.000000 0.000000 0.000000
# 3 -0.009614 -0.000190 0.033529 0.000000 0.000000 0.000000
# 4 0.000000 0.000000 0.000000 0.051409 0.000000 0.000000
# 5 0.000000 0.000000 0.000000 0.000000 0.034273 0.000000
# 6 0.000000 0.000000 0.000000 0.000000 0.000000 0.032457
#
#
# Mechanical properties :
#
#
# Convention : Reuss Voigt Hill
#
# Bulk Modulus (GPa) = 28.97895 51.03185 40.00540
# Shear Modulus (GPa) = 22.48647 27.06742 24.77695
#
# Velocity S-wave (km/s) = 3.48354 3.82193 3.65665
# Velocity P-wave (km/s) = 5.64082 6.85683 6.27833
#
# Compressibility (1/GPa) = 0.03450781
#
# Stress axis : x y z
#
# Youngs Moduli (GPa) = 99.28573 49.97326 29.82510
#
# Poissons Ratio (x) = 0.23726 0.28675
# Poissons Ratio (y) = 0.47139 0.00566
# Poissons Ratio (z) = 0.95457 0.00948
#
# Static dielectric constant tensor:
#      x y z
#    x 3.946460 0.000000 0.000000 
#    y 0.000000 3.385610 0.000000 
#    z 0.000000 0.000000 2.908870 
# 
# 
# High freq. dielectric constant tensor:
#      x y z
#    x 1.743330 0.000000 0.000000 
#    y 0.000000 1.727820 0.000000 
#    z 0.000000 0.000000 1.670940 
# 
# From -- ./inp_files/3497.got.cif
#   From: 2010.03.12/outbox.cif.g09.slc.cpg/sg41_2_cif.got.tgz:3497.got - 2010.04.14 01:55:53.
