data_PCOD8184029
_publ_section_title
;
Structure prediction by ZEFSAII (Michael W. Deem and Ramdas Pophale) SiO2 
 PCOD8184029
Probable space group: A M A 2
;
_chemical_formula_sum "Si O2"
_cell_formula_units_Z 52
_cell_length_a 25.103698
_cell_length_b 10.930870
_cell_length_c 9.387493
_cell_angle_alpha 90.000000
_cell_angle_beta 90.000000
_cell_angle_gamma 90.000000
_cell_volume 2575.977451
_symmetry_space_group_name_H-M "A M A 2"
_symmetry_group_IT_number 40
_symmetry_cell_setting 'orthorhombic'
loop_
_space_group_symop_operation_xyz
x,y,z
-x,-y,z
1/2-x,y,z
1/2+x,-y,z
x,1/2+y,1/2+z
-x,1/2-y,1/2+z
1/2-x,1/2+y,1/2+z
1/2+x,1/2-y,1/2+z
loop_
_atom_site_type_symbol
_atom_site_label
_atom_site_fract_x
_atom_site_fract_y
_atom_site_fract_z
Si Si1 0.414825 0.479664 0.829060
Si Si2 0.750000 0.987911 0.012340
Si Si3 0.034984 0.380491 0.456775
Si Si4 0.505849 0.822197 0.253171
Si Si5 0.355253 0.370271 0.580757
Si Si6 0.666908 0.895976 0.509215
Si Si7 0.250000 0.476026 0.202988
Si Si8 0.750000 0.311945 0.777120
O O1 0.460266 0.377745 0.859436
O O2 0.443718 0.587575 0.740357
O O3 0.367430 0.422475 0.736400
O O4 0.387795 0.533365 0.970462
O O5 0.750000 0.942306 0.847876
O O6 0.699348 0.074203 0.027696
O O7 0.750000 0.876146 0.122377
O O8 0.024920 0.306372 0.313156
O O9 0.097997 0.407756 0.469517
O O10 0.000000 0.500000 0.446558
O O11 0.018921 0.302796 0.596960
O O12 0.349150 0.224397 0.596133
O O13 0.698197 0.853728 0.366302
O O14 0.698859 0.988962 0.609159
O O15 0.250000 0.332797 0.245055
#
# Coordination Sequence:
#
# PCOD8184029 Si02
#       8
#     8   4   8   8   8   8   4   4
#     4  10  20  41  67  93 125 175 210 264 330 389
#     4  12  23  42  65  95 132 170 219 265 332 387
#     4  11  22  44  66  97 131 172 218 269 326 391
#     4  10  21  42  65  94 133 163 218 265 325 392
#     4  11  21  41  72  90 128 178 213 266 327 388
#     4  11  22  43  67  89 129 171 217 266 327 379
#     4  11  26  43  59 103 126 163 228 272 310 403
#     4  11  23  43  68  86 130 179 205 269 332 382
#
# _framework density 20.186510999999999
#
# number of rings (size 3 to 8) (size 9 to 14) (size 15 to 20)
#    0.000    1.231    7.692    0.462    0.000    1.231 
#   16.615    0.000    0.000    0.000    0.000    0.000 
#    0.000    0.000    0.000    0.000    0.000    0.000 
#
# Total GULP energy -322352.862172 kJ/mol
# GULP energy per Si atom -12398.187007 kJ/mol
# Density = 2.014057 g / cm^3
# Si number density = 20.186511 Si / 1000 Ang^3
#
#
#
# Elastic Constant Matrix: (Units=GPa)
#
#
# Indices 1 2 3 4 5 6 
#
# 1 115.0178 34.3481 28.7777 0.0000 0.0000 0.0000
# 2 34.3481 95.5081 40.1467 0.0000 0.0000 0.0000
# 3 28.7777 40.1467 84.0189 0.0000 0.0000 0.0000
# 4 0.0000 0.0000 0.0000 35.0264 0.0000 0.0000
# 5 0.0000 0.0000 0.0000 0.0000 7.1074 0.0000
# 6 0.0000 0.0000 0.0000 0.0000 0.0000 20.6135
#
#
#
# Elastic Compliance Matrix: (Units=1/GPa)
#
#
# Indices 1 2 3 4 5 6 
#
# 1 0.010040 -0.002709 -0.002144 0.000000 0.000000 0.000000
# 2 -0.002709 0.013833 -0.005682 0.000000 0.000000 0.000000
# 3 -0.002144 -0.005682 0.015351 0.000000 0.000000 0.000000
# 4 0.000000 0.000000 0.000000 0.028550 0.000000 0.000000
# 5 0.000000 0.000000 0.000000 0.000000 0.140699 0.000000
# 6 0.000000 0.000000 0.000000 0.000000 0.000000 0.048512
#
#
# Mechanical properties :
#
#
# Convention : Reuss Voigt Hill
#
# Bulk Modulus (GPa) = 55.08556 55.67664 55.38110
# Shear Modulus (GPa) = 17.59901 25.30093 21.44997
#
# Velocity S-wave (km/s) = 2.95586 3.54412 3.26327
# Velocity P-wave (km/s) = 6.24476 6.66249 6.45700
#
# Compressibility (1/GPa) = 0.01815358
#
# Stress axis : x y z
#
# Youngs Moduli (GPa) = 99.60257 72.29061 65.14044
#
# Poissons Ratio (x) = 0.19586 0.13967
# Poissons Ratio (y) = 0.26986 0.37012
# Poissons Ratio (z) = 0.21357 0.41074
#
# Static dielectric constant tensor:
#      x y z
#    x 3.913790 0.000000 0.000000 
#    y 0.000000 3.585530 0.000000 
#    z 0.000000 0.000000 3.645760 
# 
# 
# High freq. dielectric constant tensor:
#      x y z
#    x 1.805830 0.000000 0.000000 
#    y 0.000000 1.783050 0.000000 
#    z 0.000000 0.000000 1.769760 
# 
# From -- ./inp_files/9127.got.cif
#   From: 2010.03.12/outbox.cif.g09.slc.cpg/sg40_5_cif.got.tgz:9127.got - 2010.04.14 01:38:03.
