data_PCOD8184944
_publ_section_title
;
Structure prediction by ZEFSAII (Michael W. Deem and Ramdas Pophale) SiO2 
 PCOD8184944
Probable space group: A B A 2
;
_chemical_formula_sum "Si O2"
_cell_formula_units_Z 40
_cell_length_a 10.269937
_cell_length_b 18.229237
_cell_length_c 8.901318
_cell_angle_alpha 90.000000
_cell_angle_beta 90.000000
_cell_angle_gamma 90.000000
_cell_volume 1666.443475
_symmetry_space_group_name_H-M "A B A 2"
_symmetry_group_IT_number 41
_symmetry_cell_setting 'orthorhombic'
loop_
_space_group_symop_operation_xyz
x,y,z
-x,-y,z
1/2-x,y,1/2+z
1/2+x,-y,1/2+z
x,1/2+y,1/2+z
-x,1/2-y,1/2+z
1/2-x,1/2+y,z
1/2+x,1/2-y,z
loop_
_atom_site_type_symbol
_atom_site_label
_atom_site_fract_x
_atom_site_fract_y
_atom_site_fract_z
Si Si1 0.979234 0.082846 0.643950
Si Si2 0.651982 0.294071 0.115386
Si Si3 0.503479 0.693311 0.403701
Si Si4 0.802070 0.657481 0.653662
Si Si5 0.476262 0.583485 0.980399
O O1 0.051333 0.132474 0.519887
O O2 0.830019 0.110205 0.660542
O O3 0.051027 0.091495 0.803445
O O4 0.000000 0.000000 0.588480
O O5 0.608287 0.283923 0.287860
O O6 0.779901 0.243627 0.102779
O O7 0.543826 0.264078 0.998666
O O8 0.650306 0.380618 0.068166
O O9 0.626848 0.657523 0.315125
O O10 0.891733 0.624045 0.525897
O O11 0.500000 0.500000 0.029518
#
# Coordination Sequence:
#
# PCOD8184944 Si02
#       5
#     8   8   8   8   8
#     4  10  20  37  62  91 126 164 204 254 308 366
#     4  10  20  38  62  88 117 157 202 248 300 361
#     4  10  21  35  60  89 119 158 205 255 303 360
#     4  10  21  40  63  87 120 163 207 253 307 367
#     4  10  22  42  64  91 127 162 202 254 311 368
#
# _framework density 24.003212999999999
#
# number of rings (size 3 to 8) (size 9 to 14) (size 15 to 20)
#    0.000    2.000    0.000    4.800    0.000    6.400 
#    0.000   16.000    0.000    0.000    0.000    0.000 
#    0.000    0.000    0.000    0.000    0.000    0.000 
#
# Total GULP energy -247834.567838 kJ/mol
# GULP energy per Si atom -12391.728392 kJ/mol
# Density = 2.394858 g / cm^3
# Si number density = 24.003213 Si / 1000 Ang^3
#
#
#
# Elastic Constant Matrix: (Units=GPa)
#
#
# Indices 1 2 3 4 5 6 
#
# 1 50.5260 22.7914 -9.4150 0.0000 0.0000 0.0000
# 2 22.7914 157.9898 45.8240 0.0000 0.0000 0.0000
# 3 -9.4150 45.8240 111.8528 0.0000 0.0000 0.0000
# 4 0.0000 0.0000 0.0000 50.9268 0.0000 0.0000
# 5 0.0000 0.0000 0.0000 0.0000 14.8735 0.0000
# 6 0.0000 0.0000 0.0000 0.0000 0.0000 28.3298
#
#
#
# Elastic Compliance Matrix: (Units=1/GPa)
#
#
# Indices 1 2 3 4 5 6 
#
# 1 0.022405 -0.004289 0.003643 0.000000 0.000000 0.000000
# 2 -0.004289 0.008004 -0.003640 0.000000 0.000000 0.000000
# 3 0.003643 -0.003640 0.010738 0.000000 0.000000 0.000000
# 4 0.000000 0.000000 0.000000 0.019636 0.000000 0.000000
# 5 0.000000 0.000000 0.000000 0.000000 0.067234 0.000000
# 6 0.000000 0.000000 0.000000 0.000000 0.000000 0.035299
#
#
# Mechanical properties :
#
#
# Convention : Reuss Voigt Hill
#
# Bulk Modulus (GPa) = 30.69781 48.75215 39.72498
# Shear Modulus (GPa) = 27.36040 36.23724 31.79882
#
# Velocity S-wave (km/s) = 3.37985 3.88968 3.64369
# Velocity P-wave (km/s) = 5.29603 6.36613 5.85558
#
# Compressibility (1/GPa) = 0.03257562
#
# Stress axis : x y z
#
# Youngs Moduli (GPa) = 44.63254 124.93763 93.12516
#
# Poissons Ratio (x) = 0.53583 -0.33925
# Poissons Ratio (y) = 0.19142 0.33898
# Poissons Ratio (z) = -0.16259 0.45478
#
# Static dielectric constant tensor:
#      x y z
#    x 3.971250 0.000000 0.000000 
#    y 0.000000 4.604580 0.000000 
#    z 0.000000 0.000000 4.494180 
# 
# 
# High freq. dielectric constant tensor:
#      x y z
#    x 1.925800 0.000000 0.000000 
#    y 0.000000 1.957660 0.000000 
#    z 0.000000 0.000000 1.970300 
# 
# From -- ./inp_files/2012.got.cif
#   From: 2010.03.12/outbox.cif.g09.slc.cpg/sg41_2_cif.got.tgz:2012.got - 2010.04.14 01:55:53.
