data_PCOD8184108
_publ_section_title
;
Structure prediction by ZEFSAII (Michael W. Deem and Ramdas Pophale) SiO2 
 PCOD8184108
Probable space group: A M A 2
;
_chemical_formula_sum "Si O2"
_cell_formula_units_Z 64
_cell_length_a 8.763560
_cell_length_b 14.017088
_cell_length_c 27.992403
_cell_angle_alpha 90.000000
_cell_angle_beta 90.000000
_cell_angle_gamma 90.000000
_cell_volume 3438.575356
_symmetry_space_group_name_H-M "A M A 2"
_symmetry_group_IT_number 40
_symmetry_cell_setting 'orthorhombic'
loop_
_space_group_symop_operation_xyz
x,y,z
-x,-y,z
1/2-x,y,z
1/2+x,-y,z
x,1/2+y,1/2+z
-x,1/2-y,1/2+z
1/2-x,1/2+y,1/2+z
1/2+x,1/2-y,1/2+z
loop_
_atom_site_type_symbol
_atom_site_label
_atom_site_fract_x
_atom_site_fract_y
_atom_site_fract_z
Si Si1 0.927032 0.736452 0.561700
Si Si2 0.429992 0.897160 0.236899
Si Si3 0.074881 0.898290 0.735631
Si Si4 0.427021 0.742888 0.810356
Si Si5 0.069290 0.239856 0.163998
Si Si6 0.927907 0.898846 0.485525
Si Si7 0.572336 0.399042 0.488527
Si Si8 0.073032 0.763305 0.412257
O O1 0.750000 0.721664 0.573410
O O2 0.956452 0.830372 0.530440
O O3 0.021301 0.750231 0.609629
O O4 0.988170 0.642878 0.534871
O O5 0.250000 0.904279 0.233088
O O6 0.475024 0.836185 0.283204
O O7 0.494095 0.852873 0.187833
O O8 0.500000 0.000000 0.244194
O O9 0.250000 0.916800 0.726052
O O10 0.045395 0.845565 0.785906
O O11 0.010091 0.833175 0.692517
O O12 0.000000 0.000000 0.736525
O O13 0.250000 0.713672 0.807114
O O14 0.478307 0.751306 0.864528
O O15 0.250000 0.228957 0.168655
O O16 0.750000 0.909667 0.473935
O O17 0.011638 0.856902 0.439102
O O18 0.000000 0.000000 0.498852
O O19 0.500000 0.500000 0.475047
O O20 0.750000 0.410179 0.500418
O O21 0.544590 0.330391 0.443707
O O22 0.250000 0.778467 0.400430
#
# Coordination Sequence:
#
# PCOD8184108 Si02
#       8
#     8   8   8   8   8   8   8   8
#     4  10  21  37  57  82 110 143 183 226 273 323
#     4  11  22  38  59  83 111 143 181 225 272 324
#     4   9  20  36  55  79 109 143 179 221 266 316
#     4  10  21  38  57  81 112 145 182 225 272 321
#     4  10  21  38  57  81 112 145 182 225 272 321
#     4  10  21  37  57  81 111 145 182 226 273 324
#     4  10  21  37  57  81 111 145 182 226 273 324
#     4  10  21  37  57  82 110 143 183 226 273 323
#
# _framework density 18.612361
#
# number of rings (size 3 to 8) (size 9 to 14) (size 15 to 20)
#    0.000    2.000    0.000    4.125    0.000    8.000 
#    0.000   10.000    0.000    0.000    0.000    0.000 
#    0.000    0.000    0.000    0.000    0.000    0.000 
#
# Total GULP energy -396923.954973 kJ/mol
# GULP energy per Si atom -12403.873593 kJ/mol
# Density = 1.857000 g / cm^3
# Si number density = 18.612361 Si / 1000 Ang^3
#
#
#
# Elastic Constant Matrix: (Units=GPa)
#
#
# Indices 1 2 3 4 5 6 
#
# 1 104.2727 45.5595 35.2277 0.0000 0.0000 0.0000
# 2 45.5595 108.8449 24.6327 0.0000 0.0000 0.0000
# 3 35.2277 24.6327 102.7730 0.0000 0.0000 0.0000
# 4 0.0000 0.0000 0.0000 10.9934 0.0000 0.0000
# 5 0.0000 0.0000 0.0000 0.0000 37.9079 0.0000
# 6 0.0000 0.0000 0.0000 0.0000 0.0000 37.2409
#
#
#
# Elastic Compliance Matrix: (Units=1/GPa)
#
#
# Indices 1 2 3 4 5 6 
#
# 1 0.012688 -0.004575 -0.003253 0.000000 0.000000 0.000000
# 2 -0.004575 0.011364 -0.001156 0.000000 0.000000 0.000000
# 3 -0.003253 -0.001156 0.011122 0.000000 0.000000 0.000000
# 4 0.000000 0.000000 0.000000 0.090963 0.000000 0.000000
# 5 0.000000 0.000000 0.000000 0.000000 0.026380 0.000000
# 6 0.000000 0.000000 0.000000 0.000000 0.000000 0.026852
#
#
# Mechanical properties :
#
#
# Convention : Reuss Voigt Hill
#
# Bulk Modulus (GPa) = 58.11273 58.52559 58.31916
# Shear Modulus (GPa) = 24.62196 31.25983 27.94090
#
# Velocity S-wave (km/s) = 3.64109 4.10264 3.87874
# Velocity P-wave (km/s) = 6.99765 7.34540 7.17364
#
# Compressibility (1/GPa) = 0.01720793
#
# Stress axis : x y z
#
# Youngs Moduli (GPa) = 78.81515 87.99900 89.91146
#
# Poissons Ratio (x) = 0.40257 0.29244
# Poissons Ratio (y) = 0.36056 0.10390
# Poissons Ratio (z) = 0.25635 0.10169
#
# Static dielectric constant tensor:
#      x y z
#    x 3.441350 0.000000 0.000000 
#    y 0.000000 3.400240 0.000000 
#    z 0.000000 0.000000 3.410560 
# 
# 
# High freq. dielectric constant tensor:
#      x y z
#    x 1.738660 0.000000 0.000000 
#    y 0.000000 1.725510 0.000000 
#    z 0.000000 0.000000 1.724050 
# 
# From -- ./inp_files/26366.got.cif
#   From: 2010.03.12/outbox.cif.g09.slc.cpg/sg40_14_cif.got.tgz:26366.got - 2010.04.14 01:38:03.
