data_PCOD8184105
_publ_section_title
;
Structure prediction by ZEFSAII (Michael W. Deem and Ramdas Pophale) SiO2 
 PCOD8184105
Probable space group: A M A 2
;
_chemical_formula_sum "Si O2"
_cell_formula_units_Z 60
_cell_length_a 13.601394
_cell_length_b 22.512701
_cell_length_c 9.616721
_cell_angle_alpha 90.000000
_cell_angle_beta 90.000000
_cell_angle_gamma 90.000000
_cell_volume 2944.679556
_symmetry_space_group_name_H-M "A M A 2"
_symmetry_group_IT_number 40
_symmetry_cell_setting 'orthorhombic'
loop_
_space_group_symop_operation_xyz
x,y,z
-x,-y,z
1/2-x,y,z
1/2+x,-y,z
x,1/2+y,1/2+z
-x,1/2-y,1/2+z
1/2-x,1/2+y,1/2+z
1/2+x,1/2-y,1/2+z
loop_
_atom_site_type_symbol
_atom_site_label
_atom_site_fract_x
_atom_site_fract_y
_atom_site_fract_z
Si Si1 0.633617 0.559351 0.440300
Si Si2 0.510114 0.674601 0.411898
Si Si3 0.000000 0.500000 0.915866
Si Si4 0.862080 0.005660 0.646877
Si Si5 0.138091 0.030517 0.177650
Si Si6 0.363436 0.633834 0.173740
Si Si7 0.860736 0.787505 0.412469
Si Si8 0.142984 0.160671 0.122004
O O1 0.750000 0.566692 0.441661
O O2 0.585411 0.623418 0.455115
O O3 0.600039 0.527971 0.296765
O O4 0.599527 0.520902 0.573775
O O5 0.436394 0.652290 0.294799
O O6 0.570835 0.732437 0.371534
O O7 0.443463 0.694541 0.542571
O O8 0.069892 0.538156 0.814143
O O9 0.072835 0.464211 0.022810
O O10 0.750000 0.024970 0.623514
O O11 0.876758 0.934898 0.634543
O O12 0.250000 0.017598 0.227174
O O13 0.134686 0.090644 0.087877
O O14 0.250000 0.644946 0.218692
O O15 0.394731 0.675509 0.045840
O O16 0.750000 0.763519 0.433274
O O17 0.867722 0.833153 0.286317
O O18 0.250000 0.184765 0.073016
#
# Coordination Sequence:
#
# PCOD8184105 Si02
#       8
#     8   8   4   8   8   8   8   8
#     4  10  22  38  56  82 117 152 183 222 277 337
#     4  12  21  35  58  85 112 142 182 226 276 333
#     4  12  20  30  52  82 110 142 180 226 280 326
#     4  10  21  37  56  81 113 148 188 232 277 326
#     4  10  21  37  56  81 113 148 188 232 277 326
#     4  10  21  37  57  80 108 142 184 232 274 318
#     4  10  22  39  56  78 110 147 182 221 275 332
#     4  10  21  37  57  80 108 142 184 232 274 318
#
# _framework density 20.375730000000001
#
# number of rings (size 3 to 8) (size 9 to 14) (size 15 to 20)
#    0.000    1.600    0.000    5.200    0.000    5.867 
#    0.000    0.000    0.000    0.000    0.000   18.667 
#    0.000    0.000    0.000    0.000    0.000    0.000 
#
# Total GULP energy -371881.780202 kJ/mol
# GULP energy per Si atom -12396.059340 kJ/mol
# Density = 2.032935 g / cm^3
# Si number density = 20.375730 Si / 1000 Ang^3
#
#
#
# Elastic Constant Matrix: (Units=GPa)
#
#
# Indices 1 2 3 4 5 6 
#
# 1 82.6606 23.8217 42.7991 0.0000 0.0000 0.0000
# 2 23.8217 77.3197 13.1664 0.0000 0.0000 0.0000
# 3 42.7991 13.1664 102.4430 0.0000 0.0000 0.0000
# 4 0.0000 0.0000 0.0000 23.4714 0.0000 0.0000
# 5 0.0000 0.0000 0.0000 0.0000 41.9315 0.0000
# 6 0.0000 0.0000 0.0000 0.0000 0.0000 21.3166
#
#
#
# Elastic Compliance Matrix: (Units=1/GPa)
#
#
# Indices 1 2 3 4 5 6 
#
# 1 0.016572 -0.004015 -0.006408 0.000000 0.000000 0.000000
# 2 -0.004015 0.014195 -0.000147 0.000000 0.000000 0.000000
# 3 -0.006408 -0.000147 0.012457 0.000000 0.000000 0.000000
# 4 0.000000 0.000000 0.000000 0.042605 0.000000 0.000000
# 5 0.000000 0.000000 0.000000 0.000000 0.023848 0.000000
# 6 0.000000 0.000000 0.000000 0.000000 0.000000 0.046912
#
#
# Mechanical properties :
#
#
# Convention : Reuss Voigt Hill
#
# Bulk Modulus (GPa) = 45.27752 46.88863 46.08308
# Shear Modulus (GPa) = 27.01368 29.51964 28.26666
#
# Velocity S-wave (km/s) = 3.64507 3.81039 3.72865
# Velocity P-wave (km/s) = 6.32337 6.51312 6.41894
#
# Compressibility (1/GPa) = 0.02208602
#
# Stress axis : x y z
#
# Youngs Moduli (GPa) = 60.34148 70.44593 80.27309
#
# Poissons Ratio (x) = 0.28282 0.51436
# Poissons Ratio (y) = 0.24225 0.01181
# Poissons Ratio (z) = 0.38665 0.01037
#
# Static dielectric constant tensor:
#      x y z
#    x 4.060740 0.000000 0.000000 
#    y 0.000000 3.320590 0.000000 
#    z 0.000000 0.000000 3.708130 
# 
# 
# High freq. dielectric constant tensor:
#      x y z
#    x 1.820280 0.000000 0.000000 
#    y 0.000000 1.762080 0.000000 
#    z 0.000000 0.000000 1.804040 
# 
# From -- ./inp_files/6857.got.cif
#   From: 2010.03.12/outbox.cif.g09.slc.cpg/sg40_4_cif.got.tgz:6857.got - 2010.04.14 01:38:03.
