data_PCOD8184954
_publ_section_title
;
Structure prediction by ZEFSAII (Michael W. Deem and Ramdas Pophale) SiO2 
 PCOD8184954
Probable space group: A B A 2
;
_chemical_formula_sum "Si O2"
_cell_formula_units_Z 48
_cell_length_a 8.954437
_cell_length_b 26.904627
_cell_length_c 9.295712
_cell_angle_alpha 90.000000
_cell_angle_beta 90.000000
_cell_angle_gamma 90.000000
_cell_volume 2239.483777
_symmetry_space_group_name_H-M "A B A 2"
_symmetry_group_IT_number 41
_symmetry_cell_setting 'orthorhombic'
loop_
_space_group_symop_operation_xyz
x,y,z
-x,-y,z
1/2-x,y,1/2+z
1/2+x,-y,1/2+z
x,1/2+y,1/2+z
-x,1/2-y,1/2+z
1/2-x,1/2+y,z
1/2+x,1/2-y,z
loop_
_atom_site_type_symbol
_atom_site_label
_atom_site_fract_x
_atom_site_fract_y
_atom_site_fract_z
Si Si1 0.929677 0.051283 0.777660
Si Si2 0.609511 0.797829 0.922988
Si Si3 0.378759 0.374173 0.032967
Si Si4 0.921416 0.781302 0.079973
Si Si5 0.542981 0.105795 0.009758
Si Si6 0.403756 0.453928 0.247286
O O1 0.022065 0.080838 0.654964
O O2 0.769065 0.035091 0.714693
O O3 0.919919 0.091246 0.901205
O O4 0.000000 0.000000 0.832791
O O5 0.603583 0.781330 0.753895
O O6 0.771030 0.789503 0.991132
O O7 0.488575 0.770462 0.023941
O O8 0.573909 0.856295 0.938916
O O9 0.456653 0.321130 0.027617
O O10 0.200296 0.365965 0.039522
O O11 0.445756 0.402249 0.170600
O O12 0.565573 0.056671 0.913459
O O13 0.500000 0.500000 0.189746
#
# Coordination Sequence:
#
# PCOD8184954 Si02
#       6
#     8   8   8   8   8   8
#     4  10  22  36  61  96 129 172 223 274 326 386
#     4  12  27  46  71 101 134 174 220 274 336 402
#     4  10  22  41  65  93 131 174 220 268 332 393
#     4  12  27  46  71 101 134 174 220 274 336 402
#     4  10  22  41  65  93 131 174 220 268 332 393
#     4  10  20  38  61  88 129 174 217 270 326 388
#
# _framework density 21.433509999999998
#
# number of rings (size 3 to 8) (size 9 to 14) (size 15 to 20)
#    0.000    1.333    1.667    3.000    4.667    2.667 
#    0.000    0.000    0.000    0.000    0.000    0.000 
#    0.000    0.000    0.000    0.000    0.000    0.000 
#
# Total GULP energy -297485.062410 kJ/mol
# GULP energy per Si atom -12395.210934 kJ/mol
# Density = 2.138473 g / cm^3
# Si number density = 21.433510 Si / 1000 Ang^3
#
#
#
# Elastic Constant Matrix: (Units=GPa)
#
#
# Indices 1 2 3 4 5 6 
#
# 1 60.0805 12.4280 11.4235 0.0000 0.0000 0.0000
# 2 12.4280 69.2686 9.2062 0.0000 0.0000 0.0000
# 3 11.4235 9.2062 106.8316 0.0000 0.0000 0.0000
# 4 0.0000 0.0000 0.0000 51.6847 0.0000 0.0000
# 5 0.0000 0.0000 0.0000 0.0000 52.6974 0.0000
# 6 0.0000 0.0000 0.0000 0.0000 0.0000 35.2731
#
#
#
# Elastic Compliance Matrix: (Units=1/GPa)
#
#
# Indices 1 2 3 4 5 6 
#
# 1 0.017560 -0.002935 -0.001625 0.000000 0.000000 0.000000
# 2 -0.002935 0.015094 -0.000987 0.000000 0.000000 0.000000
# 3 -0.001625 -0.000987 0.009619 0.000000 0.000000 0.000000
# 4 0.000000 0.000000 0.000000 0.019348 0.000000 0.000000
# 5 0.000000 0.000000 0.000000 0.000000 0.018976 0.000000
# 6 0.000000 0.000000 0.000000 0.000000 0.000000 0.028350
#
#
# Mechanical properties :
#
#
# Convention : Reuss Voigt Hill
#
# Bulk Modulus (GPa) = 32.07082 33.58846 32.82964
# Shear Modulus (GPa) = 38.33326 41.47258 39.90292
#
# Velocity S-wave (km/s) = 4.23362 4.40357 4.31943
# Velocity P-wave (km/s) = 6.23646 6.44672 6.34247
#
# Compressibility (1/GPa) = 0.03118099
#
# Stress axis : x y z
#
# Youngs Moduli (GPa) = 56.94656 66.25036 103.95751
#
# Poissons Ratio (x) = 0.19442 0.16891
# Poissons Ratio (y) = 0.16712 0.10260
# Poissons Ratio (z) = 0.09253 0.06539
#
# Static dielectric constant tensor:
#      x y z
#    x 3.753120 0.000000 0.000000 
#    y 0.000000 3.752960 0.000000 
#    z 0.000000 0.000000 4.082250 
# 
# 
# High freq. dielectric constant tensor:
#      x y z
#    x 1.827530 0.000000 0.000000 
#    y 0.000000 1.846070 0.000000 
#    z 0.000000 0.000000 1.858450 
# 
# From -- ./inp_files/1805.got.cif
#   From: 2010.03.12/outbox.cif.g09.slc.cpg/sg41_1_cif.got.tgz:1805.got - 2010.04.14 01:55:53.
