data_PCOD8184648
_publ_section_title
;
Structure prediction by ZEFSAII (Michael W. Deem and Ramdas Pophale) SiO2 
 PCOD8184648
Probable space group: A M A 2
;
_chemical_formula_sum "Si O2"
_cell_formula_units_Z 44
_cell_length_a 22.309366
_cell_length_b 8.775798
_cell_length_c 10.410263
_cell_angle_alpha 90.000000
_cell_angle_beta 90.000000
_cell_angle_gamma 90.000000
_cell_volume 2038.147207
_symmetry_space_group_name_H-M "A M A 2"
_symmetry_group_IT_number 40
_symmetry_cell_setting 'orthorhombic'
loop_
_space_group_symop_operation_xyz
x,y,z
-x,-y,z
1/2-x,y,z
1/2+x,-y,z
x,1/2+y,1/2+z
-x,1/2-y,1/2+z
1/2-x,1/2+y,1/2+z
1/2+x,1/2-y,1/2+z
loop_
_atom_site_type_symbol
_atom_site_label
_atom_site_fract_x
_atom_site_fract_y
_atom_site_fract_z
Si Si1 0.619959 0.350119 0.075160
Si Si2 0.362632 0.112720 0.842521
Si Si3 0.750000 0.098327 0.797408
Si Si4 0.430845 0.964761 0.072175
Si Si5 0.250000 0.089748 0.223388
Si Si6 0.250000 0.284606 0.564783
Si Si7 0.635507 0.539053 0.836203
O O1 0.594667 0.403180 0.215343
O O2 0.582644 0.205904 0.024791
O O3 0.689788 0.303674 0.108245
O O4 0.608723 0.481629 0.971569
O O5 0.342872 0.288331 0.854433
O O6 0.307835 0.004461 0.807830
O O7 0.394476 0.073553 0.975911
O O8 0.750000 0.227605 0.680897
O O9 0.750000 0.217730 0.913162
O O10 0.411431 0.985254 0.220165
O O11 0.500000 0.000000 0.057945
O O12 0.250000 0.964713 0.108105
O O13 0.307967 0.065753 0.310158
#
# Coordination Sequence:
#
# PCOD8184648 Si02
#       7
#     8   8   4   8   4   4   8
#     4  11  23  42  65  94 133 166 215 273 326 391
#     4  11  23  41  65 100 127 168 219 268 323 392
#     4  12  22  36  66 100 132 172 206 257 330 403
#     4  11  25  45  65  90 130 174 225 278 325 379
#     4  12  19  37  67  92 131 172 200 251 329 395
#     4  12  19  39  63  92 133 170 202 256 325 402
#     4  11  23  42  69  96 130 175 213 269 330 394
#
# _framework density 21.588232999999999
#
# number of rings (size 3 to 8) (size 9 to 14) (size 15 to 20)
#    0.000    0.727    7.273    1.091    0.000    7.273 
#    0.000    0.909    0.000    0.000    0.000    0.000 
#    0.000    0.000    0.000    0.000    0.000    0.000 
#
# Total GULP energy -272585.246251 kJ/mol
# GULP energy per Si atom -12390.238466 kJ/mol
# Density = 2.153910 g / cm^3
# Si number density = 21.588233 Si / 1000 Ang^3
#
#
#
# Elastic Constant Matrix: (Units=GPa)
#
#
# Indices 1 2 3 4 5 6 
#
# 1 71.4557 37.6804 4.4829 0.0000 0.0000 0.0000
# 2 37.6804 140.0948 58.8668 0.0000 0.0000 0.0000
# 3 4.4829 58.8668 110.0257 0.0000 0.0000 0.0000
# 4 0.0000 0.0000 0.0000 44.9808 0.0000 0.0000
# 5 0.0000 0.0000 0.0000 0.0000 16.3540 0.0000
# 6 0.0000 0.0000 0.0000 0.0000 0.0000 109.0835
#
#
#
# Elastic Compliance Matrix: (Units=1/GPa)
#
#
# Indices 1 2 3 4 5 6 
#
# 1 0.016719 -0.005432 0.002225 0.000000 0.000000 0.000000
# 2 -0.005432 0.010973 -0.005649 0.000000 0.000000 0.000000
# 3 0.002225 -0.005649 0.012021 0.000000 0.000000 0.000000
# 4 0.000000 0.000000 0.000000 0.022232 0.000000 0.000000
# 5 0.000000 0.000000 0.000000 0.000000 0.061147 0.000000
# 6 0.000000 0.000000 0.000000 0.000000 0.000000 0.009167
#
#
# Mechanical properties :
#
#
# Convention : Reuss Voigt Hill
#
# Bulk Modulus (GPa) = 45.45376 58.18182 51.81779
# Shear Modulus (GPa) = 31.78530 48.78673 40.28601
#
# Velocity S-wave (km/s) = 3.84128 4.75897 4.32454
# Velocity P-wave (km/s) = 6.38549 7.56349 6.99931
#
# Compressibility (1/GPa) = 0.02200038
#
# Stress axis : x y z
#
# Youngs Moduli (GPa) = 59.81062 91.13402 83.18948
#
# Poissons Ratio (x) = 0.49502 -0.18509
# Poissons Ratio (y) = 0.32488 0.46998
# Poissons Ratio (z) = -0.13308 0.51486
#
# Static dielectric constant tensor:
#      x y z
#    x 3.531290 0.000000 0.000000 
#    y 0.000000 4.013480 0.000000 
#    z 0.000000 0.000000 4.254500 
# 
# 
# High freq. dielectric constant tensor:
#      x y z
#    x 1.808680 0.000000 0.000000 
#    y 0.000000 1.862010 0.000000 
#    z 0.000000 0.000000 1.864930 
# 
# From -- ./inp_files/13878.got.cif
#   From: 2010.03.12/outbox.cif.g09.slc.cpg/sg40_7_cif.got.tgz:13878.got - 2010.04.14 01:38:03.
