data_PCOD8184743
_publ_section_title
;
Structure prediction by ZEFSAII (Michael W. Deem and Ramdas Pophale) SiO2 
 PCOD8184743
Probable space group: A B A 2
;
_chemical_formula_sum "Si O2"
_cell_formula_units_Z 40
_cell_length_a 17.060954
_cell_length_b 22.655629
_cell_length_c 5.272462
_cell_angle_alpha 90.000000
_cell_angle_beta 90.000000
_cell_angle_gamma 90.000000
_cell_volume 2037.947044
_symmetry_space_group_name_H-M "A B A 2"
_symmetry_group_IT_number 41
_symmetry_cell_setting 'orthorhombic'
loop_
_space_group_symop_operation_xyz
x,y,z
-x,-y,z
1/2-x,y,1/2+z
1/2+x,-y,1/2+z
x,1/2+y,1/2+z
-x,1/2-y,1/2+z
1/2-x,1/2+y,z
1/2+x,1/2-y,z
loop_
_atom_site_type_symbol
_atom_site_label
_atom_site_fract_x
_atom_site_fract_y
_atom_site_fract_z
Si Si1 0.925667 0.456281 0.738180
Si Si2 0.421345 0.796954 0.245809
Si Si3 0.512960 0.326022 0.245716
Si Si4 0.799364 0.112860 0.698020
Si Si5 0.593946 0.504142 0.738397
O O1 0.946746 0.388393 0.709525
O O2 0.872852 0.474316 0.495691
O O3 0.000000 0.500000 0.758651
O O4 0.875949 0.466835 0.995303
O O5 0.422011 0.725883 0.227113
O O6 0.450610 0.817781 0.521232
O O7 0.332469 0.820329 0.214410
O O8 0.472898 0.824604 0.020155
O O9 0.759810 0.101037 0.427580
O O10 0.875382 0.070831 0.720471
O O11 0.500000 0.500000 0.757965
#
# Coordination Sequence:
#
# PCOD8184743 Si02
#       5
#     8   8   8   8   8
#     4  10  17  29  52  82 112 140 180 234 285 325
#     4  10  20  35  54  83 116 147 189 239 288 347
#     4  10  19  33  58  87 112 142 190 246 293 333
#     4  12  24  39  59  85 120 156 194 242 304 361
#     4  10  20  34  56  81 110 147 192 239 283 340
#
# _framework density 19.627594999999999
#
# number of rings (size 3 to 8) (size 9 to 14) (size 15 to 20)
#    0.000    1.600    0.000    8.400    0.000    0.000 
#    0.000    0.000    0.000    7.200    0.000    0.000 
#    0.000    0.000    0.000    0.000    0.000    0.000 
#
# Total GULP energy -247895.334526 kJ/mol
# GULP energy per Si atom -12394.766726 kJ/mol
# Density = 1.958292 g / cm^3
# Si number density = 19.627595 Si / 1000 Ang^3
#
#
#
# Elastic Constant Matrix: (Units=GPa)
#
#
# Indices 1 2 3 4 5 6 
#
# 1 50.4456 24.6144 -0.1024 0.0000 0.0000 0.0000
# 2 24.6144 120.4477 12.9711 0.0000 0.0000 0.0000
# 3 -0.1024 12.9711 134.2095 0.0000 0.0000 0.0000
# 4 0.0000 0.0000 0.0000 29.9016 0.0000 0.0000
# 5 0.0000 0.0000 0.0000 0.0000 16.4972 0.0000
# 6 0.0000 0.0000 0.0000 0.0000 0.0000 32.2325
#
#
#
# Elastic Compliance Matrix: (Units=1/GPa)
#
#
# Indices 1 2 3 4 5 6 
#
# 1 0.022047 -0.004555 0.000457 0.000000 0.000000 0.000000
# 2 -0.004555 0.009331 -0.000905 0.000000 0.000000 0.000000
# 3 0.000457 -0.000905 0.007539 0.000000 0.000000 0.000000
# 4 0.000000 0.000000 0.000000 0.033443 0.000000 0.000000
# 5 0.000000 0.000000 0.000000 0.000000 0.060616 0.000000
# 6 0.000000 0.000000 0.000000 0.000000 0.000000 0.031025
#
#
# Mechanical properties :
#
#
# Convention : Reuss Voigt Hill
#
# Bulk Modulus (GPa) = 34.58963 42.22991 38.40977
# Shear Modulus (GPa) = 27.22680 33.56758 30.39719
#
# Velocity S-wave (km/s) = 3.72851 4.13997 3.93962
# Velocity P-wave (km/s) = 6.01639 6.66444 6.34869
#
# Compressibility (1/GPa) = 0.02891040
#
# Stress axis : x y z
#
# Youngs Moduli (GPa) = 45.35841 107.17406 132.64571
#
# Poissons Ratio (x) = 0.48814 -0.06062
# Poissons Ratio (y) = 0.20659 0.12008
# Poissons Ratio (z) = -0.02073 0.09702
#
# Static dielectric constant tensor:
#      x y z
#    x 3.075440 0.000000 0.000000 
#    y 0.000000 3.728350 0.000000 
#    z 0.000000 0.000000 5.273110 
# 
# 
# High freq. dielectric constant tensor:
#      x y z
#    x 1.702060 0.000000 0.000000 
#    y 0.000000 1.768500 0.000000 
#    z 0.000000 0.000000 1.809400 
# 
# From -- ./inp_files/247.got.cif
#   From: 2010.03.12/outbox.cif.g09.slc.cpg/sg41_1_cif.got.tgz:247.got - 2010.04.14 01:55:53.
