data_PCOD8184020
_publ_section_title
;
Structure prediction by ZEFSAII (Michael W. Deem and Ramdas Pophale) SiO2 
 PCOD8184020
Probable space group: A M A 2
;
_chemical_formula_sum "Si O2"
_cell_formula_units_Z 64
_cell_length_a 17.689944
_cell_length_b 12.102547
_cell_length_c 13.749335
_cell_angle_alpha 90.000000
_cell_angle_beta 90.000000
_cell_angle_gamma 90.000000
_cell_volume 2943.641585
_symmetry_space_group_name_H-M "A M A 2"
_symmetry_group_IT_number 40
_symmetry_cell_setting 'orthorhombic'
loop_
_space_group_symop_operation_xyz
x,y,z
-x,-y,z
1/2-x,y,z
1/2+x,-y,z
x,1/2+y,1/2+z
-x,1/2-y,1/2+z
1/2-x,1/2+y,1/2+z
1/2+x,1/2-y,1/2+z
loop_
_atom_site_type_symbol
_atom_site_label
_atom_site_fract_x
_atom_site_fract_y
_atom_site_fract_z
Si Si1 0.935914 0.740049 0.979520
Si Si2 0.833362 0.673665 0.428208
Si Si3 0.160085 0.968988 0.482740
Si Si4 0.494496 0.379801 0.651523
Si Si5 0.831884 0.201744 0.146182
Si Si6 0.415008 0.033266 0.881866
Si Si7 0.666137 0.445350 0.190205
Si Si8 0.430573 0.640611 0.858486
O O1 0.864617 0.659098 0.992428
O O2 0.903899 0.841035 0.915263
O O3 0.998704 0.666463 0.927003
O O4 0.971761 0.786186 0.080276
O O5 0.750000 0.662849 0.384778
O O6 0.834809 0.733688 0.532270
O O7 0.867186 0.551704 0.447520
O O8 0.880198 0.748533 0.353269
O O9 0.250000 0.975753 0.463110
O O10 0.135703 0.024001 0.584214
O O11 0.116364 0.034916 0.397353
O O12 0.500000 0.500000 0.599845
O O13 0.406009 0.364608 0.678336
O O14 0.542543 0.384656 0.749963
O O15 0.750000 0.140594 0.166954
O O16 0.832008 0.314506 0.205415
O O17 0.389842 0.008583 0.771533
O O18 0.500000 0.000000 0.892155
O O19 0.750000 0.495367 0.205952
#
# Coordination Sequence:
#
# PCOD8184020 Si02
#       8
#     8   8   8   8   8   8   8   8
#     4  12  25  43  69  99 140 177 227 292 352 415
#     4  11  22  41  69  96 131 179 229 277 338 412
#     4  11  25  46  68  98 137 177 230 291 350 411
#     4  12  25  44  66 103 140 179 233 285 351 424
#     4  10  20  40  69  96 129 176 226 278 338 410
#     4  12  24  41  64  99 137 175 218 278 344 409
#     4  10  22  40  65  96 127 166 222 279 333 403
#     4  12  24  44  70  99 132 185 233 286 347 418
#
# _framework density 21.741776999999999
#
# number of rings (size 3 to 8) (size 9 to 14) (size 15 to 20)
#    0.000    0.750    3.750    3.750    1.750    2.000 
#    0.000    5.625    0.000    0.000    0.000    0.000 
#    0.000    0.000    0.000    0.000    0.000    0.000 
#
# Total GULP energy -396748.371318 kJ/mol
# GULP energy per Si atom -12398.386604 kJ/mol
# Density = 2.169229 g / cm^3
# Si number density = 21.741777 Si / 1000 Ang^3
#
#
#
# Elastic Constant Matrix: (Units=GPa)
#
#
# Indices 1 2 3 4 5 6 
#
# 1 119.7815 46.1431 33.8117 0.0000 0.0000 0.0000
# 2 46.1431 114.5544 18.7570 0.0000 0.0000 0.0000
# 3 33.8117 18.7570 94.3830 0.0000 0.0000 0.0000
# 4 0.0000 0.0000 0.0000 40.4467 0.0000 0.0000
# 5 0.0000 0.0000 0.0000 0.0000 34.3088 0.0000
# 6 0.0000 0.0000 0.0000 0.0000 0.0000 140.7284
#
#
#
# Elastic Compliance Matrix: (Units=1/GPa)
#
#
# Indices 1 2 3 4 5 6 
#
# 1 0.010679 -0.003799 -0.003071 0.000000 0.000000 0.000000
# 2 -0.003799 0.010374 -0.000701 0.000000 0.000000 0.000000
# 3 -0.003071 -0.000701 0.011834 0.000000 0.000000 0.000000
# 4 0.000000 0.000000 0.000000 0.024724 0.000000 0.000000
# 5 0.000000 0.000000 0.000000 0.000000 0.029147 0.000000
# 6 0.000000 0.000000 0.000000 0.000000 0.000000 0.007106
#
#
# Mechanical properties :
#
#
# Convention : Reuss Voigt Hill
#
# Bulk Modulus (GPa) = 56.34707 58.46028 57.40367
# Shear Modulus (GPa) = 43.50843 58.43058 50.96951
#
# Velocity S-wave (km/s) = 4.47827 5.18971 4.84706
# Velocity P-wave (km/s) = 7.26034 7.92828 7.60165
#
# Compressibility (1/GPa) = 0.01774715
#
# Stress axis : x y z
#
# Youngs Moduli (GPa) = 93.64490 96.39158 84.49929
#
# Poissons Ratio (x) = 0.36616 0.25946
# Poissons Ratio (y) = 0.35572 0.05923
# Poissons Ratio (z) = 0.28755 0.06756
#
# Static dielectric constant tensor:
#      x y z
#    x 4.086620 0.000000 0.000000 
#    y 0.000000 3.565770 0.000000 
#    z 0.000000 0.000000 3.773390 
# 
# 
# High freq. dielectric constant tensor:
#      x y z
#    x 1.865820 0.000000 0.000000 
#    y 0.000000 1.855640 0.000000 
#    z 0.000000 0.000000 1.846600 
# 
# From -- ./inp_files/17885.got.cif
#   From: 2010.03.12/outbox.cif.g09.slc.cpg/sg40_9_cif.got.tgz:17885.got - 2010.04.14 01:38:03.
