data_PCOD8184970
_publ_section_title
;
Structure prediction by ZEFSAII (Michael W. Deem and Ramdas Pophale) SiO2 
 PCOD8184970
Probable space group: A B A 2
;
_chemical_formula_sum "Si O2"
_cell_formula_units_Z 60
_cell_length_a 15.945496
_cell_length_b 18.398096
_cell_length_c 8.464572
_cell_angle_alpha 90.000000
_cell_angle_beta 90.000000
_cell_angle_gamma 90.000000
_cell_volume 2483.224115
_symmetry_space_group_name_H-M "A B A 2"
_symmetry_group_IT_number 41
_symmetry_cell_setting 'orthorhombic'
loop_
_space_group_symop_operation_xyz
x,y,z
-x,-y,z
1/2-x,y,1/2+z
1/2+x,-y,1/2+z
x,1/2+y,1/2+z
-x,1/2-y,1/2+z
1/2-x,1/2+y,z
1/2+x,1/2-y,z
loop_
_atom_site_type_symbol
_atom_site_label
_atom_site_fract_x
_atom_site_fract_y
_atom_site_fract_z
Si Si1 0.059131 0.629092 0.858760
Si Si2 0.000000 0.000000 0.159382
Si Si3 0.028681 0.613796 0.197881
Si Si4 0.162081 0.384493 0.296732
Si Si5 0.681377 0.329514 0.095903
Si Si6 0.923246 0.743928 0.847780
Si Si7 0.141753 0.028958 0.934582
Si Si8 0.204764 0.802964 0.110526
O O1 0.005819 0.574601 0.753207
O O2 0.145826 0.652186 0.771557
O O3 0.004694 0.700037 0.898411
O O4 0.068060 0.590347 0.028651
O O5 0.913312 0.011555 0.066505
O O6 0.051150 0.697319 0.219537
O O7 0.073154 0.562285 0.320464
O O8 0.929422 0.604761 0.222035
O O9 0.195615 0.464691 0.351849
O O10 0.164281 0.327529 0.444023
O O11 0.217581 0.355324 0.152206
O O12 0.766226 0.282292 0.103568
O O13 0.612136 0.281535 0.005529
O O14 0.699880 0.406129 0.005303
O O15 0.857548 0.691024 0.759348
#
# Coordination Sequence:
#
# PCOD8184970 Si02
#       8
#     8   4   8   8   8   8   8   8
#     4  11  23  39  71 107 133 181 238 294 349 433
#     4  10  20  38  66 104 136 170 224 290 358 406
#     4  11  25  41  77 102 137 184 245 303 356 420
#     4  12  25  47  70 104 147 186 246 295 368 436
#     4  10  24  47  65 104 143 186 237 291 364 433
#     4  11  23  41  67 101 136 186 234 291 359 418
#     4  10  22  47  72  98 137 190 229 301 359 421
#     4  12  26  44  70 103 146 193 234 301 361 446
#
# _framework density 24.162137000000001
#
# number of rings (size 3 to 8) (size 9 to 14) (size 15 to 20)
#    0.000    1.067    2.667    3.200    9.333    0.000 
#    4.800    0.000    0.000    0.000    0.000    0.000 
#    0.000    0.000    0.000    0.000    0.000    0.000 
#
# Total GULP energy -371946.786753 kJ/mol
# GULP energy per Si atom -12398.226225 kJ/mol
# Density = 2.410714 g / cm^3
# Si number density = 24.162137 Si / 1000 Ang^3
#
#
#
# Elastic Constant Matrix: (Units=GPa)
#
#
# Indices 1 2 3 4 5 6 
#
# 1 32.2530 8.8421 4.7645 0.0000 0.0000 0.0000
# 2 8.8421 90.4216 -2.3654 0.0000 0.0000 0.0000
# 3 4.7645 -2.3654 95.9545 0.0000 0.0000 0.0000
# 4 0.0000 0.0000 0.0000 21.8546 0.0000 0.0000
# 5 0.0000 0.0000 0.0000 0.0000 26.2229 0.0000
# 6 0.0000 0.0000 0.0000 0.0000 0.0000 34.1465
#
#
#
# Elastic Compliance Matrix: (Units=1/GPa)
#
#
# Indices 1 2 3 4 5 6 
#
# 1 0.032125 -0.003185 -0.001674 0.000000 0.000000 0.000000
# 2 -0.003185 0.011382 0.000439 0.000000 0.000000 0.000000
# 3 -0.001674 0.000439 0.010516 0.000000 0.000000 0.000000
# 4 0.000000 0.000000 0.000000 0.045757 0.000000 0.000000
# 5 0.000000 0.000000 0.000000 0.000000 0.038135 0.000000
# 6 0.000000 0.000000 0.000000 0.000000 0.000000 0.029286
#
#
# Mechanical properties :
#
#
# Convention : Reuss Voigt Hill
#
# Bulk Modulus (GPa) = 22.13231 26.79018 24.46124
# Shear Modulus (GPa) = 26.16408 30.27065 28.21737
#
# Velocity S-wave (km/s) = 3.29425 3.54335 3.42107
# Velocity P-wave (km/s) = 4.86305 5.27752 5.07451
#
# Compressibility (1/GPa) = 0.04518281
#
# Stress axis : x y z
#
# Youngs Moduli (GPa) = 31.12804 87.85599 95.09751
#
# Poissons Ratio (x) = 0.27984 0.15916
# Poissons Ratio (y) = 0.09915 -0.04172
# Poissons Ratio (z) = 0.05210 -0.03855
#
# Static dielectric constant tensor:
#      x y z
#    x 4.054430 0.000000 0.000000 
#    y 0.000000 4.628450 0.000000 
#    z 0.000000 0.000000 4.558020 
# 
# 
# High freq. dielectric constant tensor:
#      x y z
#    x 1.933360 0.000000 0.000000 
#    y 0.000000 1.969960 0.000000 
#    z 0.000000 0.000000 1.969350 
# 
# From -- ./inp_files/3150.got.cif
#   From: 2010.03.12/outbox.cif.g09.slc.cpg/sg41_2_cif.got.tgz:3150.got - 2010.04.14 01:55:53.
