data_PCOD8184733
_publ_section_title
;
Structure prediction by ZEFSAII (Michael W. Deem and Ramdas Pophale) SiO2 
 PCOD8184733
Probable space group: A B A 2
;
_chemical_formula_sum "Si O2"
_cell_formula_units_Z 40
_cell_length_a 13.227945
_cell_length_b 24.393696
_cell_length_c 5.227504
_cell_angle_alpha 90.000000
_cell_angle_beta 90.000000
_cell_angle_gamma 90.000000
_cell_volume 1686.802988
_symmetry_space_group_name_H-M "A B A 2"
_symmetry_group_IT_number 41
_symmetry_cell_setting 'orthorhombic'
loop_
_space_group_symop_operation_xyz
x,y,z
-x,-y,z
1/2-x,y,1/2+z
1/2+x,-y,1/2+z
x,1/2+y,1/2+z
-x,1/2-y,1/2+z
1/2-x,1/2+y,z
1/2+x,1/2-y,z
loop_
_atom_site_type_symbol
_atom_site_label
_atom_site_fract_x
_atom_site_fract_y
_atom_site_fract_z
Si Si1 0.815252 0.135827 0.570140
Si Si2 0.628919 0.399744 0.567349
Si Si3 0.313805 0.483143 0.493729
Si Si4 0.855781 0.353227 0.566192
Si Si5 0.938624 0.241875 0.485112
O O1 0.729234 0.141822 0.354624
O O2 0.868477 0.075675 0.538161
O O3 0.898710 0.181536 0.534809
O O4 0.613105 0.465021 0.538100
O O5 0.746682 0.381161 0.596768
O O6 0.581775 0.367657 0.325302
O O7 0.579188 0.379747 0.832692
O O8 0.276093 0.487192 0.201759
O O9 0.850345 0.287534 0.527985
O O10 0.974060 0.245932 0.191524
#
# Coordination Sequence:
#
# PCOD8184733 Si02
#       5
#     8   8   8   8   8
#     4  10  23  38  65  92 116 158 208 251 293 355
#     4  10  17  32  57  93 110 137 192 261 291 333
#     4  10  16  32  54  91 120 140 181 257 306 340
#     4  10  20  31  57  82 117 147 196 236 299 346
#     4  12  26  43  59  84 130 169 198 245 306 361
#
# _framework density 23.713495999999999
#
# number of rings (size 3 to 8) (size 9 to 14) (size 15 to 20)
#    0.000    1.600    4.000    2.400    5.600    0.000 
#    0.000    0.000    0.000    7.200    0.000    0.000 
#    0.000    0.000    0.000    0.000    0.000    0.000 
#
# Total GULP energy -247844.524026 kJ/mol
# GULP energy per Si atom -12392.226201 kJ/mol
# Density = 2.365952 g / cm^3
# Si number density = 23.713496 Si / 1000 Ang^3
#
#
#
# Elastic Constant Matrix: (Units=GPa)
#
#
# Indices 1 2 3 4 5 6 
#
# 1 11.5228 18.8242 -4.4243 0.0000 0.0000 0.0000
# 2 18.8242 137.0050 5.5806 0.0000 0.0000 0.0000
# 3 -4.4243 5.5806 158.0704 0.0000 0.0000 0.0000
# 4 0.0000 0.0000 0.0000 38.7229 0.0000 0.0000
# 5 0.0000 0.0000 0.0000 0.0000 19.1909 0.0000
# 6 0.0000 0.0000 0.0000 0.0000 0.0000 19.3703
#
#
#
# Elastic Compliance Matrix: (Units=1/GPa)
#
#
# Indices 1 2 3 4 5 6 
#
# 1 0.114082 -0.015827 0.003752 0.000000 0.000000 0.000000
# 2 -0.015827 0.009505 -0.000779 0.000000 0.000000 0.000000
# 3 0.003752 -0.000779 0.006459 0.000000 0.000000 0.000000
# 4 0.000000 0.000000 0.000000 0.025824 0.000000 0.000000
# 5 0.000000 0.000000 0.000000 0.000000 0.052108 0.000000
# 6 0.000000 0.000000 0.000000 0.000000 0.000000 0.051626
#
#
# Mechanical properties :
#
#
# Convention : Reuss Voigt Hill
#
# Bulk Modulus (GPa) = 9.58428 38.50658 24.04543
# Shear Modulus (GPa) = 15.62054 34.56466 25.09260
#
# Velocity S-wave (km/s) = 2.56934 3.82199 3.25646
# Velocity P-wave (km/s) = 3.58503 5.97915 4.92964
#
# Compressibility (1/GPa) = 0.10433755
#
# Stress axis : x y z
#
# Youngs Moduli (GPa) = 8.76565 105.20373 154.82763
#
# Poissons Ratio (x) = 1.66510 -0.58089
# Poissons Ratio (y) = 0.13874 0.12055
# Poissons Ratio (z) = -0.03289 0.08191
#
# Static dielectric constant tensor:
#      x y z
#    x 3.325340 0.000000 0.000000 
#    y 0.000000 4.769480 0.000000 
#    z 0.000000 0.000000 5.975030 
# 
# 
# High freq. dielectric constant tensor:
#      x y z
#    x 1.856040 0.000000 0.000000 
#    y 0.000000 1.966720 0.000000 
#    z 0.000000 0.000000 1.979740 
# 
# From -- ./inp_files/258.got.cif
#   From: 2010.03.12/outbox.cif.g09.slc.cpg/sg41_1_cif.got.tgz:258.got - 2010.04.14 01:55:53.
