data_PCOD8184414
_publ_section_title
;
Structure prediction by ZEFSAII (Michael W. Deem and Ramdas Pophale) SiO2 
 PCOD8184414
Probable space group: A M A 2
;
_chemical_formula_sum "Si O2"
_cell_formula_units_Z 56
_cell_length_a 19.051931
_cell_length_b 14.190148
_cell_length_c 9.743559
_cell_angle_alpha 90.000000
_cell_angle_beta 90.000000
_cell_angle_gamma 90.000000
_cell_volume 2634.168453
_symmetry_space_group_name_H-M "A M A 2"
_symmetry_group_IT_number 40
_symmetry_cell_setting 'orthorhombic'
loop_
_space_group_symop_operation_xyz
x,y,z
-x,-y,z
1/2-x,y,z
1/2+x,-y,z
x,1/2+y,1/2+z
-x,1/2-y,1/2+z
1/2-x,1/2+y,1/2+z
1/2+x,1/2-y,1/2+z
loop_
_atom_site_type_symbol
_atom_site_label
_atom_site_fract_x
_atom_site_fract_y
_atom_site_fract_z
Si Si1 0.329083 0.917436 0.968980
Si Si2 0.169198 0.121073 0.098192
Si Si3 0.422317 0.727901 0.386410
Si Si4 0.830271 0.764734 0.629089
Si Si5 0.831594 0.417523 0.905950
Si Si6 0.060364 0.932087 0.478350
Si Si7 0.538750 0.594475 0.293979
O O1 0.250000 0.900042 0.913775
O O2 0.380942 0.903093 0.842273
O O3 0.345569 0.843726 0.090869
O O4 0.338489 0.020863 0.026947
O O5 0.250000 0.156860 0.092227
O O6 0.142644 0.110156 0.254026
O O7 0.118019 0.195378 0.024073
O O8 0.375738 0.699891 0.255963
O O9 0.434145 0.839433 0.386313
O O10 0.497820 0.679857 0.366871
O O11 0.750000 0.779772 0.672635
O O12 0.850320 0.828506 0.499449
O O13 0.750000 0.442208 0.903428
O O14 0.867322 0.510623 0.968453
O O15 0.039961 0.898344 0.630491
O O16 0.000000 0.000000 0.418230
O O17 0.500000 0.500000 0.343246
#
# Coordination Sequence:
#
# PCOD8184414 Si02
#       7
#     8   8   8   8   8   8   8
#     4  10  22  41  66  95 134 175 223 276 331 403
#     4  10  22  42  68 104 136 169 222 276 334 401
#     4  12  25  42  69  97 134 178 220 291 328 400
#     4  10  22  42  69  99 134 179 222 269 335 402
#     4  10  23  45  70  98 137 176 220 272 330 403
#     4  11  27  45  64  95 134 178 224 274 332 399
#     4  11  24  44  64  98 135 168 228 277 339 399
#
# _framework density 21.259080000000001
#
# number of rings (size 3 to 8) (size 9 to 14) (size 15 to 20)
#    0.000    1.429    1.429    3.000    6.000    2.857 
#    2.571    0.000    0.000    0.000    0.000    0.000 
#    0.000    0.000    0.000    0.000    0.000    0.000 
#
# Total GULP energy -347356.105543 kJ/mol
# GULP energy per Si atom -12405.575198 kJ/mol
# Density = 2.121069 g / cm^3
# Si number density = 21.259080 Si / 1000 Ang^3
#
#
#
# Elastic Constant Matrix: (Units=GPa)
#
#
# Indices 1 2 3 4 5 6 
#
# 1 105.4005 46.6723 52.6449 0.0000 0.0000 0.0000
# 2 46.6723 110.0370 19.2131 0.0000 0.0000 0.0000
# 3 52.6449 19.2131 77.5118 0.0000 0.0000 0.0000
# 4 0.0000 0.0000 0.0000 25.7542 0.0000 0.0000
# 5 0.0000 0.0000 0.0000 0.0000 33.4615 0.0000
# 6 0.0000 0.0000 0.0000 0.0000 0.0000 35.3444
#
#
#
# Elastic Compliance Matrix: (Units=1/GPa)
#
#
# Indices 1 2 3 4 5 6 
#
# 1 0.016976 -0.005422 -0.010186 0.000000 0.000000 0.000000
# 2 -0.005422 0.011231 0.000899 0.000000 0.000000 0.000000
# 3 -0.010186 0.000899 0.019597 0.000000 0.000000 0.000000
# 4 0.000000 0.000000 0.000000 0.038829 0.000000 0.000000
# 5 0.000000 0.000000 0.000000 0.000000 0.029885 0.000000
# 6 0.000000 0.000000 0.000000 0.000000 0.000000 0.028293
#
#
# Mechanical properties :
#
#
# Convention : Reuss Voigt Hill
#
# Bulk Modulus (GPa) = 54.39204 58.89001 56.64102
# Shear Modulus (GPa) = 27.72277 30.53993 29.13135
#
# Velocity S-wave (km/s) = 3.61507 3.79431 3.70577
# Velocity P-wave (km/s) = 6.56246 6.85251 6.70905
#
# Compressibility (1/GPa) = 0.01838504
#
# Stress axis : x y z
#
# Youngs Moduli (GPa) = 58.90611 89.04212 51.02898
#
# Poissons Ratio (x) = 0.48278 0.51978
# Poissons Ratio (y) = 0.31938 -0.04586
# Poissons Ratio (z) = 0.60002 -0.08002
#
# Static dielectric constant tensor:
#      x y z
#    x 3.956040 0.000000 0.000000 
#    y 0.000000 3.868960 0.000000 
#    z 0.000000 0.000000 3.709980 
# 
# 
# High freq. dielectric constant tensor:
#      x y z
#    x 1.840710 0.000000 0.000000 
#    y 0.000000 1.841370 0.000000 
#    z 0.000000 0.000000 1.828830 
# 
# From -- ./inp_files/8283.got.cif
#   From: 2010.03.12/outbox.cif.g09.slc.cpg/sg40_5_cif.got.tgz:8283.got - 2010.04.14 01:38:03.
