data_PCOD8184224
_publ_section_title
;
Structure prediction by ZEFSAII (Michael W. Deem and Ramdas Pophale) SiO2 
 PCOD8184224
Probable space group: A M A 2
;
_chemical_formula_sum "Si O2"
_cell_formula_units_Z 60
_cell_length_a 20.222202
_cell_length_b 17.059395
_cell_length_c 9.088626
_cell_angle_alpha 90.000000
_cell_angle_beta 90.000000
_cell_angle_gamma 90.000000
_cell_volume 3135.380853
_symmetry_space_group_name_H-M "A M A 2"
_symmetry_group_IT_number 40
_symmetry_cell_setting 'orthorhombic'
loop_
_space_group_symop_operation_xyz
x,y,z
-x,-y,z
1/2-x,y,z
1/2+x,-y,z
x,1/2+y,1/2+z
-x,1/2-y,1/2+z
1/2-x,1/2+y,1/2+z
1/2+x,1/2-y,1/2+z
loop_
_atom_site_type_symbol
_atom_site_label
_atom_site_fract_x
_atom_site_fract_y
_atom_site_fract_z
Si Si1 0.391581 0.601431 0.394150
Si Si2 0.172383 0.704409 0.154369
Si Si3 0.173163 0.516755 0.660042
Si Si4 0.965280 0.295752 0.611485
Si Si5 0.500000 0.000000 0.746450
Si Si6 0.889989 0.861970 0.370961
Si Si7 0.402753 0.861174 0.227614
Si Si8 0.976841 0.623141 0.017148
O O1 0.351910 0.631863 0.253333
O O2 0.341423 0.563253 0.510152
O O3 0.429802 0.675181 0.464101
O O4 0.444713 0.537143 0.348884
O O5 0.250000 0.711819 0.168254
O O6 0.142823 0.785687 0.210574
O O7 0.153210 0.687132 0.986070
O O8 0.250000 0.496666 0.669548
O O9 0.153465 0.569339 0.799919
O O10 0.132987 0.436117 0.659593
O O11 0.914765 0.300148 0.748276
O O12 0.989208 0.207566 0.590469
O O13 0.028490 0.350386 0.641712
O O14 0.460884 0.937032 0.646701
O O15 0.953768 0.903102 0.444504
O O16 0.417036 0.875097 0.400882
#
# Coordination Sequence:
#
# PCOD8184224 Si02
#       8
#     8   8   8   8   4   8   8   8
#     4  11  23  40  61  94 117 161 199 253 309 356
#     4  12  23  40  62  87 122 165 210 242 290 375
#     4  11  24  43  61  87 129 168 206 246 296 371
#     4  10  21  39  64  89 125 151 199 260 312 356
#     4  12  22  34  64  94 126 146 200 258 318 356
#     4  10  22  39  63  89 118 163 202 244 310 360
#     4  11  22  38  65  91 122 159 203 252 312 355
#     4  11  21  38  62  97 125 150 194 267 312 359
#
# _framework density 19.136430000000001
#
# number of rings (size 3 to 8) (size 9 to 14) (size 15 to 20)
#    0.000    1.067    4.000    2.800    1.867    4.800 
#    0.000    0.000    0.000    0.000    0.000    0.000 
#    0.000    0.000    0.000    0.000    0.000    0.000 
#
# Total GULP energy -372163.305117 kJ/mol
# GULP energy per Si atom -12405.443504 kJ/mol
# Density = 1.909287 g / cm^3
# Si number density = 19.136430 Si / 1000 Ang^3
#
#
#
# Elastic Constant Matrix: (Units=GPa)
#
#
# Indices 1 2 3 4 5 6 
#
# 1 108.0932 37.2953 41.5946 0.0000 0.0000 0.0000
# 2 37.2953 100.7561 36.7010 0.0000 0.0000 0.0000
# 3 41.5946 36.7010 97.2685 0.0000 0.0000 0.0000
# 4 0.0000 0.0000 0.0000 21.1676 0.0000 0.0000
# 5 0.0000 0.0000 0.0000 0.0000 24.4320 0.0000
# 6 0.0000 0.0000 0.0000 0.0000 0.0000 28.5049
#
#
#
# Elastic Compliance Matrix: (Units=1/GPa)
#
#
# Indices 1 2 3 4 5 6 
#
# 1 0.011773 -0.002926 -0.003930 0.000000 0.000000 0.000000
# 2 -0.002926 0.012234 -0.003365 0.000000 0.000000 0.000000
# 3 -0.003930 -0.003365 0.013231 0.000000 0.000000 0.000000
# 4 0.000000 0.000000 0.000000 0.047242 0.000000 0.000000
# 5 0.000000 0.000000 0.000000 0.000000 0.040930 0.000000
# 6 0.000000 0.000000 0.000000 0.000000 0.000000 0.035082
#
#
# Mechanical properties :
#
#
# Convention : Reuss Voigt Hill
#
# Bulk Modulus (GPa) = 59.53987 59.69995 59.61991
# Shear Modulus (GPa) = 26.80489 27.52269 27.16379
#
# Velocity S-wave (km/s) = 3.74669 3.79652 3.77169
# Velocity P-wave (km/s) = 7.06384 7.10513 7.08451
#
# Compressibility (1/GPa) = 0.01679547
#
# Stress axis : x y z
#
# Youngs Moduli (GPa) = 84.93731 81.74131 75.57926
#
# Poissons Ratio (x) = 0.23920 0.29706
# Poissons Ratio (y) = 0.24855 0.25430
# Poissons Ratio (z) = 0.33385 0.27503
#
# Static dielectric constant tensor:
#      x y z
#    x 3.409980 0.000000 0.000000 
#    y 0.000000 3.442980 0.000000 
#    z 0.000000 0.000000 3.700290 
# 
# 
# High freq. dielectric constant tensor:
#      x y z
#    x 1.735190 0.000000 0.000000 
#    y 0.000000 1.748320 0.000000 
#    z 0.000000 0.000000 1.757600 
# 
# From -- ./inp_files/7678.got.cif
#   From: 2010.03.12/outbox.cif.g09.slc.cpg/sg40_4_cif.got.tgz:7678.got - 2010.04.14 01:38:03.
