data_PCOD8184413
_publ_section_title
;
Structure prediction by ZEFSAII (Michael W. Deem and Ramdas Pophale) SiO2 
 PCOD8184413
Probable space group: A M A 2
;
_chemical_formula_sum "Si O2"
_cell_formula_units_Z 60
_cell_length_a 27.686650
_cell_length_b 15.065710
_cell_length_c 6.771559
_cell_angle_alpha 90.000000
_cell_angle_beta 90.000000
_cell_angle_gamma 90.000000
_cell_volume 2824.546188
_symmetry_space_group_name_H-M "A M A 2"
_symmetry_group_IT_number 40
_symmetry_cell_setting 'orthorhombic'
loop_
_space_group_symop_operation_xyz
x,y,z
-x,-y,z
1/2-x,y,z
1/2+x,-y,z
x,1/2+y,1/2+z
-x,1/2-y,1/2+z
1/2-x,1/2+y,1/2+z
1/2+x,1/2-y,1/2+z
loop_
_atom_site_type_symbol
_atom_site_label
_atom_site_fract_x
_atom_site_fract_y
_atom_site_fract_z
Si Si1 0.436905 0.438543 0.097740
Si Si2 0.131323 0.085511 0.664209
Si Si3 0.694431 0.977482 0.330097
Si Si4 0.143566 0.843967 0.390112
Si Si5 0.002430 0.646941 0.419086
Si Si6 0.806256 0.832452 0.998566
Si Si7 0.926771 0.259767 0.142895
Si Si8 0.000000 0.000000 0.242248
O O1 0.411010 0.516465 0.221029
O O2 0.481029 0.404126 0.228855
O O3 0.394737 0.367412 0.061602
O O4 0.455596 0.471187 0.882264
O O5 0.175147 0.044656 0.545189
O O6 0.155550 0.122441 0.857488
O O7 0.103137 0.161124 0.538811
O O8 0.750000 0.999418 0.341073
O O9 0.669559 0.072092 0.283111
O O10 0.684944 0.890242 0.196236
O O11 0.179871 0.772695 0.495924
O O12 0.113633 0.810024 0.203589
O O13 0.964343 0.720443 0.489497
O O14 0.048766 0.700970 0.344005
O O15 0.015385 0.581982 0.600834
O O16 0.750000 0.840147 0.934817
#
# Coordination Sequence:
#
# PCOD8184413 Si02
#       8
#     8   8   8   8   8   8   8   4
#     4  11  24  41  63  95 121 176 220 270 340 387
#     4  10  23  39  64  91 128 159 218 267 327 402
#     4  10  22  41  68  96 127 168 211 271 339 401
#     4  10  22  42  63  96 130 166 219 270 327 405
#     4  12  26  42  64  91 135 170 226 280 327 393
#     4  10  22  41  66  94 128 170 209 267 340 403
#     4  11  24  40  62  93 123 178 211 273 330 386
#     4  12  24  44  64  86 132 172 228 278 328 396
#
# _framework density 21.242349000000001
#
# number of rings (size 3 to 8) (size 9 to 14) (size 15 to 20)
#    0.000    1.333    1.333    3.600    5.600    4.267 
#    0.000    0.000    0.000    8.000    0.000    0.000 
#    0.000    0.000    0.000    0.000    0.000    0.000 
#
# Total GULP energy -371682.016461 kJ/mol
# GULP energy per Si atom -12389.400549 kJ/mol
# Density = 2.119400 g / cm^3
# Si number density = 21.242349 Si / 1000 Ang^3
#
#
#
# Elastic Constant Matrix: (Units=GPa)
#
#
# Indices 1 2 3 4 5 6 
#
# 1 100.9243 33.1240 26.0372 0.0000 0.0000 0.0000
# 2 33.1240 94.6883 18.8040 0.0000 0.0000 0.0000
# 3 26.0372 18.8040 60.5120 0.0000 0.0000 0.0000
# 4 0.0000 0.0000 0.0000 37.5361 0.0000 0.0000
# 5 0.0000 0.0000 0.0000 0.0000 14.6029 0.0000
# 6 0.0000 0.0000 0.0000 0.0000 0.0000 23.6800
#
#
#
# Elastic Compliance Matrix: (Units=1/GPa)
#
#
# Indices 1 2 3 4 5 6 
#
# 1 0.012097 -0.003408 -0.004146 0.000000 0.000000 0.000000
# 2 -0.003408 0.012216 -0.002330 0.000000 0.000000 0.000000
# 3 -0.004146 -0.002330 0.019033 0.000000 0.000000 0.000000
# 4 0.000000 0.000000 0.000000 0.026641 0.000000 0.000000
# 5 0.000000 0.000000 0.000000 0.000000 0.068480 0.000000
# 6 0.000000 0.000000 0.000000 0.000000 0.000000 0.042230
#
#
# Mechanical properties :
#
#
# Convention : Reuss Voigt Hill
#
# Bulk Modulus (GPa) = 42.41138 45.78388 44.09763
# Shear Modulus (GPa) = 24.00117 27.04109 25.52113
#
# Velocity S-wave (km/s) = 3.36501 3.57176 3.46992
# Velocity P-wave (km/s) = 5.92507 6.21368 6.07109
#
# Compressibility (1/GPa) = 0.02357858
#
# Stress axis : x y z
#
# Youngs Moduli (GPa) = 82.66763 81.86056 52.53916
#
# Poissons Ratio (x) = 0.27901 0.21782
# Poissons Ratio (y) = 0.28176 0.12239
# Poissons Ratio (z) = 0.34273 0.19070
#
# Static dielectric constant tensor:
#      x y z
#    x 3.982740 0.000000 0.000000 
#    y 0.000000 4.527830 0.000000 
#    z 0.000000 0.000000 3.587640 
# 
# 
# High freq. dielectric constant tensor:
#      x y z
#    x 1.848450 0.000000 0.000000 
#    y 0.000000 1.858120 0.000000 
#    z 0.000000 0.000000 1.805030 
# 
# From -- ./inp_files/3182.got.cif
#   From: 2010.03.12/outbox.cif.g09.slc.cpg/sg40_2_cif.got.tgz:3182.got - 2010.04.14 01:38:03.
