data_PCOD8184298
_publ_section_title
;
Structure prediction by ZEFSAII (Michael W. Deem and Ramdas Pophale) SiO2 
 PCOD8184298
Probable space group: A M A 2
;
_chemical_formula_sum "Si O2"
_cell_formula_units_Z 64
_cell_length_a 17.133692
_cell_length_b 15.463861
_cell_length_c 10.834320
_cell_angle_alpha 90.000000
_cell_angle_beta 90.000000
_cell_angle_gamma 90.000000
_cell_volume 2870.585928
_symmetry_space_group_name_H-M "A M A 2"
_symmetry_group_IT_number 40
_symmetry_cell_setting 'orthorhombic'
loop_
_space_group_symop_operation_xyz
x,y,z
-x,-y,z
1/2-x,y,z
1/2+x,-y,z
x,1/2+y,1/2+z
-x,1/2-y,1/2+z
1/2-x,1/2+y,1/2+z
1/2+x,1/2-y,1/2+z
loop_
_atom_site_type_symbol
_atom_site_label
_atom_site_fract_x
_atom_site_fract_y
_atom_site_fract_z
Si Si1 0.054764 0.213560 0.324890
Si Si2 0.340389 0.144611 0.687537
Si Si3 0.657978 0.212986 0.644547
Si Si4 0.662369 0.947133 0.325968
Si Si5 0.161815 0.470494 0.079765
Si Si6 0.586846 0.020299 0.095869
Si Si7 0.159213 0.632568 0.467207
Si Si8 0.055468 0.786019 0.081987
O O1 0.128338 0.272709 0.283714
O O2 0.091895 0.119600 0.347700
O O3 0.016457 0.252675 0.451180
O O4 0.997502 0.214048 0.205359
O O5 0.250000 0.140347 0.652206
O O6 0.378241 0.051247 0.651416
O O7 0.374368 0.219986 0.603709
O O8 0.355575 0.166317 0.829712
O O9 0.750000 0.210076 0.635370
O O10 0.627805 0.293398 0.560152
O O11 0.619827 0.121713 0.602114
O O12 0.750000 0.904774 0.318356
O O13 0.659120 0.016304 0.434160
O O14 0.648728 0.002069 0.203143
O O15 0.250000 0.462308 0.129602
O O16 0.609186 0.955110 0.984592
O O17 0.500000 0.000000 0.142676
O O18 0.591717 0.119874 0.055198
O O19 0.250000 0.612099 0.489827
#
# Coordination Sequence:
#
# PCOD8184298 Si02
#       8
#     8   8   8   8   8   8   8   8
#     4  12  26  47  67 102 137 188 231 288 349 417
#     4  10  23  43  67  98 138 178 226 290 345 406
#     4  10  21  41  70  99 132 180 233 281 338 410
#     4  11  22  44  72  96 134 182 235 290 346 405
#     4   9  20  39  65 100 133 170 224 285 338 400
#     4  12  25  43  64 100 137 181 227 287 346 421
#     4  10  22  41  66  98 139 184 227 280 347 413
#     4  12  29  45  71  99 145 182 233 286 358 419
#
# _framework density 22.295099
#
# number of rings (size 3 to 8) (size 9 to 14) (size 15 to 20)
#    0.000    1.250    3.750    0.750    7.000    1.500 
#    0.000    0.625    0.000    0.000    0.000    0.000 
#    0.000    0.000    0.000    0.000    0.000    0.000 
#
# Total GULP energy -396577.893794 kJ/mol
# GULP energy per Si atom -12393.059181 kJ/mol
# Density = 2.224435 g / cm^3
# Si number density = 22.295099 Si / 1000 Ang^3
#
#
#
# Elastic Constant Matrix: (Units=GPa)
#
#
# Indices 1 2 3 4 5 6 
#
# 1 43.0188 31.2636 29.8633 0.0000 0.0000 0.0000
# 2 31.2636 174.1412 40.3920 0.0000 0.0000 0.0000
# 3 29.8633 40.3920 110.2237 0.0000 0.0000 0.0000
# 4 0.0000 0.0000 0.0000 29.2543 0.0000 0.0000
# 5 0.0000 0.0000 0.0000 0.0000 28.1877 0.0000
# 6 0.0000 0.0000 0.0000 0.0000 0.0000 25.6908
#
#
#
# Elastic Compliance Matrix: (Units=1/GPa)
#
#
# Indices 1 2 3 4 5 6 
#
# 1 0.030925 -0.003944 -0.006933 0.000000 0.000000 0.000000
# 2 -0.003944 0.006779 -0.001416 0.000000 0.000000 0.000000
# 3 -0.006933 -0.001416 0.011470 0.000000 0.000000 0.000000
# 4 0.000000 0.000000 0.000000 0.034183 0.000000 0.000000
# 5 0.000000 0.000000 0.000000 0.000000 0.035477 0.000000
# 6 0.000000 0.000000 0.000000 0.000000 0.000000 0.038924
#
#
# Mechanical properties :
#
#
# Convention : Reuss Voigt Hill
#
# Bulk Modulus (GPa) = 40.67046 58.93572 49.80309
# Shear Modulus (GPa) = 26.24135 31.68419 28.96277
#
# Velocity S-wave (km/s) = 3.43447 3.77387 3.60816
# Velocity P-wave (km/s) = 5.83172 6.74398 6.30437
#
# Compressibility (1/GPa) = 0.02458787
#
# Stress axis : x y z
#
# Youngs Moduli (GPa) = 32.33644 147.51763 87.18608
#
# Poissons Ratio (x) = 0.58177 0.60449
# Poissons Ratio (y) = 0.12753 0.12342
# Poissons Ratio (z) = 0.22420 0.20883
#
# Static dielectric constant tensor:
#      x y z
#    x 3.902160 0.000000 0.000000 
#    y 0.000000 4.293180 0.000000 
#    z 0.000000 0.000000 4.065030 
# 
# 
# High freq. dielectric constant tensor:
#      x y z
#    x 1.862150 0.000000 0.000000 
#    y 0.000000 1.885230 0.000000 
#    z 0.000000 0.000000 1.881890 
# 
# From -- ./inp_files/13123.got.cif
#   From: 2010.03.12/outbox.cif.g09.slc.cpg/sg40_7_cif.got.tgz:13123.got - 2010.04.14 01:38:03.
