data_PCOD8184968
_publ_section_title
;
Structure prediction by ZEFSAII (Michael W. Deem and Ramdas Pophale) SiO2 
 PCOD8184968
Probable space group: A B A 2
;
_chemical_formula_sum "Si O2"
_cell_formula_units_Z 52
_cell_length_a 8.348318
_cell_length_b 21.672886
_cell_length_c 14.265541
_cell_angle_alpha 90.000000
_cell_angle_beta 90.000000
_cell_angle_gamma 90.000000
_cell_volume 2581.094923
_symmetry_space_group_name_H-M "A B A 2"
_symmetry_group_IT_number 41
_symmetry_cell_setting 'orthorhombic'
loop_
_space_group_symop_operation_xyz
x,y,z
-x,-y,z
1/2-x,y,1/2+z
1/2+x,-y,1/2+z
x,1/2+y,1/2+z
-x,1/2-y,1/2+z
1/2-x,1/2+y,z
1/2+x,1/2-y,z
loop_
_atom_site_type_symbol
_atom_site_label
_atom_site_fract_x
_atom_site_fract_y
_atom_site_fract_z
Si Si1 0.888055 0.258662 0.277330
Si Si2 0.672644 0.444372 0.774835
Si Si3 0.366115 0.162713 0.699947
Si Si4 0.397807 0.387070 0.060163
Si Si5 0.000000 0.500000 0.446481
Si Si6 0.824405 0.577150 0.223736
Si Si7 0.660465 0.173643 0.372836
O O1 0.783811 0.289572 0.192208
O O2 0.770368 0.233327 0.357737
O O3 0.984732 0.200421 0.240137
O O4 0.988138 0.312644 0.326097
O O5 0.811142 0.392702 0.769808
O O6 0.616970 0.458086 0.881781
O O7 0.743977 0.507732 0.731901
O O8 0.517669 0.424144 0.713019
O O9 0.428439 0.132258 0.603319
O O10 0.256839 0.387796 0.136975
O O11 0.403061 0.454065 0.012938
O O12 0.350792 0.336203 0.983507
O O13 0.775058 0.612891 0.319325
#
# Coordination Sequence:
#
# PCOD8184968 Si02
#       7
#     8   8   8   8   4   8   8
#     4  10  23  42  63  86 129 172 216 257 328 371
#     4  10  20  42  67  85 135 169 197 266 344 369
#     4  11  22  38  66  92 121 173 216 262 315 392
#     4  12  22  37  67  97 123 164 225 255 321 384
#     4  10  20  38  64  96 130 164 206 268 324 392
#     4  10  20  40  65  88 126 167 200 268 319 382
#     4  11  21  44  61  90 128 172 206 274 314 376
#
# _framework density 20.146488000000002
#
# number of rings (size 3 to 8) (size 9 to 14) (size 15 to 20)
#    0.000    1.538    6.154    0.923    0.000    1.231 
#    0.000    7.692    0.000    0.000    0.000    0.000 
#    0.000    0.000    0.000    0.000    0.000    0.000 
#
# Total GULP energy -322236.511868 kJ/mol
# GULP energy per Si atom -12393.711995 kJ/mol
# Density = 2.010063 g / cm^3
# Si number density = 20.146488 Si / 1000 Ang^3
#
#
#
# Elastic Constant Matrix: (Units=GPa)
#
#
# Indices 1 2 3 4 5 6 
#
# 1 92.8442 53.6176 50.2899 0.0000 0.0000 0.0000
# 2 53.6176 117.4225 46.2153 0.0000 0.0000 0.0000
# 3 50.2899 46.2153 117.8950 0.0000 0.0000 0.0000
# 4 0.0000 0.0000 0.0000 31.8275 0.0000 0.0000
# 5 0.0000 0.0000 0.0000 0.0000 27.9358 0.0000
# 6 0.0000 0.0000 0.0000 0.0000 0.0000 36.3862
#
#
#
# Elastic Compliance Matrix: (Units=1/GPa)
#
#
# Indices 1 2 3 4 5 6 
#
# 1 0.016718 -0.005708 -0.004894 0.000000 0.000000 0.000000
# 2 -0.005708 0.012018 -0.002277 0.000000 0.000000 0.000000
# 3 -0.004894 -0.002277 0.011462 0.000000 0.000000 0.000000
# 4 0.000000 0.000000 0.000000 0.031419 0.000000 0.000000
# 5 0.000000 0.000000 0.000000 0.000000 0.035796 0.000000
# 6 0.000000 0.000000 0.000000 0.000000 0.000000 0.027483
#
#
# Mechanical properties :
#
#
# Convention : Reuss Voigt Hill
#
# Bulk Modulus (GPa) = 69.24122 69.82304 69.53213
# Shear Modulus (GPa) = 30.21752 31.09914 30.65833
#
# Velocity S-wave (km/s) = 3.87704 3.93319 3.90522
# Velocity P-wave (km/s) = 7.38143 7.44040 7.41097
#
# Compressibility (1/GPa) = 0.01444227
#
# Stress axis : x y z
#
# Youngs Moduli (GPa) = 59.81727 83.20528 87.24400
#
# Poissons Ratio (x) = 0.47489 0.42695
# Poissons Ratio (y) = 0.34141 0.19863
# Poissons Ratio (z) = 0.29273 0.18943
#
# Static dielectric constant tensor:
#      x y z
#    x 3.656260 0.000000 0.000000 
#    y 0.000000 3.920730 0.000000 
#    z 0.000000 0.000000 3.426600 
# 
# 
# High freq. dielectric constant tensor:
#      x y z
#    x 1.775030 0.000000 0.000000 
#    y 0.000000 1.814690 0.000000 
#    z 0.000000 0.000000 1.755120 
# 
# From -- ./inp_files/7415.got.cif
#   From: 2010.03.12/outbox.cif.g09.slc.cpg/sg41_4_cif.got.tgz:7415.got - 2010.04.14 01:55:53.
