data_PCOD8184862
_publ_section_title
;
Structure prediction by ZEFSAII (Michael W. Deem and Ramdas Pophale) SiO2 
 PCOD8184862
Probable space group: A B A 2
;
_chemical_formula_sum "Si O2"
_cell_formula_units_Z 52
_cell_length_a 15.993407
_cell_length_b 18.539555
_cell_length_c 9.290739
_cell_angle_alpha 90.000000
_cell_angle_beta 90.000000
_cell_angle_gamma 90.000000
_cell_volume 2754.803048
_symmetry_space_group_name_H-M "A B A 2"
_symmetry_group_IT_number 41
_symmetry_cell_setting 'orthorhombic'
loop_
_space_group_symop_operation_xyz
x,y,z
-x,-y,z
1/2-x,y,1/2+z
1/2+x,-y,1/2+z
x,1/2+y,1/2+z
-x,1/2-y,1/2+z
1/2-x,1/2+y,z
1/2+x,1/2-y,z
loop_
_atom_site_type_symbol
_atom_site_label
_atom_site_fract_x
_atom_site_fract_y
_atom_site_fract_z
Si Si1 0.667385 0.503735 0.073750
Si Si2 0.323879 0.537688 0.405414
Si Si3 0.942787 0.124520 0.172669
Si Si4 0.904527 0.861706 0.990107
Si Si5 0.765972 0.307927 0.989659
Si Si6 0.651808 0.757999 0.266158
Si Si7 0.000000 0.500000 0.873865
O O1 0.682597 0.479296 0.237185
O O2 0.625150 0.582662 0.074324
O O3 0.755657 0.508771 0.992137
O O4 0.605022 0.448807 0.988375
O O5 0.312105 0.622534 0.425312
O O6 0.415382 0.512555 0.465801
O O7 0.899086 0.183721 0.274647
O O8 0.992400 0.069928 0.273655
O O9 0.011117 0.162827 0.069829
O O10 0.903147 0.825365 0.829749
O O11 0.819939 0.833052 0.070889
O O12 0.828192 0.269273 0.098589
O O13 0.737969 0.253634 0.859980
#
# Coordination Sequence:
#
# PCOD8184862 Si02
#       7
#     8   8   8   8   8   8   4
#     4  10  20  35  66  83 117 159 204 249 314 367
#     4  10  19  37  63  86 112 162 208 243 307 382
#     4  11  20  39  57  91 121 161 199 256 311 379
#     4   9  19  37  60  86 113 166 207 241 310 384
#     4   9  20  39  58  88 117 163 202 252 307 381
#     4  10  23  34  62  88 119 158 211 250 311 371
#     4  10  22  36  62  82 118 162 200 250 306 364
#
# _framework density 18.876124000000001
#
# number of rings (size 3 to 8) (size 9 to 14) (size 15 to 20)
#    0.923    1.231    3.077    1.846    0.000    3.692 
#    0.000    1.538    0.000    0.000    0.000    0.000 
#    0.000    0.000    0.000    0.000    0.000    0.000 
#
# Total GULP energy -322106.222140 kJ/mol
# GULP energy per Si atom -12388.700852 kJ/mol
# Density = 1.883316 g / cm^3
# Si number density = 18.876124 Si / 1000 Ang^3
#
#
#
# Elastic Constant Matrix: (Units=GPa)
#
#
# Indices 1 2 3 4 5 6 
#
# 1 116.8690 46.1026 36.6960 0.0000 0.0000 0.0000
# 2 46.1026 87.2410 39.4262 0.0000 0.0000 0.0000
# 3 36.6960 39.4262 69.8150 0.0000 0.0000 0.0000
# 4 0.0000 0.0000 0.0000 24.8664 0.0000 0.0000
# 5 0.0000 0.0000 0.0000 0.0000 32.2328 0.0000
# 6 0.0000 0.0000 0.0000 0.0000 0.0000 31.6739
#
#
#
# Elastic Compliance Matrix: (Units=1/GPa)
#
#
# Indices 1 2 3 4 5 6 
#
# 1 0.011407 -0.004455 -0.003479 0.000000 0.000000 0.000000
# 2 -0.004455 0.017131 -0.007332 0.000000 0.000000 0.000000
# 3 -0.003479 -0.007332 0.020293 0.000000 0.000000 0.000000
# 4 0.000000 0.000000 0.000000 0.040215 0.000000 0.000000
# 5 0.000000 0.000000 0.000000 0.000000 0.031024 0.000000
# 6 0.000000 0.000000 0.000000 0.000000 0.000000 0.031572
#
#
# Mechanical properties :
#
#
# Convention : Reuss Voigt Hill
#
# Bulk Modulus (GPa) = 54.65619 57.59716 56.12667
# Shear Modulus (GPa) = 26.55702 27.86797 27.21249
#
# Velocity S-wave (km/s) = 3.75495 3.84651 3.80101
# Velocity P-wave (km/s) = 6.91503 7.09274 7.00445
#
# Compressibility (1/GPa) = 0.01829619
#
# Stress axis : x y z
#
# Youngs Moduli (GPa) = 87.66784 58.37526 49.27781
#
# Poissons Ratio (x) = 0.26009 0.17146
# Poissons Ratio (y) = 0.39060 0.36131
# Poissons Ratio (z) = 0.30504 0.42802
#
# Static dielectric constant tensor:
#      x y z
#    x 3.608720 0.000000 0.000000 
#    y 0.000000 3.304450 0.000000 
#    z 0.000000 0.000000 3.152470 
# 
# 
# High freq. dielectric constant tensor:
#      x y z
#    x 1.738180 0.000000 0.000000 
#    y 0.000000 1.717930 0.000000 
#    z 0.000000 0.000000 1.703920 
# 
# From -- ./inp_files/2652.got.cif
#   From: 2010.03.12/outbox.cif.g09.slc.cpg/sg41_2_cif.got.tgz:2652.got - 2010.04.14 01:55:53.
