data_PCOD8184282
_publ_section_title
;
Structure prediction by ZEFSAII (Michael W. Deem and Ramdas Pophale) SiO2 
 PCOD8184282
Probable space group: A M A 2
;
_chemical_formula_sum "Si O2"
_cell_formula_units_Z 52
_cell_length_a 23.797549
_cell_length_b 9.916810
_cell_length_c 10.684279
_cell_angle_alpha 90.000000
_cell_angle_beta 90.000000
_cell_angle_gamma 90.000000
_cell_volume 2521.444670
_symmetry_space_group_name_H-M "A M A 2"
_symmetry_group_IT_number 40
_symmetry_cell_setting 'orthorhombic'
loop_
_space_group_symop_operation_xyz
x,y,z
-x,-y,z
1/2-x,y,z
1/2+x,-y,z
x,1/2+y,1/2+z
-x,1/2-y,1/2+z
1/2-x,1/2+y,1/2+z
1/2+x,1/2-y,1/2+z
loop_
_atom_site_type_symbol
_atom_site_label
_atom_site_fract_x
_atom_site_fract_y
_atom_site_fract_z
Si Si1 0.502614 0.849587 0.362510
Si Si2 0.613458 0.742634 0.930389
Si Si3 0.185104 0.498669 0.817615
Si Si4 0.814272 0.967088 0.034696
Si Si5 0.586875 0.171086 0.708325
Si Si6 0.312578 0.291510 0.370647
Si Si7 0.500000 0.500000 0.101678
O O1 0.444170 0.763891 0.348527
O O2 0.552946 0.771658 0.298341
O O3 0.500000 0.000000 0.300304
O O4 0.515290 0.871955 0.511653
O O5 0.651209 0.620141 0.881933
O O6 0.648661 0.882129 0.933195
O O7 0.596409 0.731239 0.073393
O O8 0.250000 0.454648 0.812952
O O9 0.163743 0.538310 0.677708
O O10 0.174669 0.634124 0.899181
O O11 0.750000 0.914043 0.026751
O O12 0.817965 0.124802 0.998528
O O13 0.646714 0.140970 0.769043
O O14 0.552379 0.032226 0.692111
O O15 0.250000 0.304101 0.313223
#
# Coordination Sequence:
#
# PCOD8184282 Si02
#       7
#     8   8   8   8   8   8   4
#     4   9  21  40  57  86 124 157 203 256 305 365
#     4  11  22  39  67  91 120 170 210 255 317 363
#     4  10  21  41  64  91 126 166 205 254 315 371
#     4  10  22  41  61  95 129 157 206 262 305 375
#     4  11  21  40  66  86 126 157 208 253 307 366
#     4  10  22  40  65  92 126 164 200 251 315 369
#     4   8  22  38  58  86 120 160 200 250 300 364
#
# _framework density 20.623097000000001
#
# number of rings (size 3 to 8) (size 9 to 14) (size 15 to 20)
#    0.462    1.538    1.538    1.385    2.154    0.615 
#    8.308    0.000    0.000    0.000    0.000    0.000 
#    0.000    0.000    0.000    0.000    0.000    0.000 
#
# Total GULP energy -322114.028323 kJ/mol
# GULP energy per Si atom -12389.001089 kJ/mol
# Density = 2.057616 g / cm^3
# Si number density = 20.623097 Si / 1000 Ang^3
#
#
#
# Elastic Constant Matrix: (Units=GPa)
#
#
# Indices 1 2 3 4 5 6 
#
# 1 111.7429 44.2323 42.3826 0.0000 0.0000 0.0000
# 2 44.2323 105.9270 41.8866 0.0000 0.0000 0.0000
# 3 42.3826 41.8866 57.4220 0.0000 0.0000 0.0000
# 4 0.0000 0.0000 0.0000 28.3587 0.0000 0.0000
# 5 0.0000 0.0000 0.0000 0.0000 22.7393 0.0000
# 6 0.0000 0.0000 0.0000 0.0000 0.0000 22.7472
#
#
#
# Elastic Compliance Matrix: (Units=1/GPa)
#
#
# Indices 1 2 3 4 5 6 
#
# 1 0.012803 -0.002262 -0.007800 0.000000 0.000000 0.000000
# 2 -0.002262 0.013667 -0.008300 0.000000 0.000000 0.000000
# 3 -0.007800 -0.008300 0.029226 0.000000 0.000000 0.000000
# 4 0.000000 0.000000 0.000000 0.035263 0.000000 0.000000
# 5 0.000000 0.000000 0.000000 0.000000 0.043977 0.000000
# 6 0.000000 0.000000 0.000000 0.000000 0.000000 0.043961
#
#
# Mechanical properties :
#
#
# Convention : Reuss Voigt Hill
#
# Bulk Modulus (GPa) = 52.70652 59.12166 55.91409
# Shear Modulus (GPa) = 22.52820 24.54174 23.53497
#
# Velocity S-wave (km/s) = 3.30870 3.45340 3.38182
# Velocity P-wave (km/s) = 6.34107 6.68066 6.51308
#
# Compressibility (1/GPa) = 0.01897299
#
# Stress axis : x y z
#
# Youngs Moduli (GPa) = 78.10813 73.16880 34.21583
#
# Poissons Ratio (x) = 0.16550 0.26687
# Poissons Ratio (y) = 0.17667 0.28399
# Poissons Ratio (z) = 0.60922 0.60730
#
# Static dielectric constant tensor:
#      x y z
#    x 4.187600 0.000000 0.000000 
#    y 0.000000 3.699580 0.000000 
#    z 0.000000 0.000000 3.557780 
# 
# 
# High freq. dielectric constant tensor:
#      x y z
#    x 1.820720 0.000000 0.000000 
#    y 0.000000 1.796310 0.000000 
#    z 0.000000 0.000000 1.783830 
# 
# From -- ./inp_files/14180.got.cif
#   From: 2010.03.12/outbox.cif.g09.slc.cpg/sg40_8_cif.got.tgz:14180.got - 2010.04.14 01:38:03.
