data_PCOD8184948
_publ_section_title
;
Structure prediction by ZEFSAII (Michael W. Deem and Ramdas Pophale) SiO2 
 PCOD8184948
Probable space group: A B A 2
;
_chemical_formula_sum "Si O2"
_cell_formula_units_Z 56
_cell_length_a 15.020638
_cell_length_b 13.372684
_cell_length_c 13.712996
_cell_angle_alpha 90.000000
_cell_angle_beta 90.000000
_cell_angle_gamma 90.000000
_cell_volume 2754.478020
_symmetry_space_group_name_H-M "A B A 2"
_symmetry_group_IT_number 41
_symmetry_cell_setting 'orthorhombic'
loop_
_space_group_symop_operation_xyz
x,y,z
-x,-y,z
1/2-x,y,1/2+z
1/2+x,-y,1/2+z
x,1/2+y,1/2+z
-x,1/2-y,1/2+z
1/2-x,1/2+y,z
1/2+x,1/2-y,z
loop_
_atom_site_type_symbol
_atom_site_label
_atom_site_fract_x
_atom_site_fract_y
_atom_site_fract_z
Si Si1 0.567018 0.409665 0.959760
Si Si2 0.735491 0.690100 0.311515
Si Si3 0.854820 0.331203 0.937931
Si Si4 0.752411 0.018943 0.942386
Si Si5 0.804159 0.675046 0.593130
Si Si6 0.467156 0.277421 0.346373
Si Si7 0.509221 0.112894 0.654637
O O1 0.500000 0.500000 0.958906
O O2 0.668240 0.440241 0.949597
O O3 0.535978 0.340256 0.870038
O O4 0.558969 0.358876 0.067368
O O5 0.798267 0.777729 0.352240
O O6 0.770481 0.580581 0.342717
O O7 0.741225 0.702230 0.195453
O O8 0.635114 0.687640 0.356646
O O9 0.835162 0.449762 0.940731
O O10 0.961407 0.325099 0.921142
O O11 0.827087 0.278892 0.039199
O O12 0.742884 0.100940 0.028868
O O13 0.893010 0.612535 0.609147
O O14 0.502141 0.303036 0.237853
O O15 0.500000 0.000000 0.697471
#
# Coordination Sequence:
#
# PCOD8184948 Si02
#       7
#     8   8   8   8   8   8   8
#     4  11  19  41  66  85 121 163 213 252 301 372
#     4  10  24  42  60  93 126 161 213 258 310 381
#     4  11  23  39  63  93 124 163 207 263 320 360
#     4  11  22  38  62  91 119 165 206 257 310 367
#     4  10  21  41  60  88 126 160 213 255 305 385
#     4  11  23  39  63  95 128 160 208 268 309 374
#     4  10  20  37  66  90 115 168 211 248 309 380
#
# _framework density 20.33053
#
# number of rings (size 3 to 8) (size 9 to 14) (size 15 to 20)
#    0.000    1.429    5.714    0.857    4.000    2.286 
#    0.000    0.000    0.000    0.857    0.000    0.000 
#    0.000    0.000    0.000    0.000    0.000    0.000 
#
# Total GULP energy -347022.184415 kJ/mol
# GULP energy per Si atom -12393.649443 kJ/mol
# Density = 2.028426 g / cm^3
# Si number density = 20.330530 Si / 1000 Ang^3
#
#
#
# Elastic Constant Matrix: (Units=GPa)
#
#
# Indices 1 2 3 4 5 6 
#
# 1 54.5718 -7.4411 11.9280 0.0000 0.0000 0.0000
# 2 -7.4411 70.8681 42.1408 0.0000 0.0000 0.0000
# 3 11.9280 42.1408 132.8228 0.0000 0.0000 0.0000
# 4 0.0000 0.0000 0.0000 28.3846 0.0000 0.0000
# 5 0.0000 0.0000 0.0000 0.0000 27.0158 0.0000
# 6 0.0000 0.0000 0.0000 0.0000 0.0000 20.3901
#
#
#
# Elastic Compliance Matrix: (Units=1/GPa)
#
#
# Indices 1 2 3 4 5 6 
#
# 1 0.019490 0.003805 -0.002957 0.000000 0.000000 0.000000
# 2 0.003805 0.018135 -0.006095 0.000000 0.000000 0.000000
# 3 -0.002957 -0.006095 0.009728 0.000000 0.000000 0.000000
# 4 0.000000 0.000000 0.000000 0.035230 0.000000 0.000000
# 5 0.000000 0.000000 0.000000 0.000000 0.037015 0.000000
# 6 0.000000 0.000000 0.000000 0.000000 0.000000 0.049043
#
#
# Mechanical properties :
#
#
# Convention : Reuss Voigt Hill
#
# Bulk Modulus (GPa) = 27.13171 39.05756 33.09463
# Shear Modulus (GPa) = 26.12014 29.26711 27.69363
#
# Velocity S-wave (km/s) = 3.58826 3.79828 3.69476
# Velocity P-wave (km/s) = 5.52646 6.20394 5.87497
#
# Compressibility (1/GPa) = 0.03685724
#
# Stress axis : x y z
#
# Youngs Moduli (GPa) = 51.30902 55.14271 102.79293
#
# Poissons Ratio (x) = -0.20982 0.30401
# Poissons Ratio (y) = -0.19523 0.62656
# Poissons Ratio (z) = 0.15175 0.33611
#
# Static dielectric constant tensor:
#      x y z
#    x 3.831420 0.000000 0.000000 
#    y 0.000000 3.611890 0.000000 
#    z 0.000000 0.000000 3.859860 
# 
# 
# High freq. dielectric constant tensor:
#      x y z
#    x 1.793710 0.000000 0.000000 
#    y 0.000000 1.790010 0.000000 
#    z 0.000000 0.000000 1.788220 
# 
# From -- ./inp_files/8394.got.cif
#   From: 2010.03.12/outbox.cif.g09.slc.cpg/sg41_5_cif.got.tgz:8394.got - 2010.04.14 01:55:53.
