data_PCOD8184641
_publ_section_title
;
Structure prediction by ZEFSAII (Michael W. Deem and Ramdas Pophale) SiO2 
 PCOD8184641
Probable space group: A M A 2
;
_chemical_formula_sum "Si O2"
_cell_formula_units_Z 48
_cell_length_a 8.940104
_cell_length_b 23.288753
_cell_length_c 11.701782
_cell_angle_alpha 90.000000
_cell_angle_beta 90.000000
_cell_angle_gamma 90.000000
_cell_volume 2436.356343
_symmetry_space_group_name_H-M "A M A 2"
_symmetry_group_IT_number 40
_symmetry_cell_setting 'orthorhombic'
loop_
_space_group_symop_operation_xyz
x,y,z
-x,-y,z
1/2-x,y,z
1/2+x,-y,z
x,1/2+y,1/2+z
-x,1/2-y,1/2+z
1/2-x,1/2+y,1/2+z
1/2+x,1/2-y,1/2+z
loop_
_atom_site_type_symbol
_atom_site_label
_atom_site_fract_x
_atom_site_fract_y
_atom_site_fract_z
Si Si1 0.928683 0.563142 0.689240
Si Si2 0.571940 0.127558 0.963285
Si Si3 0.427617 0.272089 0.308988
Si Si4 0.086693 0.945867 0.759200
Si Si5 0.926220 0.354147 0.862970
Si Si6 0.916681 0.657466 0.095682
O O1 0.750000 0.556633 0.692298
O O2 0.983945 0.605994 0.587242
O O3 0.000000 0.500000 0.675259
O O4 0.985783 0.593149 0.805092
O O5 0.750000 0.127775 0.960924
O O6 0.514172 0.190826 0.920236
O O7 0.508711 0.082626 0.869971
O O8 0.250000 0.276721 0.310403
O O9 0.482049 0.206592 0.311507
O O10 0.484035 0.297767 0.188385
O O11 0.250000 0.966579 0.797151
O O12 0.097606 0.903646 0.653840
O O13 0.000000 0.000000 0.712989
O O14 0.750000 0.363821 0.846712
O O15 0.964366 0.349956 0.995741
O O16 0.750000 0.676113 0.052157
#
# Coordination Sequence:
#
# PCOD8184641 Si02
#       6
#     8   8   8   8   8   8
#     4  11  23  39  60  84 117 156 198 239 286 346
#     4   8  16  33  57  84 111 146 184 229 284 337
#     4   8  17  35  58  83 113 146 185 235 292 347
#     4   9  17  31  54  80 107 139 178 223 275 328
#     4  11  23  37  57  84 115 150 191 238 287 343
#     4   9  19  37  56  77 108 147 187 227 280 342
#
# _framework density 19.701553000000001
#
# number of rings (size 3 to 8) (size 9 to 14) (size 15 to 20)
#    0.000    2.667    0.000    3.500    2.333    1.333 
#    0.000    3.333    0.000    4.000    0.000    0.000 
#    0.000    0.000    0.000    0.000    0.000    0.000 
#
# Total GULP energy -297387.378956 kJ/mol
# GULP energy per Si atom -12391.140790 kJ/mol
# Density = 1.965671 g / cm^3
# Si number density = 19.701553 Si / 1000 Ang^3
#
#
#
# Elastic Constant Matrix: (Units=GPa)
#
#
# Indices 1 2 3 4 5 6 
#
# 1 54.0440 33.1713 24.1126 0.0000 0.0000 0.0000
# 2 33.1713 98.5084 35.3904 0.0000 0.0000 0.0000
# 3 24.1126 35.3904 102.2683 0.0000 0.0000 0.0000
# 4 0.0000 0.0000 0.0000 14.3224 0.0000 0.0000
# 5 0.0000 0.0000 0.0000 0.0000 24.2618 0.0000
# 6 0.0000 0.0000 0.0000 0.0000 0.0000 23.4390
#
#
#
# Elastic Compliance Matrix: (Units=1/GPa)
#
#
# Indices 1 2 3 4 5 6 
#
# 1 0.024264 -0.006983 -0.003304 0.000000 0.000000 0.000000
# 2 -0.006983 0.013603 -0.003061 0.000000 0.000000 0.000000
# 3 -0.003304 -0.003061 0.011616 0.000000 0.000000 0.000000
# 4 0.000000 0.000000 0.000000 0.069821 0.000000 0.000000
# 5 0.000000 0.000000 0.000000 0.000000 0.041217 0.000000
# 6 0.000000 0.000000 0.000000 0.000000 0.000000 0.042664
#
#
# Mechanical properties :
#
#
# Convention : Reuss Voigt Hill
#
# Bulk Modulus (GPa) = 43.88616 48.90768 46.39692
# Shear Modulus (GPa) = 21.05465 23.21439 22.13452
#
# Velocity S-wave (km/s) = 3.27261 3.43637 3.35549
# Velocity P-wave (km/s) = 6.05011 6.37362 6.21397
#
# Compressibility (1/GPa) = 0.02278623
#
# Stress axis : x y z
#
# Youngs Moduli (GPa) = 41.21324 73.51537 86.08491
#
# Poissons Ratio (x) = 0.51339 0.28445
# Poissons Ratio (y) = 0.28781 0.26348
# Poissons Ratio (z) = 0.13618 0.22501
#
# Static dielectric constant tensor:
#      x y z
#    x 3.320120 0.000000 0.000000 
#    y 0.000000 3.780290 0.000000 
#    z 0.000000 0.000000 3.600470 
# 
# 
# High freq. dielectric constant tensor:
#      x y z
#    x 1.734000 0.000000 0.000000 
#    y 0.000000 1.774510 0.000000 
#    z 0.000000 0.000000 1.767360 
# 
# From -- ./inp_files/10254.got.cif
#   From: 2010.03.12/outbox.cif.g09.slc.cpg/sg40_6_cif.got.tgz:10254.got - 2010.04.14 01:38:03.
