data_PCOD8184840
_publ_section_title
;
Structure prediction by ZEFSAII (Michael W. Deem and Ramdas Pophale) SiO2 
 PCOD8184840
Probable space group: A B A 2
;
_chemical_formula_sum "Si O2"
_cell_formula_units_Z 60
_cell_length_a 22.189888
_cell_length_b 13.484361
_cell_length_c 9.954431
_cell_angle_alpha 90.000000
_cell_angle_beta 90.000000
_cell_angle_gamma 90.000000
_cell_volume 2978.529609
_symmetry_space_group_name_H-M "A B A 2"
_symmetry_group_IT_number 41
_symmetry_cell_setting 'orthorhombic'
loop_
_space_group_symop_operation_xyz
x,y,z
-x,-y,z
1/2-x,y,1/2+z
1/2+x,-y,1/2+z
x,1/2+y,1/2+z
-x,1/2-y,1/2+z
1/2-x,1/2+y,z
1/2+x,1/2-y,z
loop_
_atom_site_type_symbol
_atom_site_label
_atom_site_fract_x
_atom_site_fract_y
_atom_site_fract_z
Si Si1 0.303356 0.442329 0.761740
Si Si2 0.072020 0.230002 0.471906
Si Si3 0.141004 0.746147 0.708339
Si Si4 0.174637 0.034253 0.233820
Si Si5 0.500000 0.500000 0.817681
Si Si6 0.890828 0.047318 0.993403
Si Si7 0.122300 0.532743 0.023523
Si Si8 0.458689 0.366505 0.581907
O O1 0.307374 0.322941 0.754661
O O2 0.237738 0.478669 0.721514
O O3 0.328216 0.467736 0.910672
O O4 0.347553 0.490501 0.655279
O O5 0.090696 0.216237 0.317836
O O6 0.087435 0.340364 0.516039
O O7 0.002263 0.201676 0.492627
O O8 0.108762 0.147578 0.556710
O O9 0.178490 0.646698 0.675834
O O10 0.101197 0.797287 0.592522
O O11 0.161544 0.024503 0.390584
O O12 0.121785 0.986397 0.144882
O O13 0.557541 0.484673 0.916007
O O14 0.487283 0.401185 0.726845
O O15 0.060569 0.468563 0.005711
#
# Coordination Sequence:
#
# PCOD8184840 Si02
#       8
#     8   8   8   8   4   8   8   8
#     4  10  20  45  64  80 121 170 207 244 304 383
#     4  10  19  35  59  87 121 156 197 246 299 368
#     4   9  22  38  58  88 122 156 206 256 304 358
#     4  11  24  39  60  93 123 153 202 273 310 336
#     4  12  20  42  62  86 128 172 198 248 310 392
#     4  11  24  39  61  96 122 160 203 259 313 359
#     4  10  20  39  60  88 117 159 211 237 303 377
#     4  11  19  38  63  85 118 172 205 235 304 389
#
# _framework density 20.144168000000001
#
# number of rings (size 3 to 8) (size 9 to 14) (size 15 to 20)
#    0.000    1.600    5.333    0.800    1.867    2.133 
#    2.400   10.667    0.000    0.000    0.000    0.000 
#    0.000    0.000    0.000    0.000    0.000    0.000 
#
# Total GULP energy -371657.398393 kJ/mol
# GULP energy per Si atom -12388.579946 kJ/mol
# Density = 2.009832 g / cm^3
# Si number density = 20.144168 Si / 1000 Ang^3
#
#
#
# Elastic Constant Matrix: (Units=GPa)
#
#
# Indices 1 2 3 4 5 6 
#
# 1 98.7760 43.4638 10.6234 0.0000 0.0000 0.0000
# 2 43.4638 119.7527 22.5409 0.0000 0.0000 0.0000
# 3 10.6234 22.5409 34.9857 0.0000 0.0000 0.0000
# 4 0.0000 0.0000 0.0000 24.3357 0.0000 0.0000
# 5 0.0000 0.0000 0.0000 0.0000 29.7131 0.0000
# 6 0.0000 0.0000 0.0000 0.0000 0.0000 34.1057
#
#
#
# Elastic Compliance Matrix: (Units=1/GPa)
#
#
# Indices 1 2 3 4 5 6 
#
# 1 0.012076 -0.004202 -0.000959 0.000000 0.000000 0.000000
# 2 -0.004202 0.010965 -0.005789 0.000000 0.000000 0.000000
# 3 -0.000959 -0.005789 0.032604 0.000000 0.000000 0.000000
# 4 0.000000 0.000000 0.000000 0.041092 0.000000 0.000000
# 5 0.000000 0.000000 0.000000 0.000000 0.033655 0.000000
# 6 0.000000 0.000000 0.000000 0.000000 0.000000 0.029321
#
#
# Mechanical properties :
#
#
# Convention : Reuss Voigt Hill
#
# Bulk Modulus (GPa) = 29.63445 45.19672 37.41559
# Shear Modulus (GPa) = 25.92515 29.42334 27.67424
#
# Velocity S-wave (km/s) = 3.59134 3.82598 3.71051
# Velocity P-wave (km/s) = 5.65156 6.48096 6.08042
#
# Compressibility (1/GPa) = 0.03374451
#
# Stress axis : x y z
#
# Youngs Moduli (GPa) = 82.80697 91.19569 30.67100
#
# Poissons Ratio (x) = 0.38325 0.02942
# Poissons Ratio (y) = 0.34799 0.17755
# Poissons Ratio (z) = 0.07944 0.52792
#
# Static dielectric constant tensor:
#      x y z
#    x 3.727640 0.000000 0.000000 
#    y 0.000000 4.038770 0.000000 
#    z 0.000000 0.000000 3.504970 
# 
# 
# High freq. dielectric constant tensor:
#      x y z
#    x 1.780320 0.000000 0.000000 
#    y 0.000000 1.795840 0.000000 
#    z 0.000000 0.000000 1.769650 
# 
# From -- ./inp_files/6294.got.cif
#   From: 2010.03.12/outbox.cif.g09.slc.cpg/sg41_4_cif.got.tgz:6294.got - 2010.04.14 01:55:53.
