data_PCOD8184826
_publ_section_title
;
Structure prediction by ZEFSAII (Michael W. Deem and Ramdas Pophale) SiO2 
 PCOD8184826
Probable space group: A B A 2
;
_chemical_formula_sum "Si O2"
_cell_formula_units_Z 64
_cell_length_a 22.056697
_cell_length_b 8.769893
_cell_length_c 16.565594
_cell_angle_alpha 90.000000
_cell_angle_beta 90.000000
_cell_angle_gamma 90.000000
_cell_volume 3204.363565
_symmetry_space_group_name_H-M "A B A 2"
_symmetry_group_IT_number 41
_symmetry_cell_setting 'orthorhombic'
loop_
_space_group_symop_operation_xyz
x,y,z
-x,-y,z
1/2-x,y,1/2+z
1/2+x,-y,1/2+z
x,1/2+y,1/2+z
-x,1/2-y,1/2+z
1/2-x,1/2+y,z
1/2+x,1/2-y,z
loop_
_atom_site_type_symbol
_atom_site_label
_atom_site_fract_x
_atom_site_fract_y
_atom_site_fract_z
Si Si1 0.668271 0.418941 0.223750
Si Si2 0.683948 0.552757 0.870969
Si Si3 0.923297 0.828814 0.095212
Si Si4 0.966250 0.848963 0.543210
Si Si5 0.227596 0.383375 0.196153
Si Si6 0.437603 0.941680 0.453540
Si Si7 0.697760 0.385838 0.403521
Si Si8 0.644664 0.031351 0.059721
O O1 0.603209 0.387833 0.181432
O O2 0.700340 0.580265 0.201244
O O3 0.718145 0.297682 0.190479
O O4 0.661017 0.413958 0.320116
O O5 0.690044 0.567295 0.775310
O O6 0.614806 0.510423 0.891408
O O7 0.731254 0.426737 0.900402
O O8 0.698013 0.706468 0.921473
O O9 0.878998 0.704663 0.055505
O O10 0.989909 0.749489 0.103129
O O11 0.926406 0.975950 0.038971
O O12 0.943418 0.740280 0.469856
O O13 0.907490 0.913572 0.590633
O O14 0.000000 0.000000 0.507211
O O15 0.200492 0.476131 0.120859
O O16 0.500000 0.000000 0.413725
O O17 0.664618 0.484388 0.470658
#
# Coordination Sequence:
#
# PCOD8184826 Si02
#       8
#     8   8   8   8   8   8   8   8
#     4   9  19  37  51  80 112 155 181 242 284 353
#     4  10  21  37  52  82 116 152 185 241 292 357
#     4   9  20  34  57  79 113 145 192 234 292 341
#     4   9  18  36  58  82 108 146 192 244 282 346
#     4   9  20  34  52  77 114 144 186 229 293 337
#     4  10  20  36  58  83 113 150 192 243 287 351
#     4  10  21  34  57  80 119 149 195 237 299 346
#     4  10  19  34  57  83 108 148 190 236 287 350
#
# _framework density 19.972764000000002
#
# number of rings (size 3 to 8) (size 9 to 14) (size 15 to 20)
#    0.000    2.500    1.250    0.000    3.500    2.000 
#    0.000    4.375    0.000    5.250    0.000    0.000 
#    0.000    0.000    0.000    0.000    0.000    0.000 
#
# Total GULP energy -396548.097828 kJ/mol
# GULP energy per Si atom -12392.128057 kJ/mol
# Density = 1.992731 g / cm^3
# Si number density = 19.972764 Si / 1000 Ang^3
#
#
#
# Elastic Constant Matrix: (Units=GPa)
#
#
# Indices 1 2 3 4 5 6 
#
# 1 98.2225 15.2245 43.3486 0.0000 0.0000 0.0000
# 2 15.2245 62.6297 21.6234 0.0000 0.0000 0.0000
# 3 43.3486 21.6234 87.7788 0.0000 0.0000 0.0000
# 4 0.0000 0.0000 0.0000 23.4339 0.0000 0.0000
# 5 0.0000 0.0000 0.0000 0.0000 30.2091 0.0000
# 6 0.0000 0.0000 0.0000 0.0000 0.0000 25.8670
#
#
#
# Elastic Compliance Matrix: (Units=1/GPa)
#
#
# Indices 1 2 3 4 5 6 
#
# 1 0.013080 -0.001038 -0.006204 0.000000 0.000000 0.000000
# 2 -0.001038 0.017533 -0.003807 0.000000 0.000000 0.000000
# 3 -0.006204 -0.003807 0.015394 0.000000 0.000000 0.000000
# 4 0.000000 0.000000 0.000000 0.042673 0.000000 0.000000
# 5 0.000000 0.000000 0.000000 0.000000 0.033103 0.000000
# 6 0.000000 0.000000 0.000000 0.000000 0.000000 0.038659
#
#
# Mechanical properties :
#
#
# Convention : Reuss Voigt Hill
#
# Bulk Modulus (GPa) = 41.82239 45.44712 43.63475
# Shear Modulus (GPa) = 26.24560 27.13096 26.68828
#
# Velocity S-wave (km/s) = 3.62894 3.68964 3.65942
# Velocity P-wave (km/s) = 6.20839 6.39963 6.30474
#
# Compressibility (1/GPa) = 0.02391064
#
# Stress axis : x y z
#
# Youngs Moduli (GPa) = 76.45459 57.03394 64.96199
#
# Poissons Ratio (x) = 0.05918 0.40300
# Poissons Ratio (y) = 0.07933 0.24729
# Poissons Ratio (z) = 0.47430 0.21711
#
# Static dielectric constant tensor:
#      x y z
#    x 3.787980 0.000000 0.000000 
#    y 0.000000 3.849370 0.000000 
#    z 0.000000 0.000000 3.310580 
# 
# 
# High freq. dielectric constant tensor:
#      x y z
#    x 1.779210 0.000000 0.000000 
#    y 0.000000 1.790090 0.000000 
#    z 0.000000 0.000000 1.743760 
# 
# From -- ./inp_files/9178.got.cif
#   From: 2010.03.12/outbox.cif.g09.slc.cpg/sg41_5_cif.got.tgz:9178.got - 2010.04.14 01:55:53.
