data_PCOD8184428
_publ_section_title
;
Structure prediction by ZEFSAII (Michael W. Deem and Ramdas Pophale) SiO2 
 PCOD8184428
Probable space group: A M A 2
;
_chemical_formula_sum "Si O2"
_cell_formula_units_Z 48
_cell_length_a 16.509836
_cell_length_b 14.143182
_cell_length_c 9.810341
_cell_angle_alpha 90.000000
_cell_angle_beta 90.000000
_cell_angle_gamma 90.000000
_cell_volume 2290.730471
_symmetry_space_group_name_H-M "A M A 2"
_symmetry_group_IT_number 40
_symmetry_cell_setting 'orthorhombic'
loop_
_space_group_symop_operation_xyz
x,y,z
-x,-y,z
1/2-x,y,z
1/2+x,-y,z
x,1/2+y,1/2+z
-x,1/2-y,1/2+z
1/2-x,1/2+y,1/2+z
1/2+x,1/2-y,1/2+z
loop_
_atom_site_type_symbol
_atom_site_label
_atom_site_fract_x
_atom_site_fract_y
_atom_site_fract_z
Si Si1 0.413455 0.732087 0.574570
Si Si2 0.750000 0.999688 0.152738
Si Si3 0.250000 0.826516 0.621802
Si Si4 0.750000 0.999561 0.827947
Si Si5 0.026156 0.601825 0.055791
Si Si6 0.624238 0.343009 0.302845
Si Si7 0.925856 0.927460 0.260246
Si Si8 0.250000 0.819740 0.321277
O O1 0.324647 0.754932 0.632365
O O2 0.449890 0.831645 0.523675
O O3 0.419024 0.657051 0.449512
O O4 0.454901 0.672684 0.696587
O O5 0.750000 0.106191 0.201956
O O6 0.835368 0.953400 0.204085
O O7 0.750000 0.009357 0.990296
O O8 0.250000 0.902358 0.744451
O O9 0.250000 0.872556 0.469275
O O10 0.672345 0.940216 0.782977
O O11 0.066831 0.662587 0.173934
O O12 0.000000 0.500000 0.113905
O O13 0.081960 0.586079 0.923265
O O14 0.672943 0.246026 0.304903
O O15 0.000000 0.000000 0.229726
#
# Coordination Sequence:
#
# PCOD8184428 Si02
#       8
#     8   4   4   4   8   8   8   4
#     4  11  22  45  66  95 142 176 223 282 349 403
#     4  12  25  45  69  95 140 178 230 278 344 400
#     4  10  23  40  72  96 129 179 222 284 346 406
#     4  11  22  43  65  98 131 169 234 274 335 415
#     4  11  25  40  66 101 133 177 231 278 341 408
#     4  10  22  42  64  94 131 171 222 277 336 405
#     4  11  27  45  69 101 139 183 231 283 343 410
#     4   9  24  38  70  89 128 174 216 276 339 397
#
# _framework density 20.954014999999998
#
# number of rings (size 3 to 8) (size 9 to 14) (size 15 to 20)
#    0.000    1.333    1.667    3.000   14.000    2.667 
#    3.000    0.000    0.000    0.000    0.000    0.000 
#    0.000    0.000    0.000    0.000    0.000    0.000 
#
# Total GULP energy -297356.452327 kJ/mol
# GULP energy per Si atom -12389.852180 kJ/mol
# Density = 2.090632 g / cm^3
# Si number density = 20.954015 Si / 1000 Ang^3
#
#
#
# Elastic Constant Matrix: (Units=GPa)
#
#
# Indices 1 2 3 4 5 6 
#
# 1 98.6501 37.0302 50.2142 0.0000 0.0000 0.0000
# 2 37.0302 108.7613 59.7464 0.0000 0.0000 0.0000
# 3 50.2142 59.7464 116.1347 0.0000 0.0000 0.0000
# 4 0.0000 0.0000 0.0000 49.2592 0.0000 0.0000
# 5 0.0000 0.0000 0.0000 0.0000 29.6978 0.0000
# 6 0.0000 0.0000 0.0000 0.0000 0.0000 59.0948
#
#
#
# Elastic Compliance Matrix: (Units=1/GPa)
#
#
# Indices 1 2 3 4 5 6 
#
# 1 0.013275 -0.001905 -0.004760 0.000000 0.000000 0.000000
# 2 -0.001905 0.013090 -0.005911 0.000000 0.000000 0.000000
# 3 -0.004760 -0.005911 0.013709 0.000000 0.000000 0.000000
# 4 0.000000 0.000000 0.000000 0.020301 0.000000 0.000000
# 5 0.000000 0.000000 0.000000 0.000000 0.033673 0.000000
# 6 0.000000 0.000000 0.000000 0.000000 0.000000 0.016922
#
#
# Mechanical properties :
#
#
# Convention : Reuss Voigt Hill
#
# Bulk Modulus (GPa) = 67.00800 68.61419 67.81110
# Shear Modulus (GPa) = 35.43738 39.38072 37.40905
#
# Velocity S-wave (km/s) = 4.11688 4.33989 4.22986
# Velocity P-wave (km/s) = 7.39231 7.61112 7.50251
#
# Compressibility (1/GPa) = 0.01492359
#
# Stress axis : x y z
#
# Youngs Moduli (GPa) = 75.33171 76.39474 72.94287
#
# Poissons Ratio (x) = 0.14553 0.34718
# Poissons Ratio (y) = 0.14351 0.43113
# Poissons Ratio (z) = 0.35855 0.45153
#
# Static dielectric constant tensor:
#      x y z
#    x 3.803190 0.000000 0.000000 
#    y 0.000000 3.772310 0.000000 
#    z 0.000000 0.000000 3.868390 
# 
# 
# High freq. dielectric constant tensor:
#      x y z
#    x 1.817710 0.000000 0.000000 
#    y 0.000000 1.829840 0.000000 
#    z 0.000000 0.000000 1.829060 
# 
# From -- ./inp_files/7495.got.cif
#   From: 2010.03.12/outbox.cif.g09.slc.cpg/sg40_4_cif.got.tgz:7495.got - 2010.04.14 01:38:03.
