data_PCOD8184750
_publ_section_title
;
Structure prediction by ZEFSAII (Michael W. Deem and Ramdas Pophale) SiO2 
 PCOD8184750
Probable space group: A B A 2
;
_chemical_formula_sum "Si O2"
_cell_formula_units_Z 52
_cell_length_a 13.166110
_cell_length_b 12.832526
_cell_length_c 16.762948
_cell_angle_alpha 90.000000
_cell_angle_beta 90.000000
_cell_angle_gamma 90.000000
_cell_volume 2832.174641
_symmetry_space_group_name_H-M "A B A 2"
_symmetry_group_IT_number 41
_symmetry_cell_setting 'orthorhombic'
loop_
_space_group_symop_operation_xyz
x,y,z
-x,-y,z
1/2-x,y,1/2+z
1/2+x,-y,1/2+z
x,1/2+y,1/2+z
-x,1/2-y,1/2+z
1/2-x,1/2+y,z
1/2+x,1/2-y,z
loop_
_atom_site_type_symbol
_atom_site_label
_atom_site_fract_x
_atom_site_fract_y
_atom_site_fract_z
Si Si1 0.500000 0.000000 0.928630
Si Si2 0.576772 0.135630 0.466468
Si Si3 0.383666 0.912951 0.789686
Si Si4 0.335597 0.155606 0.972469
Si Si5 0.184329 0.781568 0.823015
Si Si6 0.085688 0.626993 0.713438
Si Si7 0.127512 0.580163 0.532030
O O1 0.437896 0.916350 0.875946
O O2 0.581991 0.936854 0.980406
O O3 0.613549 0.241215 0.510267
O O4 0.611349 0.138050 0.372586
O O5 0.454543 0.128427 0.470341
O O6 0.630557 0.043052 0.515289
O O7 0.285154 0.841500 0.796162
O O8 0.465190 0.863718 0.729207
O O9 0.360600 0.030889 0.760518
O O10 0.298603 0.181523 0.881654
O O11 0.238296 0.126330 0.022939
O O12 0.135057 0.736121 0.742116
O O13 0.094227 0.608368 0.620307
#
# Coordination Sequence:
#
# PCOD8184750 Si02
#       7
#     4   8   8   8   8   8   8
#     4  10  18  38  58  90 110 160 200 256 302 380
#     4   9  21  37  56  90 117 159 201 257 305 372
#     4  10  17  36  59  75 119 145 203 242 299 372
#     4  10  22  34  63  89 115 157 206 259 304 374
#     4  10  21  34  61  88 109 151 212 250 292 361
#     4  10  22  37  57  87 114 165 194 248 313 378
#     4  11  22  38  59  84 129 156 202 256 333 367
#
# _framework density 18.360448999999999
#
# number of rings (size 3 to 8) (size 9 to 14) (size 15 to 20)
#    0.923    1.231    3.077    2.769    4.308    2.462 
#    0.000    0.000    0.000    0.000    0.000    0.000 
#    0.000    0.000    0.000    0.000    0.000    0.000 
#
# Total GULP energy -322134.305353 kJ/mol
# GULP energy per Si atom -12389.780975 kJ/mol
# Density = 1.831866 g / cm^3
# Si number density = 18.360449 Si / 1000 Ang^3
#
#
#
# Elastic Constant Matrix: (Units=GPa)
#
#
# Indices 1 2 3 4 5 6 
#
# 1 145.0297 82.1184 44.4504 0.0000 0.0000 0.0000
# 2 82.1184 99.5914 46.1750 0.0000 0.0000 0.0000
# 3 44.4504 46.1750 73.1006 0.0000 0.0000 0.0000
# 4 0.0000 0.0000 0.0000 24.8642 0.0000 0.0000
# 5 0.0000 0.0000 0.0000 0.0000 22.7862 0.0000
# 6 0.0000 0.0000 0.0000 0.0000 0.0000 40.3880
#
#
#
# Elastic Compliance Matrix: (Units=1/GPa)
#
#
# Indices 1 2 3 4 5 6 
#
# 1 0.013066 -0.010027 -0.001612 0.000000 0.000000 0.000000
# 2 -0.010027 0.021894 -0.007733 0.000000 0.000000 0.000000
# 3 -0.001612 -0.007733 0.019544 0.000000 0.000000 0.000000
# 4 0.000000 0.000000 0.000000 0.040218 0.000000 0.000000
# 5 0.000000 0.000000 0.000000 0.000000 0.043886 0.000000
# 6 0.000000 0.000000 0.000000 0.000000 0.000000 0.024760
#
#
# Mechanical properties :
#
#
# Convention : Reuss Voigt Hill
#
# Bulk Modulus (GPa) = 63.44248 73.68994 68.56621
# Shear Modulus (GPa) = 24.11208 27.27288 25.69248
#
# Velocity S-wave (km/s) = 3.62783 3.85829 3.74483
# Velocity P-wave (km/s) = 7.22337 7.75054 7.49159
#
# Compressibility (1/GPa) = 0.01576231
#
# Stress axis : x y z
#
# Youngs Moduli (GPa) = 76.53211 45.67531 51.16591
#
# Poissons Ratio (x) = 0.45797 0.08247
# Poissons Ratio (y) = 0.76736 0.39564
# Poissons Ratio (z) = 0.12336 0.35319
#
# Static dielectric constant tensor:
#      x y z
#    x 3.506440 0.000000 0.000000 
#    y 0.000000 3.328980 0.000000 
#    z 0.000000 0.000000 3.108330 
# 
# 
# High freq. dielectric constant tensor:
#      x y z
#    x 1.710650 0.000000 0.000000 
#    y 0.000000 1.708460 0.000000 
#    z 0.000000 0.000000 1.684170 
# 
# From -- ./inp_files/10071.got.cif
#   From: 2010.03.12/outbox.cif.g09.slc.cpg/sg41_6_cif.got.tgz:10071.got - 2010.04.14 01:55:53.
