data_PCOD8184486
_publ_section_title
;
Structure prediction by ZEFSAII (Michael W. Deem and Ramdas Pophale) SiO2 
 PCOD8184486
Probable space group: A M A 2
;
_chemical_formula_sum "Si O2"
_cell_formula_units_Z 48
_cell_length_a 8.210080
_cell_length_b 30.472249
_cell_length_c 9.110448
_cell_angle_alpha 90.000000
_cell_angle_beta 90.000000
_cell_angle_gamma 90.000000
_cell_volume 2279.248255
_symmetry_space_group_name_H-M "A M A 2"
_symmetry_group_IT_number 40
_symmetry_cell_setting 'orthorhombic'
loop_
_space_group_symop_operation_xyz
x,y,z
-x,-y,z
1/2-x,y,z
1/2+x,-y,z
x,1/2+y,1/2+z
-x,1/2-y,1/2+z
1/2-x,1/2+y,1/2+z
1/2+x,1/2-y,1/2+z
loop_
_atom_site_type_symbol
_atom_site_label
_atom_site_fract_x
_atom_site_fract_y
_atom_site_fract_z
Si Si1 0.938293 0.872895 0.335440
Si Si2 0.061056 0.788720 0.179268
Si Si3 0.561353 0.707073 0.352230
Si Si4 0.060535 0.371982 0.156913
Si Si5 0.060531 0.548802 0.337712
Si Si6 0.058478 0.452461 0.657298
O O1 0.750000 0.868371 0.292742
O O2 0.040853 0.835458 0.255309
O O3 0.957417 0.869509 0.509126
O O4 0.009746 0.919326 0.285027
O O5 0.250000 0.775306 0.177443
O O6 0.963197 0.752587 0.269441
O O7 0.984937 0.790500 0.015307
O O8 0.750000 0.697161 0.372865
O O9 0.487238 0.666378 0.261075
O O10 0.250000 0.364266 0.120381
O O11 0.039189 0.418710 0.233998
O O12 0.250000 0.552999 0.301657
O O13 0.000000 0.500000 0.303725
O O14 0.029307 0.561354 0.506690
O O15 0.250000 0.452776 0.628430
O O16 0.000000 0.500000 0.710704
#
# Coordination Sequence:
#
# PCOD8184486 Si02
#       6
#     8   8   8   8   8   8
#     4  12  25  41  61  89 123 159 203 253 306 363
#     4  11  23  40  63  90 121 158 200 247 301 361
#     4  10  23  41  62  89 121 157 199 247 299 359
#     4  11  23  41  63  89 123 162 204 251 304 361
#     4  11  22  39  63  92 124 161 204 250 302 358
#     4  11  22  40  64  91 122 159 203 250 304 362
#
# _framework density 21.059574000000001
#
# number of rings (size 3 to 8) (size 9 to 14) (size 15 to 20)
#    0.000    1.000    0.000    8.500    0.000    7.333 
#    0.000    3.333    0.000    0.000    0.000    0.000 
#    0.000    0.000    0.000    0.000    0.000    0.000 
#
# Total GULP energy -297781.786618 kJ/mol
# GULP energy per Si atom -12407.574442 kJ/mol
# Density = 2.101164 g / cm^3
# Si number density = 21.059574 Si / 1000 Ang^3
#
#
#
# Elastic Constant Matrix: (Units=GPa)
#
#
# Indices 1 2 3 4 5 6 
#
# 1 58.8958 10.7220 -4.7944 0.0000 0.0000 0.0000
# 2 10.7220 118.3216 79.0256 0.0000 0.0000 0.0000
# 3 -4.7944 79.0256 143.4289 0.0000 0.0000 0.0000
# 4 0.0000 0.0000 0.0000 47.5499 0.0000 0.0000
# 5 0.0000 0.0000 0.0000 0.0000 30.9656 0.0000
# 6 0.0000 0.0000 0.0000 0.0000 0.0000 32.9495
#
#
#
# Elastic Compliance Matrix: (Units=1/GPa)
#
#
# Indices 1 2 3 4 5 6 
#
# 1 0.017747 -0.003171 0.002341 0.000000 0.000000 0.000000
# 2 -0.003171 0.013939 -0.007786 0.000000 0.000000 0.000000
# 3 0.002341 -0.007786 0.011340 0.000000 0.000000 0.000000
# 4 0.000000 0.000000 0.000000 0.021031 0.000000 0.000000
# 5 0.000000 0.000000 0.000000 0.000000 0.032294 0.000000
# 6 0.000000 0.000000 0.000000 0.000000 0.000000 0.030349
#
#
# Mechanical properties :
#
#
# Convention : Reuss Voigt Hill
#
# Bulk Modulus (GPa) = 38.77084 54.50586 46.63835
# Shear Modulus (GPa) = 32.77999 38.00586 35.39292
#
# Velocity S-wave (km/s) = 3.94958 4.25276 4.10397
# Velocity P-wave (km/s) = 6.26490 7.07479 6.68212
#
# Compressibility (1/GPa) = 0.02579258
#
# Stress axis : x y z
#
# Youngs Moduli (GPa) = 56.34735 71.74003 88.18103
#
# Poissons Ratio (x) = 0.22752 -0.20640
# Poissons Ratio (y) = 0.17870 0.68659
# Poissons Ratio (z) = -0.13189 0.55858
#
# Static dielectric constant tensor:
#      x y z
#    x 3.719790 0.000000 0.000000 
#    y 0.000000 3.867040 0.000000 
#    z 0.000000 0.000000 3.900900 
# 
# 
# High freq. dielectric constant tensor:
#      x y z
#    x 1.828160 0.000000 0.000000 
#    y 0.000000 1.837590 0.000000 
#    z 0.000000 0.000000 1.831750 
# 
# From -- ./inp_files/4595.got.cif
#   From: 2010.03.12/outbox.cif.g09.slc.cpg/sg40_3_cif.got.tgz:4595.got - 2010.04.14 01:38:03.
