data_PCOD8184941
_publ_section_title
;
Structure prediction by ZEFSAII (Michael W. Deem and Ramdas Pophale) SiO2 
 PCOD8184941
Probable space group: A B A 2
;
_chemical_formula_sum "Si O2"
_cell_formula_units_Z 64
_cell_length_a 16.364996
_cell_length_b 11.171163
_cell_length_c 16.677755
_cell_angle_alpha 90.000000
_cell_angle_beta 90.000000
_cell_angle_gamma 90.000000
_cell_volume 3048.961089
_symmetry_space_group_name_H-M "A B A 2"
_symmetry_group_IT_number 41
_symmetry_cell_setting 'orthorhombic'
loop_
_space_group_symop_operation_xyz
x,y,z
-x,-y,z
1/2-x,y,1/2+z
1/2+x,-y,1/2+z
x,1/2+y,1/2+z
-x,1/2-y,1/2+z
1/2-x,1/2+y,z
1/2+x,1/2-y,z
loop_
_atom_site_type_symbol
_atom_site_label
_atom_site_fract_x
_atom_site_fract_y
_atom_site_fract_z
Si Si1 0.356998 0.817637 0.635010
Si Si2 0.585417 0.128717 0.468044
Si Si3 0.115352 0.252643 0.311662
Si Si4 0.673868 0.232688 0.086279
Si Si5 0.935359 0.338748 0.267550
Si Si6 0.351377 0.954457 0.205292
Si Si7 0.604752 0.366086 0.939886
Si Si8 0.179225 0.062933 0.206376
O O1 0.415550 0.826987 0.558770
O O2 0.269885 0.790055 0.595298
O O3 0.389262 0.715534 0.691745
O O4 0.361773 0.936371 0.688905
O O5 0.624511 0.226248 0.406827
O O6 0.491641 0.120944 0.446152
O O7 0.634998 0.002309 0.458117
O O8 0.174744 0.345130 0.264560
O O9 0.145172 0.117514 0.290821
O O10 0.024246 0.281557 0.278244
O O11 0.630944 0.109321 0.118474
O O12 0.647346 0.346554 0.138402
O O13 0.646920 0.265051 0.995648
O O14 0.931858 0.480391 0.241921
O O15 0.879830 0.325585 0.348026
O O16 0.277015 0.049277 0.204001
#
# Coordination Sequence:
#
# PCOD8184941 Si02
#       8
#     8   8   8   8   8   8   8   8
#     4  11  23  38  63  92 121 159 207 259 304 371
#     4  10  21  38  61  92 119 157 214 248 300 371
#     4  10  22  39  62  89 123 166 204 256 313 374
#     4  10  21  39  60  87 126 161 201 252 309 366
#     4  11  22  39  63  94 123 160 209 256 314 369
#     4  10  20  37  61  87 121 160 205 252 303 375
#     4  10  21  40  62  87 126 162 203 254 302 372
#     4  10  21  39  60  90 124 160 205 251 317 369
#
# _framework density 20.990756999999999
#
# number of rings (size 3 to 8) (size 9 to 14) (size 15 to 20)
#    0.000    1.750    3.750    0.375    3.500    1.500 
#    0.000    1.250    0.000    1.500    0.000    0.000 
#    0.000    0.000    0.000    0.000    0.000    0.000 
#
# Total GULP energy -396465.725199 kJ/mol
# GULP energy per Si atom -12389.553912 kJ/mol
# Density = 2.094298 g / cm^3
# Si number density = 20.990757 Si / 1000 Ang^3
#
#
#
# Elastic Constant Matrix: (Units=GPa)
#
#
# Indices 1 2 3 4 5 6 
#
# 1 38.7811 22.5645 25.7480 0.0000 0.0000 0.0000
# 2 22.5645 77.8294 48.3631 0.0000 0.0000 0.0000
# 3 25.7480 48.3631 150.5722 0.0000 0.0000 0.0000
# 4 0.0000 0.0000 0.0000 38.0833 0.0000 0.0000
# 5 0.0000 0.0000 0.0000 0.0000 25.8904 0.0000
# 6 0.0000 0.0000 0.0000 0.0000 0.0000 22.6268
#
#
#
# Elastic Compliance Matrix: (Units=1/GPa)
#
#
# Indices 1 2 3 4 5 6 
#
# 1 0.032156 -0.007379 -0.003129 0.000000 0.000000 0.000000
# 2 -0.007379 0.017746 -0.004438 0.000000 0.000000 0.000000
# 3 -0.003129 -0.004438 0.008602 0.000000 0.000000 0.000000
# 4 0.000000 0.000000 0.000000 0.026258 0.000000 0.000000
# 5 0.000000 0.000000 0.000000 0.000000 0.038624 0.000000
# 6 0.000000 0.000000 0.000000 0.000000 0.000000 0.044195
#
#
# Mechanical properties :
#
#
# Convention : Reuss Voigt Hill
#
# Bulk Modulus (GPa) = 34.94935 51.17043 43.05989
# Shear Modulus (GPa) = 24.15339 28.68723 26.42031
#
# Velocity S-wave (km/s) = 3.39583 3.70085 3.55161
# Velocity P-wave (km/s) = 5.66229 6.53393 6.11366
#
# Compressibility (1/GPa) = 0.02861284
#
# Stress axis : x y z
#
# Youngs Moduli (GPa) = 31.09816 56.35177 116.25412
#
# Poissons Ratio (x) = 0.41580 0.36373
# Poissons Ratio (y) = 0.22946 0.51595
# Poissons Ratio (z) = 0.09730 0.25009
#
# Static dielectric constant tensor:
#      x y z
#    x 3.511120 0.000000 0.000000 
#    y 0.000000 3.946660 0.000000 
#    z 0.000000 0.000000 3.928760 
# 
# 
# High freq. dielectric constant tensor:
#      x y z
#    x 1.803150 0.000000 0.000000 
#    y 0.000000 1.822140 0.000000 
#    z 0.000000 0.000000 1.820060 
# 
# From -- ./inp_files/10405.got.cif
#   From: 2010.03.12/outbox.cif.g09.slc.cpg/sg41_6_cif.got.tgz:10405.got - 2010.04.14 01:55:53.
