data_PCOD8184926
_publ_section_title
;
Structure prediction by ZEFSAII (Michael W. Deem and Ramdas Pophale) SiO2 
 PCOD8184926
Probable space group: A B A 2
;
_chemical_formula_sum "Si O2"
_cell_formula_units_Z 64
_cell_length_a 8.754193
_cell_length_b 19.920086
_cell_length_c 18.978032
_cell_angle_alpha 90.000000
_cell_angle_beta 90.000000
_cell_angle_gamma 90.000000
_cell_volume 3309.470397
_symmetry_space_group_name_H-M "A B A 2"
_symmetry_group_IT_number 41
_symmetry_cell_setting 'orthorhombic'
loop_
_space_group_symop_operation_xyz
x,y,z
-x,-y,z
1/2-x,y,1/2+z
1/2+x,-y,1/2+z
x,1/2+y,1/2+z
-x,1/2-y,1/2+z
1/2-x,1/2+y,z
1/2+x,1/2-y,z
loop_
_atom_site_type_symbol
_atom_site_label
_atom_site_fract_x
_atom_site_fract_y
_atom_site_fract_z
Si Si1 0.078968 0.817824 0.771900
Si Si2 0.156248 0.155156 0.573747
Si Si3 0.843747 0.344844 0.916869
Si Si4 0.078991 0.817824 0.218718
Si Si5 0.521686 0.782180 0.416147
Si Si6 0.103485 0.563689 0.789367
Si Si7 0.978311 0.782181 0.074472
Si Si8 0.103497 0.063687 0.701252
O O1 0.249982 0.820758 0.745300
O O2 0.999981 0.750001 0.745311
O O3 0.076013 0.821589 0.857161
O O4 0.986794 0.881128 0.744734
O O5 0.163457 0.124458 0.495308
O O6 0.299953 0.204258 0.587749
O O7 0.156721 0.093125 0.626510
O O8 0.006732 0.202070 0.583405
O O9 0.700043 0.295741 0.902870
O O10 0.843262 0.406872 0.864103
O O11 0.993266 0.297931 0.907214
O O12 0.986833 0.881127 0.245897
O O13 0.076006 0.821592 0.133457
O O14 0.471291 0.805011 0.495310
O O15 0.249983 0.539996 0.745302
O O16 0.000000 0.500000 0.805065
O O17 0.000000 0.000000 0.685565
#
# Coordination Sequence:
#
# PCOD8184926 Si02
#       8
#     8   8   8   8   8   8   8   8
#     4  12  22  37  64  94 122 163 208 260 312 370
#     4  10  21  38  63  94 128 162 200 254 315 375
#     4  10  21  38  63  94 128 162 200 254 315 375
#     4  12  22  37  64  94 122 163 208 260 312 370
#     4  10  20  36  61  95 129 158 198 249 309 371
#     4  12  25  43  61  87 124 167 215 264 315 372
#     4  10  20  36  61  95 129 158 198 249 309 371
#     4  12  25  43  61  87 124 167 215 264 315 372
#
# _framework density 19.338442000000001
#
# number of rings (size 3 to 8) (size 9 to 14) (size 15 to 20)
#    0.000    1.000    5.000    3.000    0.000    0.500 
#    0.000    0.000    0.000    6.000    0.000    0.000 
#    0.000    0.000    0.000    0.000    0.000    0.000 
#
# Total GULP energy -396816.219294 kJ/mol
# GULP energy per Si atom -12400.506853 kJ/mol
# Density = 1.929443 g / cm^3
# Si number density = 19.338442 Si / 1000 Ang^3
#
#
#
# Elastic Constant Matrix: (Units=GPa)
#
#
# Indices 1 2 3 4 5 6 
#
# 1 115.4834 43.9153 52.3063 0.0000 0.0000 0.0000
# 2 43.9153 89.6676 53.5850 0.0000 0.0000 0.0000
# 3 52.3063 53.5850 160.3447 0.0000 0.0000 0.0000
# 4 0.0000 0.0000 0.0000 18.1480 0.0000 0.0000
# 5 0.0000 0.0000 0.0000 0.0000 29.6877 0.0000
# 6 0.0000 0.0000 0.0000 0.0000 0.0000 30.4140
#
#
#
# Elastic Compliance Matrix: (Units=1/GPa)
#
#
# Indices 1 2 3 4 5 6 
#
# 1 0.011276 -0.004154 -0.002290 0.000000 0.000000 0.000000
# 2 -0.004154 0.015466 -0.003813 0.000000 0.000000 0.000000
# 3 -0.002290 -0.003813 0.008258 0.000000 0.000000 0.000000
# 4 0.000000 0.000000 0.000000 0.055103 0.000000 0.000000
# 5 0.000000 0.000000 0.000000 0.000000 0.033684 0.000000
# 6 0.000000 0.000000 0.000000 0.000000 0.000000 0.032880
#
#
# Mechanical properties :
#
#
# Convention : Reuss Voigt Hill
#
# Bulk Modulus (GPa) = 69.03798 73.90098 71.46948
# Shear Modulus (GPa) = 27.47115 30.02921 28.75018
#
# Velocity S-wave (km/s) = 3.77310 3.94486 3.85994
# Velocity P-wave (km/s) = 7.39994 7.68419 7.54340
#
# Compressibility (1/GPa) = 0.01448478
#
# Stress axis : x y z
#
# Youngs Moduli (GPa) = 88.68221 64.65991 121.09438
#
# Poissons Ratio (x) = 0.26859 0.27734
# Poissons Ratio (y) = 0.36838 0.46177
# Poissons Ratio (z) = 0.20310 0.24657
#
# Static dielectric constant tensor:
#      x y z
#    x 3.733250 0.000000 0.000000 
#    y 0.000000 3.255000 0.000000 
#    z 0.000000 0.000000 4.013180 
# 
# 
# High freq. dielectric constant tensor:
#      x y z
#    x 1.760280 0.000000 0.000000 
#    y 0.000000 1.717270 0.000000 
#    z 0.000000 0.000000 1.778820 
# 
# From -- ./inp_files/11269.got.cif
#   From: 2010.03.12/outbox.cif.g09.slc.cpg/sg41_6_cif.got.tgz:11269.got - 2010.04.14 01:55:53.
