data_PCOD8184769
_publ_section_title
;
Structure prediction by ZEFSAII (Michael W. Deem and Ramdas Pophale) SiO2 
 PCOD8184769
Probable space group: A B A 2
;
_chemical_formula_sum "Si O2"
_cell_formula_units_Z 64
_cell_length_a 14.238030
_cell_length_b 22.022148
_cell_length_c 9.252458
_cell_angle_alpha 90.000000
_cell_angle_beta 90.000000
_cell_angle_gamma 90.000000
_cell_volume 2901.126747
_symmetry_space_group_name_H-M "A B A 2"
_symmetry_group_IT_number 41
_symmetry_cell_setting 'orthorhombic'
loop_
_space_group_symop_operation_xyz
x,y,z
-x,-y,z
1/2-x,y,1/2+z
1/2+x,-y,1/2+z
x,1/2+y,1/2+z
-x,1/2-y,1/2+z
1/2-x,1/2+y,z
1/2+x,1/2-y,z
loop_
_atom_site_type_symbol
_atom_site_label
_atom_site_fract_x
_atom_site_fract_y
_atom_site_fract_z
Si Si1 0.146645 0.919995 0.449820
Si Si2 0.984397 0.182047 0.501788
Si Si3 0.348573 0.211652 0.512297
Si Si4 0.858897 0.459291 0.297083
Si Si5 0.510143 0.355484 0.811964
Si Si6 0.840546 0.318140 0.844552
Si Si7 0.183873 0.556414 0.972744
Si Si8 0.677707 0.594295 0.774764
O O1 0.047400 0.884707 0.440624
O O2 0.219831 0.892314 0.336083
O O3 0.191746 0.906015 0.604371
O O4 0.135289 0.992691 0.422781
O O5 0.887248 0.219799 0.514054
O O6 0.033523 0.176418 0.658910
O O7 0.062030 0.214716 0.397145
O O8 0.434064 0.174313 0.442553
O O9 0.252738 0.208268 0.420426
O O10 0.328268 0.187261 0.673218
O O11 0.959017 0.426415 0.305374
O O12 0.791230 0.434916 0.422737
O O13 0.867623 0.530522 0.321927
O O14 0.812323 0.440523 0.144804
O O15 0.396772 0.355111 0.830918
O O16 0.867231 0.386345 0.898619
#
# Coordination Sequence:
#
# PCOD8184769 Si02
#       8
#     8   8   8   8   8   8   8   8
#     4   9  21  38  62  93 128 165 211 261 327 389
#     4  11  25  44  65  94 127 172 221 265 326 392
#     4  12  27  42  66  95 128 171 220 272 321 392
#     4  10  18  34  61  93 125 161 209 258 321 392
#     4  11  21  40  62  91 126 167 221 262 324 383
#     4  12  24  44  67  93 129 167 215 273 326 386
#     4  10  19  36  64  94 125 162 207 263 327 379
#     4   9  20  36  62  90 125 166 202 265 324 385
#
# _framework density 22.060395
#
# number of rings (size 3 to 8) (size 9 to 14) (size 15 to 20)
#    0.000    1.500    2.500    2.625    0.000    4.500 
#    0.000    0.000    2.750    0.000    0.000    0.000 
#    0.000    0.000    0.000    0.000    0.000    0.000 
#
# Total GULP energy -396579.698056 kJ/mol
# GULP energy per Si atom -12393.115564 kJ/mol
# Density = 2.201018 g / cm^3
# Si number density = 22.060395 Si / 1000 Ang^3
#
#
#
# Elastic Constant Matrix: (Units=GPa)
#
#
# Indices 1 2 3 4 5 6 
#
# 1 88.6995 22.7211 50.3638 0.0000 0.0000 0.0000
# 2 22.7211 55.6013 15.3191 0.0000 0.0000 0.0000
# 3 50.3638 15.3191 108.1680 0.0000 0.0000 0.0000
# 4 0.0000 0.0000 0.0000 22.2645 0.0000 0.0000
# 5 0.0000 0.0000 0.0000 0.0000 35.4199 0.0000
# 6 0.0000 0.0000 0.0000 0.0000 0.0000 34.8981
#
#
#
# Elastic Compliance Matrix: (Units=1/GPa)
#
#
# Indices 1 2 3 4 5 6 
#
# 1 0.016474 -0.004806 -0.006990 0.000000 0.000000 0.000000
# 2 -0.004806 0.020118 -0.000611 0.000000 0.000000 0.000000
# 3 -0.006990 -0.000611 0.012586 0.000000 0.000000 0.000000
# 4 0.000000 0.000000 0.000000 0.044915 0.000000 0.000000
# 5 0.000000 0.000000 0.000000 0.000000 0.028233 0.000000
# 6 0.000000 0.000000 0.000000 0.000000 0.000000 0.028655
#
#
# Mechanical properties :
#
#
# Convention : Reuss Voigt Hill
#
# Bulk Modulus (GPa) = 41.04577 47.69741 44.37159
# Shear Modulus (GPa) = 27.18645 29.45414 28.32030
#
# Velocity S-wave (km/s) = 3.51431 3.65795 3.58685
# Velocity P-wave (km/s) = 5.92568 6.28562 6.10830
#
# Compressibility (1/GPa) = 0.02436305
#
# Stress axis : x y z
#
# Youngs Moduli (GPa) = 60.70193 49.70760 79.45388
#
# Poissons Ratio (x) = 0.23890 0.55536
# Poissons Ratio (y) = 0.29174 0.04857
# Poissons Ratio (z) = 0.42429 0.03039
#
# Static dielectric constant tensor:
#      x y z
#    x 3.999130 0.000000 0.000000 
#    y 0.000000 4.388960 0.000000 
#    z 0.000000 0.000000 3.887910 
# 
# 
# High freq. dielectric constant tensor:
#      x y z
#    x 1.869690 0.000000 0.000000 
#    y 0.000000 1.869670 0.000000 
#    z 0.000000 0.000000 1.857440 
# 
# From -- ./inp_files/2788.got.cif
#   From: 2010.03.12/outbox.cif.g09.slc.cpg/sg41_2_cif.got.tgz:2788.got - 2010.04.14 01:55:53.
