data_PCOD8184023
_publ_section_title
;
Structure prediction by ZEFSAII (Michael W. Deem and Ramdas Pophale) SiO2 
 PCOD8184023
Probable space group: A M A 2
;
_chemical_formula_sum "Si O2"
_cell_formula_units_Z 64
_cell_length_a 17.278910
_cell_length_b 15.669955
_cell_length_c 11.703517
_cell_angle_alpha 90.000000
_cell_angle_beta 90.000000
_cell_angle_gamma 90.000000
_cell_volume 3168.841245
_symmetry_space_group_name_H-M "A M A 2"
_symmetry_group_IT_number 40
_symmetry_cell_setting 'orthorhombic'
loop_
_space_group_symop_operation_xyz
x,y,z
-x,-y,z
1/2-x,y,z
1/2+x,-y,z
x,1/2+y,1/2+z
-x,1/2-y,1/2+z
1/2-x,1/2+y,1/2+z
1/2+x,1/2-y,1/2+z
loop_
_atom_site_type_symbol
_atom_site_label
_atom_site_fract_x
_atom_site_fract_y
_atom_site_fract_z
Si Si1 0.918951 0.973710 0.293790
Si Si2 0.419342 0.050082 0.049477
Si Si3 0.918127 0.830474 0.472261
Si Si4 0.589368 0.978274 0.627253
Si Si5 0.161805 0.473997 0.344833
Si Si6 0.573401 0.254324 0.552426
Si Si7 0.339636 0.279729 0.288346
Si Si8 0.839948 0.103318 0.458982
O O1 0.877936 0.946784 0.175492
O O2 0.945093 0.898723 0.378132
O O3 0.873074 0.050025 0.353137
O O4 0.000000 0.000000 0.240646
O O5 0.427680 0.148362 0.010864
O O6 0.500000 0.000000 0.035799
O O7 0.356841 0.001528 0.972759
O O8 0.881566 0.888980 0.572503
O O9 0.856409 0.772533 0.405320
O O10 0.986094 0.778705 0.534269
O O11 0.500000 0.000000 0.599554
O O12 0.605757 0.972065 0.761386
O O13 0.640650 0.055920 0.577575
O O14 0.250000 0.496092 0.316708
O O15 0.143906 0.375367 0.325345
O O16 0.603032 0.245403 0.684010
O O17 0.626625 0.199033 0.466527
O O18 0.250000 0.264234 0.252295
O O19 0.750000 0.111243 0.440456
#
# Coordination Sequence:
#
# PCOD8184023 Si02
#       8
#     8   8   8   8   8   8   8   8
#     4  10  20  41  61  90 130 165 211 264 323 395
#     4  11  25  43  64  92 129 175 217 263 329 401
#     4  11  21  38  67  96 125 168 218 269 327 388
#     4  11  20  39  66  94 126 164 216 272 324 391
#     4  11  24  43  62  89 129 170 213 266 331 399
#     4  12  22  41  67  97 128 168 221 279 321 397
#     4  11  24  42  64  96 136 173 220 273 333 401
#     4  11  21  36  64  97 126 162 211 272 328 381
#
# _framework density 20.196656999999998
#
# number of rings (size 3 to 8) (size 9 to 14) (size 15 to 20)
#    0.000    1.000    5.000    2.625    0.000    5.000 
#    0.000    1.250    0.000    0.000    0.000    0.000 
#    0.000    0.000    0.000    0.000    0.000    0.000 
#
# Total GULP energy -396555.369838 kJ/mol
# GULP energy per Si atom -12392.355307 kJ/mol
# Density = 2.015069 g / cm^3
# Si number density = 20.196657 Si / 1000 Ang^3
#
#
#
# Elastic Constant Matrix: (Units=GPa)
#
#
# Indices 1 2 3 4 5 6 
#
# 1 69.0725 46.6377 23.3600 0.0000 0.0000 0.0000
# 2 46.6377 130.1268 43.9313 0.0000 0.0000 0.0000
# 3 23.3600 43.9313 95.7774 0.0000 0.0000 0.0000
# 4 0.0000 0.0000 0.0000 31.2154 0.0000 0.0000
# 5 0.0000 0.0000 0.0000 0.0000 17.3493 0.0000
# 6 0.0000 0.0000 0.0000 0.0000 0.0000 25.9355
#
#
#
# Elastic Compliance Matrix: (Units=1/GPa)
#
#
# Indices 1 2 3 4 5 6 
#
# 1 0.019364 -0.006325 -0.001822 0.000000 0.000000 0.000000
# 2 -0.006325 0.011159 -0.003576 0.000000 0.000000 0.000000
# 3 -0.001822 -0.003576 0.012525 0.000000 0.000000 0.000000
# 4 0.000000 0.000000 0.000000 0.032035 0.000000 0.000000
# 5 0.000000 0.000000 0.000000 0.000000 0.057639 0.000000
# 6 0.000000 0.000000 0.000000 0.000000 0.000000 0.038557
#
#
# Mechanical properties :
#
#
# Convention : Reuss Voigt Hill
#
# Bulk Modulus (GPa) = 51.01145 58.09273 54.55209
# Shear Modulus (GPa) = 24.84343 26.96987 25.90665
#
# Velocity S-wave (km/s) = 3.51105 3.65823 3.58539
# Velocity P-wave (km/s) = 6.46133 6.83151 6.64900
#
# Compressibility (1/GPa) = 0.01960344
#
# Stress axis : x y z
#
# Youngs Moduli (GPa) = 51.64106 89.61412 79.83854
#
# Poissons Ratio (x) = 0.56683 0.14544
# Poissons Ratio (y) = 0.32664 0.28548
# Poissons Ratio (z) = 0.09407 0.32043
#
# Static dielectric constant tensor:
#      x y z
#    x 3.469080 0.000000 0.000000 
#    y 0.000000 3.778120 0.000000 
#    z 0.000000 0.000000 3.724430 
# 
# 
# High freq. dielectric constant tensor:
#      x y z
#    x 1.774640 0.000000 0.000000 
#    y 0.000000 1.795200 0.000000 
#    z 0.000000 0.000000 1.793630 
# 
# From -- ./inp_files/13130.got.cif
#   From: 2010.03.12/outbox.cif.g09.slc.cpg/sg40_7_cif.got.tgz:13130.got - 2010.04.14 01:38:03.
