data_PCOD8184986
_publ_section_title
;
Structure prediction by ZEFSAII (Michael W. Deem and Ramdas Pophale) SiO2 
 PCOD8184986
Probable space group: A B A 2
;
_chemical_formula_sum "Si O2"
_cell_formula_units_Z 56
_cell_length_a 8.502278
_cell_length_b 20.261949
_cell_length_c 16.303661
_cell_angle_alpha 90.000000
_cell_angle_beta 90.000000
_cell_angle_gamma 90.000000
_cell_volume 2808.676079
_symmetry_space_group_name_H-M "A B A 2"
_symmetry_group_IT_number 41
_symmetry_cell_setting 'orthorhombic'
loop_
_space_group_symop_operation_xyz
x,y,z
-x,-y,z
1/2-x,y,1/2+z
1/2+x,-y,1/2+z
x,1/2+y,1/2+z
-x,1/2-y,1/2+z
1/2-x,1/2+y,z
1/2+x,1/2-y,z
loop_
_atom_site_type_symbol
_atom_site_label
_atom_site_fract_x
_atom_site_fract_y
_atom_site_fract_z
Si Si1 0.207921 0.149447 0.286120
Si Si2 0.896235 0.099266 0.231756
Si Si3 0.029274 0.731742 0.058224
Si Si4 0.227163 0.781134 0.676901
Si Si5 0.200007 0.673416 0.467115
Si Si6 0.320851 0.022353 0.207024
Si Si7 0.406298 0.060644 0.575291
O O1 0.208517 0.210450 0.221906
O O2 0.279458 0.176489 0.370124
O O3 0.320458 0.090321 0.257398
O O4 0.032431 0.117932 0.297633
O O5 0.772468 0.159507 0.237155
O O6 0.988958 0.095892 0.145261
O O7 0.799364 0.031708 0.248640
O O8 0.935560 0.698229 0.133455
O O9 0.148218 0.781326 0.102881
O O10 0.914622 0.767713 0.994149
O O11 0.128476 0.677878 0.008665
O O12 0.123678 0.605813 0.497080
O O13 0.257728 0.036337 0.115361
O O14 0.500000 0.000000 0.202702
O O15 0.500000 0.000000 0.536682
#
# Coordination Sequence:
#
# PCOD8184986 Si02
#       7
#     8   8   8   8   8   8   8
#     4  11  24  39  60  89 132 165 194 258 325 372
#     4  10  20  39  65  86 120 164 210 252 303 365
#     4  10  21  37  61  88 120 157 207 255 296 368
#     4  11  20  38  65  90 115 162 211 249 302 367
#     4  11  23  39  59  92 131 156 202 256 326 365
#     4  10  22  39  64  93 114 159 224 256 291 375
#     4   9  19  41  63  83 121 168 204 254 310 364
#
# _framework density 19.938219
#
# number of rings (size 3 to 8) (size 9 to 14) (size 15 to 20)
#    0.000    1.714    2.857    3.857    6.000    0.571 
#    0.000    1.429    0.000    0.000    0.000    0.000 
#    0.000    0.000    0.000    0.000    0.000    0.000 
#
# Total GULP energy -346971.668928 kJ/mol
# GULP energy per Si atom -12391.845319 kJ/mol
# Density = 1.989284 g / cm^3
# Si number density = 19.938219 Si / 1000 Ang^3
#
#
#
# Elastic Constant Matrix: (Units=GPa)
#
#
# Indices 1 2 3 4 5 6 
#
# 1 108.4270 34.1072 27.2007 0.0000 0.0000 0.0000
# 2 34.1072 103.4276 23.9198 0.0000 0.0000 0.0000
# 3 27.2007 23.9198 76.3452 0.0000 0.0000 0.0000
# 4 0.0000 0.0000 0.0000 25.5647 0.0000 0.0000
# 5 0.0000 0.0000 0.0000 0.0000 22.3204 0.0000
# 6 0.0000 0.0000 0.0000 0.0000 0.0000 31.4704
#
#
#
# Elastic Compliance Matrix: (Units=1/GPa)
#
#
# Indices 1 2 3 4 5 6 
#
# 1 0.010880 -0.002902 -0.002967 0.000000 0.000000 0.000000
# 2 -0.002902 0.011198 -0.002475 0.000000 0.000000 0.000000
# 3 -0.002967 -0.002475 0.014931 0.000000 0.000000 0.000000
# 4 0.000000 0.000000 0.000000 0.039116 0.000000 0.000000
# 5 0.000000 0.000000 0.000000 0.000000 0.044802 0.000000
# 6 0.000000 0.000000 0.000000 0.000000 0.000000 0.031776
#
#
# Mechanical properties :
#
#
# Convention : Reuss Voigt Hill
#
# Bulk Modulus (GPa) = 49.20852 50.96170 50.08511
# Shear Modulus (GPa) = 28.38267 29.40257 28.89262
#
# Velocity S-wave (km/s) = 3.77706 3.84433 3.81084
# Velocity P-wave (km/s) = 6.61481 6.73204 6.67368
#
# Compressibility (1/GPa) = 0.02032168
#
# Stress axis : x y z
#
# Youngs Moduli (GPa) = 91.91248 89.30359 66.97523
#
# Poissons Ratio (x) = 0.25912 0.19873
# Poissons Ratio (y) = 0.26669 0.16574
# Poissons Ratio (z) = 0.27273 0.22099
#
# Static dielectric constant tensor:
#      x y z
#    x 3.987700 0.000000 0.000000 
#    y 0.000000 3.705530 0.000000 
#    z 0.000000 0.000000 3.245000 
# 
# 
# High freq. dielectric constant tensor:
#      x y z
#    x 1.793390 0.000000 0.000000 
#    y 0.000000 1.782670 0.000000 
#    z 0.000000 0.000000 1.736000 
# 
# From -- ./inp_files/9802.got.cif
#   From: 2010.03.12/outbox.cif.g09.slc.cpg/sg41_5_cif.got.tgz:9802.got - 2010.04.14 01:55:53.
