data_PCOD8184802
_publ_section_title
;
Structure prediction by ZEFSAII (Michael W. Deem and Ramdas Pophale) SiO2 
 PCOD8184802
Probable space group: A B A 2
;
_chemical_formula_sum "Si O2"
_cell_formula_units_Z 64
_cell_length_a 5.218459
_cell_length_b 35.171311
_cell_length_c 14.978284
_cell_angle_alpha 90.000000
_cell_angle_beta 90.000000
_cell_angle_gamma 90.000000
_cell_volume 2749.114911
_symmetry_space_group_name_H-M "A B A 2"
_symmetry_group_IT_number 41
_symmetry_cell_setting 'orthorhombic'
loop_
_space_group_symop_operation_xyz
x,y,z
-x,-y,z
1/2-x,y,1/2+z
1/2+x,-y,1/2+z
x,1/2+y,1/2+z
-x,1/2-y,1/2+z
1/2-x,1/2+y,z
1/2+x,1/2-y,z
loop_
_atom_site_type_symbol
_atom_site_label
_atom_site_fract_x
_atom_site_fract_y
_atom_site_fract_z
Si Si1 0.750708 0.478013 0.498750
Si Si2 0.177147 0.349056 0.284936
Si Si3 0.674728 0.893749 0.786333
Si Si4 0.178777 0.848421 0.996799
Si Si5 0.941535 0.233607 0.730594
Si Si6 0.676463 0.893338 0.997323
Si Si7 0.067097 0.764395 0.033959
Si Si8 0.249159 0.521845 0.286571
O O1 0.500000 0.500000 0.530497
O O2 0.718257 0.435453 0.537645
O O3 0.774950 0.476445 0.392651
O O4 0.000000 0.500000 0.537807
O O5 0.419546 0.373213 0.248516
O O6 0.194423 0.342840 0.390714
O O7 0.165258 0.308860 0.235851
O O8 0.920512 0.370337 0.256402
O O9 0.718894 0.935846 0.746707
O O10 0.646085 0.896630 0.891896
O O11 0.422611 0.872033 0.034289
O O12 0.924285 0.870089 0.026352
O O13 0.163925 0.807428 0.042884
O O14 0.718333 0.259857 0.777031
O O15 0.976783 0.246101 0.628092
O O16 0.791931 0.760026 0.982969
O O17 0.500000 0.500000 0.254810
O O18 0.000000 0.500000 0.247370
#
# Coordination Sequence:
#
# PCOD8184802 Si02
#       8
#     8   8   8   8   8   8   8   8
#     4   9  15  23  37  58  88 129 169 198 230 275
#     4  10  19  31  48  69  95 128 165 205 250 296
#     4   9  17  28  42  65  96 129 167 206 241 283
#     4  10  19  31  48  69  95 128 165 205 250 296
#     4  10  21  36  52  70  93 124 158 204 255 301
#     4   9  17  28  42  65  96 129 167 206 241 283
#     4  10  21  36  52  70  93 124 158 204 255 301
#     4   9  15  23  37  58  88 129 169 198 230 275
#
# _framework density 23.28022
#
# number of rings (size 3 to 8) (size 9 to 14) (size 15 to 20)
#    0.000    2.500    0.000    3.000    0.000    7.000 
#    0.000    0.000    0.000    0.000    0.000    0.000 
#    0.000    0.000    0.000  252.000    0.000  112.000 
#
# Total GULP energy -396547.840761 kJ/mol
# GULP energy per Si atom -12392.120024 kJ/mol
# Density = 2.322723 g / cm^3
# Si number density = 23.280220 Si / 1000 Ang^3
#
#
#
# Elastic Constant Matrix: (Units=GPa)
#
#
# Indices 1 2 3 4 5 6 
#
# 1 261.6985 117.8593 6.7331 0.0000 0.0000 0.0000
# 2 117.8593 223.1774 8.7313 0.0000 0.0000 0.0000
# 3 6.7331 8.7313 21.6578 0.0000 0.0000 0.0000
# 4 0.0000 0.0000 0.0000 -182.7376 0.0000 0.0000
# 5 0.0000 0.0000 0.0000 0.0000 3.2092 0.0000
# 6 0.0000 0.0000 0.0000 0.0000 0.0000 50.4397
#
#
#
# Elastic Compliance Matrix: (Units=1/GPa)
#
#
# Indices 1 2 3 4 5 6 
#
# 1 0.005019 -0.002631 -0.000500 0.000000 0.000000 0.000000
# 2 -0.002631 0.005932 -0.001573 0.000000 0.000000 0.000000
# 3 -0.000500 -0.001573 0.046962 0.000000 0.000000 0.000000
# 4 0.000000 0.000000 0.000000 -0.005472 0.000000 0.000000
# 5 0.000000 0.000000 0.000000 0.000000 0.311602 0.000000
# 6 0.000000 0.000000 0.000000 0.000000 0.000000 0.019826
#
#
# Mechanical properties :
#
#
# Convention : Reuss Voigt Hill
#
# Bulk Modulus (GPa) = 20.61647 85.90903 53.26275
# Shear Modulus (GPa) = 12.21167 -0.93705 5.63731
#
# Velocity S-wave (km/s) = 2.29279 -0.63513 1.55781
# Velocity P-wave (km/s) = 3.98550 6.03692 5.11511
#
# Compressibility (1/GPa) = 0.04850490
#
# Stress axis : x y z
#
# Youngs Moduli (GPa) = 199.24608 168.58625 21.29367
#
# Poissons Ratio (x) = 0.44354 0.01064
# Poissons Ratio (y) = 0.52420 0.03350
# Poissons Ratio (z) = 0.09955 0.26526
#
# Static dielectric constant tensor:
#      x y z
#    x 5.905710 0.000000 0.000000 
#    y 0.000000 4.364640 0.000000 
#    z 0.000000 0.000000 3.518990 
# 
# 
# High freq. dielectric constant tensor:
#      x y z
#    x 1.950440 0.000000 0.000000 
#    y 0.000000 1.930500 0.000000 
#    z 0.000000 0.000000 1.867030 
# 
# From -- ./inp_files/9521.got.cif
#   From: 2010.03.12/outbox.cif.g09.slc.cpg/sg41_5_cif.got.tgz:9521.got - 2010.04.14 01:55:53.
