data_PCOD8184147
_publ_section_title
;
Structure prediction by ZEFSAII (Michael W. Deem and Ramdas Pophale) SiO2 
 PCOD8184147
Probable space group: A M A 2
;
_chemical_formula_sum "Si O2"
_cell_formula_units_Z 40
_cell_length_a 8.697562
_cell_length_b 9.657576
_cell_length_c 24.793547
_cell_angle_alpha 90.000000
_cell_angle_beta 90.000000
_cell_angle_gamma 90.000000
_cell_volume 2082.592643
_symmetry_space_group_name_H-M "A M A 2"
_symmetry_group_IT_number 40
_symmetry_cell_setting 'orthorhombic'
loop_
_space_group_symop_operation_xyz
x,y,z
-x,-y,z
1/2-x,y,z
1/2+x,-y,z
x,1/2+y,1/2+z
-x,1/2-y,1/2+z
1/2-x,1/2+y,1/2+z
1/2+x,1/2-y,1/2+z
loop_
_atom_site_type_symbol
_atom_site_label
_atom_site_fract_x
_atom_site_fract_y
_atom_site_fract_z
Si Si1 0.068870 0.848244 0.192240
Si Si2 0.568466 0.648981 0.401229
Si Si3 0.571387 0.144740 0.483422
Si Si4 0.068204 0.149935 0.789334
Si Si5 0.927913 0.645679 0.109375
O O1 0.250000 0.861286 0.187614
O O2 0.018214 0.758288 0.243756
O O3 0.007236 0.773939 0.138794
O O4 0.000000 0.000000 0.197891
O O5 0.500000 0.500000 0.413192
O O6 0.750000 0.639903 0.395694
O O7 0.522353 0.740876 0.451654
O O8 0.499162 0.707996 0.345470
O O9 0.750000 0.148880 0.467800
O O10 0.544886 0.171327 0.546392
O O11 0.500000 0.000000 0.465515
O O12 0.250000 0.135406 0.794227
O O13 0.000000 0.000000 0.774787
O O14 0.750000 0.640851 0.124733
O O15 0.000000 0.500000 0.128157
#
# Coordination Sequence:
#
# PCOD8184147 Si02
#       5
#     8   8   8   8   8
#     4  11  24  39  58  84 115 149 187 233 284 333
#     4  11  22  37  59  85 114 150 189 233 280 331
#     4  10  21  38  59  85 115 149 188 231 279 333
#     4  10  21  38  59  83 111 147 189 232 279 336
#     4  10  21  38  61  85 113 149 189 231 277 333
#
# _framework density 19.206828999999999
#
# number of rings (size 3 to 8) (size 9 to 14) (size 15 to 20)
#    0.000    1.600    0.000    6.000    0.000    8.800 
#    0.000    2.000    0.000    0.000    0.000    0.000 
#    0.000    0.000    0.000    0.000    0.000    0.000 
#
# Total GULP energy -248098.557755 kJ/mol
# GULP energy per Si atom -12404.927888 kJ/mol
# Density = 1.916311 g / cm^3
# Si number density = 19.206829 Si / 1000 Ang^3
#
#
#
# Elastic Constant Matrix: (Units=GPa)
#
#
# Indices 1 2 3 4 5 6 
#
# 1 107.6928 58.4749 49.8687 0.0000 0.0000 0.0000
# 2 58.4749 125.3651 70.0133 0.0000 0.0000 0.0000
# 3 49.8687 70.0133 86.4060 0.0000 0.0000 0.0000
# 4 0.0000 0.0000 0.0000 41.6540 0.0000 0.0000
# 5 0.0000 0.0000 0.0000 0.0000 40.8141 0.0000
# 6 0.0000 0.0000 0.0000 0.0000 0.0000 39.2254
#
#
#
# Elastic Compliance Matrix: (Units=1/GPa)
#
#
# Indices 1 2 3 4 5 6 
#
# 1 0.013485 -0.003550 -0.004907 0.000000 0.000000 0.000000
# 2 -0.003550 0.015504 -0.010514 0.000000 0.000000 0.000000
# 3 -0.004907 -0.010514 0.022925 0.000000 0.000000 0.000000
# 4 0.000000 0.000000 0.000000 0.024007 0.000000 0.000000
# 5 0.000000 0.000000 0.000000 0.000000 0.024501 0.000000
# 6 0.000000 0.000000 0.000000 0.000000 0.000000 0.025494
#
#
# Mechanical properties :
#
#
# Convention : Reuss Voigt Hill
#
# Bulk Modulus (GPa) = 71.56653 75.13086 73.34869
# Shear Modulus (GPa) = 29.67091 33.74583 31.70837
#
# Velocity S-wave (km/s) = 3.93467 4.19617 4.06752
# Velocity P-wave (km/s) = 7.61473 7.91699 7.76733
#
# Compressibility (1/GPa) = 0.01397301
#
# Stress axis : x y z
#
# Youngs Moduli (GPa) = 74.15544 64.49791 43.62133
#
# Poissons Ratio (x) = 0.22895 0.21403
# Poissons Ratio (y) = 0.26324 0.45864
# Poissons Ratio (z) = 0.36385 0.67814
#
# Static dielectric constant tensor:
#      x y z
#    x 3.685860 0.000000 0.000000 
#    y 0.000000 3.475940 0.000000 
#    z 0.000000 0.000000 3.614000 
# 
# 
# High freq. dielectric constant tensor:
#      x y z
#    x 1.768010 0.000000 0.000000 
#    y 0.000000 1.747250 0.000000 
#    z 0.000000 0.000000 1.756040 
# 
# From -- ./inp_files/23804.got.cif
#   From: 2010.03.12/outbox.cif.g09.slc.cpg/sg40_12_cif.got.tgz:23804.got - 2010.04.14 01:38:03.
