data_PCOD8184725
_publ_section_title
;
Structure prediction by ZEFSAII (Michael W. Deem and Ramdas Pophale) SiO2 
 PCOD8184725
Probable space group: A B A 2
;
_chemical_formula_sum "Si O2"
_cell_formula_units_Z 56
_cell_length_a 12.467509
_cell_length_b 5.378980
_cell_length_c 34.440856
_cell_angle_alpha 90.000000
_cell_angle_beta 90.000000
_cell_angle_gamma 90.000000
_cell_volume 2309.689270
_symmetry_space_group_name_H-M "A B A 2"
_symmetry_group_IT_number 41
_symmetry_cell_setting 'orthorhombic'
loop_
_space_group_symop_operation_xyz
x,y,z
-x,-y,z
1/2-x,y,1/2+z
1/2+x,-y,1/2+z
x,1/2+y,1/2+z
-x,1/2-y,1/2+z
1/2-x,1/2+y,z
1/2+x,1/2-y,z
loop_
_atom_site_type_symbol
_atom_site_label
_atom_site_fract_x
_atom_site_fract_y
_atom_site_fract_z
Si Si1 0.500000 0.000000 0.625000
Si Si2 0.500000 0.000000 0.174209
Si Si3 0.367745 0.383011 0.820742
Si Si4 0.629468 0.117413 0.021956
Si Si5 0.815201 0.619821 0.935642
Si Si6 0.686565 0.068555 0.232929
Si Si7 0.127714 0.385036 0.553351
Si Si8 0.874078 0.620396 0.851883
O O1 0.517000 0.751492 0.649756
O O2 0.606046 0.061962 0.598969
O O3 0.603306 0.982040 0.200876
O O4 0.365274 0.440402 0.775286
O O5 0.250217 0.353984 0.839606
O O6 0.429878 0.622250 0.838261
O O7 0.427457 0.122795 0.831532
O O8 0.571460 0.874248 0.040015
O O9 0.748425 0.136251 0.040863
O O10 0.572066 0.377009 0.032536
O O11 0.622793 0.083646 0.975820
O O12 0.728098 0.400849 0.934133
O O13 0.890451 0.588471 0.898107
O O14 0.723341 0.354864 0.227998
#
# Coordination Sequence:
#
# PCOD8184725 Si02
#       8
#     4   4   8   8   8   8   8   8
#     4  12  26  50  64  90 129 152 209 266 334 402
#     4  12  30  50  66 106 133 160 223 270 340 416
#     4  10  16  29  51  83 119 154 216 245 295 386
#     4  10  19  35  55  92 118 151 218 240 299 377
#     4  12  16  25  46  80 129 153 191 279 296 333
#     4  12  23  45  72  95 133 175 215 272 329 396
#     4  10  20  37  61  80 115 155 189 258 299 374
#     4  10  16  25  46  87 124 158 206 263 299 357
#
# _framework density 24.245685999999999
#
# number of rings (size 3 to 8) (size 9 to 14) (size 15 to 20)
#    0.000    1.143    8.571    1.714    0.000    0.000 
#   15.429    0.000    0.000    0.000    0.000   11.000 
#    0.000    0.000    0.000    0.000    0.000    0.000 
#
# Total GULP energy -346970.220426 kJ/mol
# GULP energy per Si atom -12391.793587 kJ/mol
# Density = 2.419050 g / cm^3
# Si number density = 24.245686 Si / 1000 Ang^3
#
#
#
# Elastic Constant Matrix: (Units=GPa)
#
#
# Indices 1 2 3 4 5 6 
#
# 1 55.2080 51.8548 34.5978 0.0000 0.0000 0.0000
# 2 51.8548 238.6900 59.0150 0.0000 0.0000 0.0000
# 3 34.5978 59.0150 181.0208 0.0000 0.0000 0.0000
# 4 0.0000 0.0000 0.0000 60.4193 0.0000 0.0000
# 5 0.0000 0.0000 0.0000 0.0000 105.9183 0.0000
# 6 0.0000 0.0000 0.0000 0.0000 0.0000 39.8106
#
#
#
# Elastic Compliance Matrix: (Units=1/GPa)
#
#
# Indices 1 2 3 4 5 6 
#
# 1 0.024335 -0.004499 -0.003184 0.000000 0.000000 0.000000
# 2 -0.004499 0.005389 -0.000897 0.000000 0.000000 0.000000
# 3 -0.003184 -0.000897 0.006425 0.000000 0.000000 0.000000
# 4 0.000000 0.000000 0.000000 0.016551 0.000000 0.000000
# 5 0.000000 0.000000 0.000000 0.000000 0.009441 0.000000
# 6 0.000000 0.000000 0.000000 0.000000 0.000000 0.025119
#
#
# Mechanical properties :
#
#
# Convention : Reuss Voigt Hill
#
# Bulk Modulus (GPa) = 52.66488 85.09489 68.87989
# Shear Modulus (GPa) = 45.14663 63.19305 54.16984
#
# Velocity S-wave (km/s) = 4.31983 5.11079 4.73187
# Velocity P-wave (km/s) = 6.83006 8.36660 7.63707
#
# Compressibility (1/GPa) = 0.01898798
#
# Stress axis : x y z
#
# Youngs Moduli (GPa) = 41.09323 185.57134 155.63748
#
# Poissons Ratio (x) = 0.83496 0.49558
# Poissons Ratio (y) = 0.18490 0.13958
# Poissons Ratio (z) = 0.13085 0.16643
#
# Static dielectric constant tensor:
#      x y z
#    x 3.999230 0.000000 0.000000 
#    y 0.000000 5.795930 0.000000 
#    z 0.000000 0.000000 4.444670 
# 
# 
# High freq. dielectric constant tensor:
#      x y z
#    x 1.970400 0.000000 0.000000 
#    y 0.000000 2.019140 0.000000 
#    z 0.000000 0.000000 1.954010 
# 
# From -- ./inp_files/12741.got.cif
#   From: 2010.03.12/outbox.cif.g09.slc.cpg/sg41_7_cif.got.tgz:12741.got - 2010.04.14 01:55:53.
