data_PCOD8184201
_publ_section_title
;
Structure prediction by ZEFSAII (Michael W. Deem and Ramdas Pophale) SiO2 
 PCOD8184201
Probable space group: A M A 2
;
_chemical_formula_sum "Si O2"
_cell_formula_units_Z 52
_cell_length_a 9.438069
_cell_length_b 14.840312
_cell_length_c 19.152543
_cell_angle_alpha 90.000000
_cell_angle_beta 90.000000
_cell_angle_gamma 90.000000
_cell_volume 2682.579650
_symmetry_space_group_name_H-M "A M A 2"
_symmetry_group_IT_number 40
_symmetry_cell_setting 'orthorhombic'
loop_
_space_group_symop_operation_xyz
x,y,z
-x,-y,z
1/2-x,y,z
1/2+x,-y,z
x,1/2+y,1/2+z
-x,1/2-y,1/2+z
1/2-x,1/2+y,1/2+z
1/2+x,1/2-y,1/2+z
loop_
_atom_site_type_symbol
_atom_site_label
_atom_site_fract_x
_atom_site_fract_y
_atom_site_fract_z
Si Si1 0.592681 0.330818 0.453810
Si Si2 0.407862 0.383523 0.655554
Si Si3 0.088864 0.265090 0.091392
Si Si4 0.915711 0.216574 0.823191
Si Si5 0.000000 0.500000 0.537061
Si Si6 0.918693 0.918040 0.288112
Si Si7 0.911459 0.589889 0.196512
O O1 0.750000 0.319390 0.423323
O O2 0.561547 0.249266 0.508794
O O3 0.484591 0.328247 0.390523
O O4 0.584007 0.428238 0.490307
O O5 0.250000 0.371034 0.687577
O O6 0.470921 0.287873 0.633955
O O7 0.392240 0.446580 0.587360
O O8 0.518988 0.423920 0.710275
O O9 0.250000 0.231382 0.109402
O O10 0.072672 0.368093 0.118298
O O11 0.750000 0.208082 0.833467
O O12 0.960040 0.321516 0.820259
O O13 0.963545 0.163662 0.753514
O O14 0.750000 0.934304 0.286829
O O15 0.000000 0.000000 0.329458
O O16 0.750000 0.563274 0.211647
O O17 0.000000 0.500000 0.203141
#
# Coordination Sequence:
#
# PCOD8184201 Si02
#       7
#     8   8   8   8   4   8   8
#     4  10  22  38  60  85 116 159 199 242 292 357
#     4  11  20  31  55  87 117 148 187 237 290 350
#     4   9  19  39  59  79 114 153 191 240 300 345
#     4  10  23  42  60  83 123 163 192 241 302 353
#     4  10  22  36  54  88 126 154 190 236 304 354
#     4  11  22  38  60  87 118 154 195 242 301 356
#     4  10  21  39  61  86 116 157 200 246 295 348
#
# _framework density 19.384326999999999
#
# number of rings (size 3 to 8) (size 9 to 14) (size 15 to 20)
#    0.000    1.846    2.308    1.385    1.077    6.769 
#    0.000    0.769    0.000    3.692    0.000    0.000 
#    0.000    0.000    0.000    0.000    0.000    0.000 
#
# Total GULP energy -322207.500510 kJ/mol
# GULP energy per Si atom -12392.596173 kJ/mol
# Density = 1.934021 g / cm^3
# Si number density = 19.384327 Si / 1000 Ang^3
#
#
#
# Elastic Constant Matrix: (Units=GPa)
#
#
# Indices 1 2 3 4 5 6 
#
# 1 71.3290 47.8154 25.2822 0.0000 0.0000 0.0000
# 2 47.8154 114.6825 36.5993 0.0000 0.0000 0.0000
# 3 25.2822 36.5993 77.9601 0.0000 0.0000 0.0000
# 4 0.0000 0.0000 0.0000 18.3852 0.0000 0.0000
# 5 0.0000 0.0000 0.0000 0.0000 20.2795 0.0000
# 6 0.0000 0.0000 0.0000 0.0000 0.0000 26.5396
#
#
#
# Elastic Compliance Matrix: (Units=1/GPa)
#
#
# Indices 1 2 3 4 5 6 
#
# 1 0.020049 -0.007392 -0.003032 0.000000 0.000000 0.000000
# 2 -0.007392 0.012982 -0.003697 0.000000 0.000000 0.000000
# 3 -0.003032 -0.003697 0.015546 0.000000 0.000000 0.000000
# 4 0.000000 0.000000 0.000000 0.054392 0.000000 0.000000
# 5 0.000000 0.000000 0.000000 0.000000 0.049311 0.000000
# 6 0.000000 0.000000 0.000000 0.000000 0.000000 0.037680
#
#
# Mechanical properties :
#
#
# Convention : Reuss Voigt Hill
#
# Bulk Modulus (GPa) = 49.17560 53.70726 51.44143
# Shear Modulus (GPa) = 22.22433 23.32582 22.77508
#
# Velocity S-wave (km/s) = 3.38969 3.47267 3.43143
# Velocity P-wave (km/s) = 6.38309 6.62163 6.50345
#
# Compressibility (1/GPa) = 0.02033529
#
# Stress axis : x y z
#
# Youngs Moduli (GPa) = 49.87734 77.03261 64.32538
#
# Poissons Ratio (x) = 0.56940 0.19502
# Poissons Ratio (y) = 0.36868 0.23782
# Poissons Ratio (z) = 0.15122 0.28481
#
# Static dielectric constant tensor:
#      x y z
#    x 3.525460 0.000000 0.000000 
#    y 0.000000 3.664230 0.000000 
#    z 0.000000 0.000000 3.378250 
# 
# 
# High freq. dielectric constant tensor:
#      x y z
#    x 1.755020 0.000000 0.000000 
#    y 0.000000 1.754380 0.000000 
#    z 0.000000 0.000000 1.730780 
# 
# From -- ./inp_files/22092.got.cif
#   From: 2010.03.12/outbox.cif.g09.slc.cpg/sg40_12_cif.got.tgz:22092.got - 2010.04.14 01:38:03.
