data_PCOD8184539
_publ_section_title
;
Structure prediction by ZEFSAII (Michael W. Deem and Ramdas Pophale) SiO2 
 PCOD8184539
Probable space group: A M A 2
;
_chemical_formula_sum "Si O2"
_cell_formula_units_Z 64
_cell_length_a 30.245274
_cell_length_b 18.378246
_cell_length_c 5.245554
_cell_angle_alpha 90.000000
_cell_angle_beta 90.000000
_cell_angle_gamma 90.000000
_cell_volume 2915.767869
_symmetry_space_group_name_H-M "A M A 2"
_symmetry_group_IT_number 40
_symmetry_cell_setting 'orthorhombic'
loop_
_space_group_symop_operation_xyz
x,y,z
-x,-y,z
1/2-x,y,z
1/2+x,-y,z
x,1/2+y,1/2+z
-x,1/2-y,1/2+z
1/2-x,1/2+y,1/2+z
1/2+x,1/2-y,1/2+z
loop_
_atom_site_type_symbol
_atom_site_label
_atom_site_fract_x
_atom_site_fract_y
_atom_site_fract_z
Si Si1 0.081639 0.618641 0.650320
Si Si2 0.474714 0.748143 0.519943
Si Si3 0.829091 0.728988 0.694127
Si Si4 0.548764 0.024604 0.983238
Si Si5 0.412354 0.354418 0.777799
Si Si6 0.868582 0.537961 0.126638
Si Si7 0.136686 0.621943 0.138232
Si Si8 0.700607 0.153658 0.712995
O O1 0.041631 0.674296 0.647246
O O2 0.063455 0.536415 0.691709
O O3 0.105615 0.624021 0.381605
O O4 0.111758 0.643956 0.881539
O O5 0.489291 0.727861 0.230358
O O6 0.437596 0.811766 0.504461
O O7 0.880076 0.703371 0.637461
O O8 0.825908 0.817082 0.686048
O O9 0.797809 0.701656 0.468265
O O10 0.813972 0.701645 0.971042
O O11 0.550410 0.106523 0.100867
O O12 0.500000 0.000000 0.883643
O O13 0.584127 0.025092 0.757197
O O14 0.379812 0.419678 0.866771
O O15 0.844589 0.459794 0.090454
O O16 0.832981 0.587512 0.274507
O O17 0.750000 0.123500 0.663376
#
# Coordination Sequence:
#
# PCOD8184539 Si02
#       8
#     8   8   8   8   8   8   8   8
#     4  11  23  40  58  92 128 176 220 277 326 384
#     4  12  27  40  61  88 131 176 232 286 332 379
#     4  11  23  42  73  98 131 171 217 272 336 405
#     4  11  23  39  61  92 137 179 232 280 327 391
#     4  11  23  42  63  91 128 181 230 278 331 398
#     4  10  24  42  67  96 135 179 227 268 348 401
#     4  11  22  42  66  94 130 173 218 268 330 402
#     4  11  24  45  73 105 134 167 217 277 336 412
#
# _framework density 21.949619999999999
#
# number of rings (size 3 to 8) (size 9 to 14) (size 15 to 20)
#    0.000    1.000    3.750    2.625    5.250    0.500 
#    0.000    1.250    0.000    0.000    0.000    0.000 
#    0.000    0.000    0.000    0.000    0.000    0.000 
#
# Total GULP energy -396566.782609 kJ/mol
# GULP energy per Si atom -12392.711957 kJ/mol
# Density = 2.189966 g / cm^3
# Si number density = 21.949620 Si / 1000 Ang^3
#
#
#
# Elastic Constant Matrix: (Units=GPa)
#
#
# Indices 1 2 3 4 5 6 
#
# 1 91.7511 30.1989 18.7432 0.0000 0.0000 0.0000
# 2 30.1989 125.8939 21.7302 0.0000 0.0000 0.0000
# 3 18.7432 21.7302 113.0489 0.0000 0.0000 0.0000
# 4 0.0000 0.0000 0.0000 32.4793 0.0000 0.0000
# 5 0.0000 0.0000 0.0000 0.0000 23.8973 0.0000
# 6 0.0000 0.0000 0.0000 0.0000 0.0000 19.2200
#
#
#
# Elastic Compliance Matrix: (Units=1/GPa)
#
#
# Indices 1 2 3 4 5 6 
#
# 1 0.012073 -0.002638 -0.001495 0.000000 0.000000 0.000000
# 2 -0.002638 0.008792 -0.001253 0.000000 0.000000 0.000000
# 3 -0.001495 -0.001253 0.009334 0.000000 0.000000 0.000000
# 4 0.000000 0.000000 0.000000 0.030789 0.000000 0.000000
# 5 0.000000 0.000000 0.000000 0.000000 0.041846 0.000000
# 6 0.000000 0.000000 0.000000 0.000000 0.000000 0.052029
#
#
# Mechanical properties :
#
#
# Convention : Reuss Voigt Hill
#
# Bulk Modulus (GPa) = 51.47000 52.44872 51.95936
# Shear Modulus (GPa) = 29.05126 32.45407 30.75267
#
# Velocity S-wave (km/s) = 3.64200 3.84939 3.74713
# Velocity P-wave (km/s) = 6.41760 6.61090 6.51497
#
# Compressibility (1/GPa) = 0.01942879
#
# Stress axis : x y z
#
# Youngs Moduli (GPa) = 82.83203 113.73713 107.13168
#
# Poissons Ratio (x) = 0.30003 0.16011
# Poissons Ratio (y) = 0.21851 0.13420
# Poissons Ratio (z) = 0.12380 0.14247
#
# Static dielectric constant tensor:
#      x y z
#    x 3.704710 0.000000 0.000000 
#    y 0.000000 4.540640 0.000000 
#    z 0.000000 0.000000 3.749400 
# 
# 
# High freq. dielectric constant tensor:
#      x y z
#    x 1.827490 0.000000 0.000000 
#    y 0.000000 1.882270 0.000000 
#    z 0.000000 0.000000 1.861010 
# 
# From -- ./inp_files/3482.got.cif
#   From: 2010.03.12/outbox.cif.g09.slc.cpg/sg40_2_cif.got.tgz:3482.got - 2010.04.14 01:38:03.
