data_PCOD8184962
_publ_section_title
;
Structure prediction by ZEFSAII (Michael W. Deem and Ramdas Pophale) SiO2 
 PCOD8184962
Probable space group: A B A 2
;
_chemical_formula_sum "Si O2"
_cell_formula_units_Z 48
_cell_length_a 14.428307
_cell_length_b 16.865836
_cell_length_c 9.531538
_cell_angle_alpha 90.000000
_cell_angle_beta 90.000000
_cell_angle_gamma 90.000000
_cell_volume 2319.456495
_symmetry_space_group_name_H-M "A B A 2"
_symmetry_group_IT_number 41
_symmetry_cell_setting 'orthorhombic'
loop_
_space_group_symop_operation_xyz
x,y,z
-x,-y,z
1/2-x,y,1/2+z
1/2+x,-y,1/2+z
x,1/2+y,1/2+z
-x,1/2-y,1/2+z
1/2-x,1/2+y,z
1/2+x,1/2-y,z
loop_
_atom_site_type_symbol
_atom_site_label
_atom_site_fract_x
_atom_site_fract_y
_atom_site_fract_z
Si Si1 0.449746 0.751599 0.176110
Si Si2 0.847950 0.319834 0.176600
Si Si3 0.209928 0.250606 0.386328
Si Si4 0.601298 0.972277 0.034879
Si Si5 0.358257 0.365271 0.450959
Si Si6 0.480421 0.585330 0.255776
O O1 0.552441 0.782033 0.211207
O O2 0.388857 0.765964 0.315028
O O3 0.406759 0.797319 0.045119
O O4 0.447459 0.655078 0.149863
O O5 0.776667 0.310494 0.304163
O O6 0.856690 0.413636 0.149552
O O7 0.802898 0.278308 0.043253
O O8 0.260953 0.335315 0.391945
O O9 0.500000 0.000000 0.083620
O O10 0.662958 0.052161 0.031484
O O11 0.593429 0.927832 0.883135
O O12 0.424219 0.383271 0.320899
O O13 0.500000 0.500000 0.179929
#
# Coordination Sequence:
#
# PCOD8184962 Si02
#       6
#     8   8   8   8   8   8
#     4  12  20  39  67  90 132 166 217 264 327 382
#     4  12  24  42  65  97 132 174 215 272 323 393
#     4  12  25  40  65 102 124 171 228 265 324 388
#     4   9  18  39  63  92 129 174 213 252 343 384
#     4  10  20  38  62  95 127 166 217 265 313 397
#     4   9  18  35  65  92 127 172 209 256 333 384
#
# _framework density 20.694504999999999
#
# number of rings (size 3 to 8) (size 9 to 14) (size 15 to 20)
#    0.000    1.667    8.333    0.000    0.000    0.000 
#    3.000    1.667    0.000    3.000    0.000    0.000 
#    0.000    0.000    0.000    0.000    0.000    0.000 
#
# Total GULP energy -297462.234764 kJ/mol
# GULP energy per Si atom -12394.259782 kJ/mol
# Density = 2.064740 g / cm^3
# Si number density = 20.694505 Si / 1000 Ang^3
#
#
#
# Elastic Constant Matrix: (Units=GPa)
#
#
# Indices 1 2 3 4 5 6 
#
# 1 86.4848 46.3277 30.9378 0.0000 0.0000 0.0000
# 2 46.3277 192.5658 35.6353 0.0000 0.0000 0.0000
# 3 30.9378 35.6353 40.1155 0.0000 0.0000 0.0000
# 4 0.0000 0.0000 0.0000 34.5245 0.0000 0.0000
# 5 0.0000 0.0000 0.0000 0.0000 27.2071 0.0000
# 6 0.0000 0.0000 0.0000 0.0000 0.0000 29.7005
#
#
#
# Elastic Compliance Matrix: (Units=1/GPa)
#
#
# Indices 1 2 3 4 5 6 
#
# 1 0.016551 -0.001938 -0.011043 0.000000 0.000000 0.000000
# 2 -0.001938 0.006442 -0.004227 0.000000 0.000000 0.000000
# 3 -0.011043 -0.004227 0.037200 0.000000 0.000000 0.000000
# 4 0.000000 0.000000 0.000000 0.028965 0.000000 0.000000
# 5 0.000000 0.000000 0.000000 0.000000 0.036755 0.000000
# 6 0.000000 0.000000 0.000000 0.000000 0.000000 0.033669
#
#
# Mechanical properties :
#
#
# Convention : Reuss Voigt Hill
#
# Bulk Modulus (GPa) = 38.79634 60.55195 49.67415
# Shear Modulus (GPa) = 24.68028 32.03745 28.35887
#
# Velocity S-wave (km/s) = 3.45715 3.93888 3.70585
# Velocity P-wave (km/s) = 5.89268 7.07176 6.50897
#
# Compressibility (1/GPa) = 0.02577563
#
# Stress axis : x y z
#
# Youngs Moduli (GPa) = 60.41793 155.23948 26.88204
#
# Poissons Ratio (x) = 0.30092 0.29685
# Poissons Ratio (y) = 0.11712 0.11364
# Poissons Ratio (z) = 0.66718 0.65624
#
# Static dielectric constant tensor:
#      x y z
#    x 3.820130 0.000000 0.000000 
#    y 0.000000 4.363880 0.000000 
#    z 0.000000 0.000000 3.408410 
# 
# 
# High freq. dielectric constant tensor:
#      x y z
#    x 1.805780 0.000000 0.000000 
#    y 0.000000 1.826640 0.000000 
#    z 0.000000 0.000000 1.771300 
# 
# From -- ./inp_files/2562.got.cif
#   From: 2010.03.12/outbox.cif.g09.slc.cpg/sg41_2_cif.got.tgz:2562.got - 2010.04.14 01:55:53.
