data_PCOD8184734
_publ_section_title
;
Structure prediction by ZEFSAII (Michael W. Deem and Ramdas Pophale) SiO2 
 PCOD8184734
Probable space group: A B A 2
;
_chemical_formula_sum "Si O2"
_cell_formula_units_Z 40
_cell_length_a 12.706596
_cell_length_b 5.267519
_cell_length_c 24.319769
_cell_angle_alpha 90.000000
_cell_angle_beta 90.000000
_cell_angle_gamma 90.000000
_cell_volume 1627.776515
_symmetry_space_group_name_H-M "A B A 2"
_symmetry_group_IT_number 41
_symmetry_cell_setting 'orthorhombic'
loop_
_space_group_symop_operation_xyz
x,y,z
-x,-y,z
1/2-x,y,1/2+z
1/2+x,-y,1/2+z
x,1/2+y,1/2+z
-x,1/2-y,1/2+z
1/2-x,1/2+y,z
1/2+x,1/2-y,z
loop_
_atom_site_type_symbol
_atom_site_label
_atom_site_fract_x
_atom_site_fract_y
_atom_site_fract_z
Si Si1 0.684064 0.278881 0.913880
Si Si2 0.685330 0.717761 0.294110
Si Si3 0.065615 0.247169 0.684183
Si Si4 0.121199 0.847338 0.528226
Si Si5 0.143430 0.348801 0.572783
O O1 0.723838 0.568168 0.918652
O O2 0.629094 0.249011 0.853865
O O3 0.604680 0.224678 0.964104
O O4 0.721709 0.425646 0.288997
O O5 0.607162 0.784939 0.245489
O O6 0.156135 0.272700 0.637158
O O7 0.000000 0.500000 0.681025
O O8 0.000000 0.000000 0.668822
O O9 0.080091 0.616391 0.566488
O O10 0.244637 0.901697 0.544044
O O11 0.073309 0.128480 0.541229
#
# Coordination Sequence:
#
# PCOD8184734 Si02
#       5
#     8   8   8   8   8
#     4  10  16  32  54  92 118 141 181 262 306 335
#     4  10  23  38  65  92 116 151 216 255 292 351
#     4  12  26  43  59  84 130 169 198 245 306 361
#     4  10  17  32  57  94 112 140 190 257 294 337
#     4  10  20  31  57  82 118 153 191 231 300 350
#
# _framework density 24.573397
#
# number of rings (size 3 to 8) (size 9 to 14) (size 15 to 20)
#    0.000    1.600    4.000    2.400    5.600    0.000 
#    0.000    0.000    0.000    7.200    0.000    0.000 
#    0.000    0.000    0.000    0.000    0.000    0.000 
#
# Total GULP energy -247859.793999 kJ/mol
# GULP energy per Si atom -12392.989700 kJ/mol
# Density = 2.451747 g / cm^3
# Si number density = 24.573397 Si / 1000 Ang^3
#
#
#
# Elastic Constant Matrix: (Units=GPa)
#
#
# Indices 1 2 3 4 5 6 
#
# 1 16.1659 16.4318 13.0846 0.0000 0.0000 0.0000
# 2 16.4318 181.3625 27.2620 0.0000 0.0000 0.0000
# 3 13.0846 27.2620 197.7638 0.0000 0.0000 0.0000
# 4 0.0000 0.0000 0.0000 40.5045 0.0000 0.0000
# 5 0.0000 0.0000 0.0000 0.0000 22.4638 0.0000
# 6 0.0000 0.0000 0.0000 0.0000 0.0000 17.5169
#
#
#
# Elastic Compliance Matrix: (Units=1/GPa)
#
#
# Indices 1 2 3 4 5 6 
#
# 1 0.070945 -0.005843 -0.003888 0.000000 0.000000 0.000000
# 2 -0.005843 0.006112 -0.000456 0.000000 0.000000 0.000000
# 3 -0.003888 -0.000456 0.005377 0.000000 0.000000 0.000000
# 4 0.000000 0.000000 0.000000 0.024689 0.000000 0.000000
# 5 0.000000 0.000000 0.000000 0.000000 0.044516 0.000000
# 6 0.000000 0.000000 0.000000 0.000000 0.000000 0.057088
#
#
# Mechanical properties :
#
#
# Convention : Reuss Voigt Hill
#
# Bulk Modulus (GPa) = 16.11384 56.53878 36.32631
# Shear Modulus (GPa) = 20.01700 38.66461 29.34081
#
# Velocity S-wave (km/s) = 2.85718 3.97096 3.45919
# Velocity P-wave (km/s) = 4.17808 6.63948 5.54703
#
# Compressibility (1/GPa) = 0.06205846
#
# Stress axis : x y z
#
# Youngs Moduli (GPa) = 14.09537 163.61902 185.98927
#
# Poissons Ratio (x) = 0.95607 0.72321
# Poissons Ratio (y) = 0.08236 0.08479
# Poissons Ratio (z) = 0.05481 0.07459
#
# Static dielectric constant tensor:
#      x y z
#    x 3.982450 0.000000 0.000000 
#    y 0.000000 5.401180 0.000000 
#    z 0.000000 0.000000 5.234210 
# 
# 
# High freq. dielectric constant tensor:
#      x y z
#    x 1.929610 0.000000 0.000000 
#    y 0.000000 2.027350 0.000000 
#    z 0.000000 0.000000 1.995420 
# 
# From -- ./inp_files/12184.got.cif
#   From: 2010.03.12/outbox.cif.g09.slc.cpg/sg41_7_cif.got.tgz:12184.got - 2010.04.14 01:55:53.
