data_PCOD8184960
_publ_section_title
;
Structure prediction by ZEFSAII (Michael W. Deem and Ramdas Pophale) SiO2 
 PCOD8184960
Probable space group: A B A 2
;
_chemical_formula_sum "Si O2"
_cell_formula_units_Z 52
_cell_length_a 26.139465
_cell_length_b 8.387681
_cell_length_c 11.356439
_cell_angle_alpha 90.000000
_cell_angle_beta 90.000000
_cell_angle_gamma 90.000000
_cell_volume 2489.893504
_symmetry_space_group_name_H-M "A B A 2"
_symmetry_group_IT_number 41
_symmetry_cell_setting 'orthorhombic'
loop_
_space_group_symop_operation_xyz
x,y,z
-x,-y,z
1/2-x,y,1/2+z
1/2+x,-y,1/2+z
x,1/2+y,1/2+z
-x,1/2-y,1/2+z
1/2-x,1/2+y,z
1/2+x,1/2-y,z
loop_
_atom_site_type_symbol
_atom_site_label
_atom_site_fract_x
_atom_site_fract_y
_atom_site_fract_z
Si Si1 0.855950 0.216287 0.560630
Si Si2 0.331216 0.510619 0.875571
Si Si3 0.231990 0.481802 0.159618
Si Si4 0.916810 0.200214 0.780692
Si Si5 0.000000 0.000000 0.670894
Si Si6 0.189074 0.277508 0.567894
Si Si7 0.091451 0.607297 0.016429
O O1 0.846184 0.348052 0.462328
O O2 0.802592 0.168619 0.621357
O O3 0.893180 0.284658 0.663808
O O4 0.882808 0.064952 0.498773
O O5 0.287332 0.560312 0.782090
O O6 0.382290 0.455729 0.807917
O O7 0.307358 0.357309 0.940250
O O8 0.290123 0.412023 0.161551
O O9 0.226261 0.623382 0.064192
O O10 0.973010 0.132096 0.752634
O O11 0.920484 0.323439 0.887524
O O12 0.039555 0.096074 0.589166
O O13 0.130408 0.222812 0.590343
#
# Coordination Sequence:
#
# PCOD8184960 Si02
#       7
#     8   8   8   8   4   8   8
#     4   9  19  37  59  86 118 151 195 243 291 358
#     4  10  21  38  60  85 117 157 195 241 298 354
#     4  10  21  36  56  83 116 153 192 243 297 350
#     4   9  20  38  60  86 118 154 195 245 299 354
#     4  10  20  38  62  90 122 154 202 258 308 358
#     4  10  21  38  58  85 117 154 200 241 291 363
#     4   9  20  39  62  87 119 158 202 253 304 358
#
# _framework density 20.884426999999999
#
# number of rings (size 3 to 8) (size 9 to 14) (size 15 to 20)
#    0.000    2.462    0.000    1.846    0.000    6.154 
#    0.000    7.692    0.000    0.000    0.000    0.000 
#    0.000    0.000    0.000    0.000    0.000    0.000 
#
# Total GULP energy -322218.909271 kJ/mol
# GULP energy per Si atom -12393.034972 kJ/mol
# Density = 2.083689 g / cm^3
# Si number density = 20.884427 Si / 1000 Ang^3
#
#
#
# Elastic Constant Matrix: (Units=GPa)
#
#
# Indices 1 2 3 4 5 6 
#
# 1 125.1588 61.2074 71.6936 0.0000 0.0000 0.0000
# 2 61.2074 93.1387 62.9886 0.0000 0.0000 0.0000
# 3 71.6936 62.9886 118.7346 0.0000 0.0000 0.0000
# 4 0.0000 0.0000 0.0000 47.4008 0.0000 0.0000
# 5 0.0000 0.0000 0.0000 0.0000 31.8902 0.0000
# 6 0.0000 0.0000 0.0000 0.0000 0.0000 33.4627
#
#
#
# Elastic Compliance Matrix: (Units=1/GPa)
#
#
# Indices 1 2 3 4 5 6 
#
# 1 0.013722 -0.005324 -0.005461 0.000000 0.000000 0.000000
# 2 -0.005324 0.018810 -0.006764 0.000000 0.000000 0.000000
# 3 -0.005461 -0.006764 0.015308 0.000000 0.000000 0.000000
# 4 0.000000 0.000000 0.000000 0.021097 0.000000 0.000000
# 5 0.000000 0.000000 0.000000 0.000000 0.031358 0.000000
# 6 0.000000 0.000000 0.000000 0.000000 0.000000 0.029884
#
#
# Mechanical properties :
#
#
# Convention : Reuss Voigt Hill
#
# Bulk Modulus (GPa) = 78.48389 80.97904 79.73147
# Shear Modulus (GPa) = 29.49465 31.96025 30.72745
#
# Velocity S-wave (km/s) = 3.76211 3.91620 3.83993
# Velocity P-wave (km/s) = 7.51884 7.70116 7.61055
#
# Compressibility (1/GPa) = 0.01274147
#
# Stress axis : x y z
#
# Youngs Moduli (GPa) = 72.87715 53.16364 65.32707
#
# Poissons Ratio (x) = 0.28306 0.35674
# Poissons Ratio (y) = 0.38802 0.44185
# Poissons Ratio (z) = 0.39797 0.35958
#
# Static dielectric constant tensor:
#      x y z
#    x 3.868870 0.000000 0.000000 
#    y 0.000000 3.741930 0.000000 
#    z 0.000000 0.000000 3.795000 
# 
# 
# High freq. dielectric constant tensor:
#      x y z
#    x 1.813490 0.000000 0.000000 
#    y 0.000000 1.813570 0.000000 
#    z 0.000000 0.000000 1.811120 
# 
# From -- ./inp_files/6546.got.cif
#   From: 2010.03.12/outbox.cif.g09.slc.cpg/sg41_4_cif.got.tgz:6546.got - 2010.04.14 01:55:53.
