data_PCOD8184877
_publ_section_title
;
Structure prediction by ZEFSAII (Michael W. Deem and Ramdas Pophale) SiO2 
 PCOD8184877
Probable space group: A B A 2
;
_chemical_formula_sum "Si O2"
_cell_formula_units_Z 64
_cell_length_a 18.259967
_cell_length_b 15.357057
_cell_length_c 10.997543
_cell_angle_alpha 90.000000
_cell_angle_beta 90.000000
_cell_angle_gamma 90.000000
_cell_volume 3083.923904
_symmetry_space_group_name_H-M "A B A 2"
_symmetry_group_IT_number 41
_symmetry_cell_setting 'orthorhombic'
loop_
_space_group_symop_operation_xyz
x,y,z
-x,-y,z
1/2-x,y,1/2+z
1/2+x,-y,1/2+z
x,1/2+y,1/2+z
-x,1/2-y,1/2+z
1/2-x,1/2+y,z
1/2+x,1/2-y,z
loop_
_atom_site_type_symbol
_atom_site_label
_atom_site_fract_x
_atom_site_fract_y
_atom_site_fract_z
Si Si1 0.819582 0.647349 0.017420
Si Si2 0.579531 0.023929 0.886852
Si Si3 0.361426 0.207261 0.338507
Si Si4 0.656621 0.646152 0.944946
Si Si5 0.098175 0.101822 0.180293
Si Si6 0.916386 0.977348 0.930995
Si Si7 0.298190 0.743827 0.240724
Si Si8 0.059797 0.332364 0.684188
O O1 0.802777 0.669122 0.157826
O O2 0.869183 0.559921 0.996204
O O3 0.858953 0.731251 0.957084
O O4 0.741939 0.626465 0.959705
O O5 0.580850 0.093963 0.779802
O O6 0.500000 0.000000 0.942051
O O7 0.605455 0.936766 0.816815
O O8 0.385148 0.109892 0.370862
O O9 0.283718 0.213725 0.270481
O O10 0.424271 0.239559 0.246221
O O11 0.627790 0.559345 0.878500
O O12 0.653110 0.732063 0.859431
O O13 0.608956 0.663413 0.063879
O O14 0.167410 0.164277 0.165810
O O15 0.025668 0.159585 0.154324
O O16 0.097480 0.027127 0.077128
O O17 0.000000 0.000000 0.901672
#
# Coordination Sequence:
#
# PCOD8184877 Si02
#       8
#     8   8   8   8   8   8   8   8
#     4  10  21  42  65  92 133 172 217 268 332 386
#     4   9  19  38  65  93 120 164 222 268 315 383
#     4  10  23  41  65  94 131 172 217 270 319 396
#     4  11  23  39  63  94 131 169 219 269 323 391
#     4  11  21  38  66  93 125 167 220 265 322 395
#     4  12  23  40  65  95 130 167 218 264 330 390
#     4  11  24  41  62  95 130 171 214 264 331 389
#     4  10  19  39  65  91 122 172 214 265 323 391
#
# _framework density 20.752783000000001
#
# number of rings (size 3 to 8) (size 9 to 14) (size 15 to 20)
#    0.000    1.500    5.000    0.375    3.500    0.000 
#    2.250    1.875    0.000    0.000    0.000    0.000 
#    0.000    0.000    0.000    0.000    0.000    0.000 
#
# Total GULP energy -396544.208045 kJ/mol
# GULP energy per Si atom -12392.006501 kJ/mol
# Density = 2.070555 g / cm^3
# Si number density = 20.752783 Si / 1000 Ang^3
#
#
#
# Elastic Constant Matrix: (Units=GPa)
#
#
# Indices 1 2 3 4 5 6 
#
# 1 88.5907 42.8590 39.1800 0.0000 0.0000 0.0000
# 2 42.8590 83.1054 26.0484 0.0000 0.0000 0.0000
# 3 39.1800 26.0484 59.2873 0.0000 0.0000 0.0000
# 4 0.0000 0.0000 0.0000 36.0501 0.0000 0.0000
# 5 0.0000 0.0000 0.0000 0.0000 30.4503 0.0000
# 6 0.0000 0.0000 0.0000 0.0000 0.0000 41.6958
#
#
#
# Elastic Compliance Matrix: (Units=1/GPa)
#
#
# Indices 1 2 3 4 5 6 
#
# 1 0.018684 -0.006686 -0.009410 0.000000 0.000000 0.000000
# 2 -0.006686 0.016347 -0.002764 0.000000 0.000000 0.000000
# 3 -0.009410 -0.002764 0.024300 0.000000 0.000000 0.000000
# 4 0.000000 0.000000 0.000000 0.027739 0.000000 0.000000
# 5 0.000000 0.000000 0.000000 0.000000 0.032840 0.000000
# 6 0.000000 0.000000 0.000000 0.000000 0.000000 0.023983
#
#
# Mechanical properties :
#
#
# Convention : Reuss Voigt Hill
#
# Bulk Modulus (GPa) = 46.27122 49.68426 47.97774
# Shear Modulus (GPa) = 26.48056 29.83229 28.15643
#
# Velocity S-wave (km/s) = 3.57599 3.79556 3.68741
# Velocity P-wave (km/s) = 6.27655 6.57277 6.42637
#
# Compressibility (1/GPa) = 0.02161171
#
# Stress axis : x y z
#
# Youngs Moduli (GPa) = 53.52117 61.17155 41.15276
#
# Poissons Ratio (x) = 0.40902 0.38724
# Poissons Ratio (y) = 0.35787 0.11373
# Poissons Ratio (z) = 0.50362 0.16906
#
# Static dielectric constant tensor:
#      x y z
#    x 3.853160 0.000000 0.000000 
#    y 0.000000 3.889880 0.000000 
#    z 0.000000 0.000000 3.780650 
# 
# 
# High freq. dielectric constant tensor:
#      x y z
#    x 1.815000 0.000000 0.000000 
#    y 0.000000 1.808430 0.000000 
#    z 0.000000 0.000000 1.798030 
# 
# From -- ./inp_files/6030.got.cif
#   From: 2010.03.12/outbox.cif.g09.slc.cpg/sg41_4_cif.got.tgz:6030.got - 2010.04.14 01:55:53.
