data_PCOD8184507
_publ_section_title
;
Structure prediction by ZEFSAII (Michael W. Deem and Ramdas Pophale) SiO2 
 PCOD8184507
Probable space group: A M A 2
;
_chemical_formula_sum "Si O2"
_cell_formula_units_Z 48
_cell_length_a 8.729084
_cell_length_b 27.498915
_cell_length_c 9.678301
_cell_angle_alpha 90.000000
_cell_angle_beta 90.000000
_cell_angle_gamma 90.000000
_cell_volume 2323.182652
_symmetry_space_group_name_H-M "A M A 2"
_symmetry_group_IT_number 40
_symmetry_cell_setting 'orthorhombic'
loop_
_space_group_symop_operation_xyz
x,y,z
-x,-y,z
1/2-x,y,z
1/2+x,-y,z
x,1/2+y,1/2+z
-x,1/2-y,1/2+z
1/2-x,1/2+y,1/2+z
1/2+x,1/2-y,1/2+z
loop_
_atom_site_type_symbol
_atom_site_label
_atom_site_fract_x
_atom_site_fract_y
_atom_site_fract_z
Si Si1 0.069069 0.447328 0.635990
Si Si2 0.423950 0.948816 0.608980
Si Si3 0.572153 0.296379 0.250027
Si Si4 0.929752 0.389554 0.883518
Si Si5 0.576535 0.109824 0.871218
Si Si6 0.070883 0.291402 0.951228
O O1 0.250000 0.452837 0.636852
O O2 0.015708 0.409570 0.517797
O O3 0.000000 0.500000 0.608334
O O4 0.012419 0.425921 0.779540
O O5 0.250000 0.949381 0.552630
O O6 0.522078 0.906732 0.535800
O O7 0.428288 0.936780 0.770650
O O8 0.500000 0.000000 0.577531
O O9 0.750000 0.295691 0.210941
O O10 0.532012 0.347980 0.316317
O O11 0.531122 0.256908 0.366330
O O12 0.481116 0.285447 0.109535
O O13 0.750000 0.392710 0.860245
O O14 0.984268 0.334178 0.869200
O O15 0.750000 0.130123 0.881912
O O16 0.250000 0.303393 0.950962
#
# Coordination Sequence:
#
# PCOD8184507 Si02
#       6
#     8   8   8   8   8   8
#     4  11  24  43  65  95 131 174 218 266 321 381
#     4  11  22  39  64  94 126 166 209 262 319 380
#     4  11  25  43  68  99 129 168 215 263 319 384
#     4  12  25  42  65  94 127 170 216 267 320 381
#     4  10  23  42  66  93 129 170 211 263 321 377
#     4  11  25  45  67  97 132 168 212 265 321 384
#
# _framework density 20.661311999999999
#
# number of rings (size 3 to 8) (size 9 to 14) (size 15 to 20)
#    0.000    1.000    1.667    4.500    2.333    4.667 
#    0.000    0.000    0.000    0.000    0.000    0.000 
#    0.000    0.000    0.000    0.000    0.000    0.000 
#
# Total GULP energy -297736.325427 kJ/mol
# GULP energy per Si atom -12405.680226 kJ/mol
# Density = 2.061429 g / cm^3
# Si number density = 20.661312 Si / 1000 Ang^3
#
#
#
# Elastic Constant Matrix: (Units=GPa)
#
#
# Indices 1 2 3 4 5 6 
#
# 1 86.1242 49.3375 45.6481 0.0000 0.0000 0.0000
# 2 49.3375 114.2836 33.4422 0.0000 0.0000 0.0000
# 3 45.6481 33.4422 80.7879 0.0000 0.0000 0.0000
# 4 0.0000 0.0000 0.0000 53.1980 0.0000 0.0000
# 5 0.0000 0.0000 0.0000 0.0000 16.9679 0.0000
# 6 0.0000 0.0000 0.0000 0.0000 0.0000 36.5925
#
#
#
# Elastic Compliance Matrix: (Units=1/GPa)
#
#
# Indices 1 2 3 4 5 6 
#
# 1 0.019567 -0.005931 -0.008601 0.000000 0.000000 0.000000
# 2 -0.005931 0.011754 -0.001514 0.000000 0.000000 0.000000
# 3 -0.008601 -0.001514 0.017865 0.000000 0.000000 0.000000
# 4 0.000000 0.000000 0.000000 0.018798 0.000000 0.000000
# 5 0.000000 0.000000 0.000000 0.000000 0.058935 0.000000
# 6 0.000000 0.000000 0.000000 0.000000 0.000000 0.027328
#
#
# Mechanical properties :
#
#
# Convention : Reuss Voigt Hill
#
# Bulk Modulus (GPa) = 58.50196 59.78350 59.14273
# Shear Modulus (GPa) = 26.03660 31.53621 28.78641
#
# Velocity S-wave (km/s) = 3.55373 3.91108 3.73668
# Velocity P-wave (km/s) = 6.72420 7.02803 6.87779
#
# Compressibility (1/GPa) = 0.01709344
#
# Stress axis : x y z
#
# Youngs Moduli (GPa) = 51.10518 85.08029 55.97510
#
# Poissons Ratio (x) = 0.50457 0.48146
# Poissons Ratio (y) = 0.30308 0.08477
# Poissons Ratio (z) = 0.43958 0.12885
#
# Static dielectric constant tensor:
#      x y z
#    x 3.798500 0.000000 0.000000 
#    y 0.000000 3.039940 0.000000 
#    z 0.000000 0.000000 3.819290 
# 
# 
# High freq. dielectric constant tensor:
#      x y z
#    x 1.817500 0.000000 0.000000 
#    y 0.000000 1.817190 0.000000 
#    z 0.000000 0.000000 1.818290 
# 
# From -- ./inp_files/4583.got.cif
#   From: 2010.03.12/outbox.cif.g09.slc.cpg/sg40_3_cif.got.tgz:4583.got - 2010.04.14 01:38:03.
