data_PCOD8184128
_publ_section_title
;
Structure prediction by ZEFSAII (Michael W. Deem and Ramdas Pophale) SiO2 
 PCOD8184128
Probable space group: A M A 2
;
_chemical_formula_sum "Si O2"
_cell_formula_units_Z 48
_cell_length_a 10.037186
_cell_length_b 16.340909
_cell_length_c 15.380373
_cell_angle_alpha 90.000000
_cell_angle_beta 90.000000
_cell_angle_gamma 90.000000
_cell_volume 2522.638686
_symmetry_space_group_name_H-M "A M A 2"
_symmetry_group_IT_number 40
_symmetry_cell_setting 'orthorhombic'
loop_
_space_group_symop_operation_xyz
x,y,z
-x,-y,z
1/2-x,y,z
1/2+x,-y,z
x,1/2+y,1/2+z
-x,1/2-y,1/2+z
1/2-x,1/2+y,1/2+z
1/2+x,1/2-y,1/2+z
loop_
_atom_site_type_symbol
_atom_site_label
_atom_site_fract_x
_atom_site_fract_y
_atom_site_fract_z
Si Si1 0.000000 0.000000 0.875000
Si Si2 0.603384 0.066592 0.591104
Si Si3 0.250000 0.894596 0.147742
Si Si4 0.599705 0.570135 0.897667
Si Si5 0.098990 0.347816 0.263377
Si Si6 0.009443 0.328590 0.744516
Si Si7 0.250000 0.076451 0.179453
Si Si8 0.250000 0.010157 0.997289
O O1 0.027152 0.921067 0.814923
O O2 0.122606 0.021137 0.936936
O O3 0.750000 0.025532 0.589596
O O4 0.565809 0.100369 0.495619
O O5 0.600483 0.139241 0.659796
O O6 0.500000 0.000000 0.623958
O O7 0.118320 0.841087 0.167979
O O8 0.250000 0.979372 0.206022
O O9 0.250000 0.920868 0.045680
O O10 0.500000 0.500000 0.867831
O O11 0.750000 0.536634 0.892553
O O12 0.577585 0.644611 0.833764
O O13 0.250000 0.339811 0.299182
O O14 0.019562 0.264144 0.270237
O O15 0.878600 0.378887 0.718117
O O16 0.250000 0.079998 0.073339
#
# Coordination Sequence:
#
# PCOD8184128 Si02
#       8
#     4   8   4   8   8   8   4   4
#     4  12  22  46  70  88 134 174 226 286 326 392
#     4   9  19  40  62  86 117 156 205 251 308 376
#     4  10  22  41  63  98 129 163 225 262 322 416
#     4  10  21  37  61  92 124 160 205 250 312 387
#     4  11  24  43  65  94 130 170 221 268 327 389
#     4  12  22  40  63  96 132 171 211 270 328 386
#     4  10  22  41  67  90 131 173 211 262 340 400
#     4  10  24  42  68 100 120 180 226 270 336 400
#
# _framework density 19.027695000000001
#
# number of rings (size 3 to 8) (size 9 to 14) (size 15 to 20)
#    0.500    1.000    3.333    2.500    1.167    0.667 
#    7.500    0.000    0.000    0.000    0.000    0.000 
#    0.000    0.000    0.000    0.000    0.000    0.000 
#
# Total GULP energy -297461.089131 kJ/mol
# GULP energy per Si atom -12394.212047 kJ/mol
# Density = 1.898439 g / cm^3
# Si number density = 19.027695 Si / 1000 Ang^3
#
#
#
# Elastic Constant Matrix: (Units=GPa)
#
#
# Indices 1 2 3 4 5 6 
#
# 1 134.2953 49.8410 35.3095 0.0000 0.0000 0.0000
# 2 49.8410 108.3597 32.7826 0.0000 0.0000 0.0000
# 3 35.3095 32.7826 86.4042 0.0000 0.0000 0.0000
# 4 0.0000 0.0000 0.0000 14.9046 0.0000 0.0000
# 5 0.0000 0.0000 0.0000 0.0000 36.5851 0.0000
# 6 0.0000 0.0000 0.0000 0.0000 0.0000 32.2558
#
#
#
# Elastic Compliance Matrix: (Units=1/GPa)
#
#
# Indices 1 2 3 4 5 6 
#
# 1 0.009432 -0.003584 -0.002495 0.000000 0.000000 0.000000
# 2 -0.003584 0.011787 -0.003008 0.000000 0.000000 0.000000
# 3 -0.002495 -0.003008 0.013734 0.000000 0.000000 0.000000
# 4 0.000000 0.000000 0.000000 0.067093 0.000000 0.000000
# 5 0.000000 0.000000 0.000000 0.000000 0.027334 0.000000
# 6 0.000000 0.000000 0.000000 0.000000 0.000000 0.031002
#
#
# Mechanical properties :
#
#
# Convention : Reuss Voigt Hill
#
# Bulk Modulus (GPa) = 59.59111 62.76950 61.18031
# Shear Modulus (GPa) = 27.15209 30.82417 28.98813
#
# Velocity S-wave (km/s) = 3.78163 4.02924 3.90740
# Velocity P-wave (km/s) = 7.10308 7.39639 7.25122
#
# Compressibility (1/GPa) = 0.01678103
#
# Stress axis : x y z
#
# Youngs Moduli (GPa) = 106.01944 84.84106 72.81133
#
# Poissons Ratio (x) = 0.30404 0.18165
# Poissons Ratio (y) = 0.37994 0.21898
# Poissons Ratio (z) = 0.26450 0.25516
#
# Static dielectric constant tensor:
#      x y z
#    x 3.559120 0.000000 0.000000 
#    y 0.000000 3.177470 0.000000 
#    z 0.000000 0.000000 3.648860 
# 
# 
# High freq. dielectric constant tensor:
#      x y z
#    x 1.758160 0.000000 0.000000 
#    y 0.000000 1.706750 0.000000 
#    z 0.000000 0.000000 1.753280 
# 
# From -- ./inp_files/19253.got.cif
#   From: 2010.03.12/outbox.cif.g09.slc.cpg/sg40_10_cif.got.tgz:19253.got - 2010.04.14 01:38:03.
