data_PCOD8184847
_publ_section_title
;
Structure prediction by ZEFSAII (Michael W. Deem and Ramdas Pophale) SiO2 
 PCOD8184847
Probable space group: A B A 2
;
_chemical_formula_sum "Si O2"
_cell_formula_units_Z 64
_cell_length_a 17.185516
_cell_length_b 14.253407
_cell_length_c 14.256423
_cell_angle_alpha 90.000000
_cell_angle_beta 90.000000
_cell_angle_gamma 90.000000
_cell_volume 3492.141523
_symmetry_space_group_name_H-M "A B A 2"
_symmetry_group_IT_number 41
_symmetry_cell_setting 'orthorhombic'
loop_
_space_group_symop_operation_xyz
x,y,z
-x,-y,z
1/2-x,y,1/2+z
1/2+x,-y,1/2+z
x,1/2+y,1/2+z
-x,1/2-y,1/2+z
1/2-x,1/2+y,z
1/2+x,1/2-y,z
loop_
_atom_site_type_symbol
_atom_site_label
_atom_site_fract_x
_atom_site_fract_y
_atom_site_fract_z
Si Si1 0.183832 0.570771 0.817490
Si Si2 0.423308 0.693745 0.443416
Si Si3 0.172321 0.321191 0.567755
Si Si4 0.577842 0.550746 0.199777
Si Si5 0.919466 0.202587 0.351271
Si Si6 0.174718 0.167716 0.721100
Si Si7 0.313392 0.417781 0.469902
Si Si8 0.579548 0.458921 0.595734
O O1 0.117851 0.635183 0.862349
O O2 0.146344 0.521636 0.726525
O O3 0.252922 0.637619 0.784063
O O4 0.215085 0.493990 0.892616
O O5 0.366159 0.776692 0.475394
O O6 0.503923 0.737220 0.405794
O O7 0.443659 0.629462 0.532137
O O8 0.107039 0.384898 0.615630
O O9 0.201926 0.241064 0.640469
O O10 0.242875 0.386221 0.535417
O O11 0.500000 0.500000 0.164464
O O12 0.556959 0.610817 0.291867
O O13 0.890798 0.286583 0.286328
O O14 0.849643 0.174134 0.421104
O O15 0.137199 0.074098 0.677634
O O16 0.379454 0.461582 0.534910
O O17 0.500000 0.500000 0.639382
#
# Coordination Sequence:
#
# PCOD8184847 Si02
#       8
#     8   8   8   8   8   8   8   8
#     4  10  20  36  62  80 105 145 186 218 263 329
#     4  10  19  36  59  80 108 145 187 219 261 322
#     4  10  22  38  52  84 117 137 174 232 275 313
#     4  10  19  36  59  80 108 145 187 219 261 322
#     4  10  19  36  59  80 108 145 187 219 261 322
#     4  10  22  38  52  84 117 137 174 232 275 313
#     4  10  20  36  62  80 105 145 186 218 263 329
#     4  10  19  36  59  80 108 145 187 219 261 322
#
# _framework density 18.326862999999999
#
# number of rings (size 3 to 8) (size 9 to 14) (size 15 to 20)
#    0.000    2.000    2.500    1.500    0.000    0.000 
#    9.000    0.000    0.000    0.000    0.000    0.000 
#    0.000    0.000    0.000    0.000    0.000    0.000 
#
# Total GULP energy -396903.376202 kJ/mol
# GULP energy per Si atom -12403.230506 kJ/mol
# Density = 1.828515 g / cm^3
# Si number density = 18.326863 Si / 1000 Ang^3
#
#
#
# Elastic Constant Matrix: (Units=GPa)
#
#
# Indices 1 2 3 4 5 6 
#
# 1 82.9719 23.2921 23.7292 0.0000 0.0000 0.0000
# 2 23.2921 55.9881 20.3210 0.0000 0.0000 0.0000
# 3 23.7292 20.3210 55.8968 0.0000 0.0000 0.0000
# 4 0.0000 0.0000 0.0000 19.5365 0.0000 0.0000
# 5 0.0000 0.0000 0.0000 0.0000 24.2865 0.0000
# 6 0.0000 0.0000 0.0000 0.0000 0.0000 23.6436
#
#
#
# Elastic Compliance Matrix: (Units=1/GPa)
#
#
# Indices 1 2 3 4 5 6 
#
# 1 0.014604 -0.004407 -0.004598 0.000000 0.000000 0.000000
# 2 -0.004407 0.021906 -0.006093 0.000000 0.000000 0.000000
# 3 -0.004598 -0.006093 0.022057 0.000000 0.000000 0.000000
# 4 0.000000 0.000000 0.000000 0.051186 0.000000 0.000000
# 5 0.000000 0.000000 0.000000 0.000000 0.041175 0.000000
# 6 0.000000 0.000000 0.000000 0.000000 0.000000 0.042295
#
#
# Mechanical properties :
#
#
# Convention : Reuss Voigt Hill
#
# Bulk Modulus (GPa) = 35.24605 36.61571 35.93088
# Shear Modulus (GPa) = 21.47070 21.99428 21.73249
#
# Velocity S-wave (km/s) = 3.42649 3.46802 3.44732
# Velocity P-wave (km/s) = 5.91000 6.00490 5.95764
#
# Compressibility (1/GPa) = 0.02837198
#
# Stress axis : x y z
#
# Youngs Moduli (GPa) = 68.47299 45.65007 45.33714
#
# Poissons Ratio (x) = 0.20118 0.20844
# Poissons Ratio (y) = 0.30176 0.27624
# Poissons Ratio (z) = 0.31482 0.27814
#
# Static dielectric constant tensor:
#      x y z
#    x 3.176380 0.000000 0.000000 
#    y 0.000000 3.344050 0.000000 
#    z 0.000000 0.000000 3.333280 
# 
# 
# High freq. dielectric constant tensor:
#      x y z
#    x 1.709540 0.000000 0.000000 
#    y 0.000000 1.704870 0.000000 
#    z 0.000000 0.000000 1.704620 
# 
# From -- ./inp_files/6049.got.cif
#   From: 2010.03.12/outbox.cif.g09.slc.cpg/sg41_4_cif.got.tgz:6049.got - 2010.04.14 01:55:53.
