data_PCOD8184060
_publ_section_title
;
Structure prediction by ZEFSAII (Michael W. Deem and Ramdas Pophale) SiO2 
 PCOD8184060
Probable space group: A M A 2
;
_chemical_formula_sum "Si O2"
_cell_formula_units_Z 40
_cell_length_a 8.468527
_cell_length_b 29.652089
_cell_length_c 7.622660
_cell_angle_alpha 90.000000
_cell_angle_beta 90.000000
_cell_angle_gamma 90.000000
_cell_volume 1914.122466
_symmetry_space_group_name_H-M "A M A 2"
_symmetry_group_IT_number 40
_symmetry_cell_setting 'orthorhombic'
loop_
_space_group_symop_operation_xyz
x,y,z
-x,-y,z
1/2-x,y,z
1/2+x,-y,z
x,1/2+y,1/2+z
-x,1/2-y,1/2+z
1/2-x,1/2+y,1/2+z
1/2+x,1/2-y,1/2+z
loop_
_atom_site_type_symbol
_atom_site_label
_atom_site_fract_x
_atom_site_fract_y
_atom_site_fract_z
Si Si1 0.934727 0.299513 0.928060
Si Si2 0.933880 0.887091 0.042969
Si Si3 0.064888 0.390056 0.931013
Si Si4 0.936922 0.450543 0.225239
Si Si5 0.429912 0.296086 0.560470
O O1 0.750000 0.296816 0.878080
O O2 0.051017 0.303376 0.765001
O O3 0.991881 0.254701 0.027713
O O4 0.973468 0.347029 0.022369
O O5 0.750000 0.891474 0.080889
O O6 0.021006 0.897880 0.226435
O O7 0.970978 0.836274 0.969589
O O8 0.991451 0.921149 0.892930
O O9 0.250000 0.382539 0.946786
O O10 0.013830 0.433058 0.044815
O O11 0.750000 0.450066 0.203900
O O12 0.000000 0.500000 0.262602
O O13 0.250000 0.301075 0.500398
#
# Coordination Sequence:
#
# PCOD8184060 Si02
#       5
#     8   8   8   8   8
#     4  10  21  36  55  84 120 159 203 249 299 362
#     4  10  22  41  64  89 124 163 204 257 310 367
#     4  11  23  40  64  91 125 165 205 255 308 369
#     4  11  25  44  67  95 123 160 207 258 313 370
#     4  10  21  35  55  85 118 157 203 247 300 363
#
# _framework density 20.897304999999999
#
# number of rings (size 3 to 8) (size 9 to 14) (size 15 to 20)
#    0.000    1.600    0.000    6.600    2.800    7.200 
#    0.000    2.000    0.000    0.000    0.000    0.000 
#    0.000    0.000    0.000    0.000    0.000    0.000 
#
# Total GULP energy -247891.013444 kJ/mol
# GULP energy per Si atom -12394.550672 kJ/mol
# Density = 2.084974 g / cm^3
# Si number density = 20.897305 Si / 1000 Ang^3
#
#
#
# Elastic Constant Matrix: (Units=GPa)
#
#
# Indices 1 2 3 4 5 6 
#
# 1 88.0408 33.5097 32.8049 0.0000 0.0000 0.0000
# 2 33.5097 130.1089 38.0566 0.0000 0.0000 0.0000
# 3 32.8049 38.0566 68.1643 0.0000 0.0000 0.0000
# 4 0.0000 0.0000 0.0000 11.7618 0.0000 0.0000
# 5 0.0000 0.0000 0.0000 0.0000 13.0517 0.0000
# 6 0.0000 0.0000 0.0000 0.0000 0.0000 37.5079
#
#
#
# Elastic Compliance Matrix: (Units=1/GPa)
#
#
# Indices 1 2 3 4 5 6 
#
# 1 0.014259 -0.001990 -0.005751 0.000000 0.000000 0.000000
# 2 -0.001990 0.009464 -0.004326 0.000000 0.000000 0.000000
# 3 -0.005751 -0.004326 0.019853 0.000000 0.000000 0.000000
# 4 0.000000 0.000000 0.000000 0.085021 0.000000 0.000000
# 5 0.000000 0.000000 0.000000 0.000000 0.076618 0.000000
# 6 0.000000 0.000000 0.000000 0.000000 0.000000 0.026661
#
#
# Mechanical properties :
#
#
# Convention : Reuss Voigt Hill
#
# Bulk Modulus (GPa) = 51.43599 55.00625 53.22112
# Shear Modulus (GPa) = 19.04826 24.59380 21.82103
#
# Velocity S-wave (km/s) = 3.02241 3.43430 3.23492
# Velocity P-wave (km/s) = 6.07018 6.48885 6.28301
#
# Compressibility (1/GPa) = 0.01944164
#
# Stress axis : x y z
#
# Youngs Moduli (GPa) = 70.13224 105.66623 50.36926
#
# Poissons Ratio (x) = 0.21030 0.28968
# Poissons Ratio (y) = 0.13958 0.21789
# Poissons Ratio (z) = 0.40334 0.45710
#
# Static dielectric constant tensor:
#      x y z
#    x 3.688460 0.000000 0.000000 
#    y 0.000000 4.490730 0.000000 
#    z 0.000000 0.000000 3.642700 
# 
# 
# High freq. dielectric constant tensor:
#      x y z
#    x 1.824060 0.000000 0.000000 
#    y 0.000000 1.832300 0.000000 
#    z 0.000000 0.000000 1.803860 
# 
# From -- ./inp_files/4363.got.cif
#   From: 2010.03.12/outbox.cif.g09.slc.cpg/sg40_3_cif.got.tgz:4363.got - 2010.04.14 01:38:03.
