data_PCOD8184461
_publ_section_title
;
Structure prediction by ZEFSAII (Michael W. Deem and Ramdas Pophale) SiO2 
 PCOD8184461
Probable space group: A M A 2
;
_chemical_formula_sum "Si O2"
_cell_formula_units_Z 36
_cell_length_a 13.976779
_cell_length_b 5.073142
_cell_length_c 20.607946
_cell_angle_alpha 90.000000
_cell_angle_beta 90.000000
_cell_angle_gamma 90.000000
_cell_volume 1461.230823
_symmetry_space_group_name_H-M "A M A 2"
_symmetry_group_IT_number 40
_symmetry_cell_setting 'orthorhombic'
loop_
_space_group_symop_operation_xyz
x,y,z
-x,-y,z
1/2-x,y,z
1/2+x,-y,z
x,1/2+y,1/2+z
-x,1/2-y,1/2+z
1/2-x,1/2+y,1/2+z
1/2+x,1/2-y,1/2+z
loop_
_atom_site_type_symbol
_atom_site_label
_atom_site_fract_x
_atom_site_fract_y
_atom_site_fract_z
Si Si1 0.142985 0.792061 0.492360
Si Si2 0.643334 0.374241 0.213608
Si Si3 0.899133 0.380010 0.633730
Si Si4 0.500000 0.500000 0.314935
Si Si5 0.634575 0.205957 0.918055
O O1 0.250000 0.808579 0.467129
O O2 0.146332 0.741052 0.569064
O O3 0.095857 0.553212 0.454196
O O4 0.097818 0.066621 0.467702
O O5 0.750000 0.445868 0.238363
O O6 0.595759 0.633031 0.181594
O O7 0.571784 0.311547 0.273082
O O8 0.657100 0.124502 0.165681
O O9 0.000000 0.500000 0.614889
O O10 0.570569 0.703307 0.352905
O O11 0.750000 0.212396 0.904206
#
# Coordination Sequence:
#
# PCOD8184461 Si02
#       5
#     8   8   8   4   8
#     4  10  22  43  70 102 138 180 233 295 368 431
#     4  12  26  46  74 106 148 196 242 305 371 435
#     4  12  24  46  73 112 144 186 242 308 373 444
#     4  12  26  48  68 106 148 194 256 292 350 438
#     4  10  24  44  69 100 139 189 238 294 358 425
#
# _framework density 24.636762999999998
#
# number of rings (size 3 to 8) (size 9 to 14) (size 15 to 20)
#    0.000    0.889    2.222    4.000    1.556    6.222 
#    0.000    4.444    0.000    0.000    0.000    0.000 
#    0.000    0.000    0.000    0.000    0.000    0.000 
#
# Total GULP energy -223019.768306 kJ/mol
# GULP energy per Si atom -12389.987128 kJ/mol
# Density = 2.458069 g / cm^3
# Si number density = 24.636763 Si / 1000 Ang^3
#
#
#
# Elastic Constant Matrix: (Units=GPa)
#
#
# Indices 1 2 3 4 5 6 
#
# 1 105.1190 30.1300 56.0833 0.0000 0.0000 0.0000
# 2 30.1300 182.0451 61.3543 0.0000 0.0000 0.0000
# 3 56.0833 61.3543 132.7230 0.0000 0.0000 0.0000
# 4 0.0000 0.0000 0.0000 34.4182 0.0000 0.0000
# 5 0.0000 0.0000 0.0000 0.0000 66.7103 0.0000
# 6 0.0000 0.0000 0.0000 0.0000 0.0000 5.3022
#
#
#
# Elastic Compliance Matrix: (Units=1/GPa)
#
#
# Indices 1 2 3 4 5 6 
#
# 1 0.012299 -0.000336 -0.005042 0.000000 0.000000 0.000000
# 2 -0.000336 0.006516 -0.002870 0.000000 0.000000 0.000000
# 3 -0.005042 -0.002870 0.010992 0.000000 0.000000 0.000000
# 4 0.000000 0.000000 0.000000 0.029054 0.000000 0.000000
# 5 0.000000 0.000000 0.000000 0.000000 0.014990 0.000000
# 6 0.000000 0.000000 0.000000 0.000000 0.000000 0.188599
#
#
# Mechanical properties :
#
#
# Convention : Reuss Voigt Hill
#
# Bulk Modulus (GPa) = 75.12735 79.44693 77.28714
# Shear Modulus (GPa) = 17.64389 39.44078 28.54234
#
# Velocity S-wave (km/s) = 2.67902 4.00545 3.40741
# Velocity P-wave (km/s) = 6.33480 7.32863 6.84977
#
# Compressibility (1/GPa) = 0.01331073
#
# Stress axis : x y z
#
# Youngs Moduli (GPa) = 81.30542 153.46554 90.97824
#
# Poissons Ratio (x) = 0.05163 0.45868
# Poissons Ratio (y) = 0.02736 0.26111
# Poissons Ratio (z) = 0.40991 0.44046
#
# Static dielectric constant tensor:
#      x y z
#    x 4.457220 0.000000 0.000000 
#    y 0.000000 4.610330 0.000000 
#    z 0.000000 0.000000 4.337380 
# 
# 
# High freq. dielectric constant tensor:
#      x y z
#    x 2.002010 0.000000 0.000000 
#    y 0.000000 1.980730 0.000000 
#    z 0.000000 0.000000 1.969930 
# 
# From -- ./inp_files/22946.got.cif
#   From: 2010.03.12/outbox.cif.g09.slc.cpg/sg40_12_cif.got.tgz:22946.got - 2010.04.14 01:38:03.
