data_PCOD8184311
_publ_section_title
;
Structure prediction by ZEFSAII (Michael W. Deem and Ramdas Pophale) SiO2 
 PCOD8184311
Probable space group: A M A 2
;
_chemical_formula_sum "Si O2"
_cell_formula_units_Z 60
_cell_length_a 20.709953
_cell_length_b 8.759654
_cell_length_c 17.455756
_cell_angle_alpha 90.000000
_cell_angle_beta 90.000000
_cell_angle_gamma 90.000000
_cell_volume 3166.684003
_symmetry_space_group_name_H-M "A M A 2"
_symmetry_group_IT_number 40
_symmetry_cell_setting 'orthorhombic'
loop_
_space_group_symop_operation_xyz
x,y,z
-x,-y,z
1/2-x,y,z
1/2+x,-y,z
x,1/2+y,1/2+z
-x,1/2-y,1/2+z
1/2-x,1/2+y,1/2+z
1/2+x,1/2-y,1/2+z
loop_
_atom_site_type_symbol
_atom_site_label
_atom_site_fract_x
_atom_site_fract_y
_atom_site_fract_z
Si Si1 0.897050 0.545463 0.420830
Si Si2 0.000000 0.500000 0.042251
Si Si3 0.175340 0.407048 0.266939
Si Si4 0.601214 0.368242 0.156410
Si Si5 0.446352 0.387054 0.759743
Si Si6 0.822875 0.937751 0.221783
Si Si7 0.322808 0.884810 0.073308
Si Si8 0.477867 0.246943 0.918079
O O1 0.844532 0.571618 0.355022
O O2 0.868154 0.587451 0.502109
O O3 0.918304 0.369436 0.425144
O O4 0.956484 0.655969 0.405028
O O5 0.061391 0.538404 0.094061
O O6 0.019207 0.353139 0.992450
O O7 0.250000 0.450176 0.259104
O O8 0.133757 0.516993 0.214819
O O9 0.161397 0.237144 0.237929
O O10 0.553236 0.260541 0.205198
O O11 0.656498 0.270129 0.115544
O O12 0.500000 0.500000 0.723420
O O13 0.374900 0.459711 0.766347
O O14 0.467804 0.351847 0.845085
O O15 0.750000 0.979451 0.250086
O O16 0.829000 0.971714 0.131099
O O17 0.250000 0.864174 0.044347
#
# Coordination Sequence:
#
# PCOD8184311 Si02
#       8
#     8   4   8   8   8   8   8   8
#     4  11  23  41  63  90 123 167 204 253 314 373
#     4  12  26  40  62  90 128 162 206 256 316 366
#     4  11  23  41  65  94 125 160 206 258 309 372
#     4  11  25  39  63  97 119 164 205 262 309 366
#     4  11  22  40  65  90 124 166 207 255 313 369
#     4   9  22  40  63  91 127 165 208 258 310 371
#     4  10  21  43  64  88 124 165 207 249 306 374
#     4  11  24  41  59  89 129 159 205 260 310 365
#
# _framework density 18.947264000000001
#
# number of rings (size 3 to 8) (size 9 to 14) (size 15 to 20)
#    0.000    1.333    3.333    1.600    5.600    1.600 
#    0.000    0.000    0.000    0.800    0.000    0.000 
#    0.000    0.000    0.000    0.000    0.000    0.000 
#
# Total GULP energy -372115.707496 kJ/mol
# GULP energy per Si atom -12403.856917 kJ/mol
# Density = 1.890414 g / cm^3
# Si number density = 18.947264 Si / 1000 Ang^3
#
#
#
# Elastic Constant Matrix: (Units=GPa)
#
#
# Indices 1 2 3 4 5 6 
#
# 1 85.3785 38.3919 32.0436 0.0000 0.0000 0.0000
# 2 38.3919 102.6162 37.9055 0.0000 0.0000 0.0000
# 3 32.0436 37.9055 92.6181 0.0000 0.0000 0.0000
# 4 0.0000 0.0000 0.0000 31.5706 0.0000 0.0000
# 5 0.0000 0.0000 0.0000 0.0000 69.0336 0.0000
# 6 0.0000 0.0000 0.0000 0.0000 0.0000 30.2165
#
#
#
# Elastic Compliance Matrix: (Units=1/GPa)
#
#
# Indices 1 2 3 4 5 6 
#
# 1 0.014935 -0.004334 -0.003393 0.000000 0.000000 0.000000
# 2 -0.004334 0.012738 -0.003714 0.000000 0.000000 0.000000
# 3 -0.003393 -0.003714 0.013491 0.000000 0.000000 0.000000
# 4 0.000000 0.000000 0.000000 0.031675 0.000000 0.000000
# 5 0.000000 0.000000 0.000000 0.000000 0.014486 0.000000
# 6 0.000000 0.000000 0.000000 0.000000 0.000000 0.033094
#
#
# Mechanical properties :
#
#
# Convention : Reuss Voigt Hill
#
# Bulk Modulus (GPa) = 54.69954 55.25499 54.97727
# Shear Modulus (GPa) = 33.46798 37.64894 35.55846
#
# Velocity S-wave (km/s) = 4.20739 4.46246 4.33680
# Velocity P-wave (km/s) = 7.24809 7.46841 7.35908
#
# Compressibility (1/GPa) = 0.01828169
#
# Stress axis : x y z
#
# Youngs Moduli (GPa) = 66.95654 78.50220 74.12342
#
# Poissons Ratio (x) = 0.34024 0.25152
# Poissons Ratio (y) = 0.29020 0.27529
# Poissons Ratio (z) = 0.22720 0.29155
#
# Static dielectric constant tensor:
#      x y z
#    x 3.422860 0.000000 0.000000 
#    y 0.000000 3.720450 0.000000 
#    z 0.000000 0.000000 3.465940 
# 
# 
# High freq. dielectric constant tensor:
#      x y z
#    x 1.745870 0.000000 0.000000 
#    y 0.000000 1.747240 0.000000 
#    z 0.000000 0.000000 1.740130 
# 
# From -- ./inp_files/21115.got.cif
#   From: 2010.03.12/outbox.cif.g09.slc.cpg/sg40_11_cif.got.tgz:21115.got - 2010.04.14 01:38:03.
