data_PCOD8184767
_publ_section_title
;
Structure prediction by ZEFSAII (Michael W. Deem and Ramdas Pophale) SiO2 
 PCOD8184767
Probable space group: A B A 2
;
_chemical_formula_sum "Si O2"
_cell_formula_units_Z 48
_cell_length_a 8.669885
_cell_length_b 27.189115
_cell_length_c 11.116976
_cell_angle_alpha 90.000000
_cell_angle_beta 90.000000
_cell_angle_gamma 90.000000
_cell_volume 2620.565846
_symmetry_space_group_name_H-M "A B A 2"
_symmetry_group_IT_number 41
_symmetry_cell_setting 'orthorhombic'
loop_
_space_group_symop_operation_xyz
x,y,z
-x,-y,z
1/2-x,y,1/2+z
1/2+x,-y,1/2+z
x,1/2+y,1/2+z
-x,1/2-y,1/2+z
1/2-x,1/2+y,z
1/2+x,1/2-y,z
loop_
_atom_site_type_symbol
_atom_site_label
_atom_site_fract_x
_atom_site_fract_y
_atom_site_fract_z
Si Si1 0.042193 0.187525 0.543100
Si Si2 0.824314 0.486077 0.812179
Si Si3 0.542193 0.312475 0.819720
Si Si4 0.250000 0.267890 0.931410
Si Si5 0.750001 0.391585 0.431411
Si Si6 0.324315 0.513923 0.050644
O O1 0.047761 0.172923 0.681410
O O2 0.150571 0.234915 0.523000
O O3 0.104096 0.141610 0.466807
O O4 0.865976 0.197932 0.506503
O O5 0.804038 0.426847 0.821785
O O6 0.749999 0.512056 0.931411
O O7 0.752947 0.502348 0.681411
O O8 0.000000 0.500000 0.813816
O O9 0.365976 0.302068 0.856317
O O10 0.650572 0.265085 0.839822
O O11 0.604094 0.358390 0.896012
O O12 0.804038 0.426847 0.541037
O O13 0.500000 0.500000 0.049007
#
# Coordination Sequence:
#
# PCOD8184767 Si02
#       6
#     8   8   8   8   8   8
#     4  10  18  34  54  76 108 140 178 223 267 315
#     4   9  19  37  58  81 108 140 179 222 272 324
#     4  10  18  34  54  76 108 140 178 223 267 315
#     4   9  20  32  51  80 104 140 183 214 266 321
#     4   9  20  34  55  78 106 140 179 220 272 315
#     4   9  19  37  58  81 108 140 179 222 272 324
#
# _framework density 18.316655000000001
#
# number of rings (size 3 to 8) (size 9 to 14) (size 15 to 20)
#    1.000    1.667    0.000    2.000    0.000    0.667 
#    3.000    5.000    0.000    0.000    0.000    0.000 
#    0.000    0.000    0.000    0.000    0.000    0.000 
#
# Total GULP energy -297322.423387 kJ/mol
# GULP energy per Si atom -12388.434308 kJ/mol
# Density = 1.827497 g / cm^3
# Si number density = 18.316655 Si / 1000 Ang^3
#
#
#
# Elastic Constant Matrix: (Units=GPa)
#
#
# Indices 1 2 3 4 5 6 
#
# 1 101.7572 24.3635 36.2460 0.0000 0.0000 0.0000
# 2 24.3635 39.3411 0.0813 0.0000 0.0000 0.0000
# 3 36.2460 0.0813 148.9255 0.0000 0.0000 0.0000
# 4 0.0000 0.0000 0.0000 52.7385 0.0000 0.0000
# 5 0.0000 0.0000 0.0000 0.0000 15.6306 0.0000
# 6 0.0000 0.0000 0.0000 0.0000 0.0000 14.6141
#
#
#
# Elastic Compliance Matrix: (Units=1/GPa)
#
#
# Indices 1 2 3 4 5 6 
#
# 1 0.012842 -0.007946 -0.003121 0.000000 0.000000 0.000000
# 2 -0.007946 0.030336 0.001917 0.000000 0.000000 0.000000
# 3 -0.003121 0.001917 0.007473 0.000000 0.000000 0.000000
# 4 0.000000 0.000000 0.000000 0.018961 0.000000 0.000000
# 5 0.000000 0.000000 0.000000 0.000000 0.063977 0.000000
# 6 0.000000 0.000000 0.000000 0.000000 0.000000 0.068427
#
#
# Mechanical properties :
#
#
# Convention : Reuss Voigt Hill
#
# Bulk Modulus (GPa) = 30.91104 45.71173 38.31139
# Shear Modulus (GPa) = 21.63569 31.88551 26.76060
#
# Velocity S-wave (km/s) = 3.44059 4.17681 3.82645
# Velocity P-wave (km/s) = 5.71805 6.94777 6.36269
#
# Compressibility (1/GPa) = 0.03235090
#
# Stress axis : x y z
#
# Youngs Moduli (GPa) = 77.87190 32.96440 133.80897
#
# Poissons Ratio (x) = 0.26194 0.41763
# Poissons Ratio (y) = 0.61879 -0.25657
# Poissons Ratio (z) = 0.24305 -0.06321
#
# Static dielectric constant tensor:
#      x y z
#    x 3.266420 0.000000 0.000000 
#    y 0.000000 3.175480 0.000000 
#    z 0.000000 0.000000 3.741540 
# 
# 
# High freq. dielectric constant tensor:
#      x y z
#    x 1.707130 0.000000 0.000000 
#    y 0.000000 1.686840 0.000000 
#    z 0.000000 0.000000 1.717590 
# 
# From -- ./inp_files/4534.got.cif
#   From: 2010.03.12/outbox.cif.g09.slc.cpg/sg41_3_cif.got.tgz:4534.got - 2010.04.14 01:55:53.
