data_PCOD8184618
_publ_section_title
;
Structure prediction by ZEFSAII (Michael W. Deem and Ramdas Pophale) SiO2 
 PCOD8184618
Probable space group: A M A 2
;
_chemical_formula_sum "Si O2"
_cell_formula_units_Z 64
_cell_length_a 8.497464
_cell_length_b 30.849473
_cell_length_c 11.953652
_cell_angle_alpha 90.000000
_cell_angle_beta 90.000000
_cell_angle_gamma 90.000000
_cell_volume 3133.557664
_symmetry_space_group_name_H-M "A M A 2"
_symmetry_group_IT_number 40
_symmetry_cell_setting 'orthorhombic'
loop_
_space_group_symop_operation_xyz
x,y,z
-x,-y,z
1/2-x,y,z
1/2+x,-y,z
x,1/2+y,1/2+z
-x,1/2-y,1/2+z
1/2-x,1/2+y,1/2+z
1/2+x,1/2-y,1/2+z
loop_
_atom_site_type_symbol
_atom_site_label
_atom_site_fract_x
_atom_site_fract_y
_atom_site_fract_z
Si Si1 0.066759 0.703727 0.659360
Si Si2 0.562608 0.873645 0.751194
Si Si3 0.934624 0.454383 0.109838
Si Si4 0.431104 0.328750 0.882120
Si Si5 0.563357 0.455484 0.642467
Si Si6 0.067577 0.206080 0.602295
Si Si7 0.063311 0.626321 0.502611
Si Si8 0.566888 0.571109 0.875071
O O1 0.250000 0.696156 0.685527
O O2 0.006501 0.669429 0.566755
O O3 0.965988 0.698370 0.771161
O O4 0.039110 0.751611 0.613432
O O5 0.750000 0.875595 0.750617
O O6 0.493802 0.915212 0.684493
O O7 0.506692 0.829673 0.690670
O O8 0.493877 0.873468 0.876996
O O9 0.750000 0.455127 0.123749
O O10 0.000000 0.500000 0.154950
O O11 0.976528 0.447855 0.980824
O O12 0.250000 0.322022 0.917326
O O13 0.471457 0.378512 0.858845
O O14 0.545802 0.312420 0.978593
O O15 0.500000 0.500000 0.587398
O O16 0.750000 0.454993 0.648051
O O17 0.499018 0.415843 0.567573
O O18 0.493484 0.453391 0.766350
O O19 0.250000 0.217574 0.621564
O O20 0.250000 0.624985 0.496409
O O21 0.750000 0.562059 0.892715
#
# Coordination Sequence:
#
# PCOD8184618 Si02
#       8
#     8   8   8   8   8   8   8   8
#     4  11  23  40  64  93 125 161 205 251 303 366
#     4   9  20  39  61  85 118 160 201 243 298 362
#     4  11  22  38  61  88 120 157 200 247 302 365
#     4  11  23  40  64  91 125 162 203 255 308 361
#     4  11  22  38  61  88 120 157 200 247 302 365
#     4  11  23  40  64  93 125 161 205 251 303 366
#     4   9  20  39  61  85 118 160 201 243 298 362
#     4  11  22  38  61  89 122 156 200 253 303 355
#
# _framework density 20.42407
#
# number of rings (size 3 to 8) (size 9 to 14) (size 15 to 20)
#    0.000    1.500    2.500    2.625    1.750    1.500 
#    0.000    0.000    0.000    8.250    0.000    0.000 
#    0.000    0.000    0.000    0.000    0.000    0.000 
#
# Total GULP energy -396960.451086 kJ/mol
# GULP energy per Si atom -12405.014096 kJ/mol
# Density = 2.037758 g / cm^3
# Si number density = 20.424070 Si / 1000 Ang^3
#
#
#
# Elastic Constant Matrix: (Units=GPa)
#
#
# Indices 1 2 3 4 5 6 
#
# 1 38.2673 26.3886 6.9987 0.0000 0.0000 0.0000
# 2 26.3886 157.6754 59.8771 0.0000 0.0000 0.0000
# 3 6.9987 59.8771 140.6432 0.0000 0.0000 0.0000
# 4 0.0000 0.0000 0.0000 -30.3144 0.0000 0.0000
# 5 0.0000 0.0000 0.0000 0.0000 10.8349 0.0000
# 6 0.0000 0.0000 0.0000 0.0000 0.0000 32.2122
#
#
#
# Elastic Compliance Matrix: (Units=1/GPa)
#
#
# Indices 1 2 3 4 5 6 
#
# 1 0.029609 -0.005244 0.000759 0.000000 0.000000 0.000000
# 2 -0.005244 0.008494 -0.003355 0.000000 0.000000 0.000000
# 3 0.000759 -0.003355 0.008501 0.000000 0.000000 0.000000
# 4 0.000000 0.000000 0.000000 -0.032988 0.000000 0.000000
# 5 0.000000 0.000000 0.000000 0.000000 0.092295 0.000000
# 6 0.000000 0.000000 0.000000 0.000000 0.000000 0.031044
#
#
# Mechanical properties :
#
#
# Convention : Reuss Voigt Hill
#
# Bulk Modulus (GPa) = 32.33725 58.12386 45.23056
# Shear Modulus (GPa) = 30.68565 18.76797 24.72681
#
# Velocity S-wave (km/s) = 3.88032 3.03465 3.48324
# Velocity P-wave (km/s) = 5.99526 6.38742 6.19444
#
# Compressibility (1/GPa) = 0.03092409
#
# Stress axis : x y z
#
# Youngs Moduli (GPa) = 33.77347 117.73213 117.63508
#
# Poissons Ratio (x) = 0.61734 -0.08928
# Poissons Ratio (y) = 0.17709 0.39469
# Poissons Ratio (z) = -0.02563 0.39502
#
# Static dielectric constant tensor:
#      x y z
#    x 3.421610 0.000000 0.000000 
#    y 0.000000 3.941670 0.000000 
#    z 0.000000 0.000000 3.776490 
# 
# 
# High freq. dielectric constant tensor:
#      x y z
#    x 1.779230 0.000000 0.000000 
#    y 0.000000 1.815690 0.000000 
#    z 0.000000 0.000000 1.799450 
# 
# From -- ./inp_files/10651.got.cif
#   From: 2010.03.12/outbox.cif.g09.slc.cpg/sg40_6_cif.got.tgz:10651.got - 2010.04.14 01:38:03.
