data_PCOD8184292
_publ_section_title
;
Structure prediction by ZEFSAII (Michael W. Deem and Ramdas Pophale) SiO2 
 PCOD8184292
Probable space group: A M A 2
;
_chemical_formula_sum "Si O2"
_cell_formula_units_Z 56
_cell_length_a 14.177480
_cell_length_b 13.091091
_cell_length_c 12.877896
_cell_angle_alpha 90.000000
_cell_angle_beta 90.000000
_cell_angle_gamma 90.000000
_cell_volume 2390.120509
_symmetry_space_group_name_H-M "A M A 2"
_symmetry_group_IT_number 40
_symmetry_cell_setting 'orthorhombic'
loop_
_space_group_symop_operation_xyz
x,y,z
-x,-y,z
1/2-x,y,z
1/2+x,-y,z
x,1/2+y,1/2+z
-x,1/2-y,1/2+z
1/2-x,1/2+y,1/2+z
1/2+x,1/2-y,1/2+z
loop_
_atom_site_type_symbol
_atom_site_label
_atom_site_fract_x
_atom_site_fract_y
_atom_site_fract_z
Si Si1 0.391691 0.513562 0.591900
Si Si2 0.503817 0.264987 0.298889
Si Si3 0.856842 0.078681 0.311213
Si Si4 0.642098 0.051304 0.533991
Si Si5 0.640250 0.944950 0.734633
Si Si6 0.643552 0.762303 0.117958
Si Si7 0.147035 0.380379 0.403411
O O1 0.500000 0.500000 0.572824
O O2 0.363838 0.493294 0.711257
O O3 0.361263 0.628120 0.560206
O O4 0.342995 0.432823 0.515920
O O5 0.564145 0.164302 0.314714
O O6 0.578205 0.350809 0.269548
O O7 0.428817 0.238623 0.211315
O O8 0.439156 0.298565 0.398391
O O9 0.750000 0.123958 0.318125
O O10 0.877064 0.012157 0.416359
O O11 0.750000 0.042411 0.564967
O O12 0.613773 0.171770 0.539118
O O13 0.595757 0.980670 0.623054
O O14 0.750000 0.911071 0.730818
O O15 0.624896 0.037632 0.813943
O O16 0.750000 0.744682 0.159498
O O17 0.250000 0.329191 0.383507
#
# Coordination Sequence:
#
# PCOD8184292 Si02
#       7
#     8   8   8   8   8   8   8
#     4  12  25  46  67 100 135 179 228 274 342 403
#     4  12  23  40  67 105 132 170 224 280 333 403
#     4  11  25  45  66  96 138 182 222 274 332 400
#     4   9  21  42  68  94 127 174 225 266 325 401
#     4  10  21  41  68 101 133 171 220 280 341 391
#     4  11  23  43  68  95 132 178 224 273 332 400
#     4  11  24  42  69  99 134 173 219 281 336 396
#
# _framework density 23.429781999999999
#
# number of rings (size 3 to 8) (size 9 to 14) (size 15 to 20)
#    0.000    1.143    2.857    3.429    4.000    0.000 
#    2.571    1.429    0.000    1.714    0.000    1.000 
#    0.000    0.000    0.000    0.000    0.000    0.000 
#
# Total GULP energy -347002.082041 kJ/mol
# GULP energy per Si atom -12392.931501 kJ/mol
# Density = 2.337645 g / cm^3
# Si number density = 23.429782 Si / 1000 Ang^3
#
#
#
# Elastic Constant Matrix: (Units=GPa)
#
#
# Indices 1 2 3 4 5 6 
#
# 1 125.2163 15.6868 1.2662 0.0000 0.0000 0.0000
# 2 15.6868 38.5615 -5.6711 0.0000 0.0000 0.0000
# 3 1.2662 -5.6711 107.6568 0.0000 0.0000 0.0000
# 4 0.0000 0.0000 0.0000 22.1743 0.0000 0.0000
# 5 0.0000 0.0000 0.0000 0.0000 52.2704 0.0000
# 6 0.0000 0.0000 0.0000 0.0000 0.0000 61.4792
#
#
#
# Elastic Compliance Matrix: (Units=1/GPa)
#
#
# Indices 1 2 3 4 5 6 
#
# 1 0.008424 -0.003468 -0.000282 0.000000 0.000000 0.000000
# 2 -0.003468 0.027563 0.001493 0.000000 0.000000 0.000000
# 3 -0.000282 0.001493 0.009371 0.000000 0.000000 0.000000
# 4 0.000000 0.000000 0.000000 0.045097 0.000000 0.000000
# 5 0.000000 0.000000 0.000000 0.000000 0.019131 0.000000
# 6 0.000000 0.000000 0.000000 0.000000 0.000000 0.016266
#
#
# Mechanical properties :
#
#
# Convention : Reuss Voigt Hill
#
# Bulk Modulus (GPa) = 24.48404 32.66647 28.57525
# Shear Modulus (GPa) = 34.72706 44.52829 39.62768
#
# Velocity S-wave (km/s) = 3.85408 4.36420 4.11705
# Velocity P-wave (km/s) = 5.50254 6.27436 5.90108
#
# Compressibility (1/GPa) = 0.04084294
#
# Stress axis : x y z
#
# Youngs Moduli (GPa) = 118.71538 36.28056 106.71537
#
# Poissons Ratio (x) = 0.12582 0.03007
# Poissons Ratio (y) = 0.41172 -0.15930
# Poissons Ratio (z) = 0.03345 -0.05416
#
# Static dielectric constant tensor:
#      x y z
#    x 4.643620 0.000000 0.000000 
#    y 0.000000 4.305450 0.000000 
#    z 0.000000 0.000000 4.326220 
# 
# 
# High freq. dielectric constant tensor:
#      x y z
#    x 1.953310 0.000000 0.000000 
#    y 0.000000 1.902030 0.000000 
#    z 0.000000 0.000000 1.926590 
# 
# From -- ./inp_files/12254.got.cif
#   From: 2010.03.12/outbox.cif.g09.slc.cpg/sg40_7_cif.got.tgz:12254.got - 2010.04.14 01:38:03.
