data_PCOD8184620
_publ_section_title
;
Structure prediction by ZEFSAII (Michael W. Deem and Ramdas Pophale) SiO2 
 PCOD8184620
Probable space group: A M A 2
;
_chemical_formula_sum "Si O2"
_cell_formula_units_Z 48
_cell_length_a 8.515360
_cell_length_b 9.084044
_cell_length_c 30.093330
_cell_angle_alpha 90.000000
_cell_angle_beta 90.000000
_cell_angle_gamma 90.000000
_cell_volume 2327.836587
_symmetry_space_group_name_H-M "A M A 2"
_symmetry_group_IT_number 40
_symmetry_cell_setting 'orthorhombic'
loop_
_space_group_symop_operation_xyz
x,y,z
-x,-y,z
1/2-x,y,z
1/2+x,-y,z
x,1/2+y,1/2+z
-x,1/2-y,1/2+z
1/2-x,1/2+y,1/2+z
1/2+x,1/2-y,1/2+z
loop_
_atom_site_type_symbol
_atom_site_label
_atom_site_fract_x
_atom_site_fract_y
_atom_site_fract_z
Si Si1 0.934223 0.155165 0.290520
Si Si2 0.435018 0.158540 0.386619
Si Si3 0.068500 0.342729 0.213796
Si Si4 0.065379 0.159799 0.964801
Si Si5 0.067954 0.160395 0.125187
Si Si6 0.934077 0.839699 0.545286
O O1 0.750000 0.140725 0.298450
O O2 0.014993 0.197665 0.336757
O O3 0.971136 0.280751 0.255161
O O4 0.000000 0.000000 0.272501
O O5 0.250000 0.153297 0.390307
O O6 0.499567 0.287543 0.417642
O O7 0.500000 0.000000 0.401818
O O8 0.250000 0.353737 0.227321
O O9 0.043073 0.241151 0.171482
O O10 0.000000 0.500000 0.201000
O O11 0.250000 0.149030 0.961773
O O12 0.000000 0.000000 0.977402
O O13 0.017711 0.276228 0.002021
O O14 0.250000 0.156677 0.110898
O O15 0.967478 0.238647 0.087442
O O16 0.000000 0.000000 0.131912
O O17 0.750000 0.847279 0.536110
O O18 0.000000 0.000000 0.555862
#
# Coordination Sequence:
#
# PCOD8184620 Si02
#       6
#     8   8   8   8   8   8
#     4  11  22  39  63  91 123 161 205 253 306 363
#     4  11  22  40  64  92 124 161 205 252 305 363
#     4  11  24  41  62  90 124 162 205 253 306 363
#     4  12  25  43  64  91 125 162 205 252 305 362
#     4  11  24  42  65  93 125 162 204 251 304 362
#     4  12  25  43  66  93 125 162 204 251 304 361
#
# _framework density 20.620004000000002
#
# number of rings (size 3 to 8) (size 9 to 14) (size 15 to 20)
#    0.000    0.667    0.000   10.000    0.000    6.000 
#    0.000    3.333    0.000    0.000    0.000    0.000 
#    0.000    0.000    0.000    0.000    0.000    0.000 
#
# Total GULP energy -297811.209369 kJ/mol
# GULP energy per Si atom -12408.800390 kJ/mol
# Density = 2.057307 g / cm^3
# Si number density = 20.620004 Si / 1000 Ang^3
#
#
#
# Elastic Constant Matrix: (Units=GPa)
#
#
# Indices 1 2 3 4 5 6 
#
# 1 171.8525 44.4628 40.4905 0.0000 0.0000 0.0000
# 2 44.4628 125.6961 41.2712 0.0000 0.0000 0.0000
# 3 40.4905 41.2712 86.2208 0.0000 0.0000 0.0000
# 4 0.0000 0.0000 0.0000 100.9500 0.0000 0.0000
# 5 0.0000 0.0000 0.0000 0.0000 258.0922 0.0000
# 6 0.0000 0.0000 0.0000 0.0000 0.0000 35.7457
#
#
#
# Elastic Compliance Matrix: (Units=1/GPa)
#
#
# Indices 1 2 3 4 5 6 
#
# 1 0.006807 -0.001612 -0.002425 0.000000 0.000000 0.000000
# 2 -0.001612 0.009821 -0.003944 0.000000 0.000000 0.000000
# 3 -0.002425 -0.003944 0.014625 0.000000 0.000000 0.000000
# 4 0.000000 0.000000 0.000000 0.009906 0.000000 0.000000
# 5 0.000000 0.000000 0.000000 0.000000 0.003875 0.000000
# 6 0.000000 0.000000 0.000000 0.000000 0.000000 0.027975
#
#
# Mechanical properties :
#
#
# Convention : Reuss Voigt Hill
#
# Bulk Modulus (GPa) = 65.39794 70.69096 68.04445
# Shear Modulus (GPa) = 53.15290 96.12724 74.64007
#
# Velocity S-wave (km/s) = 5.08265 6.83518 6.02300
# Velocity P-wave (km/s) = 8.13812 9.83107 9.02438
#
# Compressibility (1/GPa) = 0.01529100
#
# Stress axis : x y z
#
# Youngs Moduli (GPa) = 146.89967 101.82491 68.37592
#
# Poissons Ratio (x) = 0.16410 0.16584
# Poissons Ratio (y) = 0.23675 0.26968
# Poissons Ratio (z) = 0.35629 0.40160
#
# Static dielectric constant tensor:
#      x y z
#    x 3.849970 0.000000 0.000000 
#    y 0.000000 3.775260 0.000000 
#    z 0.000000 0.000000 3.807560 
# 
# 
# High freq. dielectric constant tensor:
#      x y z
#    x 1.829510 0.000000 0.000000 
#    y 0.000000 1.816120 0.000000 
#    z 0.000000 0.000000 1.819130 
# 
# From -- ./inp_files/26145.got.cif
#   From: 2010.03.12/outbox.cif.g09.slc.cpg/sg40_14_cif.got.tgz:26145.got - 2010.04.14 01:38:03.
