data_PCOD8184910
_publ_section_title
;
Structure prediction by ZEFSAII (Michael W. Deem and Ramdas Pophale) SiO2 
 PCOD8184910
Probable space group: A B A 2
;
_chemical_formula_sum "Si O2"
_cell_formula_units_Z 44
_cell_length_a 5.449943
_cell_length_b 21.728794
_cell_length_c 16.648206
_cell_angle_alpha 90.000000
_cell_angle_beta 90.000000
_cell_angle_gamma 90.000000
_cell_volume 1971.492021
_symmetry_space_group_name_H-M "A B A 2"
_symmetry_group_IT_number 41
_symmetry_cell_setting 'orthorhombic'
loop_
_space_group_symop_operation_xyz
x,y,z
-x,-y,z
1/2-x,y,1/2+z
1/2+x,-y,1/2+z
x,1/2+y,1/2+z
-x,1/2-y,1/2+z
1/2-x,1/2+y,z
1/2+x,1/2-y,z
loop_
_atom_site_type_symbol
_atom_site_label
_atom_site_fract_x
_atom_site_fract_y
_atom_site_fract_z
Si Si1 0.802469 0.779749 0.319240
Si Si2 0.643725 0.412452 0.804684
Si Si3 0.663910 0.095070 0.457705
Si Si4 0.718990 0.231372 0.498910
Si Si5 0.000000 0.500000 0.890653
Si Si6 0.000000 0.000000 0.672935
Si Si7 0.000000 0.500000 0.573093
O O1 0.552306 0.749807 0.282806
O O2 0.811976 0.851798 0.293705
O O3 0.802326 0.769877 0.415522
O O4 0.443309 0.392402 0.869784
O O5 0.791980 0.472229 0.833752
O O6 0.514212 0.436194 0.723650
O O7 0.755631 0.159097 0.491555
O O8 0.901305 0.052233 0.449896
O O9 0.472414 0.060733 0.516696
O O10 0.462123 0.244417 0.545797
O O11 0.748594 0.005655 0.623501
#
# Coordination Sequence:
#
# PCOD8184910 Si02
#       7
#     8   8   8   8   4   4   4
#     4  10  20  35  59 101 127 155 205 286 344 386
#     4  12  23  39  70  98 131 173 227 290 338 400
#     4  12  23  39  70  98 131 173 227 290 338 400
#     4  10  20  35  59 101 127 155 205 286 344 386
#     4  12  20  36  64 108 124 166 230 296 338 394
#     4  12  28  46  61  95 142 188 222 268 342 420
#     4  12  28  46  61  95 142 188 222 268 342 420
#
# _framework density 22.31812
#
# number of rings (size 3 to 8) (size 9 to 14) (size 15 to 20)
#    0.000    0.727    7.273    3.273    0.000    0.000 
#    0.000    0.000    0.000    6.545    0.000    0.000 
#    0.000    0.000    0.000    0.000    0.000    0.000 
#
# Total GULP energy -272726.995663 kJ/mol
# GULP energy per Si atom -12396.681621 kJ/mol
# Density = 2.226732 g / cm^3
# Si number density = 22.318120 Si / 1000 Ang^3
#
#
#
# Elastic Constant Matrix: (Units=GPa)
#
#
# Indices 1 2 3 4 5 6 
#
# 1 169.6510 28.0895 18.6998 0.0000 0.0000 0.0000
# 2 28.0895 121.6204 12.5310 0.0000 0.0000 0.0000
# 3 18.6998 12.5310 56.6363 0.0000 0.0000 0.0000
# 4 0.0000 0.0000 0.0000 7.8600 0.0000 0.0000
# 5 0.0000 0.0000 0.0000 0.0000 27.2565 0.0000
# 6 0.0000 0.0000 0.0000 0.0000 0.0000 38.9845
#
#
#
# Elastic Compliance Matrix: (Units=1/GPa)
#
#
# Indices 1 2 3 4 5 6 
#
# 1 0.006303 -0.001270 -0.001800 0.000000 0.000000 0.000000
# 2 -0.001270 0.008670 -0.001499 0.000000 0.000000 0.000000
# 3 -0.001800 -0.001499 0.018582 0.000000 0.000000 0.000000
# 4 0.000000 0.000000 0.000000 0.127226 0.000000 0.000000
# 5 0.000000 0.000000 0.000000 0.000000 0.036688 0.000000
# 6 0.000000 0.000000 0.000000 0.000000 0.000000 0.025651
#
#
# Mechanical properties :
#
#
# Convention : Reuss Voigt Hill
#
# Bulk Modulus (GPa) = 40.95461 51.83869 46.39665
# Shear Modulus (GPa) = 20.79871 34.05936 27.42904
#
# Velocity S-wave (km/s) = 3.05605 3.91075 3.50952
# Velocity P-wave (km/s) = 5.55363 6.60830 6.10378
#
# Compressibility (1/GPa) = 0.02441728
#
# Stress axis : x y z
#
# Youngs Moduli (GPa) = 158.64958 115.33845 53.81407
#
# Poissons Ratio (x) = 0.14652 0.09687
# Poissons Ratio (y) = 0.20154 0.08066
# Poissons Ratio (z) = 0.28558 0.17288
#
# Static dielectric constant tensor:
#      x y z
#    x 4.708650 0.000000 0.000000 
#    y 0.000000 4.173600 0.000000 
#    z 0.000000 0.000000 3.630670 
# 
# 
# High freq. dielectric constant tensor:
#      x y z
#    x 1.902000 0.000000 0.000000 
#    y 0.000000 1.891830 0.000000 
#    z 0.000000 0.000000 1.814140 
# 
# From -- ./inp_files/9418.got.cif
#   From: 2010.03.12/outbox.cif.g09.slc.cpg/sg41_5_cif.got.tgz:9418.got - 2010.04.14 01:55:53.
