data_PCOD8184403
_publ_section_title
;
Structure prediction by ZEFSAII (Michael W. Deem and Ramdas Pophale) SiO2 
 PCOD8184403
Probable space group: A M A 2
;
_chemical_formula_sum "Si O2"
_cell_formula_units_Z 64
_cell_length_a 8.662401
_cell_length_b 27.258374
_cell_length_c 13.032155
_cell_angle_alpha 90.000000
_cell_angle_beta 90.000000
_cell_angle_gamma 90.000000
_cell_volume 3077.191095
_symmetry_space_group_name_H-M "A M A 2"
_symmetry_group_IT_number 40
_symmetry_cell_setting 'orthorhombic'
loop_
_space_group_symop_operation_xyz
x,y,z
-x,-y,z
1/2-x,y,z
1/2+x,-y,z
x,1/2+y,1/2+z
-x,1/2-y,1/2+z
1/2-x,1/2+y,1/2+z
1/2+x,1/2-y,1/2+z
loop_
_atom_site_type_symbol
_atom_site_label
_atom_site_fract_x
_atom_site_fract_y
_atom_site_fract_z
Si Si1 0.567127 0.447779 0.578560
Si Si2 0.432074 0.122937 0.896809
Si Si3 0.567862 0.406843 0.795465
Si Si4 0.432083 0.947317 0.504826
Si Si5 0.927099 0.765838 0.929976
Si Si6 0.932208 0.127921 0.681717
Si Si7 0.428590 0.730225 0.118392
Si Si8 0.428495 0.205091 0.265262
O O1 0.500000 0.500000 0.548886
O O2 0.750000 0.449164 0.580468
O O3 0.509921 0.410753 0.490452
O O4 0.506283 0.431958 0.691052
O O5 0.250000 0.118170 0.877575
O O6 0.518752 0.106501 0.792552
O O7 0.478581 0.177794 0.928698
O O8 0.750000 0.413607 0.807358
O O9 0.486940 0.430810 0.892742
O O10 0.521360 0.350072 0.788077
O O11 0.250000 0.951584 0.502652
O O12 0.486949 0.909164 0.592097
O O13 0.500000 0.000000 0.533560
O O14 0.750000 0.759639 0.962975
O O15 0.039400 0.730894 0.997015
O O16 0.955640 0.743589 0.818281
O O17 0.750000 0.136200 0.677408
O O18 0.017098 0.179374 0.667174
O O19 0.250000 0.737528 0.143545
O O20 0.533663 0.778051 0.149307
O O21 0.250000 0.213529 0.292075
#
# Coordination Sequence:
#
# PCOD8184403 Si02
#       8
#     8   8   8   8   8   8   8   8
#     4  10  22  41  63  90 122 161 207 258 317 376
#     4  10  22  41  64  89 125 167 207 256 318 381
#     4  10  22  41  65  93 127 165 206 259 321 383
#     4  11  25  43  65  93 124 164 211 267 326 381
#     4  11  22  38  60  88 122 163 207 254 307 370
#     4  11  24  42  64  91 126 165 213 267 316 375
#     4  12  24  38  59  89 125 168 209 252 309 371
#     4  11  22  38  61  91 124 161 203 251 308 372
#
# _framework density 20.798189000000001
#
# number of rings (size 3 to 8) (size 9 to 14) (size 15 to 20)
#    0.000    1.250    1.250    4.500    0.000   10.000 
#    0.000    3.750    0.000    0.000    0.000    0.000 
#    0.000    0.000    0.000    0.000    0.000    0.000 
#
# Total GULP energy -396846.907017 kJ/mol
# GULP energy per Si atom -12401.465844 kJ/mol
# Density = 2.075085 g / cm^3
# Si number density = 20.798189 Si / 1000 Ang^3
#
#
#
# Elastic Constant Matrix: (Units=GPa)
#
#
# Indices 1 2 3 4 5 6 
#
# 1 60.4107 38.2601 33.6722 0.0000 0.0000 0.0000
# 2 38.2601 119.6960 44.9101 0.0000 0.0000 0.0000
# 3 33.6722 44.9101 124.4525 0.0000 0.0000 0.0000
# 4 0.0000 0.0000 0.0000 42.7960 0.0000 0.0000
# 5 0.0000 0.0000 0.0000 0.0000 34.7454 0.0000
# 6 0.0000 0.0000 0.0000 0.0000 0.0000 29.4144
#
#
#
# Elastic Compliance Matrix: (Units=1/GPa)
#
#
# Indices 1 2 3 4 5 6 
#
# 1 0.022365 -0.005642 -0.004015 0.000000 0.000000 0.000000
# 2 -0.005642 0.011086 -0.002474 0.000000 0.000000 0.000000
# 3 -0.004015 -0.002474 0.010014 0.000000 0.000000 0.000000
# 4 0.000000 0.000000 0.000000 0.023367 0.000000 0.000000
# 5 0.000000 0.000000 0.000000 0.000000 0.028781 0.000000
# 6 0.000000 0.000000 0.000000 0.000000 0.000000 0.033997
#
#
# Mechanical properties :
#
#
# Convention : Reuss Voigt Hill
#
# Bulk Modulus (GPa) = 52.07607 59.80490 55.94048
# Shear Modulus (GPa) = 31.19674 33.90562 32.55118
#
# Velocity S-wave (km/s) = 3.87715 4.04198 3.96042
# Velocity P-wave (km/s) = 6.71835 7.11342 6.91870
#
# Compressibility (1/GPa) = 0.01920268
#
# Stress axis : x y z
#
# Youngs Moduli (GPa) = 44.71326 90.20157 99.85754
#
# Poissons Ratio (x) = 0.50895 0.40092
# Poissons Ratio (y) = 0.25229 0.24705
# Poissons Ratio (z) = 0.17952 0.22316
#
# Static dielectric constant tensor:
#      x y z
#    x 3.563810 0.000000 0.000000 
#    y 0.000000 3.720990 0.000000 
#    z 0.000000 0.000000 3.995290 
# 
# 
# High freq. dielectric constant tensor:
#      x y z
#    x 1.808750 0.000000 0.000000 
#    y 0.000000 1.816090 0.000000 
#    z 0.000000 0.000000 1.836080 
# 
# From -- ./inp_files/15585.got.cif
#   From: 2010.03.12/outbox.cif.g09.slc.cpg/sg40_8_cif.got.tgz:15585.got - 2010.04.14 01:38:03.
