data_PCOD8184464
_publ_section_title
;
Structure prediction by ZEFSAII (Michael W. Deem and Ramdas Pophale) SiO2 
 PCOD8184464
Probable space group: A M A 2
;
_chemical_formula_sum "Si O2"
_cell_formula_units_Z 36
_cell_length_a 9.806198
_cell_length_b 20.326169
_cell_length_c 8.606363
_cell_angle_alpha 90.000000
_cell_angle_beta 90.000000
_cell_angle_gamma 90.000000
_cell_volume 1715.441254
_symmetry_space_group_name_H-M "A M A 2"
_symmetry_group_IT_number 40
_symmetry_cell_setting 'orthorhombic'
loop_
_space_group_symop_operation_xyz
x,y,z
-x,-y,z
1/2-x,y,z
1/2+x,-y,z
x,1/2+y,1/2+z
-x,1/2-y,1/2+z
1/2-x,1/2+y,1/2+z
1/2+x,1/2-y,1/2+z
loop_
_atom_site_type_symbol
_atom_site_label
_atom_site_fract_x
_atom_site_fract_y
_atom_site_fract_z
Si Si1 0.545581 0.325125 0.975080
Si Si2 0.250000 0.401967 0.411097
Si Si3 0.750000 0.726762 0.599841
Si Si4 0.750000 0.842691 0.206527
Si Si5 0.250000 0.274421 0.955595
Si Si6 0.750000 0.948888 0.967252
Si Si7 0.483251 0.074375 0.733304
O O1 0.611298 0.339187 0.806979
O O2 0.383069 0.319436 0.974356
O O3 0.612410 0.257039 0.029402
O O4 0.581112 0.384091 0.092713
O O5 0.250000 0.349973 0.552967
O O6 0.250000 0.472910 0.492883
O O7 0.377963 0.392964 0.296193
O O8 0.750000 0.748146 0.778291
O O9 0.750000 0.786527 0.074113
O O10 0.750000 0.915038 0.134122
O O11 0.617128 0.924958 0.878105
O O12 0.500000 0.000000 0.671018
#
# Coordination Sequence:
#
# PCOD8184464 Si02
#       7
#     8   4   4   4   4   4   8
#     4  11  25  41  66  98 129 175 212 275 325 386
#     4  10  24  42  71  96 127 170 224 275 322 392
#     4  11  26  42  64  95 130 167 225 263 334 388
#     4  11  25  42  64  97 135 169 221 264 328 395
#     4  12  25  41  64  96 131 175 211 270 331 385
#     4  10  22  43  71  92 129 175 217 266 329 392
#     4  10  22  44  70  96 127 174 221 268 327 390
#
# _framework density 20.985854
#
# number of rings (size 3 to 8) (size 9 to 14) (size 15 to 20)
#    0.000    1.333    0.000    4.667   15.556    0.000 
#    4.000    0.000    0.000    0.000    0.000    0.000 
#    0.000    0.000    0.000    0.000    0.000    0.000 
#
# Total GULP energy -223212.619785 kJ/mol
# GULP energy per Si atom -12400.701099 kJ/mol
# Density = 2.093809 g / cm^3
# Si number density = 20.985854 Si / 1000 Ang^3
#
#
#
# Elastic Constant Matrix: (Units=GPa)
#
#
# Indices 1 2 3 4 5 6 
#
# 1 147.2783 44.1168 41.4240 0.0000 0.0000 0.0000
# 2 44.1168 126.3329 83.7230 0.0000 0.0000 0.0000
# 3 41.4240 83.7230 151.2850 0.0000 0.0000 0.0000
# 4 0.0000 0.0000 0.0000 44.4584 0.0000 0.0000
# 5 0.0000 0.0000 0.0000 0.0000 -61.4813 0.0000
# 6 0.0000 0.0000 0.0000 0.0000 0.0000 49.6650
#
#
#
# Elastic Compliance Matrix: (Units=1/GPa)
#
#
# Indices 1 2 3 4 5 6 
#
# 1 0.007673 -0.002033 -0.000976 0.000000 0.000000 0.000000
# 2 -0.002033 0.013039 -0.006659 0.000000 0.000000 0.000000
# 3 -0.000976 -0.006659 0.010563 0.000000 0.000000 0.000000
# 4 0.000000 0.000000 0.000000 0.022493 0.000000 0.000000
# 5 0.000000 0.000000 0.000000 0.000000 -0.016265 0.000000
# 6 0.000000 0.000000 0.000000 0.000000 0.000000 0.020135
#
#
# Mechanical properties :
#
#
# Convention : Reuss Voigt Hill
#
# Bulk Modulus (GPa) = 83.76253 84.82486 84.29370
# Shear Modulus (GPa) = 61.76460 23.57057 42.66759
#
# Velocity S-wave (km/s) = 5.43097 3.35500 4.51395
# Velocity P-wave (km/s) = 8.90661 7.45089 8.21108
#
# Compressibility (1/GPa) = 0.01193851
#
# Stress axis : x y z
#
# Youngs Moduli (GPa) = 130.32187 76.69577 94.67414
#
# Poissons Ratio (x) = 0.15590 0.09242
# Poissons Ratio (y) = 0.26490 0.63044
# Poissons Ratio (z) = 0.12721 0.51072
#
# Static dielectric constant tensor:
#      x y z
#    x 4.644660 0.000000 0.000000 
#    y 0.000000 3.713730 0.000000 
#    z 0.000000 0.000000 3.762120 
# 
# 
# High freq. dielectric constant tensor:
#      x y z
#    x 1.841720 0.000000 0.000000 
#    y 0.000000 1.820270 0.000000 
#    z 0.000000 0.000000 1.819450 
# 
# From -- ./inp_files/4157.got.cif
#   From: 2010.03.12/outbox.cif.g09.slc.cpg/sg40_3_cif.got.tgz:4157.got - 2010.04.14 01:38:03.
