data_PCOD8184817
_publ_section_title
;
Structure prediction by ZEFSAII (Michael W. Deem and Ramdas Pophale) SiO2 
 PCOD8184817
Probable space group: A B A 2
;
_chemical_formula_sum "Si O2"
_cell_formula_units_Z 64
_cell_length_a 32.199705
_cell_length_b 17.218871
_cell_length_c 5.224972
_cell_angle_alpha 90.000000
_cell_angle_beta 90.000000
_cell_angle_gamma 90.000000
_cell_volume 2896.946886
_symmetry_space_group_name_H-M "A B A 2"
_symmetry_group_IT_number 41
_symmetry_cell_setting 'orthorhombic'
loop_
_space_group_symop_operation_xyz
x,y,z
-x,-y,z
1/2-x,y,1/2+z
1/2+x,-y,1/2+z
x,1/2+y,1/2+z
-x,1/2-y,1/2+z
1/2-x,1/2+y,z
1/2+x,1/2-y,z
loop_
_atom_site_type_symbol
_atom_site_label
_atom_site_fract_x
_atom_site_fract_y
_atom_site_fract_z
Si Si1 0.503297 0.800677 0.784260
Si Si2 0.862197 0.725057 0.185881
Si Si3 0.235680 0.955085 0.136680
Si Si4 0.424262 0.888850 0.935192
Si Si5 0.770919 0.713381 0.052497
Si Si6 0.645714 0.587701 0.045389
Si Si7 0.909558 0.378676 0.750321
Si Si8 0.598698 0.977181 0.241623
O O1 0.501494 0.764306 0.502306
O O2 0.467158 0.864317 0.805922
O O3 0.546428 0.843580 0.828675
O O4 0.820250 0.725809 0.018596
O O5 0.852962 0.676697 0.445920
O O6 0.874352 0.813526 0.230507
O O7 0.901308 0.687127 0.042769
O O8 0.256515 0.002740 0.371919
O O9 0.262604 0.878662 0.060409
O O10 0.188050 0.932723 0.190200
O O11 0.393880 0.927135 0.725811
O O12 0.433735 0.953912 0.154823
O O13 0.752560 0.752124 0.310637
O O14 0.640442 0.525722 0.813379
O O15 0.915713 0.425875 0.484584
O O16 0.892666 0.427054 0.990308
#
# Coordination Sequence:
#
# PCOD8184817 Si02
#       8
#     8   8   8   8   8   8   8   8
#     4  12  26  47  72 106 138 168 238 292 343 397
#     4  11  23  38  74 101 134 176 229 285 346 394
#     4  10  19  33  59 100 132 161 216 293 334 383
#     4  11  24  45  71 103 132 180 232 287 327 409
#     4  10  19  34  57 103 130 161 216 286 337 390
#     4  11  22  42  71 101 135 175 238 282 336 410
#     4  12  26  48  67  99 142 187 216 286 348 413
#     4  11  27  47  64  98 138 183 229 262 348 417
#
# _framework density 22.092223000000001
#
# number of rings (size 3 to 8) (size 9 to 14) (size 15 to 20)
#    0.000    1.000    5.000    3.000    5.250    0.500 
#    2.250    0.000    0.000    4.500    0.000    0.000 
#    0.000    0.000    0.000    0.000    0.000    0.000 
#
# Total GULP energy -396583.930029 kJ/mol
# GULP energy per Si atom -12393.247813 kJ/mol
# Density = 2.204194 g / cm^3
# Si number density = 22.092223 Si / 1000 Ang^3
#
#
#
# Elastic Constant Matrix: (Units=GPa)
#
#
# Indices 1 2 3 4 5 6 
#
# 1 87.8537 26.0539 8.7744 0.0000 0.0000 0.0000
# 2 26.0539 89.1497 30.6929 0.0000 0.0000 0.0000
# 3 8.7744 30.6929 130.5842 0.0000 0.0000 0.0000
# 4 0.0000 0.0000 0.0000 35.9234 0.0000 0.0000
# 5 0.0000 0.0000 0.0000 0.0000 32.0267 0.0000
# 6 0.0000 0.0000 0.0000 0.0000 0.0000 7.5135
#
#
#
# Elastic Compliance Matrix: (Units=1/GPa)
#
#
# Indices 1 2 3 4 5 6 
#
# 1 0.012463 -0.003649 0.000020 0.000000 0.000000 0.000000
# 2 -0.003649 0.013273 -0.002875 0.000000 0.000000 0.000000
# 3 0.000020 -0.002875 0.008332 0.000000 0.000000 0.000000
# 4 0.000000 0.000000 0.000000 0.027837 0.000000 0.000000
# 5 0.000000 0.000000 0.000000 0.000000 0.031224 0.000000
# 6 0.000000 0.000000 0.000000 0.000000 0.000000 0.133093
#
#
# Mechanical properties :
#
#
# Convention : Reuss Voigt Hill
#
# Bulk Modulus (GPa) = 47.48067 48.73665 48.10866
# Shear Modulus (GPa) = 20.30457 31.23048 25.76753
#
# Velocity S-wave (km/s) = 3.03493 3.76392 3.41891
# Velocity P-wave (km/s) = 5.81547 6.40296 6.11627
#
# Compressibility (1/GPa) = 0.02106120
#
# Stress axis : x y z
#
# Youngs Moduli (GPa) = 80.23913 75.33955 120.01664
#
# Poissons Ratio (x) = 0.27493 -0.00244
# Poissons Ratio (y) = 0.29281 0.34500
# Poissons Ratio (z) = -0.00163 0.21657
#
# Static dielectric constant tensor:
#      x y z
#    x 3.862200 0.000000 0.000000 
#    y 0.000000 3.805320 0.000000 
#    z 0.000000 0.000000 4.915260 
# 
# 
# High freq. dielectric constant tensor:
#      x y z
#    x 1.863880 0.000000 0.000000 
#    y 0.000000 1.836560 0.000000 
#    z 0.000000 0.000000 1.893820 
# 
# From -- ./inp_files/1410.got.cif
#   From: 2010.03.12/outbox.cif.g09.slc.cpg/sg41_1_cif.got.tgz:1410.got - 2010.04.14 01:55:53.
