data_PCOD8184768
_publ_section_title
;
Structure prediction by ZEFSAII (Michael W. Deem and Ramdas Pophale) SiO2 
 PCOD8184768
Probable space group: A B A 2
;
_chemical_formula_sum "Si O2"
_cell_formula_units_Z 60
_cell_length_a 14.337476
_cell_length_b 25.561940
_cell_length_c 7.699705
_cell_angle_alpha 90.000000
_cell_angle_beta 90.000000
_cell_angle_gamma 90.000000
_cell_volume 2821.893384
_symmetry_space_group_name_H-M "A B A 2"
_symmetry_group_IT_number 41
_symmetry_cell_setting 'orthorhombic'
loop_
_space_group_symop_operation_xyz
x,y,z
-x,-y,z
1/2-x,y,1/2+z
1/2+x,-y,1/2+z
x,1/2+y,1/2+z
-x,1/2-y,1/2+z
1/2-x,1/2+y,z
1/2+x,1/2-y,z
loop_
_atom_site_type_symbol
_atom_site_label
_atom_site_fract_x
_atom_site_fract_y
_atom_site_fract_z
Si Si1 0.777240 0.697779 0.766190
Si Si2 0.203802 0.046501 0.307613
Si Si3 0.617610 0.909349 0.118870
Si Si4 0.382374 0.256356 0.579353
Si Si5 0.500000 0.500000 0.747214
Si Si6 0.974082 0.819426 0.811543
Si Si7 0.144958 0.364616 0.471104
Si Si8 0.836833 0.020060 0.005600
O O1 0.708483 0.747122 0.710077
O O2 0.842890 0.683100 0.605582
O O3 0.711526 0.647774 0.807039
O O4 0.846407 0.705376 0.927531
O O5 0.294037 0.075204 0.234187
O O6 0.145072 0.089551 0.414988
O O7 0.137954 0.019115 0.163771
O O8 0.236891 0.999114 0.433113
O O9 0.590762 0.850840 0.176321
O O10 0.532629 0.950589 0.133719
O O11 0.413511 0.205090 0.470788
O O12 0.469246 0.277271 0.694891
O O13 0.585499 0.518929 0.860736
O O14 0.039118 0.862545 0.903357
O O15 0.170514 0.419499 0.561922
#
# Coordination Sequence:
#
# PCOD8184768 Si02
#       8
#     8   8   8   8   4   8   8   8
#     4   9  20  37  57  87 119 156 207 249 315 372
#     4   9  21  37  58  83 123 159 212 239 299 378
#     4  10  21  41  58  86 122 164 200 256 304 374
#     4  10  22  40  61  88 121 158 208 265 308 372
#     4  10  20  36  58  82 124 152 196 244 306 346
#     4  11  22  39  63  90 127 161 208 263 316 364
#     4  10  18  34  59  87 118 157 199 253 304 369
#     4  10  18  35  55  84 115 162 194 257 291 354
#
# _framework density 21.262319000000002
#
# number of rings (size 3 to 8) (size 9 to 14) (size 15 to 20)
#    0.000    2.133    1.333    1.600    0.000    1.600 
#    7.200    2.667    0.000    0.000    0.000    0.000 
#    0.000    0.000    0.000    0.000    0.000    0.000 
#
# Total GULP energy -371664.197389 kJ/mol
# GULP energy per Si atom -12388.806580 kJ/mol
# Density = 2.121392 g / cm^3
# Si number density = 21.262319 Si / 1000 Ang^3
#
#
#
# Elastic Constant Matrix: (Units=GPa)
#
#
# Indices 1 2 3 4 5 6 
#
# 1 55.9263 13.8610 19.0102 0.0000 0.0000 0.0000
# 2 13.8610 60.1015 8.8892 0.0000 0.0000 0.0000
# 3 19.0102 8.8892 85.5518 0.0000 0.0000 0.0000
# 4 0.0000 0.0000 0.0000 36.5739 0.0000 0.0000
# 5 0.0000 0.0000 0.0000 0.0000 16.3685 0.0000
# 6 0.0000 0.0000 0.0000 0.0000 0.0000 22.4939
#
#
#
# Elastic Compliance Matrix: (Units=1/GPa)
#
#
# Indices 1 2 3 4 5 6 
#
# 1 0.020278 -0.004073 -0.004083 0.000000 0.000000 0.000000
# 2 -0.004073 0.017716 -0.000936 0.000000 0.000000 0.000000
# 3 -0.004083 -0.000936 0.012693 0.000000 0.000000 0.000000
# 4 0.000000 0.000000 0.000000 0.027342 0.000000 0.000000
# 5 0.000000 0.000000 0.000000 0.000000 0.061093 0.000000
# 6 0.000000 0.000000 0.000000 0.000000 0.000000 0.044457
#
#
# Mechanical properties :
#
#
# Convention : Reuss Voigt Hill
#
# Bulk Modulus (GPa) = 30.76467 31.67782 31.22124
# Shear Modulus (GPa) = 23.51877 25.74187 24.63032
#
# Velocity S-wave (km/s) = 3.32945 3.48326 3.40722
# Velocity P-wave (km/s) = 5.41118 5.57749 5.49496
#
# Compressibility (1/GPa) = 0.03250481
#
# Stress axis : x y z
#
# Youngs Moduli (GPa) = 49.31485 56.44544 78.78197
#
# Poissons Ratio (x) = 0.22989 0.32164
# Poissons Ratio (y) = 0.20085 0.07372
# Poissons Ratio (z) = 0.20134 0.05282
#
# Static dielectric constant tensor:
#      x y z
#    x 3.977530 0.000000 0.000000 
#    y 0.000000 3.584770 0.000000 
#    z 0.000000 0.000000 4.035780 
# 
# 
# High freq. dielectric constant tensor:
#      x y z
#    x 1.832380 0.000000 0.000000 
#    y 0.000000 1.805520 0.000000 
#    z 0.000000 0.000000 1.840890 
# 
# From -- ./inp_files/2171.got.cif
#   From: 2010.03.12/outbox.cif.g09.slc.cpg/sg41_2_cif.got.tgz:2171.got - 2010.04.14 01:55:53.
