data_PCOD8184554
_publ_section_title
;
Structure prediction by ZEFSAII (Michael W. Deem and Ramdas Pophale) SiO2 
 PCOD8184554
Probable space group: A M A 2
;
_chemical_formula_sum "Si O2"
_cell_formula_units_Z 64
_cell_length_a 20.865267
_cell_length_b 14.581480
_cell_length_c 9.448671
_cell_angle_alpha 90.000000
_cell_angle_beta 90.000000
_cell_angle_gamma 90.000000
_cell_volume 2874.724831
_symmetry_space_group_name_H-M "A M A 2"
_symmetry_group_IT_number 40
_symmetry_cell_setting 'orthorhombic'
loop_
_space_group_symop_operation_xyz
x,y,z
-x,-y,z
1/2-x,y,z
1/2+x,-y,z
x,1/2+y,1/2+z
-x,1/2-y,1/2+z
1/2-x,1/2+y,1/2+z
1/2+x,1/2-y,1/2+z
loop_
_atom_site_type_symbol
_atom_site_label
_atom_site_fract_x
_atom_site_fract_y
_atom_site_fract_z
Si Si1 0.484491 0.102401 0.754950
Si Si2 0.040713 0.208768 0.202044
Si Si3 0.628932 0.848471 0.959171
Si Si4 0.175090 0.961432 0.898716
Si Si5 0.179283 0.829984 0.356517
Si Si6 0.413282 0.130296 0.484644
Si Si7 0.176159 0.479769 0.074841
Si Si8 0.901722 0.175084 0.088295
O O1 0.537891 0.184586 0.755616
O O2 0.427588 0.142747 0.846902
O O3 0.466011 0.090785 0.591644
O O4 0.500000 0.000000 0.814490
O O5 0.050181 0.143546 0.337054
O O6 0.978721 0.174543 0.111718
O O7 0.102613 0.192609 0.105441
O O8 0.678852 0.777025 0.893624
O O9 0.667042 0.942984 0.982390
O O10 0.250000 0.928882 0.907517
O O11 0.123826 0.891807 0.965817
O O12 0.151082 0.975106 0.736632
O O13 0.250000 0.857070 0.302475
O O14 0.161563 0.883584 0.499836
O O15 0.129924 0.856251 0.234501
O O16 0.380903 0.223556 0.541983
O O17 0.356557 0.056990 0.478015
O O18 0.250000 0.505443 0.078980
#
# Coordination Sequence:
#
# PCOD8184554 Si02
#       8
#     8   8   8   8   8   8   8   8
#     4  11  24  43  70  97 133 181 231 279 342 411
#     4  11  27  44  63 106 145 174 235 282 350 416
#     4  12  25  43  69 100 140 183 224 289 343 417
#     4  11  25  47  72 103 136 182 241 290 347 418
#     4  11  24  46  72 101 138 182 230 286 349 412
#     4  11  24  44  67 100 136 184 222 286 341 416
#     4  10  24  45  71 102 135 180 239 288 343 415
#     4  11  25  45  71 101 140 181 228 290 353 413
#
# _framework density 22.263002
#
# number of rings (size 3 to 8) (size 9 to 14) (size 15 to 20)
#    0.000    1.000    3.750    2.250    8.750    2.000 
#    0.000    0.625    0.000    0.000    0.000    0.000 
#    0.000    0.000    0.000    0.000    0.000    0.000 
#
# Total GULP energy -396741.070133 kJ/mol
# GULP energy per Si atom -12398.158442 kJ/mol
# Density = 2.221233 g / cm^3
# Si number density = 22.263002 Si / 1000 Ang^3
#
#
#
# Elastic Constant Matrix: (Units=GPa)
#
#
# Indices 1 2 3 4 5 6 
#
# 1 57.5358 39.6287 37.5899 0.0000 0.0000 0.0000
# 2 39.6287 136.1068 30.6294 0.0000 0.0000 0.0000
# 3 37.5899 30.6294 79.1253 0.0000 0.0000 0.0000
# 4 0.0000 0.0000 0.0000 34.4153 0.0000 0.0000
# 5 0.0000 0.0000 0.0000 0.0000 42.6889 0.0000
# 6 0.0000 0.0000 0.0000 0.0000 0.0000 38.4436
#
#
#
# Elastic Compliance Matrix: (Units=1/GPa)
#
#
# Indices 1 2 3 4 5 6 
#
# 1 0.028888 -0.005830 -0.011467 0.000000 0.000000 0.000000
# 2 -0.005830 0.009225 -0.000801 0.000000 0.000000 0.000000
# 3 -0.011467 -0.000801 0.018396 0.000000 0.000000 0.000000
# 4 0.000000 0.000000 0.000000 0.029057 0.000000 0.000000
# 5 0.000000 0.000000 0.000000 0.000000 0.023425 0.000000
# 6 0.000000 0.000000 0.000000 0.000000 0.000000 0.026012
#
#
# Mechanical properties :
#
#
# Convention : Reuss Voigt Hill
#
# Bulk Modulus (GPa) = 49.23199 54.27377 51.75288
# Shear Modulus (GPa) = 28.09457 34.10422 31.09939
#
# Velocity S-wave (km/s) = 3.55623 3.91817 3.74158
# Velocity P-wave (km/s) = 6.24694 6.70080 6.47785
#
# Compressibility (1/GPa) = 0.02031200
#
# Stress axis : x y z
#
# Youngs Moduli (GPa) = 34.61659 108.40041 54.36031
#
# Poissons Ratio (x) = 0.63203 0.62334
# Poissons Ratio (y) = 0.20183 0.04355
# Poissons Ratio (z) = 0.39694 0.08684
#
# Static dielectric constant tensor:
#      x y z
#    x 3.869690 0.000000 0.000000 
#    y 0.000000 4.149610 0.000000 
#    z 0.000000 0.000000 4.110430 
# 
# 
# High freq. dielectric constant tensor:
#      x y z
#    x 1.869750 0.000000 0.000000 
#    y 0.000000 1.881440 0.000000 
#    z 0.000000 0.000000 1.881420 
# 
# From -- ./inp_files/8923.got.cif
#   From: 2010.03.12/outbox.cif.g09.slc.cpg/sg40_5_cif.got.tgz:8923.got - 2010.04.14 01:38:03.
