data_PCOD8184816
_publ_section_title
;
Structure prediction by ZEFSAII (Michael W. Deem and Ramdas Pophale) SiO2 
 PCOD8184816
Probable space group: A B A 2
;
_chemical_formula_sum "Si O2"
_cell_formula_units_Z 48
_cell_length_a 18.072276
_cell_length_b 15.994354
_cell_length_c 9.043909
_cell_angle_alpha 90.000000
_cell_angle_beta 90.000000
_cell_angle_gamma 90.000000
_cell_volume 2614.181508
_symmetry_space_group_name_H-M "A B A 2"
_symmetry_group_IT_number 41
_symmetry_cell_setting 'orthorhombic'
loop_
_space_group_symop_operation_xyz
x,y,z
-x,-y,z
1/2-x,y,1/2+z
1/2+x,-y,1/2+z
x,1/2+y,1/2+z
-x,1/2-y,1/2+z
1/2-x,1/2+y,z
1/2+x,1/2-y,z
loop_
_atom_site_type_symbol
_atom_site_label
_atom_site_fract_x
_atom_site_fract_y
_atom_site_fract_z
Si Si1 0.953530 0.580793 0.882080
Si Si2 0.571843 0.838561 0.079463
Si Si3 0.670381 0.995721 0.064668
Si Si4 0.539046 0.414487 0.879109
Si Si5 0.414277 0.851764 0.573358
Si Si6 0.322595 0.484164 0.903537
O O1 0.911945 0.620714 0.743140
O O2 0.000000 0.500000 0.830875
O O3 0.890193 0.557870 0.998363
O O4 0.008422 0.647107 0.957512
O O5 0.537938 0.850456 0.242909
O O6 0.603479 0.745882 0.060528
O O7 0.640112 0.901495 0.061442
O O8 0.686858 0.029028 0.228673
O O9 0.744170 0.993002 0.969988
O O10 0.500000 0.500000 0.823021
O O11 0.621272 0.438672 0.934933
O O12 0.496552 0.372006 0.014443
O O13 0.352602 0.899307 0.477645
#
# Coordination Sequence:
#
# PCOD8184816 Si02
#       6
#     8   8   8   8   8   8
#     4  10  19  33  56  81 106 140 177 211 259 320
#     4  10  20  35  54  81 109 136 175 224 263 302
#     4  10  21  38  57  74 104 145 179 211 260 323
#     4   9  18  35  56  76 106 144 174 209 262 319
#     4  11  20  33  55  84 109 134 175 225 263 303
#     4  10  20  36  56  76 104 143 180 212 259 321
#
# _framework density 18.361387000000001
#
# number of rings (size 3 to 8) (size 9 to 14) (size 15 to 20)
#    0.000    2.000    0.000    7.000    0.000    1.333 
#    0.000    8.333    0.000    0.000    0.000    0.000 
#    0.000    0.000    0.000    0.000    0.000    0.000 
#
# Total GULP energy -297668.268087 kJ/mol
# GULP energy per Si atom -12402.844504 kJ/mol
# Density = 1.831960 g / cm^3
# Si number density = 18.361387 Si / 1000 Ang^3
#
#
#
# Elastic Constant Matrix: (Units=GPa)
#
#
# Indices 1 2 3 4 5 6 
#
# 1 100.7006 33.0760 50.5420 0.0000 0.0000 0.0000
# 2 33.0760 108.1019 57.3074 0.0000 0.0000 0.0000
# 3 50.5420 57.3074 129.0165 0.0000 0.0000 0.0000
# 4 0.0000 0.0000 0.0000 16.6756 0.0000 0.0000
# 5 0.0000 0.0000 0.0000 0.0000 36.1692 0.0000
# 6 0.0000 0.0000 0.0000 0.0000 0.0000 14.6792
#
#
#
# Elastic Compliance Matrix: (Units=1/GPa)
#
#
# Indices 1 2 3 4 5 6 
#
# 1 0.012573 -0.001617 -0.004207 0.000000 0.000000 0.000000
# 2 -0.001617 0.012308 -0.004834 0.000000 0.000000 0.000000
# 3 -0.004207 -0.004834 0.011546 0.000000 0.000000 0.000000
# 4 0.000000 0.000000 0.000000 0.059968 0.000000 0.000000
# 5 0.000000 0.000000 0.000000 0.000000 0.027648 0.000000
# 6 0.000000 0.000000 0.000000 0.000000 0.000000 0.068123
#
#
# Mechanical properties :
#
#
# Convention : Reuss Voigt Hill
#
# Bulk Modulus (GPa) = 66.17362 68.85219 67.51291
# Shear Modulus (GPa) = 22.88137 26.63105 24.75621
#
# Velocity S-wave (km/s) = 3.53394 3.81252 3.67587
# Velocity P-wave (km/s) = 7.26426 7.54720 7.40708
#
# Compressibility (1/GPa) = 0.01511176
#
# Stress axis : x y z
#
# Youngs Moduli (GPa) = 79.53473 81.25105 86.60844
#
# Poissons Ratio (x) = 0.13134 0.36440
# Poissons Ratio (y) = 0.12857 0.41863
# Poissons Ratio (z) = 0.33464 0.39273
#
# Static dielectric constant tensor:
#      x y z
#    x 3.391740 0.000000 0.000000 
#    y 0.000000 3.225260 0.000000 
#    z 0.000000 0.000000 3.447140 
# 
# 
# High freq. dielectric constant tensor:
#      x y z
#    x 1.706530 0.000000 0.000000 
#    y 0.000000 1.696650 0.000000 
#    z 0.000000 0.000000 1.725630 
# 
# From -- ./inp_files/3031.got.cif
#   From: 2010.03.12/outbox.cif.g09.slc.cpg/sg41_2_cif.got.tgz:3031.got - 2010.04.14 01:55:53.
