data_PCOD8184702
_publ_section_title
;
Structure prediction by ZEFSAII (Michael W. Deem and Ramdas Pophale) SiO2 
 PCOD8184702
Probable space group: A M A 2
;
_chemical_formula_sum "Si O2"
_cell_formula_units_Z 48
_cell_length_a 15.146599
_cell_length_b 28.655691
_cell_length_c 5.003434
_cell_angle_alpha 90.000000
_cell_angle_beta 90.000000
_cell_angle_gamma 90.000000
_cell_volume 2171.671784
_symmetry_space_group_name_H-M "A M A 2"
_symmetry_group_IT_number 40
_symmetry_cell_setting 'orthorhombic'
loop_
_space_group_symop_operation_xyz
x,y,z
-x,-y,z
1/2-x,y,z
1/2+x,-y,z
x,1/2+y,1/2+z
-x,1/2-y,1/2+z
1/2-x,1/2+y,1/2+z
1/2+x,1/2-y,1/2+z
loop_
_atom_site_type_symbol
_atom_site_label
_atom_site_fract_x
_atom_site_fract_y
_atom_site_fract_z
Si Si1 0.250000 0.839311 0.692040
Si Si2 0.150351 0.567349 0.541686
Si Si3 0.102218 0.009896 0.541501
Si Si4 0.599885 0.089712 0.659812
Si Si5 0.250000 0.780617 0.195950
Si Si6 0.549832 0.230532 0.169999
Si Si7 0.508693 0.622460 0.660460
O O1 0.334436 0.868222 0.610565
O O2 0.250000 0.793511 0.508015
O O3 0.250000 0.825732 0.003178
O O4 0.250000 0.582513 0.595165
O O5 0.139966 0.548445 0.242008
O O6 0.093846 0.614647 0.585441
O O7 0.120763 0.526060 0.741017
O O8 0.147643 0.959476 0.595427
O O9 0.000000 0.000000 0.597191
O O10 0.519803 0.101139 0.456274
O O11 0.565621 0.089724 0.962854
O O12 0.345219 0.754499 0.146723
O O13 0.509207 0.241625 0.458540
O O14 0.538798 0.175489 0.122376
#
# Coordination Sequence:
#
# PCOD8184702 Si02
#       7
#     4   8   8   8   4   8   8
#     4  12  22  40  66 104 133 166 221 282 332 398
#     4  12  26  43  63  95 138 184 231 273 326 397
#     4  12  23  42  65  93 132 182 228 279 324 383
#     4  12  23  38  67  99 130 173 222 272 337 385
#     4  12  24  46  74 102 139 172 217 290 350 400
#     4  12  26  47  73 103 136 172 224 279 346 417
#     4  12  23  46  68  92 132 177 217 278 338 399
#
# _framework density 22.102789000000001
#
# number of rings (size 3 to 8) (size 9 to 14) (size 15 to 20)
#    0.000    0.000    6.667    4.000    2.333    0.000 
#    3.000    0.000    0.000    0.000    0.000    0.000 
#    0.000    0.000    0.000    0.000    0.000    0.000 
#
# Total GULP energy -297591.776652 kJ/mol
# GULP energy per Si atom -12399.657361 kJ/mol
# Density = 2.205248 g / cm^3
# Si number density = 22.102789 Si / 1000 Ang^3
#
#
#
# Elastic Constant Matrix: (Units=GPa)
#
#
# Indices 1 2 3 4 5 6 
#
# 1 153.2213 20.2814 16.0714 0.0000 0.0000 0.0000
# 2 20.2814 48.3624 8.6501 0.0000 0.0000 0.0000
# 3 16.0714 8.6501 88.4384 0.0000 0.0000 0.0000
# 4 0.0000 0.0000 0.0000 36.2659 0.0000 0.0000
# 5 0.0000 0.0000 0.0000 0.0000 27.9177 0.0000
# 6 0.0000 0.0000 0.0000 0.0000 0.0000 28.1531
#
#
#
# Elastic Compliance Matrix: (Units=1/GPa)
#
#
# Indices 1 2 3 4 5 6 
#
# 1 0.006996 -0.002755 -0.001002 0.000000 0.000000 0.000000
# 2 -0.002755 0.022130 -0.001664 0.000000 0.000000 0.000000
# 3 -0.001002 -0.001664 0.011652 0.000000 0.000000 0.000000
# 4 0.000000 0.000000 0.000000 0.027574 0.000000 0.000000
# 5 0.000000 0.000000 0.000000 0.000000 0.035820 0.000000
# 6 0.000000 0.000000 0.000000 0.000000 0.000000 0.035520
#
#
# Mechanical properties :
#
#
# Convention : Reuss Voigt Hill
#
# Bulk Modulus (GPa) = 33.40328 42.22534 37.81431
# Shear Modulus (GPa) = 31.15022 34.80195 32.97608
#
# Velocity S-wave (km/s) = 3.75818 3.97236 3.86676
# Velocity P-wave (km/s) = 5.82902 6.33917 6.08944
#
# Compressibility (1/GPa) = 0.02993718
#
# Stress axis : x y z
#
# Youngs Moduli (GPa) = 142.93396 45.18737 85.82119
#
# Poissons Ratio (x) = 0.12448 0.08599
# Poissons Ratio (y) = 0.39375 0.14280
# Poissons Ratio (z) = 0.14321 0.07519
#
# Static dielectric constant tensor:
#      x y z
#    x 4.185130 0.000000 0.000000 
#    y 0.000000 3.908830 0.000000 
#    z 0.000000 0.000000 4.052060 
# 
# 
# High freq. dielectric constant tensor:
#      x y z
#    x 1.875810 0.000000 0.000000 
#    y 0.000000 1.844710 0.000000 
#    z 0.000000 0.000000 1.887780 
# 
# From -- ./inp_files/1378.got.cif
#   From: 2010.03.12/outbox.cif.g09.slc.cpg/sg40_1_cif.got.tgz:1378.got - 2010.04.14 01:38:03.
