data_PCOD8184419
_publ_section_title
;
Structure prediction by ZEFSAII (Michael W. Deem and Ramdas Pophale) SiO2 
 PCOD8184419
Probable space group: A M A 2
;
_chemical_formula_sum "Si O2"
_cell_formula_units_Z 48
_cell_length_a 13.931584
_cell_length_b 16.658560
_cell_length_c 9.565050
_cell_angle_alpha 90.000000
_cell_angle_beta 90.000000
_cell_angle_gamma 90.000000
_cell_volume 2219.858028
_symmetry_space_group_name_H-M "A M A 2"
_symmetry_group_IT_number 40
_symmetry_cell_setting 'orthorhombic'
loop_
_space_group_symop_operation_xyz
x,y,z
-x,-y,z
1/2-x,y,z
1/2+x,-y,z
x,1/2+y,1/2+z
-x,1/2-y,1/2+z
1/2-x,1/2+y,1/2+z
1/2+x,1/2-y,1/2+z
loop_
_atom_site_type_symbol
_atom_site_label
_atom_site_fract_x
_atom_site_fract_y
_atom_site_fract_z
Si Si1 0.540590 0.414299 0.319490
Si Si2 0.447048 0.865921 0.543698
Si Si3 0.057159 0.424001 0.741117
Si Si4 0.750000 0.694296 0.436807
Si Si5 0.750000 0.377865 0.444682
Si Si6 0.750000 0.040328 0.094952
Si Si7 0.452447 0.796566 0.025480
Si Si8 0.250000 0.793024 0.615449
O O1 0.500000 0.500000 0.372147
O O2 0.518959 0.406703 0.154755
O O3 0.652957 0.394108 0.352911
O O4 0.470418 0.351766 0.391911
O O5 0.451682 0.920513 0.407060
O O6 0.480626 0.777926 0.506683
O O7 0.338066 0.853375 0.590758
O O8 0.164665 0.435771 0.694952
O O9 0.017742 0.342688 0.668126
O O10 0.000000 0.500000 0.682850
O O11 0.750000 0.595935 0.453908
O O12 0.658800 0.729547 0.520455
O O13 0.750000 0.728516 0.279501
O O14 0.750000 0.445808 0.563514
O O15 0.750000 0.288928 0.518396
#
# Coordination Sequence:
#
# PCOD8184419 Si02
#       8
#     8   8   8   4   4   4   8   4
#     4  12  25  45  70 102 140 187 237 291 349 426
#     4  12  26  43  67 103 143 180 226 296 356 415
#     4  11  24  43  67  99 136 179 223 281 349 411
#     4  10  22  41  68 100 129 178 228 287 341 425
#     4  12  26  43  73 107 137 190 242 297 346 436
#     4  10  23  46  70 100 129 180 236 281 339 427
#     4  11  22  42  69  98 136 180 236 279 346 422
#     4  12  25  42  69 101 137 180 234 287 360 406
#
# _framework density 21.623003000000001
#
# number of rings (size 3 to 8) (size 9 to 14) (size 15 to 20)
#    0.000    0.667    3.333    5.500    0.000    0.667 
#    0.000    2.500    0.000    0.000    0.000    0.000 
#    0.000    0.000    0.000    0.000    0.000    0.000 
#
# Total GULP energy -297487.358345 kJ/mol
# GULP energy per Si atom -12395.306598 kJ/mol
# Density = 2.157379 g / cm^3
# Si number density = 21.623003 Si / 1000 Ang^3
#
#
#
# Elastic Constant Matrix: (Units=GPa)
#
#
# Indices 1 2 3 4 5 6 
#
# 1 133.1118 30.3285 38.6813 0.0000 0.0000 0.0000
# 2 30.3285 71.5041 20.2502 0.0000 0.0000 0.0000
# 3 38.6813 20.2502 125.1370 0.0000 0.0000 0.0000
# 4 0.0000 0.0000 0.0000 24.8471 0.0000 0.0000
# 5 0.0000 0.0000 0.0000 0.0000 -125.0213 0.0000
# 6 0.0000 0.0000 0.0000 0.0000 0.0000 25.8152
#
#
#
# Elastic Compliance Matrix: (Units=1/GPa)
#
#
# Indices 1 2 3 4 5 6 
#
# 1 0.008876 -0.003131 -0.002237 0.000000 0.000000 0.000000
# 2 -0.003131 0.015762 -0.001583 0.000000 0.000000 0.000000
# 3 -0.002237 -0.001583 0.008939 0.000000 0.000000 0.000000
# 4 0.000000 0.000000 0.000000 0.040246 0.000000 0.000000
# 5 0.000000 0.000000 0.000000 0.000000 -0.007999 0.000000
# 6 0.000000 0.000000 0.000000 0.000000 0.000000 0.038737
#
#
# Mechanical properties :
#
#
# Convention : Reuss Voigt Hill
#
# Bulk Modulus (GPa) = 50.82704 56.47478 53.65091
# Shear Modulus (GPa) = 39.99337 1.16104 20.57721
#
# Velocity S-wave (km/s) = 4.30533 0.73356 3.08820
# Velocity P-wave (km/s) = 6.94777 5.18576 6.13040
#
# Compressibility (1/GPa) = 0.01967457
#
# Stress axis : x y z
#
# Youngs Moduli (GPa) = 112.66402 63.44548 111.87148
#
# Poissons Ratio (x) = 0.19866 0.25025
# Poissons Ratio (y) = 0.35278 0.17706
# Poissons Ratio (z) = 0.25202 0.10042
#
# Static dielectric constant tensor:
#      x y z
#    x 6.115140 0.000000 0.000000 
#    y 0.000000 4.187900 0.000000 
#    z 0.000000 0.000000 3.853740 
# 
# 
# High freq. dielectric constant tensor:
#      x y z
#    x 1.867440 0.000000 0.000000 
#    y 0.000000 1.846370 0.000000 
#    z 0.000000 0.000000 1.847960 
# 
# From -- ./inp_files/6530.got.cif
#   From: 2010.03.12/outbox.cif.g09.slc.cpg/sg40_4_cif.got.tgz:6530.got - 2010.04.14 01:38:03.
