data_PCOD8184642
_publ_section_title
;
Structure prediction by ZEFSAII (Michael W. Deem and Ramdas Pophale) SiO2 
 PCOD8184642
Probable space group: A M A 2
;
_chemical_formula_sum "Si O2"
_cell_formula_units_Z 48
_cell_length_a 8.911184
_cell_length_b 27.417810
_cell_length_c 9.546315
_cell_angle_alpha 90.000000
_cell_angle_beta 90.000000
_cell_angle_gamma 90.000000
_cell_volume 2332.404842
_symmetry_space_group_name_H-M "A M A 2"
_symmetry_group_IT_number 40
_symmetry_cell_setting 'orthorhombic'
loop_
_space_group_symop_operation_xyz
x,y,z
-x,-y,z
1/2-x,y,z
1/2+x,-y,z
x,1/2+y,1/2+z
-x,1/2-y,1/2+z
1/2-x,1/2+y,1/2+z
1/2+x,1/2-y,1/2+z
loop_
_atom_site_type_symbol
_atom_site_label
_atom_site_fract_x
_atom_site_fract_y
_atom_site_fract_z
Si Si1 0.077714 0.105340 0.659940
Si Si2 0.079539 0.888061 0.147371
Si Si3 0.420060 0.952993 0.885480
Si Si4 0.577234 0.949602 0.378620
Si Si5 0.074479 0.207635 0.062995
Si Si6 0.925535 0.202267 0.762815
O O1 0.250000 0.114190 0.702163
O O2 0.061054 0.091147 0.498196
O O3 0.011621 0.060358 0.746861
O O4 0.984539 0.153645 0.690149
O O5 0.250000 0.880172 0.198439
O O6 0.001038 0.928397 0.241838
O O7 0.992933 0.837148 0.150988
O O8 0.074946 0.907218 0.988926
O O9 0.250000 0.966289 0.845527
O O10 0.500000 0.000000 0.954484
O O11 0.750000 0.960626 0.344503
O O12 0.500000 0.000000 0.424055
O O13 0.250000 0.198705 0.043717
O O14 0.038389 0.255047 0.153962
O O15 0.002552 0.213649 0.910527
O O16 0.750000 0.196414 0.792036
#
# Coordination Sequence:
#
# PCOD8184642 Si02
#       6
#     8   8   8   8   8   8
#     4  11  24  42  66  94 128 170 214 267 322 381
#     4  11  24  42  66  95 129 170 214 267 321 381
#     4  11  23  39  63  94 126 165 211 263 318 382
#     4  11  25  43  64  95 131 173 220 267 320 383
#     4  11  25  44  68  98 131 170 214 266 322 383
#     4  11  25  44  67  98 131 168 215 266 321 386
#
# _framework density 20.579618
#
# number of rings (size 3 to 8) (size 9 to 14) (size 15 to 20)
#    0.000    1.000    1.667    4.000    2.333   10.000 
#    0.000    0.000    0.000    0.000    0.000    0.000 
#    0.000    0.000    0.000    0.000    0.000    0.000 
#
# Total GULP energy -297766.606563 kJ/mol
# GULP energy per Si atom -12406.941940 kJ/mol
# Density = 2.053278 g / cm^3
# Si number density = 20.579618 Si / 1000 Ang^3
#
#
#
# Elastic Constant Matrix: (Units=GPa)
#
#
# Indices 1 2 3 4 5 6 
#
# 1 138.1085 66.4518 51.1897 0.0000 0.0000 0.0000
# 2 66.4518 125.9579 33.8508 0.0000 0.0000 0.0000
# 3 51.1897 33.8508 81.1989 0.0000 0.0000 0.0000
# 4 0.0000 0.0000 0.0000 34.7747 0.0000 0.0000
# 5 0.0000 0.0000 0.0000 0.0000 24.8232 0.0000
# 6 0.0000 0.0000 0.0000 0.0000 0.0000 38.7796
#
#
#
# Elastic Compliance Matrix: (Units=1/GPa)
#
#
# Indices 1 2 3 4 5 6 
#
# 1 0.011410 -0.004602 -0.005275 0.000000 0.000000 0.000000
# 2 -0.004602 0.010797 -0.001600 0.000000 0.000000 0.000000
# 3 -0.005275 -0.001600 0.016308 0.000000 0.000000 0.000000
# 4 0.000000 0.000000 0.000000 0.028757 0.000000 0.000000
# 5 0.000000 0.000000 0.000000 0.000000 0.040285 0.000000
# 6 0.000000 0.000000 0.000000 0.000000 0.000000 0.025787
#
#
# Mechanical properties :
#
#
# Convention : Reuss Voigt Hill
#
# Bulk Modulus (GPa) = 64.26086 72.02778 68.14432
# Shear Modulus (GPa) = 30.96299 32.59372 31.77835
#
# Velocity S-wave (km/s) = 3.88306 3.98400 3.93385
# Velocity P-wave (km/s) = 7.16920 7.49924 7.33607
#
# Compressibility (1/GPa) = 0.01556157
#
# Stress axis : x y z
#
# Youngs Moduli (GPa) = 87.64229 92.61789 61.32092
#
# Poissons Ratio (x) = 0.42623 0.32344
# Poissons Ratio (y) = 0.40334 0.09811
# Poissons Ratio (z) = 0.46228 0.14818
#
# Static dielectric constant tensor:
#      x y z
#    x 3.971440 0.000000 0.000000 
#    y 0.000000 3.705730 0.000000 
#    z 0.000000 0.000000 3.615080 
# 
# 
# High freq. dielectric constant tensor:
#      x y z
#    x 1.824630 0.000000 0.000000 
#    y 0.000000 1.817460 0.000000 
#    z 0.000000 0.000000 1.807220 
# 
# From -- ./inp_files/4616.got.cif
#   From: 2010.03.12/outbox.cif.g09.slc.cpg/sg40_3_cif.got.tgz:4616.got - 2010.04.14 01:38:03.
