data_PCOD8184081
_publ_section_title
;
Structure prediction by ZEFSAII (Michael W. Deem and Ramdas Pophale) SiO2 
 PCOD8184081
Probable space group: A M A 2
;
_chemical_formula_sum "Si O2"
_cell_formula_units_Z 56
_cell_length_a 14.163061
_cell_length_b 11.862407
_cell_length_c 16.794351
_cell_angle_alpha 90.000000
_cell_angle_beta 90.000000
_cell_angle_gamma 90.000000
_cell_volume 2821.585221
_symmetry_space_group_name_H-M "A M A 2"
_symmetry_group_IT_number 40
_symmetry_cell_setting 'orthorhombic'
loop_
_space_group_symop_operation_xyz
x,y,z
-x,-y,z
1/2-x,y,z
1/2+x,-y,z
x,1/2+y,1/2+z
-x,1/2-y,1/2+z
1/2-x,1/2+y,1/2+z
1/2+x,1/2-y,1/2+z
loop_
_atom_site_type_symbol
_atom_site_label
_atom_site_fract_x
_atom_site_fract_y
_atom_site_fract_z
Si Si1 0.643140 0.116774 0.762790
Si Si2 0.515659 0.625178 0.109803
Si Si3 0.857248 0.829184 0.364501
Si Si4 0.356923 0.089783 0.860571
Si Si5 0.639274 0.577653 0.821820
Si Si6 0.355989 0.241175 0.704623
Si Si7 0.461289 0.771356 0.448904
O O1 0.750000 0.081119 0.742204
O O2 0.584189 0.104918 0.683409
O O3 0.635018 0.244327 0.790990
O O4 0.606694 0.034632 0.834169
O O5 0.500000 0.500000 0.073928
O O6 0.421479 0.690893 0.136090
O O7 0.561876 0.702060 0.040960
O O8 0.750000 0.834476 0.398268
O O9 0.926066 0.787547 0.434923
O O10 0.890108 0.947004 0.325362
O O11 0.250000 0.084659 0.894754
O O12 0.361405 0.162649 0.781257
O O13 0.425195 0.145003 0.927434
O O14 0.750000 0.594709 0.833586
O O15 0.610582 0.634784 0.736752
O O16 0.591614 0.638352 0.895564
O O17 0.250000 0.246251 0.669666
#
# Coordination Sequence:
#
# PCOD8184081 Si02
#       7
#     8   8   8   8   8   8   8
#     4  10  21  37  61  86 112 152 201 247 292 346
#     4  12  23  33  53  89 125 151 185 249 315 351
#     4  10  21  36  57  83 111 150 196 240 287 348
#     4   9  18  37  61  82 106 151 201 237 280 350
#     4   9  18  36  60  82 105 145 197 241 284 350
#     4   9  18  34  57  80 107 151 198 234 280 349
#     4  11  22  34  55  85 119 150 185 238 300 350
#
# _framework density 19.846999
#
# number of rings (size 3 to 8) (size 9 to 14) (size 15 to 20)
#    0.000    2.000    1.429    4.286    0.000    1.714 
#    0.000    0.000    6.286    0.000    0.000    0.000 
#    0.000    0.000    0.000    0.000    0.000    0.000 
#
# Total GULP energy -347089.763033 kJ/mol
# GULP energy per Si atom -12396.062965 kJ/mol
# Density = 1.980183 g / cm^3
# Si number density = 19.846999 Si / 1000 Ang^3
#
#
#
# Elastic Constant Matrix: (Units=GPa)
#
#
# Indices 1 2 3 4 5 6 
#
# 1 68.8663 38.7334 42.8713 0.0000 0.0000 0.0000
# 2 38.7334 112.6134 49.2636 0.0000 0.0000 0.0000
# 3 42.8713 49.2636 90.3193 0.0000 0.0000 0.0000
# 4 0.0000 0.0000 0.0000 24.7923 0.0000 0.0000
# 5 0.0000 0.0000 0.0000 0.0000 10.9694 0.0000
# 6 0.0000 0.0000 0.0000 0.0000 0.0000 23.8437
#
#
#
# Elastic Compliance Matrix: (Units=1/GPa)
#
#
# Indices 1 2 3 4 5 6 
#
# 1 0.021849 -0.003911 -0.008237 0.000000 0.000000 0.000000
# 2 -0.003911 0.012363 -0.004887 0.000000 0.000000 0.000000
# 3 -0.008237 -0.004887 0.017647 0.000000 0.000000 0.000000
# 4 0.000000 0.000000 0.000000 0.040335 0.000000 0.000000
# 5 0.000000 0.000000 0.000000 0.000000 0.091163 0.000000
# 6 0.000000 0.000000 0.000000 0.000000 0.000000 0.041940
#
#
# Mechanical properties :
#
#
# Convention : Reuss Voigt Hill
#
# Bulk Modulus (GPa) = 56.21734 59.28171 57.74952
# Shear Modulus (GPa) = 18.84677 21.31644 20.08161
#
# Velocity S-wave (km/s) = 3.08491 3.28081 3.18436
# Velocity P-wave (km/s) = 6.40903 6.65476 6.53305
#
# Compressibility (1/GPa) = 0.01778811
#
# Stress axis : x y z
#
# Youngs Moduli (GPa) = 45.76891 80.88676 56.66618
#
# Poissons Ratio (x) = 0.31638 0.46678
# Poissons Ratio (y) = 0.17902 0.27691
# Poissons Ratio (z) = 0.37702 0.39526
#
# Static dielectric constant tensor:
#      x y z
#    x 3.920150 0.000000 0.000000 
#    y 0.000000 4.159300 0.000000 
#    z 0.000000 0.000000 3.218240 
# 
# 
# High freq. dielectric constant tensor:
#      x y z
#    x 1.786660 0.000000 0.000000 
#    y 0.000000 1.785080 0.000000 
#    z 0.000000 0.000000 1.727750 
# 
# From -- ./inp_files/17076.got.cif
#   From: 2010.03.12/outbox.cif.g09.slc.cpg/sg40_9_cif.got.tgz:17076.got - 2010.04.14 01:38:03.
