data_PCOD8184921
_publ_section_title
;
Structure prediction by ZEFSAII (Michael W. Deem and Ramdas Pophale) SiO2 
 PCOD8184921
Probable space group: A B A 2
;
_chemical_formula_sum "Si O2"
_cell_formula_units_Z 60
_cell_length_a 8.662541
_cell_length_b 13.536649
_cell_length_c 24.896674
_cell_angle_alpha 90.000000
_cell_angle_beta 90.000000
_cell_angle_gamma 90.000000
_cell_volume 2919.428234
_symmetry_space_group_name_H-M "A B A 2"
_symmetry_group_IT_number 41
_symmetry_cell_setting 'orthorhombic'
loop_
_space_group_symop_operation_xyz
x,y,z
-x,-y,z
1/2-x,y,1/2+z
1/2+x,-y,1/2+z
x,1/2+y,1/2+z
-x,1/2-y,1/2+z
1/2-x,1/2+y,z
1/2+x,1/2-y,z
loop_
_atom_site_type_symbol
_atom_site_label
_atom_site_fract_x
_atom_site_fract_y
_atom_site_fract_z
Si Si1 0.078694 0.261005 0.901500
Si Si2 0.590013 0.186222 0.239171
Si Si3 0.328810 0.381162 0.935324
Si Si4 0.824847 0.769743 0.664488
Si Si5 0.165625 0.469964 0.325683
Si Si6 0.827712 0.834234 0.328985
Si Si7 0.947216 0.391082 0.616479
Si Si8 0.000000 0.000000 0.015053
O O1 0.185472 0.308683 0.948856
O O2 0.173903 0.218973 0.850554
O O3 0.993819 0.171860 0.931744
O O4 0.951976 0.336116 0.877143
O O5 0.419625 0.178009 0.213140
O O6 0.706501 0.192742 0.189932
O O7 0.635238 0.089808 0.271775
O O8 0.599831 0.282174 0.277001
O O9 0.265282 0.410743 0.875861
O O10 0.352353 0.468454 0.978261
O O11 0.726066 0.855999 0.634028
O O12 0.934501 0.699486 0.628206
O O13 0.283404 0.556273 0.310624
O O14 0.000000 0.500000 0.349400
O O15 0.000000 0.500000 0.641723
O O16 0.945741 0.407556 0.551926
#
# Coordination Sequence:
#
# PCOD8184921 Si02
#       8
#     8   8   8   8   8   8   8   4
#     4  10  20  36  59  86 139 169 217 262 316 391
#     4  11  22  36  61  92 131 176 217 255 322 420
#     4  11  21  39  62  94 125 180 212 274 322 409
#     4  10  22  43  66  95 134 171 228 278 352 394
#     4  12  21  34  59  90 137 174 210 256 315 390
#     4  11  20  37  54  89 135 183 210 254 313 389
#     4   9  23  45  71  96 128 169 230 303 342 404
#     4  10  22  44  72  90 128 166 236 280 360 392
#
# _framework density 20.551969
#
# number of rings (size 3 to 8) (size 9 to 14) (size 15 to 20)
#    0.400    1.067    4.667    1.600    0.000    4.800 
#    0.000    2.000    0.000    9.600    0.000    0.000 
#    0.000    0.000    0.000    0.000    0.000    0.000 
#
# Total GULP energy -371668.287138 kJ/mol
# GULP energy per Si atom -12388.942905 kJ/mol
# Density = 2.050519 g / cm^3
# Si number density = 20.551969 Si / 1000 Ang^3
#
#
#
# Elastic Constant Matrix: (Units=GPa)
#
#
# Indices 1 2 3 4 5 6 
#
# 1 108.8925 52.2924 38.0837 0.0000 0.0000 0.0000
# 2 52.2924 123.5362 47.4086 0.0000 0.0000 0.0000
# 3 38.0837 47.4086 82.0371 0.0000 0.0000 0.0000
# 4 0.0000 0.0000 0.0000 40.5853 0.0000 0.0000
# 5 0.0000 0.0000 0.0000 0.0000 16.5736 0.0000
# 6 0.0000 0.0000 0.0000 0.0000 0.0000 30.7186
#
#
#
# Elastic Compliance Matrix: (Units=1/GPa)
#
#
# Indices 1 2 3 4 5 6 
#
# 1 0.012244 -0.003857 -0.003455 0.000000 0.000000 0.000000
# 2 -0.003857 0.011617 -0.004923 0.000000 0.000000 0.000000
# 3 -0.003455 -0.004923 0.016638 0.000000 0.000000 0.000000
# 4 0.000000 0.000000 0.000000 0.024639 0.000000 0.000000
# 5 0.000000 0.000000 0.000000 0.000000 0.060337 0.000000
# 6 0.000000 0.000000 0.000000 0.000000 0.000000 0.032554
#
#
# Mechanical properties :
#
#
# Convention : Reuss Voigt Hill
#
# Bulk Modulus (GPa) = 62.38479 65.55945 63.97212
# Shear Modulus (GPa) = 26.61827 29.35423 27.98625
#
# Velocity S-wave (km/s) = 3.60275 3.78338 3.69417
# Velocity P-wave (km/s) = 6.90847 7.14520 7.02783
#
# Compressibility (1/GPa) = 0.01602955
#
# Stress axis : x y z
#
# Youngs Moduli (GPa) = 81.67347 86.08438 60.10235
#
# Poissons Ratio (x) = 0.33202 0.20766
# Poissons Ratio (y) = 0.31500 0.29586
# Poissons Ratio (z) = 0.28219 0.42376
#
# Static dielectric constant tensor:
#      x y z
#    x 3.959900 0.000000 0.000000 
#    y 0.000000 3.828440 0.000000 
#    z 0.000000 0.000000 3.485170 
# 
# 
# High freq. dielectric constant tensor:
#      x y z
#    x 1.811620 0.000000 0.000000 
#    y 0.000000 1.801000 0.000000 
#    z 0.000000 0.000000 1.776200 
# 
# From -- ./inp_files/12475.got.cif
#   From: 2010.03.12/outbox.cif.g09.slc.cpg/sg41_7_cif.got.tgz:12475.got - 2010.04.14 01:55:53.
