data_PCOD8184848
_publ_section_title
;
Structure prediction by ZEFSAII (Michael W. Deem and Ramdas Pophale) SiO2 
 PCOD8184848
Probable space group: A B A 2
;
_chemical_formula_sum "Si O2"
_cell_formula_units_Z 52
_cell_length_a 9.159740
_cell_length_b 17.209067
_cell_length_c 16.748253
_cell_angle_alpha 90.000000
_cell_angle_beta 90.000000
_cell_angle_gamma 90.000000
_cell_volume 2640.036824
_symmetry_space_group_name_H-M "A B A 2"
_symmetry_group_IT_number 41
_symmetry_cell_setting 'orthorhombic'
loop_
_space_group_symop_operation_xyz
x,y,z
-x,-y,z
1/2-x,y,1/2+z
1/2+x,-y,1/2+z
x,1/2+y,1/2+z
-x,1/2-y,1/2+z
1/2-x,1/2+y,z
1/2+x,1/2-y,z
loop_
_atom_site_type_symbol
_atom_site_label
_atom_site_fract_x
_atom_site_fract_y
_atom_site_fract_z
Si Si1 0.710608 0.245476 0.960700
Si Si2 0.238716 0.033059 0.539982
Si Si3 0.975147 0.668856 0.368968
Si Si4 0.981567 0.287709 0.192377
Si Si5 0.500000 0.000000 0.422814
Si Si6 0.441580 0.887564 0.044500
Si Si7 0.192069 0.674727 0.628101
O O1 0.634849 0.305142 0.899469
O O2 0.858896 0.211451 0.925184
O O3 0.602638 0.173822 0.977313
O O4 0.743874 0.290214 0.042938
O O5 0.304222 0.081088 0.616500
O O6 0.089905 0.074778 0.509929
O O7 0.363257 0.029455 0.473903
O O8 0.192021 0.946280 0.562085
O O9 0.952082 0.696374 0.278785
O O10 0.955990 0.575085 0.370268
O O11 0.806040 0.292556 0.193852
O O12 0.037645 0.352692 0.131901
O O13 0.034327 0.203299 0.158849
#
# Coordination Sequence:
#
# PCOD8184848 Si02
#       7
#     8   8   8   8   4   8   8
#     4  11  21  38  61  88 117 161 207 253 298 368
#     4  10  19  36  60  88 111 152 205 255 293 356
#     4  12  24  38  58  92 129 157 201 259 315 373
#     4  10  22  37  57  89 119 157 193 249 309 363
#     4  12  24  36  58  96 124 156 204 266 308 360
#     4   9  20  38  62  82 114 158 204 244 306 366
#     4  10  20  38  62  84 113 157 206 245 290 362
#
# _framework density 19.696694000000001
#
# number of rings (size 3 to 8) (size 9 to 14) (size 15 to 20)
#    0.000    1.538    3.077    3.692    0.000    2.462 
#    0.000    0.000    0.000    0.000    0.000    0.000 
#    0.000    0.000    0.000    0.000    0.000    0.000 
#
# Total GULP energy -322274.178212 kJ/mol
# GULP energy per Si atom -12395.160700 kJ/mol
# Density = 1.965186 g / cm^3
# Si number density = 19.696694 Si / 1000 Ang^3
#
#
#
# Elastic Constant Matrix: (Units=GPa)
#
#
# Indices 1 2 3 4 5 6 
#
# 1 52.6767 19.7336 21.1640 0.0000 0.0000 0.0000
# 2 19.7336 103.1265 19.4420 0.0000 0.0000 0.0000
# 3 21.1640 19.4420 85.7383 0.0000 0.0000 0.0000
# 4 0.0000 0.0000 0.0000 20.9037 0.0000 0.0000
# 5 0.0000 0.0000 0.0000 0.0000 23.9624 0.0000
# 6 0.0000 0.0000 0.0000 0.0000 0.0000 31.9655
#
#
#
# Elastic Compliance Matrix: (Units=1/GPa)
#
#
# Indices 1 2 3 4 5 6 
#
# 1 0.022127 -0.003348 -0.004703 0.000000 0.000000 0.000000
# 2 -0.003348 0.010636 -0.001586 0.000000 0.000000 0.000000
# 3 -0.004703 -0.001586 0.013184 0.000000 0.000000 0.000000
# 4 0.000000 0.000000 0.000000 0.047838 0.000000 0.000000
# 5 0.000000 0.000000 0.000000 0.000000 0.041732 0.000000
# 6 0.000000 0.000000 0.000000 0.000000 0.000000 0.031284
#
#
# Mechanical properties :
#
#
# Convention : Reuss Voigt Hill
#
# Bulk Modulus (GPa) = 37.48769 40.24674 38.86722
# Shear Modulus (GPa) = 25.64558 27.44644 26.54601
#
# Velocity S-wave (km/s) = 3.61227 3.73695 3.67514
# Velocity P-wave (km/s) = 6.03919 6.25279 6.14692
#
# Compressibility (1/GPa) = 0.02667542
#
# Stress axis : x y z
#
# Youngs Moduli (GPa) = 45.19310 94.01754 75.85049
#
# Poissons Ratio (x) = 0.31473 0.35672
# Poissons Ratio (y) = 0.15128 0.12027
# Poissons Ratio (z) = 0.21254 0.14907
#
# Static dielectric constant tensor:
#      x y z
#    x 3.770520 0.000000 0.000000 
#    y 0.000000 3.952970 0.000000 
#    z 0.000000 0.000000 3.247580 
# 
# 
# High freq. dielectric constant tensor:
#      x y z
#    x 1.777280 0.000000 0.000000 
#    y 0.000000 1.779200 0.000000 
#    z 0.000000 0.000000 1.735220 
# 
# From -- ./inp_files/9718.got.cif
#   From: 2010.03.12/outbox.cif.g09.slc.cpg/sg41_5_cif.got.tgz:9718.got - 2010.04.14 01:55:53.
