data_PCOD8184882
_publ_section_title
;
Structure prediction by ZEFSAII (Michael W. Deem and Ramdas Pophale) SiO2 
 PCOD8184882
Probable space group: A B A 2
;
_chemical_formula_sum "Si O2"
_cell_formula_units_Z 48
_cell_length_a 9.931968
_cell_length_b 13.957149
_cell_length_c 16.379466
_cell_angle_alpha 90.000000
_cell_angle_beta 90.000000
_cell_angle_gamma 90.000000
_cell_volume 2270.553635
_symmetry_space_group_name_H-M "A B A 2"
_symmetry_group_IT_number 41
_symmetry_cell_setting 'orthorhombic'
loop_
_space_group_symop_operation_xyz
x,y,z
-x,-y,z
1/2-x,y,1/2+z
1/2+x,-y,1/2+z
x,1/2+y,1/2+z
-x,1/2-y,1/2+z
1/2-x,1/2+y,z
1/2+x,1/2-y,z
loop_
_atom_site_type_symbol
_atom_site_label
_atom_site_fract_x
_atom_site_fract_y
_atom_site_fract_z
Si Si1 0.616994 0.763056 0.381960
Si Si2 0.576663 0.875461 0.669515
Si Si3 0.686917 0.540989 0.252983
Si Si4 0.625951 0.442279 0.989129
Si Si5 0.128778 0.444426 0.939695
Si Si6 0.139459 0.793408 0.773031
O O1 0.667823 0.855386 0.430682
O O2 0.610310 0.670988 0.442934
O O3 0.471279 0.784814 0.343515
O O4 0.719577 0.743547 0.309188
O O5 0.431880 0.903437 0.705522
O O6 0.581268 0.894795 0.574000
O O7 0.602219 0.764670 0.691251
O O8 0.696921 0.936324 0.712497
O O9 0.650553 0.524115 0.346711
O O10 0.829742 0.596979 0.245525
O O11 0.500000 0.500000 0.952111
O O12 0.747214 0.518898 0.995462
O O13 0.000000 0.500000 0.975000
#
# Coordination Sequence:
#
# PCOD8184882 Si02
#       6
#     8   8   8   8   8   8
#     4  11  23  40  65  98 129 166 229 272 323 407
#     4  11  21  42  63  91 131 171 211 269 339 389
#     4  10  19  40  69  84 122 176 214 256 323 405
#     4  12  25  39  63  99 132 168 219 281 335 392
#     4  11  21  42  68  91 129 176 214 268 342 401
#     4  11  21  41  68  94 120 174 223 266 321 402
#
# _framework density 21.140218000000001
#
# number of rings (size 3 to 8) (size 9 to 14) (size 15 to 20)
#    0.000    1.000    6.667    4.000    0.000    1.333 
#    6.000    1.667    0.000    0.000    0.000    0.000 
#    0.000    0.000    0.000    0.000    0.000    0.000 
#
# Total GULP energy -297524.619840 kJ/mol
# GULP energy per Si atom -12396.859160 kJ/mol
# Density = 2.109210 g / cm^3
# Si number density = 21.140218 Si / 1000 Ang^3
#
#
#
# Elastic Constant Matrix: (Units=GPa)
#
#
# Indices 1 2 3 4 5 6 
#
# 1 104.8636 23.7980 6.6699 0.0000 0.0000 0.0000
# 2 23.7980 90.0330 0.8539 0.0000 0.0000 0.0000
# 3 6.6699 0.8539 52.7947 0.0000 0.0000 0.0000
# 4 0.0000 0.0000 0.0000 20.7037 0.0000 0.0000
# 5 0.0000 0.0000 0.0000 0.0000 21.0481 0.0000
# 6 0.0000 0.0000 0.0000 0.0000 0.0000 39.4520
#
#
#
# Elastic Compliance Matrix: (Units=1/GPa)
#
#
# Indices 1 2 3 4 5 6 
#
# 1 0.010226 -0.002691 -0.001248 0.000000 0.000000 0.000000
# 2 -0.002691 0.011817 0.000149 0.000000 0.000000 0.000000
# 3 -0.001248 0.000149 0.019097 0.000000 0.000000 0.000000
# 4 0.000000 0.000000 0.000000 0.048301 0.000000 0.000000
# 5 0.000000 0.000000 0.000000 0.000000 0.047510 0.000000
# 6 0.000000 0.000000 0.000000 0.000000 0.000000 0.025347
#
#
# Mechanical properties :
#
#
# Convention : Reuss Voigt Hill
#
# Bulk Modulus (GPa) = 29.79884 34.48165 32.14024
# Shear Modulus (GPa) = 27.61428 30.66539 29.13983
#
# Velocity S-wave (km/s) = 3.61812 3.81277 3.71672
# Velocity P-wave (km/s) = 5.61968 5.97740 5.80130
#
# Compressibility (1/GPa) = 0.03355835
#
# Stress axis : x y z
#
# Youngs Moduli (GPa) = 97.78644 84.62391 52.36532
#
# Poissons Ratio (x) = 0.22774 0.06537
# Poissons Ratio (y) = 0.26317 -0.00780
# Poissons Ratio (z) = 0.12208 -0.01260
#
# Static dielectric constant tensor:
#      x y z
#    x 3.933820 0.000000 0.000000 
#    y 0.000000 4.329720 0.000000 
#    z 0.000000 0.000000 3.601090 
# 
# 
# High freq. dielectric constant tensor:
#      x y z
#    x 1.823060 0.000000 0.000000 
#    y 0.000000 1.840280 0.000000 
#    z 0.000000 0.000000 1.801310 
# 
# From -- ./inp_files/9650.got.cif
#   From: 2010.03.12/outbox.cif.g09.slc.cpg/sg41_5_cif.got.tgz:9650.got - 2010.04.14 01:55:53.
