data_PCOD8184324
_publ_section_title
;
Structure prediction by ZEFSAII (Michael W. Deem and Ramdas Pophale) SiO2 
 PCOD8184324
Probable space group: A M A 2
;
_chemical_formula_sum "Si O2"
_cell_formula_units_Z 48
_cell_length_a 9.858902
_cell_length_b 19.341419
_cell_length_c 13.796693
_cell_angle_alpha 90.000000
_cell_angle_beta 90.000000
_cell_angle_gamma 90.000000
_cell_volume 2630.824536
_symmetry_space_group_name_H-M "A M A 2"
_symmetry_group_IT_number 40
_symmetry_cell_setting 'orthorhombic'
loop_
_space_group_symop_operation_xyz
x,y,z
-x,-y,z
1/2-x,y,z
1/2+x,-y,z
x,1/2+y,1/2+z
-x,1/2-y,1/2+z
1/2-x,1/2+y,1/2+z
1/2+x,1/2-y,1/2+z
loop_
_atom_site_type_symbol
_atom_site_label
_atom_site_fract_x
_atom_site_fract_y
_atom_site_fract_z
Si Si1 0.750000 0.896598 0.901050
Si Si2 0.401386 0.216934 0.356171
Si Si3 0.971956 0.154124 0.972431
Si Si4 0.250000 0.451375 0.426214
Si Si5 0.091480 0.360785 0.997846
Si Si6 0.750000 0.485161 0.228415
Si Si7 0.593614 0.766037 0.135396
Si Si8 0.500000 0.000000 0.590061
O O1 0.750000 0.912863 0.786302
O O2 0.750000 0.968908 0.962224
O O3 0.618260 0.852302 0.923326
O O4 0.250000 0.183560 0.357289
O O5 0.389928 0.288277 0.414295
O O6 0.511268 0.166166 0.403651
O O7 0.448461 0.234542 0.247314
O O8 0.996934 0.177804 0.083046
O O9 0.885489 0.083923 0.968347
O O10 0.250000 0.451431 0.307433
O O11 0.250000 0.367447 0.971537
O O12 0.069767 0.309652 0.088941
O O13 0.028653 0.434825 0.022113
O O14 0.622979 0.487028 0.160323
O O15 0.750000 0.788189 0.121662
#
# Coordination Sequence:
#
# PCOD8184324 Si02
#       8
#     4   8   8   4   8   4   8   4
#     4  10  22  34  57  83 123 152 188 228 303 357
#     4  10  22  38  61  84 114 156 197 243 285 349
#     4  11  19  38  56  85 118 157 189 245 294 346
#     4  10  22  34  55  85 123 146 198 236 297 349
#     4  10  23  40  60  88 119 156 190 242 298 344
#     4  10  24  34  56  94 112 164 186 238 294 364
#     4   9  20  37  61  83 112 154 201 236 291 348
#     4  12  22  40  60  86 126 150 200 238 296 362
#
# _framework density 18.245231
#
# number of rings (size 3 to 8) (size 9 to 14) (size 15 to 20)
#    0.500    1.333    2.500    1.500    7.000    0.000 
#    1.500    0.000    3.667    0.000    0.000    0.000 
#    0.000    0.000    0.000    0.000    0.000    0.000 
#
# Total GULP energy -297550.379813 kJ/mol
# GULP energy per Si atom -12397.932492 kJ/mol
# Density = 1.820370 g / cm^3
# Si number density = 18.245231 Si / 1000 Ang^3
#
#
#
# Elastic Constant Matrix: (Units=GPa)
#
#
# Indices 1 2 3 4 5 6 
#
# 1 115.5035 35.1004 43.9544 0.0000 0.0000 0.0000
# 2 35.1004 73.5426 37.0214 0.0000 0.0000 0.0000
# 3 43.9544 37.0214 120.9744 0.0000 0.0000 0.0000
# 4 0.0000 0.0000 0.0000 24.9177 0.0000 0.0000
# 5 0.0000 0.0000 0.0000 0.0000 39.9137 0.0000
# 6 0.0000 0.0000 0.0000 0.0000 0.0000 39.1866
#
#
#
# Elastic Compliance Matrix: (Units=1/GPa)
#
#
# Indices 1 2 3 4 5 6 
#
# 1 0.010870 -0.003782 -0.002792 0.000000 0.000000 0.000000
# 2 -0.003782 0.017390 -0.003948 0.000000 0.000000 0.000000
# 3 -0.002792 -0.003948 0.010489 0.000000 0.000000 0.000000
# 4 0.000000 0.000000 0.000000 0.040132 0.000000 0.000000
# 5 0.000000 0.000000 0.000000 0.000000 0.025054 0.000000
# 6 0.000000 0.000000 0.000000 0.000000 0.000000 0.025519
#
#
# Mechanical properties :
#
#
# Convention : Reuss Voigt Hill
#
# Bulk Modulus (GPa) = 56.48208 60.24145 58.36176
# Shear Modulus (GPa) = 31.96964 33.73323 32.85144
#
# Velocity S-wave (km/s) = 4.19049 4.30452 4.24789
# Velocity P-wave (km/s) = 7.37821 7.60227 7.49108
#
# Compressibility (1/GPa) = 0.01770473
#
# Stress axis : x y z
#
# Youngs Moduli (GPa) = 91.99968 57.50420 95.34147
#
# Poissons Ratio (x) = 0.21751 0.26617
# Poissons Ratio (y) = 0.34798 0.37636
# Poissons Ratio (z) = 0.25684 0.22700
#
# Static dielectric constant tensor:
#      x y z
#    x 2.968540 0.000000 0.000000 
#    y 0.000000 3.314870 0.000000 
#    z 0.000000 0.000000 3.276880 
# 
# 
# High freq. dielectric constant tensor:
#      x y z
#    x 1.721110 0.000000 0.000000 
#    y 0.000000 1.695520 0.000000 
#    z 0.000000 0.000000 1.693070 
# 
# From -- ./inp_files/15186.got.cif
#   From: 2010.03.12/outbox.cif.g09.slc.cpg/sg40_8_cif.got.tgz:15186.got - 2010.04.14 01:38:03.
