data_PCOD8184627
_publ_section_title
;
Structure prediction by ZEFSAII (Michael W. Deem and Ramdas Pophale) SiO2 
 PCOD8184627
Probable space group: A M A 2
;
_chemical_formula_sum "Si O2"
_cell_formula_units_Z 48
_cell_length_a 16.385603
_cell_length_b 15.294970
_cell_length_c 8.830727
_cell_angle_alpha 90.000000
_cell_angle_beta 90.000000
_cell_angle_gamma 90.000000
_cell_volume 2213.133014
_symmetry_space_group_name_H-M "A M A 2"
_symmetry_group_IT_number 40
_symmetry_cell_setting 'orthorhombic'
loop_
_space_group_symop_operation_xyz
x,y,z
-x,-y,z
1/2-x,y,z
1/2+x,-y,z
x,1/2+y,1/2+z
-x,1/2-y,1/2+z
1/2-x,1/2+y,1/2+z
1/2+x,1/2-y,1/2+z
loop_
_atom_site_type_symbol
_atom_site_label
_atom_site_fract_x
_atom_site_fract_y
_atom_site_fract_z
Si Si1 0.416288 0.649427 0.333700
Si Si2 0.396858 0.823226 0.833672
Si Si3 0.655668 0.509817 0.162780
Si Si4 0.653214 0.517328 0.820487
Si Si5 0.654232 0.342351 0.659947
Si Si6 0.156671 0.807679 0.166811
O O1 0.511136 0.650844 0.373798
O O2 0.396660 0.555351 0.264325
O O3 0.363197 0.665497 0.482771
O O4 0.396003 0.723770 0.211717
O O5 0.354146 0.892573 0.723840
O O6 0.395592 0.730435 0.750422
O O7 0.345820 0.819859 0.987312
O O8 0.750000 0.481085 0.168332
O O9 0.621462 0.506754 0.991700
O O10 0.750000 0.521993 0.817358
O O11 0.622722 0.435967 0.720247
O O12 0.618751 0.606838 0.748607
O O13 0.750000 0.329314 0.689919
O O14 0.250000 0.792380 0.216410
#
# Coordination Sequence:
#
# PCOD8184627 Si02
#       6
#     8   8   8   8   8   8
#     4  12  25  41  61  93 130 164 205 264 322 368
#     4  12  25  41  61  93 130 164 205 264 322 368
#     4  11  22  41  66  92 122 165 214 259 308 376
#     4   9  21  39  64  92 118 153 208 263 304 354
#     4  11  22  41  66  92 122 165 214 259 308 376
#     4  11  22  41  66  92 122 165 214 259 308 376
#
# _framework density 21.688711999999999
#
# number of rings (size 3 to 8) (size 9 to 14) (size 15 to 20)
#    0.000    1.000    0.000    7.500    0.000    4.000 
#    0.000    7.500    0.000    0.000    0.000    0.000 
#    0.000    0.000    0.000    0.000    0.000    0.000 
#
# Total GULP energy -297812.571231 kJ/mol
# GULP energy per Si atom -12408.857135 kJ/mol
# Density = 2.163935 g / cm^3
# Si number density = 21.688712 Si / 1000 Ang^3
#
#
#
# Elastic Constant Matrix: (Units=GPa)
#
#
# Indices 1 2 3 4 5 6 
#
# 1 50.1045 15.2822 10.8430 0.0000 0.0000 0.0000
# 2 15.2822 103.6306 26.3091 0.0000 0.0000 0.0000
# 3 10.8430 26.3091 119.9863 0.0000 0.0000 0.0000
# 4 0.0000 0.0000 0.0000 43.4863 0.0000 0.0000
# 5 0.0000 0.0000 0.0000 0.0000 17.5192 0.0000
# 6 0.0000 0.0000 0.0000 0.0000 0.0000 29.7191
#
#
#
# Elastic Compliance Matrix: (Units=1/GPa)
#
#
# Indices 1 2 3 4 5 6 
#
# 1 0.021087 -0.002781 -0.001296 0.000000 0.000000 0.000000
# 2 -0.002781 0.010585 -0.002070 0.000000 0.000000 0.000000
# 3 -0.001296 -0.002070 0.008905 0.000000 0.000000 0.000000
# 4 0.000000 0.000000 0.000000 0.022996 0.000000 0.000000
# 5 0.000000 0.000000 0.000000 0.000000 0.057080 0.000000
# 6 0.000000 0.000000 0.000000 0.000000 0.000000 0.033648
#
#
# Mechanical properties :
#
#
# Convention : Reuss Voigt Hill
#
# Bulk Modulus (GPa) = 35.35475 42.06556 38.71015
# Shear Modulus (GPa) = 28.40548 32.89739 30.65143
#
# Velocity S-wave (km/s) = 3.62289 3.89883 3.76339
# Velocity P-wave (km/s) = 5.81694 6.30120 6.06391
#
# Compressibility (1/GPa) = 0.02828474
#
# Stress axis : x y z
#
# Youngs Moduli (GPa) = 47.42295 94.47187 112.29386
#
# Poissons Ratio (x) = 0.26269 0.14552
# Poissons Ratio (y) = 0.13187 0.23241
# Poissons Ratio (z) = 0.06145 0.19553
#
# Static dielectric constant tensor:
#      x y z
#    x 3.652670 0.000000 0.000000 
#    y 0.000000 4.046030 0.000000 
#    z 0.000000 0.000000 3.978550 
# 
# 
# High freq. dielectric constant tensor:
#      x y z
#    x 1.839740 0.000000 0.000000 
#    y 0.000000 1.867660 0.000000 
#    z 0.000000 0.000000 1.864040 
# 
# From -- ./inp_files/7432.got.cif
#   From: 2010.03.12/outbox.cif.g09.slc.cpg/sg40_4_cif.got.tgz:7432.got - 2010.04.14 01:38:03.
