data_PCOD8184281
_publ_section_title
;
Structure prediction by ZEFSAII (Michael W. Deem and Ramdas Pophale) SiO2 
 PCOD8184281
Probable space group: A M A 2
;
_chemical_formula_sum "Si O2"
_cell_formula_units_Z 64
_cell_length_a 8.706255
_cell_length_b 23.869941
_cell_length_c 15.373947
_cell_angle_alpha 90.000000
_cell_angle_beta 90.000000
_cell_angle_gamma 90.000000
_cell_volume 3194.979738
_symmetry_space_group_name_H-M "A M A 2"
_symmetry_group_IT_number 40
_symmetry_cell_setting 'orthorhombic'
loop_
_space_group_symop_operation_xyz
x,y,z
-x,-y,z
1/2-x,y,z
1/2+x,-y,z
x,1/2+y,1/2+z
-x,1/2-y,1/2+z
1/2-x,1/2+y,1/2+z
1/2+x,1/2-y,1/2+z
loop_
_atom_site_type_symbol
_atom_site_label
_atom_site_fract_x
_atom_site_fract_y
_atom_site_fract_z
Si Si1 0.927385 0.749393 0.268910
Si Si2 0.930879 0.060905 0.356535
Si Si3 0.071190 0.370030 0.191505
Si Si4 0.571009 0.745473 0.954285
Si Si5 0.070272 0.130957 0.510689
Si Si6 0.573318 0.142135 0.009557
Si Si7 0.426283 0.357625 0.704339
Si Si8 0.068715 0.438941 0.358748
O O1 0.750000 0.751135 0.298214
O O2 0.961840 0.694701 0.212288
O O3 0.034028 0.748924 0.353057
O O4 0.968352 0.802780 0.210735
O O5 0.750000 0.055552 0.359720
O O6 0.985323 0.096406 0.272770
O O7 0.985968 0.090495 0.443786
O O8 0.000000 0.000000 0.347552
O O9 0.250000 0.380094 0.172521
O O10 0.013015 0.407879 0.271537
O O11 0.974662 0.388266 0.107580
O O12 0.750000 0.732953 0.967110
O O13 0.477716 0.694881 0.996596
O O14 0.526639 0.801985 0.003504
O O15 0.250000 0.124196 0.496609
O O16 0.750000 0.157079 0.987055
O O17 0.557023 0.117710 0.107016
O O18 0.509837 0.096125 0.942110
O O19 0.250000 0.341074 0.724148
O O20 0.250000 0.443660 0.360826
O O21 0.000000 0.500000 0.363235
#
# Coordination Sequence:
#
# PCOD8184281 Si02
#       8
#     8   8   8   8   8   8   8   8
#     4  11  21  37  63  91 124 163 201 245 306 368
#     4  11  24  43  64  90 122 163 209 259 307 359
#     4  10  22  41  63  90 125 163 203 253 306 363
#     4  12  23  37  61  93 127 162 201 250 307 368
#     4  12  25  41  64  93 124 163 204 252 309 370
#     4  10  21  41  64  91 125 163 205 250 303 363
#     4  10  22  39  63  92 124 160 200 249 304 361
#     4  10  22  41  63  88 122 162 206 255 304 356
#
# _framework density 20.031426
#
# number of rings (size 3 to 8) (size 9 to 14) (size 15 to 20)
#    0.000    1.250    2.500    3.750    0.000    6.000 
#    0.000    1.250    0.000    0.000    0.000    0.000 
#    0.000    0.000    0.000    0.000    0.000    0.000 
#
# Total GULP energy -396980.951290 kJ/mol
# GULP energy per Si atom -12405.654728 kJ/mol
# Density = 1.998583 g / cm^3
# Si number density = 20.031426 Si / 1000 Ang^3
#
#
#
# Elastic Constant Matrix: (Units=GPa)
#
#
# Indices 1 2 3 4 5 6 
#
# 1 48.2330 25.8501 22.1882 0.0000 0.0000 0.0000
# 2 25.8501 130.8233 45.4755 0.0000 0.0000 0.0000
# 3 22.1882 45.4755 129.0315 0.0000 0.0000 0.0000
# 4 0.0000 0.0000 0.0000 62.7769 0.0000 0.0000
# 5 0.0000 0.0000 0.0000 0.0000 21.3295 0.0000
# 6 0.0000 0.0000 0.0000 0.0000 0.0000 34.0449
#
#
#
# Elastic Compliance Matrix: (Units=1/GPa)
#
#
# Indices 1 2 3 4 5 6 
#
# 1 0.024047 -0.003777 -0.002804 0.000000 0.000000 0.000000
# 2 -0.003777 0.009304 -0.002630 0.000000 0.000000 0.000000
# 3 -0.002804 -0.002630 0.009159 0.000000 0.000000 0.000000
# 4 0.000000 0.000000 0.000000 0.015929 0.000000 0.000000
# 5 0.000000 0.000000 0.000000 0.000000 0.046883 0.000000
# 6 0.000000 0.000000 0.000000 0.000000 0.000000 0.029373
#
#
# Mechanical properties :
#
#
# Convention : Reuss Voigt Hill
#
# Bulk Modulus (GPa) = 41.51268 55.01282 48.26275
# Shear Modulus (GPa) = 31.02764 37.93519 34.48141
#
# Velocity S-wave (km/s) = 3.93994 4.35648 4.15344
# Velocity P-wave (km/s) = 6.43943 7.26830 6.86638
#
# Compressibility (1/GPa) = 0.02408903
#
# Stress axis : x y z
#
# Youngs Moduli (GPa) = 41.58562 107.47721 109.18192
#
# Poissons Ratio (x) = 0.40592 0.30614
# Poissons Ratio (y) = 0.15706 0.28712
# Poissons Ratio (z) = 0.11661 0.28263
#
# Static dielectric constant tensor:
#      x y z
#    x 3.655430 0.000000 0.000000 
#    y 0.000000 3.720270 0.000000 
#    z 0.000000 0.000000 3.846750 
# 
# 
# High freq. dielectric constant tensor:
#      x y z
#    x 1.778570 0.000000 0.000000 
#    y 0.000000 1.776950 0.000000 
#    z 0.000000 0.000000 1.798930 
# 
# From -- ./inp_files/15605.got.cif
#   From: 2010.03.12/outbox.cif.g09.slc.cpg/sg40_8_cif.got.tgz:15605.got - 2010.04.14 01:38:03.
