data_PCOD8184026
_publ_section_title
;
Structure prediction by ZEFSAII (Michael W. Deem and Ramdas Pophale) SiO2 
 PCOD8184026
Probable space group: A M A 2
;
_chemical_formula_sum "Si O2"
_cell_formula_units_Z 56
_cell_length_a 19.019432
_cell_length_b 8.386735
_cell_length_c 16.850741
_cell_angle_alpha 90.000000
_cell_angle_beta 90.000000
_cell_angle_gamma 90.000000
_cell_volume 2687.877470
_symmetry_space_group_name_H-M "A M A 2"
_symmetry_group_IT_number 40
_symmetry_cell_setting 'orthorhombic'
loop_
_space_group_symop_operation_xyz
x,y,z
-x,-y,z
1/2-x,y,z
1/2+x,-y,z
x,1/2+y,1/2+z
-x,1/2-y,1/2+z
1/2-x,1/2+y,1/2+z
1/2+x,1/2-y,1/2+z
loop_
_atom_site_type_symbol
_atom_site_label
_atom_site_fract_x
_atom_site_fract_y
_atom_site_fract_z
Si Si1 0.067819 0.594693 0.323830
Si Si2 0.511453 0.186735 0.461049
Si Si3 0.632599 0.690290 0.527199
Si Si4 0.824984 0.162284 0.866751
Si Si5 0.570290 0.391554 0.590910
Si Si6 0.170463 0.742126 0.200084
Si Si7 0.829798 0.388742 0.726483
O O1 0.044245 0.740451 0.380355
O O2 0.116913 0.474790 0.372518
O O3 0.112051 0.645142 0.247314
O O4 0.000000 0.500000 0.292327
O O5 0.437876 0.261933 0.482131
O O6 0.559486 0.236318 0.536120
O O7 0.500000 0.000000 0.450591
O O8 0.689054 0.719512 0.457665
O O9 0.628053 0.504302 0.550011
O O10 0.652522 0.784854 0.607072
O O11 0.750000 0.095374 0.835182
O O12 0.847445 0.311819 0.811910
O O13 0.500000 0.500000 0.608667
O O14 0.608053 0.323087 0.669673
O O15 0.250000 0.680080 0.215230
O O16 0.163563 0.921636 0.231050
O O17 0.750000 0.343682 0.698547
#
# Coordination Sequence:
#
# PCOD8184026 Si02
#       7
#     8   8   8   8   8   8   8
#     4  12  24  42  65  93 131 168 219 271 323 388
#     4  11  23  40  62  95 129 165 218 274 323 376
#     4  10  20  41  64  90 128 168 213 257 320 390
#     4  11  22  39  66  91 126 173 214 261 318 385
#     4   9  18  39  64  89 129 167 211 261 317 389
#     4  10  23  42  66  97 132 173 218 267 322 387
#     4   9  21  39  63  97 130 164 215 264 318 384
#
# _framework density 20.834284
#
# number of rings (size 3 to 8) (size 9 to 14) (size 15 to 20)
#    0.000    1.714    2.857    1.286    2.000    5.714 
#    0.000    0.000    0.000    0.857    0.000    0.000 
#    0.000    0.000    0.000    0.000    0.000    0.000 
#
# Total GULP energy -346868.198734 kJ/mol
# GULP energy per Si atom -12388.149955 kJ/mol
# Density = 2.078686 g / cm^3
# Si number density = 20.834284 Si / 1000 Ang^3
#
#
#
# Elastic Constant Matrix: (Units=GPa)
#
#
# Indices 1 2 3 4 5 6 
#
# 1 113.2581 36.0729 72.7968 0.0000 0.0000 0.0000
# 2 36.0729 78.8170 68.0181 0.0000 0.0000 0.0000
# 3 72.7968 68.0181 165.0970 0.0000 0.0000 0.0000
# 4 0.0000 0.0000 0.0000 31.0212 0.0000 0.0000
# 5 0.0000 0.0000 0.0000 0.0000 30.3429 0.0000
# 6 0.0000 0.0000 0.0000 0.0000 0.0000 13.2678
#
#
#
# Elastic Compliance Matrix: (Units=1/GPa)
#
#
# Indices 1 2 3 4 5 6 
#
# 1 0.012433 -0.001489 -0.004869 0.000000 0.000000 0.000000
# 2 -0.001489 0.019865 -0.007528 0.000000 0.000000 0.000000
# 3 -0.004869 -0.007528 0.011305 0.000000 0.000000 0.000000
# 4 0.000000 0.000000 0.000000 0.032236 0.000000 0.000000
# 5 0.000000 0.000000 0.000000 0.000000 0.032957 0.000000
# 6 0.000000 0.000000 0.000000 0.000000 0.000000 0.075371
#
#
# Mechanical properties :
#
#
# Convention : Reuss Voigt Hill
#
# Bulk Modulus (GPa) = 63.15935 78.99420 71.07677
# Shear Modulus (GPa) = 23.01863 26.94533 24.98198
#
# Velocity S-wave (km/s) = 3.32752 3.60017 3.46653
# Velocity P-wave (km/s) = 6.71894 7.43502 7.08603
#
# Compressibility (1/GPa) = 0.01583297
#
# Stress axis : x y z
#
# Youngs Moduli (GPa) = 80.43146 50.33861 88.45382
#
# Poissons Ratio (x) = 0.07493 0.43067
# Poissons Ratio (y) = 0.11973 0.66588
# Poissons Ratio (z) = 0.39161 0.37895
#
# Static dielectric constant tensor:
#      x y z
#    x 4.077500 0.000000 0.000000 
#    y 0.000000 5.608700 0.000000 
#    z 0.000000 0.000000 4.016020 
# 
# 
# High freq. dielectric constant tensor:
#      x y z
#    x 1.830610 0.000000 0.000000 
#    y 0.000000 1.787830 0.000000 
#    z 0.000000 0.000000 1.823430 
# 
# From -- ./inp_files/18249.got.cif
#   From: 2010.03.12/outbox.cif.g09.slc.cpg/sg40_10_cif.got.tgz:18249.got - 2010.04.14 01:38:03.
