data_PCOD8184279
_publ_section_title
;
Structure prediction by ZEFSAII (Michael W. Deem and Ramdas Pophale) SiO2 
 PCOD8184279
Probable space group: A M A 2
;
_chemical_formula_sum "Si O2"
_cell_formula_units_Z 48
_cell_length_a 8.676785
_cell_length_b 27.789217
_cell_length_c 9.865503
_cell_angle_alpha 90.000000
_cell_angle_beta 90.000000
_cell_angle_gamma 90.000000
_cell_volume 2378.780553
_symmetry_space_group_name_H-M "A M A 2"
_symmetry_group_IT_number 40
_symmetry_cell_setting 'orthorhombic'
loop_
_space_group_symop_operation_xyz
x,y,z
-x,-y,z
1/2-x,y,z
1/2+x,-y,z
x,1/2+y,1/2+z
-x,1/2-y,1/2+z
1/2-x,1/2+y,1/2+z
1/2+x,1/2-y,1/2+z
loop_
_atom_site_type_symbol
_atom_site_label
_atom_site_fract_x
_atom_site_fract_y
_atom_site_fract_z
Si Si1 0.432991 0.285906 0.644790
Si Si2 0.431092 0.600337 0.048791
Si Si3 0.929241 0.048274 0.308377
Si Si4 0.928625 0.612648 0.556510
Si Si5 0.932322 0.053158 0.805856
Si Si6 0.067908 0.203621 0.439998
O O1 0.250000 0.288790 0.657061
O O2 0.497732 0.333491 0.567203
O O3 0.487810 0.240804 0.555429
O O4 0.496990 0.281612 0.796401
O O5 0.250000 0.600227 0.078062
O O6 0.521361 0.588685 0.185344
O O7 0.474514 0.558948 0.943092
O O8 0.488877 0.651345 0.989567
O O9 0.750000 0.042209 0.343130
O O10 0.959274 0.090272 0.202604
O O11 0.000000 0.000000 0.244404
O O12 0.750000 0.615887 0.521067
O O13 0.002928 0.579253 0.439803
O O14 0.750000 0.047435 0.812696
O O15 0.000000 0.000000 0.788951
O O16 0.250000 0.204707 0.423113
#
# Coordination Sequence:
#
# PCOD8184279 Si02
#       6
#     8   8   8   8   8   8
#     4  10  21  41  64  89 122 157 196 242 294 360
#     4  11  23  40  58  86 123 157 196 245 293 350
#     4  11  21  37  61  88 115 153 196 242 298 352
#     4   9  20  38  61  87 117 153 196 240 291 353
#     4  11  23  40  61  88 119 159 202 246 298 353
#     4  10  23  40  62  92 123 154 196 247 298 350
#
# _framework density 20.178405000000001
#
# number of rings (size 3 to 8) (size 9 to 14) (size 15 to 20)
#    0.000    1.667    1.667    2.500    2.333    1.333 
#    0.000    4.167    0.000    0.000    0.000    0.000 
#    0.000    0.000    0.000    0.000    0.000    0.000 
#
# Total GULP energy -297619.158271 kJ/mol
# GULP energy per Si atom -12400.798261 kJ/mol
# Density = 2.013248 g / cm^3
# Si number density = 20.178405 Si / 1000 Ang^3
#
#
#
# Elastic Constant Matrix: (Units=GPa)
#
#
# Indices 1 2 3 4 5 6 
#
# 1 45.2087 31.8664 33.3454 0.0000 0.0000 0.0000
# 2 31.8664 129.5865 52.4514 0.0000 0.0000 0.0000
# 3 33.3454 52.4514 128.6674 0.0000 0.0000 0.0000
# 4 0.0000 0.0000 0.0000 28.6777 0.0000 0.0000
# 5 0.0000 0.0000 0.0000 0.0000 26.6371 0.0000
# 6 0.0000 0.0000 0.0000 0.0000 0.0000 19.9665
#
#
#
# Elastic Compliance Matrix: (Units=1/GPa)
#
#
# Indices 1 2 3 4 5 6 
#
# 1 0.029868 -0.005044 -0.005684 0.000000 0.000000 0.000000
# 2 -0.005044 0.010094 -0.002807 0.000000 0.000000 0.000000
# 3 -0.005684 -0.002807 0.010390 0.000000 0.000000 0.000000
# 4 0.000000 0.000000 0.000000 0.034870 0.000000 0.000000
# 5 0.000000 0.000000 0.000000 0.000000 0.037542 0.000000
# 6 0.000000 0.000000 0.000000 0.000000 0.000000 0.050084
#
#
# Mechanical properties :
#
#
# Convention : Reuss Voigt Hill
#
# Bulk Modulus (GPa) = 42.95648 59.86543 51.41096
# Shear Modulus (GPa) = 24.07577 27.44290 25.75933
#
# Velocity S-wave (km/s) = 3.45794 3.69184 3.57680
# Velocity P-wave (km/s) = 6.10555 6.92137 6.52622
#
# Compressibility (1/GPa) = 0.02327937
#
# Stress axis : x y z
#
# Youngs Moduli (GPa) = 33.48102 99.07323 96.25012
#
# Poissons Ratio (x) = 0.49972 0.54712
# Poissons Ratio (y) = 0.16888 0.27022
# Poissons Ratio (z) = 0.19032 0.27814
#
# Static dielectric constant tensor:
#      x y z
#    x 3.462380 0.000000 0.000000 
#    y 0.000000 3.947750 0.000000 
#    z 0.000000 0.000000 3.689140 
# 
# 
# High freq. dielectric constant tensor:
#      x y z
#    x 1.768920 0.000000 0.000000 
#    y 0.000000 1.805360 0.000000 
#    z 0.000000 0.000000 1.797530 
# 
# From -- ./inp_files/4587.got.cif
#   From: 2010.03.12/outbox.cif.g09.slc.cpg/sg40_3_cif.got.tgz:4587.got - 2010.04.14 01:38:03.
