data_PCOD8184791
_publ_section_title
;
Structure prediction by ZEFSAII (Michael W. Deem and Ramdas Pophale) SiO2 
 PCOD8184791
Probable space group: A B A 2
;
_chemical_formula_sum "Si O2"
_cell_formula_units_Z 60
_cell_length_a 11.104547
_cell_length_b 17.073665
_cell_length_c 15.514632
_cell_angle_alpha 90.000000
_cell_angle_beta 90.000000
_cell_angle_gamma 90.000000
_cell_volume 2941.501548
_symmetry_space_group_name_H-M "A B A 2"
_symmetry_group_IT_number 41
_symmetry_cell_setting 'orthorhombic'
loop_
_space_group_symop_operation_xyz
x,y,z
-x,-y,z
1/2-x,y,1/2+z
1/2+x,-y,1/2+z
x,1/2+y,1/2+z
-x,1/2-y,1/2+z
1/2-x,1/2+y,z
1/2+x,1/2-y,z
loop_
_atom_site_type_symbol
_atom_site_label
_atom_site_fract_x
_atom_site_fract_y
_atom_site_fract_z
Si Si1 0.694471 0.464273 0.653190
Si Si2 0.601647 0.854605 0.686628
Si Si3 0.753822 0.550517 0.324485
Si Si4 0.000000 0.500000 0.784891
Si Si5 0.193140 0.302776 0.220739
Si Si6 0.486430 0.370125 0.580103
Si Si7 0.252602 0.917552 0.009485
Si Si8 0.395956 0.286727 0.085903
O O1 0.771255 0.385307 0.651483
O O2 0.682731 0.496219 0.752082
O O3 0.565340 0.444062 0.612493
O O4 0.764455 0.528558 0.594604
O O5 0.528298 0.923864 0.729179
O O6 0.630795 0.779672 0.749131
O O7 0.524975 0.825560 0.605296
O O8 0.615718 0.524677 0.338506
O O9 0.772176 0.642149 0.301064
O O10 0.798594 0.539791 0.423189
O O11 0.316870 0.281346 0.172380
O O12 0.099804 0.348621 0.159995
O O13 0.395942 0.395722 0.502846
O O14 0.573710 0.299891 0.549276
O O15 0.174816 0.838123 0.016203
#
# Coordination Sequence:
#
# PCOD8184791 Si02
#       8
#     8   8   8   4   8   8   8   8
#     4  11  21  39  64  93 125 167 207 258 319 380
#     4  10  19  35  68  87 116 168 206 256 320 372
#     4  11  23  40  61  93 129 166 209 259 319 382
#     4  10  20  36  58  90 122 160 212 254 308 378
#     4  10  19  38  61  90 122 163 206 259 314 374
#     4  10  21  37  67  87 124 164 212 257 314 376
#     4  11  24  40  63  92 126 165 209 266 314 376
#     4  10  18  40  60  88 118 162 210 260 314 370
#
# _framework density 20.397745
#
# number of rings (size 3 to 8) (size 9 to 14) (size 15 to 20)
#    0.000    1.600    5.333    1.200    1.867    0.000 
#    2.400    2.667    0.000    0.000    0.000    0.000 
#    0.000    0.000    0.000    0.000    0.000    0.000 
#
# Total GULP energy -371648.393447 kJ/mol
# GULP energy per Si atom -12388.279782 kJ/mol
# Density = 2.035132 g / cm^3
# Si number density = 20.397745 Si / 1000 Ang^3
#
#
#
# Elastic Constant Matrix: (Units=GPa)
#
#
# Indices 1 2 3 4 5 6 
#
# 1 72.7025 37.0424 14.1934 0.0000 0.0000 0.0000
# 2 37.0424 94.5183 32.7193 0.0000 0.0000 0.0000
# 3 14.1934 32.7193 94.2284 0.0000 0.0000 0.0000
# 4 0.0000 0.0000 0.0000 13.2846 0.0000 0.0000
# 5 0.0000 0.0000 0.0000 0.0000 12.7105 0.0000
# 6 0.0000 0.0000 0.0000 0.0000 0.0000 55.0557
#
#
#
# Elastic Compliance Matrix: (Units=1/GPa)
#
#
# Indices 1 2 3 4 5 6 
#
# 1 0.017193 -0.006640 -0.000284 0.000000 0.000000 0.000000
# 2 -0.006640 0.014590 -0.004066 0.000000 0.000000 0.000000
# 3 -0.000284 -0.004066 0.012067 0.000000 0.000000 0.000000
# 4 0.000000 0.000000 0.000000 0.075275 0.000000 0.000000
# 5 0.000000 0.000000 0.000000 0.000000 0.078675 0.000000
# 6 0.000000 0.000000 0.000000 0.000000 0.000000 0.018163
#
#
# Mechanical properties :
#
#
# Convention : Reuss Voigt Hill
#
# Bulk Modulus (GPa) = 45.72428 47.70660 46.71544
# Shear Modulus (GPa) = 20.38875 28.04310 24.21593
#
# Velocity S-wave (km/s) = 3.16501 3.71187 3.44930
# Velocity P-wave (km/s) = 5.98510 6.46603 6.23021
#
# Compressibility (1/GPa) = 0.02187022
#
# Stress axis : x y z
#
# Youngs Moduli (GPa) = 58.16271 68.54199 82.86975
#
# Poissons Ratio (x) = 0.45510 0.02355
# Poissons Ratio (y) = 0.38618 0.33694
# Poissons Ratio (z) = 0.01653 0.27868
#
# Static dielectric constant tensor:
#      x y z
#    x 3.941160 0.000000 0.000000 
#    y 0.000000 4.047430 0.000000 
#    z 0.000000 0.000000 3.142620 
# 
# 
# High freq. dielectric constant tensor:
#      x y z
#    x 1.805620 0.000000 0.000000 
#    y 0.000000 1.819560 0.000000 
#    z 0.000000 0.000000 1.740640 
# 
# From -- ./inp_files/8057.got.cif
#   From: 2010.03.12/outbox.cif.g09.slc.cpg/sg41_5_cif.got.tgz:8057.got - 2010.04.14 01:55:53.
