data_PCOD8184936
_publ_section_title
;
Structure prediction by ZEFSAII (Michael W. Deem and Ramdas Pophale) SiO2 
 PCOD8184936
Probable space group: A B A 2
;
_chemical_formula_sum "Si O2"
_cell_formula_units_Z 64
_cell_length_a 19.349971
_cell_length_b 16.602300
_cell_length_c 9.881937
_cell_angle_alpha 90.000000
_cell_angle_beta 90.000000
_cell_angle_gamma 90.000000
_cell_volume 3174.612022
_symmetry_space_group_name_H-M "A B A 2"
_symmetry_group_IT_number 41
_symmetry_cell_setting 'orthorhombic'
loop_
_space_group_symop_operation_xyz
x,y,z
-x,-y,z
1/2-x,y,1/2+z
1/2+x,-y,1/2+z
x,1/2+y,1/2+z
-x,1/2-y,1/2+z
1/2-x,1/2+y,z
1/2+x,1/2-y,z
loop_
_atom_site_type_symbol
_atom_site_label
_atom_site_fract_x
_atom_site_fract_y
_atom_site_fract_z
Si Si1 0.926495 0.212511 0.736090
Si Si2 0.071392 0.468778 0.199151
Si Si3 0.942721 0.054044 0.384400
Si Si4 0.191702 0.762038 0.413547
Si Si5 0.038259 0.769730 0.433880
Si Si6 0.215866 0.526571 0.184797
Si Si7 0.205714 0.946202 0.403051
Si Si8 0.715886 0.802728 0.691712
O O1 0.903118 0.119284 0.750068
O O2 0.970248 0.224816 0.597095
O O3 0.861458 0.274995 0.737243
O O4 0.974594 0.222704 0.867906
O O5 0.133558 0.534199 0.217743
O O6 0.000000 0.500000 0.270932
O O7 0.055702 0.461088 0.042935
O O8 0.962595 0.145513 0.355852
O O9 0.867022 0.028337 0.333217
O O10 0.000000 0.000000 0.308674
O O11 0.112940 0.730411 0.401509
O O12 0.194964 0.855469 0.457226
O O13 0.230298 0.751666 0.273049
O O14 0.228627 0.712159 0.533030
O O15 0.239097 0.454827 0.284587
O O16 0.262394 0.604718 0.220668
O O17 0.227298 0.501714 0.029522
#
# Coordination Sequence:
#
# PCOD8184936 Si02
#       8
#     8   8   8   8   8   8   8   8
#     4  10  21  39  59  89 124 160 200 261 307 370
#     4   9  19  37  60  82 113 162 209 241 286 374
#     4   8  16  32  55  79 108 147 201 239 278 356
#     4  10  21  40  58  86 120 162 200 254 308 374
#     4   9  20  35  58  82 119 155 200 246 306 364
#     4  11  22  37  59  90 118 156 201 255 305 364
#     4  10  20  37  60  81 117 160 198 244 303 368
#     4  11  23  37  60  91 126 152 205 260 312 365
#
# _framework density 20.159943999999999
#
# number of rings (size 3 to 8) (size 9 to 14) (size 15 to 20)
#    0.000    2.250    0.000    4.500    3.500    1.000 
#    2.250    2.500    0.000    1.500    0.000    0.000 
#    0.000    0.000    0.000    0.000    0.000    0.000 
#
# Total GULP energy -396469.836590 kJ/mol
# GULP energy per Si atom -12389.682393 kJ/mol
# Density = 2.011406 g / cm^3
# Si number density = 20.159944 Si / 1000 Ang^3
#
#
#
# Elastic Constant Matrix: (Units=GPa)
#
#
# Indices 1 2 3 4 5 6 
#
# 1 102.6278 45.2069 37.7880 0.0000 0.0000 0.0000
# 2 45.2069 80.6906 15.9505 0.0000 0.0000 0.0000
# 3 37.7880 15.9505 45.5442 0.0000 0.0000 0.0000
# 4 0.0000 0.0000 0.0000 21.0870 0.0000 0.0000
# 5 0.0000 0.0000 0.0000 0.0000 33.0766 0.0000
# 6 0.0000 0.0000 0.0000 0.0000 0.0000 33.8126
#
#
#
# Elastic Compliance Matrix: (Units=1/GPa)
#
#
# Indices 1 2 3 4 5 6 
#
# 1 0.017342 -0.007383 -0.011803 0.000000 0.000000 0.000000
# 2 -0.007383 0.016458 0.000362 0.000000 0.000000 0.000000
# 3 -0.011803 0.000362 0.031623 0.000000 0.000000 0.000000
# 4 0.000000 0.000000 0.000000 0.047423 0.000000 0.000000
# 5 0.000000 0.000000 0.000000 0.000000 0.030233 0.000000
# 6 0.000000 0.000000 0.000000 0.000000 0.000000 0.029575
#
#
# Mechanical properties :
#
#
# Convention : Reuss Voigt Hill
#
# Bulk Modulus (GPa) = 36.00436 47.41702 41.71069
# Shear Modulus (GPa) = 22.77293 26.25639 24.51466
#
# Velocity S-wave (km/s) = 3.36462 3.61280 3.49091
# Velocity P-wave (km/s) = 5.74390 6.40114 6.08140
#
# Compressibility (1/GPa) = 0.02777441
#
# Stress axis : x y z
#
# Youngs Moduli (GPa) = 57.66402 60.76199 31.62258
#
# Poissons Ratio (x) = 0.44858 0.37324
# Poissons Ratio (y) = 0.42571 -0.01143
# Poissons Ratio (z) = 0.68061 -0.02197
#
# Static dielectric constant tensor:
#      x y z
#    x 4.214780 0.000000 0.000000 
#    y 0.000000 3.729070 0.000000 
#    z 0.000000 0.000000 3.300870 
# 
# 
# High freq. dielectric constant tensor:
#      x y z
#    x 1.795660 0.000000 0.000000 
#    y 0.000000 1.780850 0.000000 
#    z 0.000000 0.000000 1.758710 
# 
# From -- ./inp_files/6050.got.cif
#   From: 2010.03.12/outbox.cif.g09.slc.cpg/sg41_4_cif.got.tgz:6050.got - 2010.04.14 01:55:53.
