data_PCOD8184669
_publ_section_title
;
Structure prediction by ZEFSAII (Michael W. Deem and Ramdas Pophale) SiO2 
 PCOD8184669
Probable space group: A M A 2
;
_chemical_formula_sum "Si O2"
_cell_formula_units_Z 64
_cell_length_a 31.626405
_cell_length_b 9.920230
_cell_length_c 9.889398
_cell_angle_alpha 90.000000
_cell_angle_beta 90.000000
_cell_angle_gamma 90.000000
_cell_volume 3102.711711
_symmetry_space_group_name_H-M "A M A 2"
_symmetry_group_IT_number 40
_symmetry_cell_setting 'orthorhombic'
loop_
_space_group_symop_operation_xyz
x,y,z
-x,-y,z
1/2-x,y,z
1/2+x,-y,z
x,1/2+y,1/2+z
-x,1/2-y,1/2+z
1/2-x,1/2+y,1/2+z
1/2+x,1/2-y,1/2+z
loop_
_atom_site_type_symbol
_atom_site_label
_atom_site_fract_x
_atom_site_fract_y
_atom_site_fract_z
Si Si1 0.297591 0.477757 0.942750
Si Si2 0.297591 0.022243 0.134399
Si Si3 0.614168 0.353307 0.264806
Si Si4 0.327646 0.250000 0.538574
Si Si5 0.478690 0.857283 0.922241
Si Si6 0.385831 0.353308 0.312342
Si Si7 0.859735 0.750000 0.038574
Si Si8 0.521309 0.357283 0.154907
O O1 0.250000 0.419190 0.951775
O O2 0.311237 0.500000 0.788575
O O3 0.330022 0.377907 0.014078
O O4 0.298494 0.619617 0.021291
O O5 0.250000 0.080811 0.125373
O O6 0.298494 0.880383 0.055859
O O7 0.330022 0.122092 0.063071
O O8 0.643814 0.262260 0.172038
O O9 0.634852 0.500000 0.288574
O O10 0.609980 0.278041 0.409783
O O11 0.570398 0.377806 0.186838
O O12 0.356186 0.262261 0.405110
O O13 0.429602 0.877806 0.890311
O O14 0.500000 0.796650 0.788574
O O15 0.500000 0.000000 0.962441
O O16 0.486143 0.750000 0.038574
O O17 0.390020 0.278041 0.167366
O O18 0.500000 0.500000 0.114707
#
# Coordination Sequence:
#
# PCOD8184669 Si02
#       8
#     8   8   8   8   8   8   8   8
#     4  11  24  42  64  98 137 173 221 280 333 389
#     4  11  24  42  64  98 137 173 221 280 333 389
#     4  12  24  43  68  96 133 170 221 271 321 391
#     4  12  23  44  67  96 130 176 222 270 329 392
#     4  11  25  45  68  98 135 171 213 268 327 390
#     4  12  24  43  68  96 133 170 221 271 321 391
#     4  12  25  42  69  98 130 178 222 270 327 390
#     4  11  25  45  68  98 135 171 213 268 327 390
#
# _framework density 20.627117999999999
#
# number of rings (size 3 to 8) (size 9 to 14) (size 15 to 20)
#    0.000    0.500    8.750    0.750    1.750    0.500 
#    0.000    3.750    0.000    0.000    0.000    0.000 
#    0.000    0.000    0.000    0.000    0.000    0.000 
#
# Total GULP energy -396850.304780 kJ/mol
# GULP energy per Si atom -12401.572024 kJ/mol
# Density = 2.058017 g / cm^3
# Si number density = 20.627118 Si / 1000 Ang^3
#
#
#
# Elastic Constant Matrix: (Units=GPa)
#
#
# Indices 1 2 3 4 5 6 
#
# 1 72.6441 30.0662 23.2102 0.0000 0.0000 0.0000
# 2 30.0662 127.5031 56.6474 0.0000 0.0000 0.0000
# 3 23.2102 56.6474 139.7344 0.0000 0.0000 0.0000
# 4 0.0000 0.0000 0.0000 43.5804 0.0000 0.0000
# 5 0.0000 0.0000 0.0000 0.0000 29.9377 0.0000
# 6 0.0000 0.0000 0.0000 0.0000 0.0000 101.4602
#
#
#
# Elastic Compliance Matrix: (Units=1/GPa)
#
#
# Indices 1 2 3 4 5 6 
#
# 1 0.015454 -0.003054 -0.001329 0.000000 0.000000 0.000000
# 2 -0.003054 0.010169 -0.003615 0.000000 0.000000 0.000000
# 3 -0.001329 -0.003615 0.008843 0.000000 0.000000 0.000000
# 4 0.000000 0.000000 0.000000 0.022946 0.000000 0.000000
# 5 0.000000 0.000000 0.000000 0.000000 0.033403 0.000000
# 6 0.000000 0.000000 0.000000 0.000000 0.000000 0.009856
#
#
# Mechanical properties :
#
#
# Convention : Reuss Voigt Hill
#
# Bulk Modulus (GPa) = 54.14138 62.19211 58.16675
# Shear Modulus (GPa) = 40.70859 50.32617 45.51738
#
# Velocity S-wave (km/s) = 4.44728 4.94480 4.70262
# Velocity P-wave (km/s) = 7.25781 7.92575 7.59912
#
# Compressibility (1/GPa) = 0.01847016
#
# Stress axis : x y z
#
# Youngs Moduli (GPa) = 64.70695 98.33545 113.08624
#
# Poissons Ratio (x) = 0.30030 0.15029
# Poissons Ratio (y) = 0.19760 0.40884
# Poissons Ratio (z) = 0.08600 0.35551
#
# Static dielectric constant tensor:
#      x y z
#    x 3.593280 0.000000 0.000000 
#    y 0.000000 3.848910 0.000000 
#    z 0.000000 0.000000 3.936410 
# 
# 
# High freq. dielectric constant tensor:
#      x y z
#    x 1.800520 0.000000 0.000000 
#    y 0.000000 1.811740 0.000000 
#    z 0.000000 0.000000 1.818720 
# 
# From -- ./inp_files/9438.got.cif
#   From: 2010.03.12/outbox.cif.g09.slc.cpg/sg40_5_cif.got.tgz:9438.got - 2010.04.14 01:38:03.
