data_PCOD8184677
_publ_section_title
;
Structure prediction by ZEFSAII (Michael W. Deem and Ramdas Pophale) SiO2 
 PCOD8184677
Probable space group: A M A 2
;
_chemical_formula_sum "Si O2"
_cell_formula_units_Z 64
_cell_length_a 29.654359
_cell_length_b 8.860140
_cell_length_c 11.415518
_cell_angle_alpha 90.000000
_cell_angle_beta 90.000000
_cell_angle_gamma 90.000000
_cell_volume 2999.333432
_symmetry_space_group_name_H-M "A M A 2"
_symmetry_group_IT_number 40
_symmetry_cell_setting 'orthorhombic'
loop_
_space_group_symop_operation_xyz
x,y,z
-x,-y,z
1/2-x,y,z
1/2+x,-y,z
x,1/2+y,1/2+z
-x,1/2-y,1/2+z
1/2-x,1/2+y,1/2+z
1/2+x,1/2-y,1/2+z
loop_
_atom_site_type_symbol
_atom_site_label
_atom_site_fract_x
_atom_site_fract_y
_atom_site_fract_z
Si Si1 0.199797 0.753168 0.224400
Si Si2 0.662596 0.088458 0.016598
Si Si3 0.802213 0.578796 0.263950
Si Si4 0.055330 0.147851 0.727088
Si Si5 0.879644 0.640257 0.875883
Si Si6 0.411877 0.667018 0.969305
Si Si7 0.629026 0.783543 0.126170
Si Si8 0.545109 0.188905 0.770917
O O1 0.250000 0.760259 0.277299
O O2 0.198904 0.828237 0.097283
O O3 0.185323 0.579326 0.201905
O O4 0.168386 0.843175 0.314098
O O5 0.641508 0.954448 0.094357
O O6 0.688169 0.038959 0.899743
O O7 0.623918 0.201127 0.977938
O O8 0.750000 0.624850 0.246689
O O9 0.832531 0.710824 0.209190
O O10 0.083944 0.268653 0.799221
O O11 0.073597 0.114913 0.597318
O O12 0.004320 0.207650 0.715983
O O13 0.058113 0.986585 0.790471
O O14 0.892559 0.465484 0.886391
O O15 0.875549 0.695709 0.006583
O O16 0.454720 0.735263 0.899510
O O17 0.580838 0.775966 0.189511
#
# Coordination Sequence:
#
# PCOD8184677 Si02
#       8
#     8   8   8   8   8   8   8   8
#     4  11  24  44  69 101 135 175 226 281 339 406
#     4  12  24  45  70  98 136 179 225 283 331 409
#     4  11  25  45  68  99 137 178 226 281 343 409
#     4  11  26  46  68 100 142 172 231 282 339 408
#     4  12  24  45  73  97 138 185 222 281 345 404
#     4  12  25  45  71  98 136 182 225 276 343 399
#     4  12  24  44  72  97 138 180 225 279 349 395
#     4  11  25  45  68 103 133 181 225 285 340 409
#
# _framework density 21.338075
#
# number of rings (size 3 to 8) (size 9 to 14) (size 15 to 20)
#    0.000    0.500    5.000    3.375    1.750    2.000 
#    0.000    0.625    0.000    0.000    0.000    0.000 
#    0.000    0.000    0.000    0.000    0.000    0.000 
#
# Total GULP energy -396841.742262 kJ/mol
# GULP energy per Si atom -12401.304446 kJ/mol
# Density = 2.128951 g / cm^3
# Si number density = 21.338075 Si / 1000 Ang^3
#
#
#
# Elastic Constant Matrix: (Units=GPa)
#
#
# Indices 1 2 3 4 5 6 
#
# 1 114.4757 50.7856 43.9586 0.0000 0.0000 0.0000
# 2 50.7856 133.9483 42.4367 0.0000 0.0000 0.0000
# 3 43.9586 42.4367 106.3331 0.0000 0.0000 0.0000
# 4 0.0000 0.0000 0.0000 41.4218 0.0000 0.0000
# 5 0.0000 0.0000 0.0000 0.0000 30.3731 0.0000
# 6 0.0000 0.0000 0.0000 0.0000 0.0000 21.1665
#
#
#
# Elastic Compliance Matrix: (Units=1/GPa)
#
#
# Indices 1 2 3 4 5 6 
#
# 1 0.011513 -0.003271 -0.003454 0.000000 0.000000 0.000000
# 2 -0.003271 0.009475 -0.002429 0.000000 0.000000 0.000000
# 3 -0.003454 -0.002429 0.011802 0.000000 0.000000 0.000000
# 4 0.000000 0.000000 0.000000 0.024142 0.000000 0.000000
# 5 0.000000 0.000000 0.000000 0.000000 0.032924 0.000000
# 6 0.000000 0.000000 0.000000 0.000000 0.000000 0.047245
#
#
# Mechanical properties :
#
#
# Convention : Reuss Voigt Hill
#
# Bulk Modulus (GPa) = 69.05324 69.90211 69.47767
# Shear Modulus (GPa) = 31.20395 33.09736 32.15065
#
# Velocity S-wave (km/s) = 3.82823 3.94267 3.88587
# Velocity P-wave (km/s) = 7.20918 7.31824 7.26391
#
# Compressibility (1/GPa) = 0.01448158
#
# Stress axis : x y z
#
# Youngs Moduli (GPa) = 86.85923 105.53766 84.73190
#
# Poissons Ratio (x) = 0.34518 0.29268
# Poissons Ratio (y) = 0.28409 0.20585
# Poissons Ratio (z) = 0.30003 0.25639
#
# Static dielectric constant tensor:
#      x y z
#    x 3.961060 0.000000 0.000000 
#    y 0.000000 4.048780 0.000000 
#    z 0.000000 0.000000 4.219390 
# 
# 
# High freq. dielectric constant tensor:
#      x y z
#    x 1.838610 0.000000 0.000000 
#    y 0.000000 1.848470 0.000000 
#    z 0.000000 0.000000 1.851110 
# 
# From -- ./inp_files/14414.got.cif
#   From: 2010.03.12/outbox.cif.g09.slc.cpg/sg40_8_cif.got.tgz:14414.got - 2010.04.14 01:38:03.
