data_PCOD8184354
_publ_section_title
;
Structure prediction by ZEFSAII (Michael W. Deem and Ramdas Pophale) SiO2 
 PCOD8184354
Probable space group: A M A 2
;
_chemical_formula_sum "Si O2"
_cell_formula_units_Z 48
_cell_length_a 8.919721
_cell_length_b 21.823550
_cell_length_c 12.817784
_cell_angle_alpha 90.000000
_cell_angle_beta 90.000000
_cell_angle_gamma 90.000000
_cell_volume 2495.109542
_symmetry_space_group_name_H-M "A M A 2"
_symmetry_group_IT_number 40
_symmetry_cell_setting 'orthorhombic'
loop_
_space_group_symop_operation_xyz
x,y,z
-x,-y,z
1/2-x,y,z
1/2+x,-y,z
x,1/2+y,1/2+z
-x,1/2-y,1/2+z
1/2-x,1/2+y,1/2+z
1/2+x,1/2-y,1/2+z
loop_
_atom_site_type_symbol
_atom_site_label
_atom_site_fract_x
_atom_site_fract_y
_atom_site_fract_z
Si Si1 0.574648 0.383654 0.673880
Si Si2 0.074007 0.063411 0.953296
Si Si3 0.419603 0.393340 0.874201
Si Si4 0.426476 0.851845 0.787909
Si Si5 0.419676 0.275763 0.762008
Si Si6 0.573096 0.563807 0.097373
O O1 0.750000 0.370518 0.680368
O O2 0.532672 0.423497 0.573323
O O3 0.519199 0.420209 0.778133
O O4 0.488734 0.317795 0.668548
O O5 0.250000 0.058472 0.934969
O O6 0.010437 0.118447 0.885099
O O7 0.000000 0.000000 0.917631
O O8 0.250000 0.417841 0.861430
O O9 0.421343 0.318660 0.866422
O O10 0.488253 0.414387 0.984554
O O11 0.250000 0.855682 0.806990
O O12 0.475779 0.781949 0.780271
O O13 0.474784 0.885920 0.681932
O O14 0.250000 0.255643 0.733835
O O15 0.500000 0.500000 0.130109
O O16 0.750000 0.555578 0.094348
#
# Coordination Sequence:
#
# PCOD8184354 Si02
#       6
#     8   8   8   8   8   8
#     4   9  19  37  59  86 114 147 189 234 286 340
#     4  11  24  40  59  83 116 154 194 240 288 340
#     4   8  18  37  58  82 114 148 183 231 287 336
#     4  11  23  38  59  85 116 152 193 236 282 340
#     4   9  19  37  60  86 116 149 186 232 287 341
#     4  10  22  39  57  82 114 150 187 231 281 333
#
# _framework density 19.237632000000001
#
# number of rings (size 3 to 8) (size 9 to 14) (size 15 to 20)
#    1.000    1.333    0.000    2.000    0.000    8.000 
#    0.000    6.667    0.000    0.000    0.000    0.000 
#    0.000    0.000    0.000    0.000    0.000    0.000 
#
# Total GULP energy -297489.407322 kJ/mol
# GULP energy per Si atom -12395.391972 kJ/mol
# Density = 1.919385 g / cm^3
# Si number density = 19.237632 Si / 1000 Ang^3
#
#
#
# Elastic Constant Matrix: (Units=GPa)
#
#
# Indices 1 2 3 4 5 6 
#
# 1 71.0094 24.0063 39.0870 0.0000 0.0000 0.0000
# 2 24.0063 66.3287 0.5639 0.0000 0.0000 0.0000
# 3 39.0870 0.5639 78.1111 0.0000 0.0000 0.0000
# 4 0.0000 0.0000 0.0000 39.1958 0.0000 0.0000
# 5 0.0000 0.0000 0.0000 0.0000 22.4755 0.0000
# 6 0.0000 0.0000 0.0000 0.0000 0.0000 26.8779
#
#
#
# Elastic Compliance Matrix: (Units=1/GPa)
#
#
# Indices 1 2 3 4 5 6 
#
# 1 0.023275 -0.008326 -0.011587 0.000000 0.000000 0.000000
# 2 -0.008326 0.018055 0.004036 0.000000 0.000000 0.000000
# 3 -0.011587 0.004036 0.018571 0.000000 0.000000 0.000000
# 4 0.000000 0.000000 0.000000 0.025513 0.000000 0.000000
# 5 0.000000 0.000000 0.000000 0.000000 0.044493 0.000000
# 6 0.000000 0.000000 0.000000 0.000000 0.000000 0.037205
#
#
# Mechanical properties :
#
#
# Convention : Reuss Voigt Hill
#
# Bulk Modulus (GPa) = 35.52577 38.08487 36.80532
# Shear Modulus (GPa) = 24.00970 27.82930 25.91950
#
# Velocity S-wave (km/s) = 3.53662 3.80756 3.67459
# Velocity P-wave (km/s) = 5.93159 6.25860 6.09729
#
# Compressibility (1/GPa) = 0.02814858
#
# Stress axis : x y z
#
# Youngs Moduli (GPa) = 42.96403 55.38520 53.84660
#
# Poissons Ratio (x) = 0.46111 0.62392
# Poissons Ratio (y) = 0.35770 -0.21731
# Poissons Ratio (z) = 0.49782 -0.22352
#
# Static dielectric constant tensor:
#      x y z
#    x 3.478880 0.000000 0.000000 
#    y 0.000000 3.315700 0.000000 
#    z 0.000000 0.000000 3.558830 
# 
# 
# High freq. dielectric constant tensor:
#      x y z
#    x 1.754280 0.000000 0.000000 
#    y 0.000000 1.741720 0.000000 
#    z 0.000000 0.000000 1.741860 
# 
# From -- ./inp_files/10256.got.cif
#   From: 2010.03.12/outbox.cif.g09.slc.cpg/sg40_6_cif.got.tgz:10256.got - 2010.04.14 01:38:03.
