data_PCOD8185253
_publ_section_title
;
Structure prediction by ZEFSAII (Michael W. Deem and Ramdas Pophale) SiO2 
 PCOD8185253
Probable space group: A B A 2
;
_chemical_formula_sum "Si O2"
_cell_formula_units_Z 64
_cell_length_a 11.775718
_cell_length_b 17.116406
_cell_length_c 14.568324
_cell_angle_alpha 90.000000
_cell_angle_beta 90.000000
_cell_angle_gamma 90.000000
_cell_volume 2936.361815
_symmetry_space_group_name_H-M "A B A 2"
_symmetry_group_IT_number 41
_symmetry_cell_setting 'orthorhombic'
loop_
_space_group_symop_operation_xyz
x,y,z
-x,-y,z
1/2-x,y,1/2+z
1/2+x,-y,1/2+z
x,1/2+y,1/2+z
-x,1/2-y,1/2+z
1/2-x,1/2+y,z
1/2+x,1/2-y,z
loop_
_atom_site_type_symbol
_atom_site_label
_atom_site_fract_x
_atom_site_fract_y
_atom_site_fract_z
Si Si1 0.100654 0.888799 0.210130
Si Si2 0.492804 0.683803 0.561556
Si Si3 0.646190 0.438157 0.222966
Si Si4 0.206173 0.064229 0.548299
Si Si5 0.370427 0.784668 0.421218
Si Si6 0.729644 0.355547 0.878254
Si Si7 0.956098 0.273776 0.270684
Si Si8 0.235212 0.385866 0.041581
O O1 0.096619 0.814627 0.280866
O O2 0.181879 0.867064 0.126250
O O3 0.971862 0.908271 0.179344
O O4 0.147127 0.970156 0.253040
O O5 0.414281 0.608571 0.538722
O O6 0.465434 0.755455 0.493477
O O7 0.470061 0.711660 0.664004
O O8 0.625298 0.668221 0.549022
O O9 0.739992 0.417954 0.146917
O O10 0.670692 0.391131 0.315455
O O11 0.291907 0.088210 0.465621
O O12 0.187064 0.972527 0.538136
O O13 0.266421 0.725442 0.422361
O O14 0.422385 0.785922 0.319238
O O15 0.312621 0.866374 0.451966
O O16 0.619196 0.341460 0.816823
#
# Coordination Sequence:
#
# PCOD8185253 Si02
#       8
#     8   8   8   8   8   8   8   8
#     4  10  23  40  72  95 130 182 223 279 336 414
#     4  11  24  45  69  99 143 181 227 287 351 417
#     4  10  21  45  67  98 134 177 233 271 343 414
#     4  10  24  46  70  95 137 183 223 285 347 408
#     4  11  25  41  66 103 132 185 227 285 344 411
#     4  11  24  41  67  96 135 176 225 284 338 409
#     4  12  24  42  67 103 137 175 231 287 349 405
#     4  11  24  46  69 100 134 180 232 281 351 425
#
# _framework density 21.795679
#
# number of rings (size 3 to 8) (size 9 to 14) (size 15 to 20)
#    0.000    1.250    3.750    1.125    3.500    4.000 
#    4.500    0.000    0.000    0.000    0.000    0.000 
#    0.000    0.000    0.000    0.000    0.000    0.000 
#
# Total GULP energy -396666.089147 kJ/mol
# GULP energy per Si atom -12395.815286 kJ/mol
# Density = 2.174607 g / cm^3
# Si number density = 21.795679 Si / 1000 Ang^3
#
#
#
# Elastic Constant Matrix: (Units=GPa)
#
#
# Indices 1 2 3 4 5 6 
#
# 1 67.3773 38.8477 4.3144 0.0000 0.0000 0.0000
# 2 38.8477 73.1771 32.9984 0.0000 0.0000 0.0000
# 3 4.3144 32.9984 80.9054 0.0000 0.0000 0.0000
# 4 0.0000 0.0000 0.0000 35.1026 0.0000 0.0000
# 5 0.0000 0.0000 0.0000 0.0000 35.5507 0.0000
# 6 0.0000 0.0000 0.0000 0.0000 0.0000 25.6986
#
#
#
# Elastic Compliance Matrix: (Units=1/GPa)
#
#
# Indices 1 2 3 4 5 6 
#
# 1 0.022669 -0.014078 0.004533 0.000000 0.000000 0.000000
# 2 -0.014078 0.025489 -0.009645 0.000000 0.000000 0.000000
# 3 0.004533 -0.009645 0.016052 0.000000 0.000000 0.000000
# 4 0.000000 0.000000 0.000000 0.028488 0.000000 0.000000
# 5 0.000000 0.000000 0.000000 0.000000 0.028129 0.000000
# 6 0.000000 0.000000 0.000000 0.000000 0.000000 0.038913
#
#
# Mechanical properties :
#
#
# Convention : Reuss Voigt Hill
#
# Bulk Modulus (GPa) = 38.71614 41.53119 40.12366
# Shear Modulus (GPa) = 24.18621 28.95700 26.57160
#
# Velocity S-wave (km/s) = 3.33480 3.64890 3.49538
# Velocity P-wave (km/s) = 5.71223 6.07032 5.89400
#
# Compressibility (1/GPa) = 0.02582902
#
# Stress axis : x y z
#
# Youngs Moduli (GPa) = 44.11372 39.23308 62.29638
#
# Poissons Ratio (x) = 0.55234 -0.28240
# Poissons Ratio (y) = 0.62105 0.60086
# Poissons Ratio (z) = -0.19998 0.37841
#
# Static dielectric constant tensor:
#      x y z
#    x 3.796380 0.000000 0.000000 
#    y 0.000000 4.101420 0.000000 
#    z 0.000000 0.000000 3.873860 
# 
# 
# High freq. dielectric constant tensor:
#      x y z
#    x 1.854100 0.000000 0.000000 
#    y 0.000000 1.859160 0.000000 
#    z 0.000000 0.000000 1.855170 
# 
# From -- ./inp_files/8108.got.cif
#   From: 2010.03.12/outbox.cif.g09.slc.cpg/sg41_5_cif.got.tgz:8108.got - 2010.04.14 01:55:53.
