data_PCOD8185423
_publ_section_title
;
Structure prediction by ZEFSAII (Michael W. Deem and Ramdas Pophale) SiO2 
 PCOD8185423
Probable space group: A B A 2
;
_chemical_formula_sum "Si O2"
_cell_formula_units_Z 36
_cell_length_a 21.778597
_cell_length_b 12.596708
_cell_length_c 4.972515
_cell_angle_alpha 90.000000
_cell_angle_beta 90.000000
_cell_angle_gamma 90.000000
_cell_volume 1364.152938
_symmetry_space_group_name_H-M "A B A 2"
_symmetry_group_IT_number 41
_symmetry_cell_setting 'orthorhombic'
loop_
_space_group_symop_operation_xyz
x,y,z
-x,-y,z
1/2-x,y,1/2+z
1/2+x,-y,1/2+z
x,1/2+y,1/2+z
-x,1/2-y,1/2+z
1/2-x,1/2+y,z
1/2+x,1/2-y,z
loop_
_atom_site_type_symbol
_atom_site_label
_atom_site_fract_x
_atom_site_fract_y
_atom_site_fract_z
Si Si1 0.533614 0.713301 0.536350
Si Si2 0.884302 0.888305 0.091031
Si Si3 0.500000 0.000000 0.829243
Si Si4 0.709222 0.780862 0.932887
Si Si5 0.790819 0.540408 0.343421
O O1 0.479727 0.758946 0.346425
O O2 0.597630 0.773614 0.455770
O O3 0.536986 0.586033 0.509223
O O4 0.844617 0.863197 0.358749
O O5 0.847842 0.962403 0.885910
O O6 0.949004 0.943868 0.149093
O O7 0.768531 0.801675 0.737856
O O8 0.685844 0.660726 0.885946
O O9 0.765808 0.518124 0.045147
#
# Coordination Sequence:
#
# PCOD8185423 Si02
#       5
#     8   8   4   8   8
#     4  10  25  45  66  96 134 177 224 273 330 396
#     4  11  24  44  72 100 137 181 228 283 340 405
#     4  10  26  46  68 102 140 184 232 278 336 404
#     4  10  23  42  66  98 133 174 224 279 344 410
#     4  10  23  43  70 102 134 174 224 281 344 405
#
# _framework density 26.390004000000001
#
# number of rings (size 3 to 8) (size 9 to 14) (size 15 to 20)
#    0.000    1.778    0.000    1.333    0.000   24.889 
#    0.000    0.000    0.000    0.000    0.000    0.000 
#    0.000    0.000    0.000    0.000    0.000    0.000 
#
# Total GULP energy -223206.559484 kJ/mol
# GULP energy per Si atom -12400.364416 kJ/mol
# Density = 2.632994 g / cm^3
# Si number density = 26.390004 Si / 1000 Ang^3
#
#
#
# Elastic Constant Matrix: (Units=GPa)
#
#
# Indices 1 2 3 4 5 6 
#
# 1 112.7619 65.3318 9.5789 0.0000 0.0000 0.0000
# 2 65.3318 131.0526 13.4933 0.0000 0.0000 0.0000
# 3 9.5789 13.4933 81.4563 0.0000 0.0000 0.0000
# 4 0.0000 0.0000 0.0000 35.8368 0.0000 0.0000
# 5 0.0000 0.0000 0.0000 0.0000 21.6190 0.0000
# 6 0.0000 0.0000 0.0000 0.0000 0.0000 57.6969
#
#
#
# Elastic Compliance Matrix: (Units=1/GPa)
#
#
# Indices 1 2 3 4 5 6 
#
# 1 0.012486 -0.006179 -0.000445 0.000000 0.000000 0.000000
# 2 -0.006179 0.010820 -0.001066 0.000000 0.000000 0.000000
# 3 -0.000445 -0.001066 0.012505 0.000000 0.000000 0.000000
# 4 0.000000 0.000000 0.000000 0.027904 0.000000 0.000000
# 5 0.000000 0.000000 0.000000 0.000000 0.046256 0.000000
# 6 0.000000 0.000000 0.000000 0.000000 0.000000 0.017332
#
#
# Mechanical properties :
#
#
# Convention : Reuss Voigt Hill
#
# Bulk Modulus (GPa) = 48.94006 55.78653 52.36330
# Shear Modulus (GPa) = 33.44646 38.82166 36.13406
#
# Velocity S-wave (km/s) = 3.56391 3.83962 3.70433
# Velocity P-wave (km/s) = 5.95990 6.39078 6.17910
#
# Compressibility (1/GPa) = 0.02043316
#
# Stress axis : x y z
#
# Youngs Moduli (GPa) = 80.09137 92.41828 79.96560
#
# Poissons Ratio (x) = 0.57101 0.03557
# Poissons Ratio (y) = 0.49485 0.08523
# Poissons Ratio (z) = 0.03562 0.09850
#
# Static dielectric constant tensor:
#      x y z
#    x 4.582010 0.000000 0.000000 
#    y 0.000000 5.643240 0.000000 
#    z 0.000000 0.000000 4.410450 
# 
# 
# High freq. dielectric constant tensor:
#      x y z
#    x 2.045680 0.000000 0.000000 
#    y 0.000000 2.093530 0.000000 
#    z 0.000000 0.000000 2.042160 
# 
# From -- ./inp_files/638.got.cif
#   From: 2010.03.12/outbox.cif.g09.slc.cpg/sg41_1_cif.got.tgz:638.got - 2010.04.14 01:55:53.
