data_PCOD8185230
_publ_section_title
;
Structure prediction by ZEFSAII (Michael W. Deem and Ramdas Pophale) SiO2 
 PCOD8185230
Probable space group: A B A 2
;
_chemical_formula_sum "Si O2"
_cell_formula_units_Z 56
_cell_length_a 13.975237
_cell_length_b 11.375406
_cell_length_c 15.392846
_cell_angle_alpha 90.000000
_cell_angle_beta 90.000000
_cell_angle_gamma 90.000000
_cell_volume 2447.062220
_symmetry_space_group_name_H-M "A B A 2"
_symmetry_group_IT_number 41
_symmetry_cell_setting 'orthorhombic'
loop_
_space_group_symop_operation_xyz
x,y,z
-x,-y,z
1/2-x,y,1/2+z
1/2+x,-y,1/2+z
x,1/2+y,1/2+z
-x,1/2-y,1/2+z
1/2-x,1/2+y,z
1/2+x,1/2-y,z
loop_
_atom_site_type_symbol
_atom_site_label
_atom_site_fract_x
_atom_site_fract_y
_atom_site_fract_z
Si Si1 0.330970 0.870666 0.512520
Si Si2 0.541760 0.121090 0.674272
Si Si3 0.180724 0.745583 0.297389
Si Si4 0.892744 0.238641 0.758569
Si Si5 0.928196 0.346105 0.937685
Si Si6 0.105304 0.495538 0.346726
Si Si7 0.637235 0.104953 0.961302
O O1 0.409533 0.911329 0.582303
O O2 0.356257 0.736242 0.490527
O O3 0.217086 0.881938 0.539443
O O4 0.331113 0.955583 0.428069
O O5 0.627421 0.171836 0.730156
O O6 0.453461 0.215951 0.674674
O O7 0.500000 0.000000 0.713591
O O8 0.284499 0.715672 0.257803
O O9 0.131087 0.620750 0.308040
O O10 0.186783 0.815986 0.386899
O O11 0.948412 0.294858 0.841768
O O12 0.891537 0.097278 0.766647
O O13 0.876896 0.471297 0.930429
O O14 0.031609 0.347935 0.986570
O O15 0.000000 0.500000 0.386296
#
# Coordination Sequence:
#
# PCOD8185230 Si02
#       7
#     8   8   8   8   8   8   8
#     4  11  25  43  68 101 141 188 231 296 369 415
#     4  12  27  47  66 105 148 183 231 309 371 417
#     4  12  23  41  74 106 138 185 244 285 352 435
#     4  11  23  40  69 102 136 186 233 293 349 418
#     4  10  21  42  70 102 138 183 243 289 338 433
#     4  11  21  42  70 102 133 182 242 292 340 437
#     4  11  21  40  72 101 133 184 242 290 342 426
#
# _framework density 22.884582999999999
#
# number of rings (size 3 to 8) (size 9 to 14) (size 15 to 20)
#    0.000    0.857    5.714    3.000    2.000    1.143 
#    2.571    2.857    0.000    0.000    0.000    0.000 
#    0.000    0.000    0.000    0.000    0.000    0.000 
#
# Total GULP energy -347030.409514 kJ/mol
# GULP energy per Si atom -12393.943197 kJ/mol
# Density = 2.283250 g / cm^3
# Si number density = 22.884583 Si / 1000 Ang^3
#
#
#
# Elastic Constant Matrix: (Units=GPa)
#
#
# Indices 1 2 3 4 5 6 
#
# 1 176.6974 41.2021 32.1463 0.0000 0.0000 0.0000
# 2 41.2021 128.5252 35.5841 0.0000 0.0000 0.0000
# 3 32.1463 35.5841 45.6345 0.0000 0.0000 0.0000
# 4 0.0000 0.0000 0.0000 17.2360 0.0000 0.0000
# 5 0.0000 0.0000 0.0000 0.0000 37.0151 0.0000
# 6 0.0000 0.0000 0.0000 0.0000 0.0000 36.3703
#
#
#
# Elastic Compliance Matrix: (Units=1/GPa)
#
#
# Indices 1 2 3 4 5 6 
#
# 1 0.006602 -0.001057 -0.003826 0.000000 0.000000 0.000000
# 2 -0.001057 0.010092 -0.007125 0.000000 0.000000 0.000000
# 3 -0.003826 -0.007125 0.030164 0.000000 0.000000 0.000000
# 4 0.000000 0.000000 0.000000 0.058018 0.000000 0.000000
# 5 0.000000 0.000000 0.000000 0.000000 0.027016 0.000000
# 6 0.000000 0.000000 0.000000 0.000000 0.000000 0.027495
#
#
# Mechanical properties :
#
#
# Convention : Reuss Voigt Hill
#
# Bulk Modulus (GPa) = 43.77920 63.19135 53.48527
# Shear Modulus (GPa) = 26.17558 34.25260 30.21409
#
# Velocity S-wave (km/s) = 3.38569 3.87299 3.63751
# Velocity P-wave (km/s) = 5.86991 6.90457 6.40816
#
# Compressibility (1/GPa) = 0.02284190
#
# Stress axis : x y z
#
# Youngs Moduli (GPa) = 151.46917 99.08792 33.15173
#
# Poissons Ratio (x) = 0.10474 0.12685
# Poissons Ratio (y) = 0.16011 0.23620
# Poissons Ratio (z) = 0.57958 0.70598
#
# Static dielectric constant tensor:
#      x y z
#    x 4.524000 0.000000 0.000000 
#    y 0.000000 4.241530 0.000000 
#    z 0.000000 0.000000 3.728480 
# 
# 
# High freq. dielectric constant tensor:
#      x y z
#    x 1.938360 0.000000 0.000000 
#    y 0.000000 1.914560 0.000000 
#    z 0.000000 0.000000 1.846520 
# 
# From -- ./inp_files/8405.got.cif
#   From: 2010.03.12/outbox.cif.g09.slc.cpg/sg41_5_cif.got.tgz:8405.got - 2010.04.14 01:55:53.
