data_PCOD8185324
_publ_section_title
;
Structure prediction by ZEFSAII (Michael W. Deem and Ramdas Pophale) SiO2 
 PCOD8185324
Probable space group: A B A 2
;
_chemical_formula_sum "Si O2"
_cell_formula_units_Z 60
_cell_length_a 18.576156
_cell_length_b 10.689249
_cell_length_c 14.820059
_cell_angle_alpha 90.000000
_cell_angle_beta 90.000000
_cell_angle_gamma 90.000000
_cell_volume 2942.747341
_symmetry_space_group_name_H-M "A B A 2"
_symmetry_group_IT_number 41
_symmetry_cell_setting 'orthorhombic'
loop_
_space_group_symop_operation_xyz
x,y,z
-x,-y,z
1/2-x,y,1/2+z
1/2+x,-y,1/2+z
x,1/2+y,1/2+z
-x,1/2-y,1/2+z
1/2-x,1/2+y,z
1/2+x,1/2-y,z
loop_
_atom_site_type_symbol
_atom_site_label
_atom_site_fract_x
_atom_site_fract_y
_atom_site_fract_z
Si Si1 0.000000 0.500000 0.151330
Si Si2 0.634324 0.127333 0.220316
Si Si3 0.461250 0.706988 0.512317
Si Si4 0.711911 0.561284 0.259043
Si Si5 0.258159 0.795676 0.938838
Si Si6 0.347233 0.411672 0.070361
Si Si7 0.138026 0.161167 0.359256
Si Si8 0.115153 0.197155 0.049430
O O1 0.063255 0.455725 0.216536
O O2 0.036624 0.604890 0.090174
O O3 0.627086 0.206372 0.311104
O O4 0.635049 0.223190 0.137311
O O5 0.705112 0.036917 0.225977
O O6 0.407274 0.816849 0.537631
O O7 0.434393 0.637463 0.419245
O O8 0.539049 0.769803 0.504236
O O9 0.716946 0.653621 0.342397
O O10 0.673285 0.624255 0.173095
O O11 0.662105 0.443897 0.287831
O O12 0.203579 0.679255 0.928982
O O13 0.222775 0.900345 0.004749
O O14 0.329468 0.735165 0.974461
O O15 0.379268 0.550823 0.070275
#
# Coordination Sequence:
#
# PCOD8185324 Si02
#       8
#     4   8   8   8   8   8   8   8
#     4  10  24  44  66  86 132 178 218 262 344 402
#     4  10  22  41  63  96 128 169 216 274 330 394
#     4  10  25  43  63  93 131 178 219 271 337 400
#     4  11  22  39  69  98 129 171 225 277 325 394
#     4  10  23  39  63  99 126 170 218 269 335 391
#     4  11  22  43  68  94 134 174 222 280 327 410
#     4  10  22  43  60  97 132 160 226 274 319 398
#     4  11  21  43  65  93 130 175 214 269 341 395
#
# _framework density 20.389109000000001
#
# number of rings (size 3 to 8) (size 9 to 14) (size 15 to 20)
#    0.000    1.600    2.667    1.200    3.733    4.267 
#   14.400    0.000    0.000    0.000    0.000    0.000 
#    0.000    0.000    0.000    0.000    0.000    0.000 
#
# Total GULP energy -371787.805898 kJ/mol
# GULP energy per Si atom -12392.926863 kJ/mol
# Density = 2.034270 g / cm^3
# Si number density = 20.389109 Si / 1000 Ang^3
#
#
#
# Elastic Constant Matrix: (Units=GPa)
#
#
# Indices 1 2 3 4 5 6 
#
# 1 122.5223 36.2032 62.6157 0.0000 0.0000 0.0000
# 2 36.2032 65.3334 17.2997 0.0000 0.0000 0.0000
# 3 62.6157 17.2997 99.4303 0.0000 0.0000 0.0000
# 4 0.0000 0.0000 0.0000 27.5973 0.0000 0.0000
# 5 0.0000 0.0000 0.0000 0.0000 36.1877 0.0000
# 6 0.0000 0.0000 0.0000 0.0000 0.0000 30.7348
#
#
#
# Elastic Compliance Matrix: (Units=1/GPa)
#
#
# Indices 1 2 3 4 5 6 
#
# 1 0.013734 -0.005577 -0.007678 0.000000 0.000000 0.000000
# 2 -0.005577 0.018310 0.000326 0.000000 0.000000 0.000000
# 3 -0.007678 0.000326 0.014836 0.000000 0.000000 0.000000
# 4 0.000000 0.000000 0.000000 0.036235 0.000000 0.000000
# 5 0.000000 0.000000 0.000000 0.000000 0.027634 0.000000
# 6 0.000000 0.000000 0.000000 0.000000 0.000000 0.032536
#
#
# Mechanical properties :
#
#
# Convention : Reuss Voigt Hill
#
# Bulk Modulus (GPa) = 47.57012 57.72480 52.64746
# Shear Modulus (GPa) = 28.38472 30.31511 29.34991
#
# Velocity S-wave (km/s) = 3.73520 3.86012 3.79818
# Velocity P-wave (km/s) = 6.47951 6.94554 6.71657
#
# Compressibility (1/GPa) = 0.02102160
#
# Stress axis : x y z
#
# Youngs Moduli (GPa) = 72.81274 54.61456 67.40370
#
# Poissons Ratio (x) = 0.30459 0.51756
# Poissons Ratio (y) = 0.40609 -0.02200
# Poissons Ratio (z) = 0.55909 -0.01783
#
# Static dielectric constant tensor:
#      x y z
#    x 3.948700 0.000000 0.000000 
#    y 0.000000 3.607040 0.000000 
#    z 0.000000 0.000000 3.874390 
# 
# 
# High freq. dielectric constant tensor:
#      x y z
#    x 1.806150 0.000000 0.000000 
#    y 0.000000 1.785520 0.000000 
#    z 0.000000 0.000000 1.808290 
# 
# From -- ./inp_files/8792.got.cif
#   From: 2010.03.12/outbox.cif.g09.slc.cpg/sg41_5_cif.got.tgz:8792.got - 2010.04.14 01:55:53.
