data_PCOD8185047
_publ_section_title
;
Structure prediction by ZEFSAII (Michael W. Deem and Ramdas Pophale) SiO2 
 PCOD8185047
Probable space group: A B A 2
;
_chemical_formula_sum "Si O2"
_cell_formula_units_Z 60
_cell_length_a 11.892814
_cell_length_b 13.822551
_cell_length_c 17.175279
_cell_angle_alpha 90.000000
_cell_angle_beta 90.000000
_cell_angle_gamma 90.000000
_cell_volume 2823.427421
_symmetry_space_group_name_H-M "A B A 2"
_symmetry_group_IT_number 41
_symmetry_cell_setting 'orthorhombic'
loop_
_space_group_symop_operation_xyz
x,y,z
-x,-y,z
1/2-x,y,1/2+z
1/2+x,-y,1/2+z
x,1/2+y,1/2+z
-x,1/2-y,1/2+z
1/2-x,1/2+y,z
1/2+x,1/2-y,z
loop_
_atom_site_type_symbol
_atom_site_label
_atom_site_fract_x
_atom_site_fract_y
_atom_site_fract_z
Si Si1 0.486469 0.111553 0.448370
Si Si2 0.713385 0.405072 0.060198
Si Si3 0.718175 0.426728 0.723167
Si Si4 0.141841 0.926423 0.506116
Si Si5 0.000000 0.000000 0.633726
Si Si6 0.701838 0.735775 0.973287
Si Si7 0.885286 0.045841 0.328512
Si Si8 0.658909 0.767092 0.334295
O O1 0.405791 0.115828 0.522354
O O2 0.600484 0.160911 0.477669
O O3 0.440106 0.173741 0.376896
O O4 0.500000 0.000000 0.420724
O O5 0.696531 0.403568 0.152957
O O6 0.755501 0.511077 0.038728
O O7 0.808533 0.327716 0.030700
O O8 0.602805 0.470840 0.688696
O O9 0.776294 0.496116 0.787695
O O10 0.687761 0.322264 0.755911
O O11 0.181731 0.816854 0.496640
O O12 0.112428 0.971406 0.421503
O O13 0.041598 0.919717 0.570091
O O14 0.725305 0.768953 0.884532
O O15 0.881900 0.160123 0.311152
O O16 0.000000 0.000000 0.293886
#
# Coordination Sequence:
#
# PCOD8185047 Si02
#       8
#     8   8   8   8   4   8   8   8
#     4  11  22  42  73 103 130 181 236 293 346 420
#     4  10  23  41  63 100 136 174 230 280 348 410
#     4  11  26  45  65 100 143 182 227 287 349 434
#     4  10  20  42  70  95 125 182 234 281 326 417
#     4  10  24  44  72  94 138 184 232 276 350 416
#     4  10  22  40  69  97 132 172 231 291 335 409
#     4  11  24  45  70  98 142 180 232 289 351 417
#     4  10  26  41  66 105 130 184 225 286 356 416
#
# _framework density 21.250768000000001
#
# number of rings (size 3 to 8) (size 9 to 14) (size 15 to 20)
#    0.000    1.600    2.000    1.600    6.533    5.867 
#    4.800    0.000    0.000    0.000    0.000    0.000 
#    0.000    0.000    0.000    0.000    0.000    0.000 
#
# Total GULP energy -371810.237849 kJ/mol
# GULP energy per Si atom -12393.674595 kJ/mol
# Density = 2.120240 g / cm^3
# Si number density = 21.250768 Si / 1000 Ang^3
#
#
#
# Elastic Constant Matrix: (Units=GPa)
#
#
# Indices 1 2 3 4 5 6 
#
# 1 103.1108 35.0214 42.3950 0.0000 0.0000 0.0000
# 2 35.0214 114.2517 53.0355 0.0000 0.0000 0.0000
# 3 42.3950 53.0355 120.8595 0.0000 0.0000 0.0000
# 4 0.0000 0.0000 0.0000 26.1076 0.0000 0.0000
# 5 0.0000 0.0000 0.0000 0.0000 19.7806 0.0000
# 6 0.0000 0.0000 0.0000 0.0000 0.0000 34.1364
#
#
#
# Elastic Compliance Matrix: (Units=1/GPa)
#
#
# Indices 1 2 3 4 5 6 
#
# 1 0.011727 -0.002116 -0.003185 0.000000 0.000000 0.000000
# 2 -0.002116 0.011373 -0.004249 0.000000 0.000000 0.000000
# 3 -0.003185 -0.004249 0.011256 0.000000 0.000000 0.000000
# 4 0.000000 0.000000 0.000000 0.038303 0.000000 0.000000
# 5 0.000000 0.000000 0.000000 0.000000 0.050555 0.000000
# 6 0.000000 0.000000 0.000000 0.000000 0.000000 0.029294
#
#
# Mechanical properties :
#
#
# Convention : Reuss Voigt Hill
#
# Bulk Modulus (GPa) = 65.54590 66.56954 66.05772
# Shear Modulus (GPa) = 28.29781 29.85624 29.07702
#
# Velocity S-wave (km/s) = 3.65309 3.75233 3.70304
# Velocity P-wave (km/s) = 6.97885 7.08287 7.03105
#
# Compressibility (1/GPa) = 0.01525648
#
# Stress axis : x y z
#
# Youngs Moduli (GPa) = 85.27682 87.92404 88.84459
#
# Poissons Ratio (x) = 0.18606 0.28295
# Poissons Ratio (y) = 0.18046 0.37747
# Poissons Ratio (z) = 0.27159 0.37355
#
# Static dielectric constant tensor:
#      x y z
#    x 3.828320 0.000000 0.000000 
#    y 0.000000 3.889660 0.000000 
#    z 0.000000 0.000000 3.903350 
# 
# 
# High freq. dielectric constant tensor:
#      x y z
#    x 1.830630 0.000000 0.000000 
#    y 0.000000 1.841340 0.000000 
#    z 0.000000 0.000000 1.827680 
# 
# From -- ./inp_files/10097.got.cif
#   From: 2010.03.12/outbox.cif.g09.slc.cpg/sg41_6_cif.got.tgz:10097.got - 2010.04.14 01:55:53.
