data_PCOD8185879
_publ_section_title
;
Structure prediction by ZEFSAII (Michael W. Deem and Ramdas Pophale) SiO2 
 PCOD8185879
Probable space group: F M M 2
;
_chemical_formula_sum "Si O2"
_cell_formula_units_Z 76
_cell_length_a 16.341452
_cell_length_b 18.037680
_cell_length_c 13.706602
_cell_angle_alpha 90.000000
_cell_angle_beta 90.000000
_cell_angle_gamma 90.000000
_cell_volume 4040.183800
_symmetry_space_group_name_H-M "F M M 2"
_symmetry_group_IT_number 42
_symmetry_cell_setting 'orthorhombic'
loop_
_space_group_symop_operation_xyz
x,y,z
-x,-y,z
-x,y,z
x,-y,z
x,1/2+y,1/2+z
-x,1/2-y,1/2+z
-x,1/2+y,1/2+z
x,1/2-y,1/2+z
1/2+x,y,1/2+z
1/2-x,-y,1/2+z
1/2-x,y,1/2+z
1/2+x,-y,1/2+z
1/2+x,1/2+y,z
1/2-x,1/2-y,z
1/2-x,1/2+y,z
1/2+x,1/2-y,z
loop_
_atom_site_type_symbol
_atom_site_label
_atom_site_fract_x
_atom_site_fract_y
_atom_site_fract_z
Si Si1 0.500000 0.418251 0.054610
Si Si2 0.173672 0.500000 0.833936
Si Si3 0.702911 0.624006 0.807102
Si Si4 0.173938 0.359945 0.525595
Si Si5 0.500000 0.000000 0.741886
Si Si6 0.250000 0.250000 0.665491
Si Si7 0.219820 0.000000 0.555914
Si Si8 0.403419 0.500000 0.731736
O O1 0.500000 0.500000 0.004929
O O2 0.578108 0.374015 0.018847
O O3 0.500000 0.427030 0.172811
O O4 0.217122 0.427296 0.788690
O O5 0.078647 0.500000 0.810201
O O6 0.181914 0.500000 0.949376
O O7 0.701125 0.691915 0.732176
O O8 0.622124 0.573306 0.792407
O O9 0.705132 0.656481 0.916374
O O10 0.184927 0.289275 0.594882
O O11 0.222801 0.428808 0.572769
O O12 0.143960 0.000000 0.629004
O O13 0.500000 0.500000 0.712928
#
# Coordination Sequence:
#
# PCOD8185879 Si02
#       8
#     8   8  16  16   4   8   8   8
#     4  10  22  34  66  91 118 142 208 261 292 329
#     4   9  20  36  61  89 119 153 206 248 287 349
#     4  10  23  39  63  86 119 161 200 244 299 354
#     4  11  22  40  62  91 119 158 203 246 299 356
#     4  10  18  30  58  94 120 142 190 250 308 330
#     4  12  22  40  62  82 128 164 192 234 302 378
#     4  10  19  40  61  85 119 162 199 248 292 349
#     4  11  23  38  66  89 116 154 205 253 294 345
#
# _framework density 18.811024
#
# number of rings (size 3 to 8) (size 9 to 14) (size 15 to 20)
#    0.316    1.263    3.158    2.526    5.158    0.000 
#    1.895    0.000    0.000    2.526    0.000    0.000 
#    0.000    0.000    0.000    0.000    0.000    0.000 
#
# Total GULP energy -235623.731153 kJ/mol
# GULP energy per Si atom -12401.249008 kJ/mol
# Density = 1.876821 g / cm^3
# Si number density = 18.811024 Si / 1000 Ang^3
#
#
#
# Elastic Constant Matrix: (Units=GPa)
#
#
# Indices 1 2 3 4 5 6 
#
# 1 138.7208 42.1567 33.3349 0.0000 0.0000 0.0000
# 2 42.1567 115.7430 57.9332 0.0000 0.0000 0.0000
# 3 33.3349 57.9332 98.6022 0.0000 0.0000 0.0000
# 4 0.0000 0.0000 0.0000 35.8627 0.0000 0.0000
# 5 0.0000 0.0000 0.0000 0.0000 26.9817 0.0000
# 6 0.0000 0.0000 0.0000 0.0000 0.0000 17.2430
#
#
#
# Elastic Compliance Matrix: (Units=1/GPa)
#
#
# Indices 1 2 3 4 5 6 
#
# 1 0.008250 -0.002279 -0.001450 0.000000 0.000000 0.000000
# 2 -0.002279 0.012869 -0.006791 0.000000 0.000000 0.000000
# 3 -0.001450 -0.006791 0.014622 0.000000 0.000000 0.000000
# 4 0.000000 0.000000 0.000000 0.027884 0.000000 0.000000
# 5 0.000000 0.000000 0.000000 0.000000 0.037062 0.000000
# 6 0.000000 0.000000 0.000000 0.000000 0.000000 0.057995
#
#
# Mechanical properties :
#
#
# Convention : Reuss Voigt Hill
#
# Bulk Modulus (GPa) = 68.02175 68.87950 68.45063
# Shear Modulus (GPa) = 27.08254 30.66020 28.87137
#
# Velocity S-wave (km/s) = 3.79848 4.04159 3.92192
# Velocity P-wave (km/s) = 7.44829 7.64691 7.54825
#
# Compressibility (1/GPa) = 0.01470118
#
# Stress axis : x y z
#
# Youngs Moduli (GPa) = 121.21586 77.70739 68.39140
#
# Poissons Ratio (x) = 0.17709 0.09917
# Poissons Ratio (y) = 0.27625 0.46441
# Poissons Ratio (z) = 0.17576 0.52767
#
# Static dielectric constant tensor:
#      x y z
#    x 3.164500 0.000000 0.000000 
#    y 0.000000 3.435880 0.000000 
#    z 0.000000 0.000000 3.554480 
# 
# 
# High freq. dielectric constant tensor:
#      x y z
#    x 1.713670 0.000000 0.000000 
#    y 0.000000 1.716250 0.000000 
#    z 0.000000 0.000000 1.752100 
# 
# From -- ./inp_files/13868.got.cif
#   From: 2010.03.12/outbox.cif.g09.slc.cpg/sg42_7_cif.got.tgz:13868.got - 2010.04.14 02:04:31.
