data_PCOD8185512
_publ_section_title
;
Structure prediction by ZEFSAII (Michael W. Deem and Ramdas Pophale) SiO2 
 PCOD8185512
Probable space group: A B A 2
;
_chemical_formula_sum "Si O2"
_cell_formula_units_Z 64
_cell_length_a 13.735734
_cell_length_b 23.348274
_cell_length_c 9.347706
_cell_angle_alpha 90.000000
_cell_angle_beta 90.000000
_cell_angle_gamma 90.000000
_cell_volume 2997.862419
_symmetry_space_group_name_H-M "A B A 2"
_symmetry_group_IT_number 41
_symmetry_cell_setting 'orthorhombic'
loop_
_space_group_symop_operation_xyz
x,y,z
-x,-y,z
1/2-x,y,1/2+z
1/2+x,-y,1/2+z
x,1/2+y,1/2+z
-x,1/2-y,1/2+z
1/2-x,1/2+y,z
1/2+x,1/2-y,z
loop_
_atom_site_type_symbol
_atom_site_label
_atom_site_fract_x
_atom_site_fract_y
_atom_site_fract_z
Si Si1 0.187982 0.606135 0.375000
Si Si2 0.465267 0.438567 0.420157
Si Si3 0.477427 0.189743 0.476540
Si Si4 0.475446 0.793326 0.164521
Si Si5 0.835343 0.098463 0.654540
Si Si6 0.893306 0.015686 0.901559
Si Si7 0.111398 0.394600 0.633180
Si Si8 0.133375 0.629486 0.060220
O O1 0.101057 0.640982 0.446630
O O2 0.175712 0.539623 0.417263
O O3 0.188423 0.609777 0.203868
O O4 0.288728 0.632698 0.432440
O O5 0.500000 0.500000 0.364154
O O6 0.367863 0.440574 0.518941
O O7 0.443136 0.397814 0.285506
O O8 0.552029 0.416268 0.519327
O O9 0.507325 0.221485 0.330372
O O10 0.434604 0.237278 0.584676
O O11 0.570074 0.158975 0.545856
O O12 0.399203 0.844442 0.154310
O O13 0.578676 0.810281 0.089551
O O14 0.724907 0.118403 0.646831
O O15 0.846064 0.062391 0.798423
O O16 0.000000 0.000000 0.840693
O O17 0.904584 0.044417 0.056545
#
# Coordination Sequence:
#
# PCOD8185512 Si02
#       8
#     8   8   8   8   8   8   8   8
#     4  11  25  42  70 103 139 184 236 282 361 428
#     4  11  25  41  63 102 142 181 230 282 342 413
#     4  11  25  47  69  98 134 185 236 296 354 418
#     4  10  24  48  71  95 138 184 238 293 358 408
#     4  11  24  45  68 101 140 190 232 289 357 425
#     4  12  22  43  68  96 144 186 223 289 352 430
#     4  12  26  41  68 105 138 180 241 288 357 431
#     4  10  25  44  66 102 138 181 230 289 348 422
#
# _framework density 21.348545000000001
#
# number of rings (size 3 to 8) (size 9 to 14) (size 15 to 20)
#    0.000    1.000    2.500    3.750   10.500    1.000 
#    0.000    2.500    0.000    0.000    0.000    0.000 
#    0.000    0.000    0.000    0.000    0.000    0.000 
#
# Total GULP energy -396919.245771 kJ/mol
# GULP energy per Si atom -12403.726430 kJ/mol
# Density = 2.129995 g / cm^3
# Si number density = 21.348545 Si / 1000 Ang^3
#
#
#
# Elastic Constant Matrix: (Units=GPa)
#
#
# Indices 1 2 3 4 5 6 
#
# 1 114.8253 29.2865 50.6893 0.0000 0.0000 0.0000
# 2 29.2865 101.4468 48.1882 0.0000 0.0000 0.0000
# 3 50.6893 48.1882 129.9732 0.0000 0.0000 0.0000
# 4 0.0000 0.0000 0.0000 37.7405 0.0000 0.0000
# 5 0.0000 0.0000 0.0000 0.0000 36.8482 0.0000
# 6 0.0000 0.0000 0.0000 0.0000 0.0000 10.7928
#
#
#
# Elastic Compliance Matrix: (Units=1/GPa)
#
#
# Indices 1 2 3 4 5 6 
#
# 1 0.010668 -0.001339 -0.003664 0.000000 0.000000 0.000000
# 2 -0.001339 0.012133 -0.003976 0.000000 0.000000 0.000000
# 3 -0.003664 -0.003976 0.010597 0.000000 0.000000 0.000000
# 4 0.000000 0.000000 0.000000 0.026497 0.000000 0.000000
# 5 0.000000 0.000000 0.000000 0.000000 0.027138 0.000000
# 6 0.000000 0.000000 0.000000 0.000000 0.000000 0.092654
#
#
# Mechanical properties :
#
#
# Convention : Reuss Voigt Hill
#
# Bulk Modulus (GPa) = 64.77027 66.95260 65.86143
# Shear Modulus (GPa) = 24.65588 31.61506 28.13547
#
# Velocity S-wave (km/s) = 3.40210 3.85242 3.63424
# Velocity P-wave (km/s) = 6.77035 7.15667 6.96619
#
# Compressibility (1/GPa) = 0.01543918
#
# Stress axis : x y z
#
# Youngs Moduli (GPa) = 93.73920 82.42248 94.36722
#
# Poissons Ratio (x) = 0.11039 0.34575
# Poissons Ratio (y) = 0.12555 0.37519
# Poissons Ratio (z) = 0.34345 0.32770
#
# Static dielectric constant tensor:
#      x y z
#    x 3.895540 0.000000 0.000000 
#    y 0.000000 3.803080 0.000000 
#    z 0.000000 0.000000 4.025770 
# 
# 
# High freq. dielectric constant tensor:
#      x y z
#    x 1.835870 0.000000 0.000000 
#    y 0.000000 1.827560 0.000000 
#    z 0.000000 0.000000 1.852830 
# 
# From -- ./inp_files/2818.got.cif
#   From: 2010.03.12/outbox.cif.g09.slc.cpg/sg41_2_cif.got.tgz:2818.got - 2010.04.14 01:55:53.
