data_PCOD8185832
_publ_section_title
;
Structure prediction by ZEFSAII (Michael W. Deem and Ramdas Pophale) SiO2 
 PCOD8185832
Probable space group: F M M 2
;
_chemical_formula_sum "Si O2"
_cell_formula_units_Z 128
_cell_length_a 19.572665
_cell_length_b 20.154334
_cell_length_c 19.799399
_cell_angle_alpha 90.000000
_cell_angle_beta 90.000000
_cell_angle_gamma 90.000000
_cell_volume 7810.348669
_symmetry_space_group_name_H-M "F M M 2"
_symmetry_group_IT_number 42
_symmetry_cell_setting 'orthorhombic'
loop_
_space_group_symop_operation_xyz
x,y,z
-x,-y,z
-x,y,z
x,-y,z
x,1/2+y,1/2+z
-x,1/2-y,1/2+z
-x,1/2+y,1/2+z
x,1/2-y,1/2+z
1/2+x,y,1/2+z
1/2-x,-y,1/2+z
1/2-x,y,1/2+z
1/2+x,-y,1/2+z
1/2+x,1/2+y,z
1/2-x,1/2-y,z
1/2-x,1/2+y,z
1/2+x,1/2-y,z
loop_
_atom_site_type_symbol
_atom_site_label
_atom_site_fract_x
_atom_site_fract_y
_atom_site_fract_z
Si Si1 0.637899 0.259658 0.043140
Si Si2 0.249471 0.851406 0.566353
Si Si3 0.788695 0.575691 0.806067
Si Si4 0.077170 0.148576 0.284020
Si Si5 0.716664 0.176302 0.211906
Si Si6 0.576998 0.235294 0.182959
Si Si7 0.922641 0.814652 0.431059
Si Si8 0.819885 0.573982 0.956835
O O1 0.672237 0.332063 0.048615
O O2 0.698696 0.207558 0.048265
O O3 0.583998 0.248231 0.103227
O O4 0.601821 0.251664 0.970230
O O5 0.243442 0.864041 0.646465
O O6 0.230870 0.914561 0.520253
O O7 0.770979 0.500000 0.784266
O O8 0.867310 0.589720 0.783596
O O9 0.737387 0.630042 0.774551
O O10 0.779753 0.584630 0.886440
O O11 0.089048 0.194674 0.219711
O O12 0.089125 0.193882 0.350985
O O13 0.000000 0.118586 0.284469
O O14 0.750000 0.250000 0.215396
O O15 0.634124 0.183392 0.209453
O O16 0.500000 0.208437 0.197753
O O17 0.884310 0.878047 0.461488
O O18 0.000000 0.828497 0.449038
O O19 0.848972 0.500000 0.961260
#
# Coordination Sequence:
#
# PCOD8185832 Si02
#       8
#    16  16  16  16  16  16  16  16
#     4   9  15  27  43  65  90 119 151 189 235 278
#     4   9  16  29  46  66  91 121 155 196 235 276
#     4  10  20  33  48  70  98 131 166 201 241 289
#     4   9  17  29  44  67  95 126 160 198 242 290
#     4  11  18  33  51  73  99 126 161 200 240 290
#     4  10  18  29  48  71  98 125 154 195 243 286
#     4   9  17  27  42  64  92 123 156 191 234 287
#     4   9  19  32  45  66  96 127 162 197 234 282
#
# _framework density 16.388513
#
# number of rings (size 3 to 8) (size 9 to 14) (size 15 to 20)
#    0.000    2.500    3.750    0.375    0.000    2.000 
#    2.250    2.500    0.000    0.375    0.000    0.000 
#    0.000    3.500    0.000    0.000    0.000    0.000 
#
# Total GULP energy -396565.224721 kJ/mol
# GULP energy per Si atom -12392.663273 kJ/mol
# Density = 1.635121 g / cm^3
# Si number density = 16.388513 Si / 1000 Ang^3
#
#
#
# Elastic Constant Matrix: (Units=GPa)
#
#
# Indices 1 2 3 4 5 6 
#
# 1 86.0803 32.0950 26.8258 0.0000 0.0000 0.0000
# 2 32.0950 49.6484 31.8490 0.0000 0.0000 0.0000
# 3 26.8258 31.8490 68.4830 0.0000 0.0000 0.0000
# 4 0.0000 0.0000 0.0000 20.7555 0.0000 0.0000
# 5 0.0000 0.0000 0.0000 0.0000 19.7268 0.0000
# 6 0.0000 0.0000 0.0000 0.0000 0.0000 16.0040
#
#
#
# Elastic Compliance Matrix: (Units=1/GPa)
#
#
# Indices 1 2 3 4 5 6 
#
# 1 0.015498 -0.008728 -0.002012 0.000000 0.000000 0.000000
# 2 -0.008728 0.033621 -0.012217 0.000000 0.000000 0.000000
# 3 -0.002012 -0.012217 0.021072 0.000000 0.000000 0.000000
# 4 0.000000 0.000000 0.000000 0.048180 0.000000 0.000000
# 5 0.000000 0.000000 0.000000 0.000000 0.050692 0.000000
# 6 0.000000 0.000000 0.000000 0.000000 0.000000 0.062484
#
#
# Mechanical properties :
#
#
# Convention : Reuss Voigt Hill
#
# Bulk Modulus (GPa) = 41.19077 42.86129 42.02603
# Shear Modulus (GPa) = 17.50979 18.86006 18.18493
#
# Velocity S-wave (km/s) = 3.27221 3.39604 3.33470
# Velocity P-wave (km/s) = 6.28212 6.44883 6.36602
#
# Compressibility (1/GPa) = 0.02427728
#
# Stress axis : x y z
#
# Youngs Moduli (GPa) = 64.52305 29.74322 47.45666
#
# Poissons Ratio (x) = 0.25961 0.09547
# Poissons Ratio (y) = 0.56318 0.57978
# Poissons Ratio (z) = 0.12980 0.36337
#
# Static dielectric constant tensor:
#      x y z
#    x 3.229680 0.000000 0.000000 
#    y 0.000000 2.859060 0.000000 
#    z 0.000000 0.000000 3.318440 
# 
# 
# High freq. dielectric constant tensor:
#      x y z
#    x 1.626060 0.000000 0.000000 
#    y 0.000000 1.587190 0.000000 
#    z 0.000000 0.000000 1.640070 
# 
# From -- ./inp_files/21945.got.cif
#   From: 2010.03.12/outbox.cif.g09.slc.cpg/sg42_11_cif.got.tgz:21945.got - 2010.04.14 02:04:31.
