data_PCOD8185645
_publ_section_title
;
Structure prediction by ZEFSAII (Michael W. Deem and Ramdas Pophale) SiO2 
 PCOD8185645
Probable space group: A B A 2
;
_chemical_formula_sum "Si O2"
_cell_formula_units_Z 40
_cell_length_a 17.040451
_cell_length_b 8.301519
_cell_length_c 11.586259
_cell_angle_alpha 90.000000
_cell_angle_beta 90.000000
_cell_angle_gamma 90.000000
_cell_volume 1639.011058
_symmetry_space_group_name_H-M "A B A 2"
_symmetry_group_IT_number 41
_symmetry_cell_setting 'orthorhombic'
loop_
_space_group_symop_operation_xyz
x,y,z
-x,-y,z
1/2-x,y,1/2+z
1/2+x,-y,1/2+z
x,1/2+y,1/2+z
-x,1/2-y,1/2+z
1/2-x,1/2+y,z
1/2+x,1/2-y,z
loop_
_atom_site_type_symbol
_atom_site_label
_atom_site_fract_x
_atom_site_fract_y
_atom_site_fract_z
Si Si1 0.713949 0.362722 0.080970
Si Si2 0.154155 0.436836 0.176374
Si Si3 0.868534 0.309301 0.361532
Si Si4 0.014480 0.330081 0.021358
Si Si5 0.919225 0.096153 0.160047
O O1 0.799486 0.438563 0.093445
O O2 0.707063 0.226004 0.181468
O O3 0.642556 0.488226 0.092173
O O4 0.703576 0.285138 0.952401
O O5 0.140131 0.516371 0.301220
O O6 0.071929 0.382795 0.124918
O O7 0.949426 0.302311 0.435309
O O8 0.874180 0.159563 0.273710
O O9 0.000000 0.500000 0.954595
O O10 0.938042 0.252969 0.081194
O O11 0.000000 0.000000 0.187608
#
# Coordination Sequence:
#
# PCOD8185645 Si02
#       5
#     8   8   8   8   8
#     4  11  27  47  69 107 145 195 253 305 360 452
#     4  11  24  45  72 100 149 190 249 300 361 438
#     4  11  25  46  73 102 142 197 229 301 379 411
#     4  11  24  46  75 113 148 190 250 306 365 453
#     4  12  23  46  74 111 150 186 248 305 365 451
#
# _framework density 24.404961
#
# number of rings (size 3 to 8) (size 9 to 14) (size 15 to 20)
#    0.000    0.800    6.000    1.800    0.000    9.600 
#    3.600    0.000    0.000    0.000    0.000    0.000 
#    0.000    0.000    0.000    0.000    0.000    0.000 
#
# Total GULP energy -247859.661778 kJ/mol
# GULP energy per Si atom -12392.983089 kJ/mol
# Density = 2.434941 g / cm^3
# Si number density = 24.404961 Si / 1000 Ang^3
#
#
#
# Elastic Constant Matrix: (Units=GPa)
#
#
# Indices 1 2 3 4 5 6 
#
# 1 78.2093 28.9198 32.0341 0.0000 0.0000 0.0000
# 2 28.9198 143.9325 52.3703 0.0000 0.0000 0.0000
# 3 32.0341 52.3703 118.4852 0.0000 0.0000 0.0000
# 4 0.0000 0.0000 0.0000 37.6857 0.0000 0.0000
# 5 0.0000 0.0000 0.0000 0.0000 27.2669 0.0000
# 6 0.0000 0.0000 0.0000 0.0000 0.0000 52.3977
#
#
#
# Elastic Compliance Matrix: (Units=1/GPa)
#
#
# Indices 1 2 3 4 5 6 
#
# 1 0.014761 -0.001804 -0.003194 0.000000 0.000000 0.000000
# 2 -0.001804 0.008500 -0.003269 0.000000 0.000000 0.000000
# 3 -0.003194 -0.003269 0.010748 0.000000 0.000000 0.000000
# 4 0.000000 0.000000 0.000000 0.026535 0.000000 0.000000
# 5 0.000000 0.000000 0.000000 0.000000 0.036675 0.000000
# 6 0.000000 0.000000 0.000000 0.000000 0.000000 0.019085
#
#
# Mechanical properties :
#
#
# Convention : Reuss Voigt Hill
#
# Bulk Modulus (GPa) = 57.22152 63.03059 60.12606
# Shear Modulus (GPa) = 36.05881 38.62359 37.34120
#
# Velocity S-wave (km/s) = 3.84802 3.98252 3.91585
# Velocity P-wave (km/s) = 6.57576 6.85787 6.71829
#
# Compressibility (1/GPa) = 0.01747594
#
# Stress axis : x y z
#
# Youngs Moduli (GPa) = 67.74456 117.65219 93.03843
#
# Poissons Ratio (x) = 0.21224 0.29713
# Poissons Ratio (y) = 0.12221 0.30415
# Poissons Ratio (z) = 0.21635 0.38462
#
# Static dielectric constant tensor:
#      x y z
#    x 4.380320 0.000000 0.000000 
#    y 0.000000 5.012520 0.000000 
#    z 0.000000 0.000000 4.330950 
# 
# 
# High freq. dielectric constant tensor:
#      x y z
#    x 1.967520 0.000000 0.000000 
#    y 0.000000 1.987580 0.000000 
#    z 0.000000 0.000000 1.947710 
# 
# From -- ./inp_files/5817.got.cif
#   From: 2010.03.12/outbox.cif.g09.slc.cpg/sg41_3_cif.got.tgz:5817.got - 2010.04.14 01:55:53.
