data_PCOD8185387
_publ_section_title
;
Structure prediction by ZEFSAII (Michael W. Deem and Ramdas Pophale) SiO2 
 PCOD8185387
Probable space group: A B A 2
;
_chemical_formula_sum "Si O2"
_cell_formula_units_Z 52
_cell_length_a 13.899520
_cell_length_b 18.523160
_cell_length_c 9.348878
_cell_angle_alpha 90.000000
_cell_angle_beta 90.000000
_cell_angle_gamma 90.000000
_cell_volume 2406.990484
_symmetry_space_group_name_H-M "A B A 2"
_symmetry_group_IT_number 41
_symmetry_cell_setting 'orthorhombic'
loop_
_space_group_symop_operation_xyz
x,y,z
-x,-y,z
1/2-x,y,1/2+z
1/2+x,-y,1/2+z
x,1/2+y,1/2+z
-x,1/2-y,1/2+z
1/2-x,1/2+y,z
1/2+x,1/2-y,z
loop_
_atom_site_type_symbol
_atom_site_label
_atom_site_fract_x
_atom_site_fract_y
_atom_site_fract_z
Si Si1 0.683490 0.472051 0.220760
Si Si2 0.500000 0.000000 0.552594
Si Si3 0.125329 0.227856 0.521639
Si Si4 0.078210 0.322715 0.099359
Si Si5 0.700313 0.803759 0.709328
Si Si6 0.090185 0.376782 0.415236
Si Si7 0.787138 0.053197 0.493822
O O1 0.591694 0.507918 0.150718
O O2 0.681240 0.387792 0.186231
O O3 0.773526 0.513121 0.145928
O O4 0.676396 0.489857 0.388266
O O5 0.500760 0.071413 0.454431
O O6 0.189832 0.211804 0.661501
O O7 0.185833 0.213551 0.376717
O O8 0.095805 0.311585 0.528561
O O9 0.026369 0.182326 0.525548
O O10 0.131236 0.244740 0.107701
O O11 0.065152 0.349084 0.259392
O O12 0.139085 0.380283 0.007435
O O13 0.190875 0.418286 0.419335
#
# Coordination Sequence:
#
# PCOD8185387 Si02
#       7
#     8   4   8   8   8   8   8
#     4  11  24  42  67 100 136 177 226 293 341 409
#     4  10  24  40  70  94 138 174 232 274 354 414
#     4  11  25  42  74  99 139 179 236 284 350 412
#     4  11  24  45  73  99 139 187 238 280 354 426
#     4  11  25  46  66 105 138 179 229 295 343 411
#     4  10  22  46  66 104 131 189 219 294 342 415
#     4  11  22  44  71  94 139 182 227 285 353 415
#
# _framework density 21.603743000000001
#
# number of rings (size 3 to 8) (size 9 to 14) (size 15 to 20)
#    0.000    1.231    3.077    1.846    2.154    6.154 
#    5.538    0.000    0.000    0.000    0.000    0.000 
#    0.000    0.000    0.000    0.000    0.000    0.000 
#
# Total GULP energy -322373.421188 kJ/mol
# GULP energy per Si atom -12398.977738 kJ/mol
# Density = 2.155457 g / cm^3
# Si number density = 21.603743 Si / 1000 Ang^3
#
#
#
# Elastic Constant Matrix: (Units=GPa)
#
#
# Indices 1 2 3 4 5 6 
#
# 1 105.6864 39.5883 47.1132 0.0000 0.0000 0.0000
# 2 39.5883 144.8548 53.9675 0.0000 0.0000 0.0000
# 3 47.1132 53.9675 97.3625 0.0000 0.0000 0.0000
# 4 0.0000 0.0000 0.0000 35.1064 0.0000 0.0000
# 5 0.0000 0.0000 0.0000 0.0000 23.6445 0.0000
# 6 0.0000 0.0000 0.0000 0.0000 0.0000 36.1583
#
#
#
# Elastic Compliance Matrix: (Units=1/GPa)
#
#
# Indices 1 2 3 4 5 6 
#
# 1 0.012299 -0.001442 -0.005152 0.000000 0.000000 0.000000
# 2 -0.001442 0.008869 -0.004218 0.000000 0.000000 0.000000
# 3 -0.005152 -0.004218 0.015102 0.000000 0.000000 0.000000
# 4 0.000000 0.000000 0.000000 0.028485 0.000000 0.000000
# 5 0.000000 0.000000 0.000000 0.000000 0.042293 0.000000
# 6 0.000000 0.000000 0.000000 0.000000 0.000000 0.027656
#
#
# Mechanical properties :
#
#
# Convention : Reuss Voigt Hill
#
# Bulk Modulus (GPa) = 68.28056 69.91574 69.09815
# Shear Modulus (GPa) = 31.01529 32.79748 31.90638
#
# Velocity S-wave (km/s) = 3.79310 3.90056 3.84720
# Velocity P-wave (km/s) = 7.13148 7.26077 7.19642
#
# Compressibility (1/GPa) = 0.01464546
#
# Stress axis : x y z
#
# Youngs Moduli (GPa) = 81.30909 112.75072 66.21513
#
# Poissons Ratio (x) = 0.16255 0.34115
# Poissons Ratio (y) = 0.11722 0.27933
# Poissons Ratio (z) = 0.41892 0.47564
#
# Static dielectric constant tensor:
#      x y z
#    x 3.845110 0.000000 0.000000 
#    y 0.000000 4.233240 0.000000 
#    z 0.000000 0.000000 3.781290 
# 
# 
# High freq. dielectric constant tensor:
#      x y z
#    x 1.840040 0.000000 0.000000 
#    y 0.000000 1.865000 0.000000 
#    z 0.000000 0.000000 1.845310 
# 
# From -- ./inp_files/2622.got.cif
#   From: 2010.03.12/outbox.cif.g09.slc.cpg/sg41_2_cif.got.tgz:2622.got - 2010.04.14 01:55:53.
