data_PCOD8185847
_publ_section_title
;
Structure prediction by ZEFSAII (Michael W. Deem and Ramdas Pophale) SiO2 
 PCOD8185847
Probable space group: F M M 2
;
_chemical_formula_sum "Si O2"
_cell_formula_units_Z 96
_cell_length_a 8.977207
_cell_length_b 23.665441
_cell_length_c 24.927203
_cell_angle_alpha 90.000000
_cell_angle_beta 90.000000
_cell_angle_gamma 90.000000
_cell_volume 5295.773374
_symmetry_space_group_name_H-M "F M M 2"
_symmetry_group_IT_number 42
_symmetry_cell_setting 'orthorhombic'
loop_
_space_group_symop_operation_xyz
x,y,z
-x,-y,z
-x,y,z
x,-y,z
x,1/2+y,1/2+z
-x,1/2-y,1/2+z
-x,1/2+y,1/2+z
x,1/2-y,1/2+z
1/2+x,y,1/2+z
1/2-x,-y,1/2+z
1/2-x,y,1/2+z
1/2+x,-y,1/2+z
1/2+x,1/2+y,z
1/2-x,1/2-y,z
1/2-x,1/2+y,z
1/2+x,1/2-y,z
loop_
_atom_site_type_symbol
_atom_site_label
_atom_site_fract_x
_atom_site_fract_y
_atom_site_fract_z
Si Si1 0.171008 0.500000 0.837011
Si Si2 0.342504 0.000000 0.436772
Si Si3 0.835601 0.380548 0.485607
Si Si4 0.325295 0.935303 0.197328
Si Si5 0.678563 0.689451 0.882544
Si Si6 0.322134 0.116362 0.792034
Si Si7 0.674419 0.436277 0.574484
O O1 0.196795 0.500000 0.900309
O O2 0.241737 0.442868 0.814524
O O3 0.000000 0.500000 0.822269
O O4 0.341013 0.946158 0.473596
O O5 0.500000 0.000000 0.403204
O O6 0.768527 0.346791 0.434569
O O7 0.737928 0.382949 0.539763
O O8 0.000000 0.356062 0.498217
O O9 0.500000 0.927186 0.207551
O O10 0.234615 0.887187 0.230667
O O11 0.283451 0.923509 0.135856
O O12 0.277988 0.000000 0.212517
O O13 0.500000 0.691846 0.878180
O O14 0.750000 0.750000 0.891437
O O15 0.744514 0.664902 0.827127
O O16 0.500000 0.124140 0.795190
O O17 0.500000 0.435342 0.565779
O O18 0.731876 0.500000 0.559504
#
# Coordination Sequence:
#
# PCOD8185847 Si02
#       7
#     8   8  16  16  16  16  16
#     4  10  20  30  45  76 111 139 172 212 262 319
#     4  10  18  30  47  74 107 139 172 208 264 327
#     4  10  20  33  52  77 107 140 174 214 265 323
#     4   9  18  32  50  76 112 150 182 214 260 319
#     4  11  24  41  58  78 104 140 183 228 276 324
#     4  11  21  34  53  80 111 143 179 221 268 321
#     4   9  18  31  49  77 112 147 180 214 258 313
#
# _framework density 18.127662999999998
#
# number of rings (size 3 to 8) (size 9 to 14) (size 15 to 20)
#    0.000    2.000    3.333    2.000    0.000    3.333 
#    0.000    1.667    0.000    1.000    0.000    2.333 
#    0.000    0.000    0.000    0.000    0.000    0.000 
#
# Total GULP energy -297325.586739 kJ/mol
# GULP energy per Si atom -12388.566114 kJ/mol
# Density = 1.808640 g / cm^3
# Si number density = 18.127663 Si / 1000 Ang^3
#
#
#
# Elastic Constant Matrix: (Units=GPa)
#
#
# Indices 1 2 3 4 5 6 
#
# 1 65.5556 33.7286 48.9720 0.0000 0.0000 0.0000
# 2 33.7286 80.3268 43.7945 0.0000 0.0000 0.0000
# 3 48.9720 43.7945 117.4438 0.0000 0.0000 0.0000
# 4 0.0000 0.0000 0.0000 14.6121 0.0000 0.0000
# 5 0.0000 0.0000 0.0000 0.0000 33.7691 0.0000
# 6 0.0000 0.0000 0.0000 0.0000 0.0000 23.1872
#
#
#
# Elastic Compliance Matrix: (Units=1/GPa)
#
#
# Indices 1 2 3 4 5 6 
#
# 1 0.024156 -0.005838 -0.007896 0.000000 0.000000 0.000000
# 2 -0.005838 0.017037 -0.003919 0.000000 0.000000 0.000000
# 3 -0.007896 -0.003919 0.013268 0.000000 0.000000 0.000000
# 4 0.000000 0.000000 0.000000 0.068436 0.000000 0.000000
# 5 0.000000 0.000000 0.000000 0.000000 0.029613 0.000000
# 6 0.000000 0.000000 0.000000 0.000000 0.000000 0.043127
#
#
# Mechanical properties :
#
#
# Convention : Reuss Voigt Hill
#
# Bulk Modulus (GPa) = 52.20150 57.36848 54.78499
# Shear Modulus (GPa) = 21.06781 23.43576 22.25179
#
# Velocity S-wave (km/s) = 3.41279 3.59948 3.50738
# Velocity P-wave (km/s) = 6.66248 6.99933 6.83298
#
# Compressibility (1/GPa) = 0.01915654
#
# Stress axis : x y z
#
# Youngs Moduli (GPa) = 41.39694 58.69559 75.36755
#
# Poissons Ratio (x) = 0.34268 0.59508
# Poissons Ratio (y) = 0.24169 0.29534
# Poissons Ratio (z) = 0.32686 0.23001
#
# Static dielectric constant tensor:
#      x y z
#    x 3.476340 0.000000 0.000000 
#    y 0.000000 3.177820 0.000000 
#    z 0.000000 0.000000 3.437210 
# 
# 
# High freq. dielectric constant tensor:
#      x y z
#    x 1.700870 0.000000 0.000000 
#    y 0.000000 1.664500 0.000000 
#    z 0.000000 0.000000 1.707300 
# 
# From -- ./inp_files/28079.got.cif
#   From: 2010.03.12/outbox.cif.g09.slc.cpg/sg42_15_cif.got.tgz:28079.got - 2010.04.14 02:04:31.
