data_PCOD8185960
_publ_section_title
;
Structure prediction by ZEFSAII (Michael W. Deem and Ramdas Pophale) SiO2 
 PCOD8185960
Probable space group: F M M 2
;
_chemical_formula_sum "Si O2"
_cell_formula_units_Z 104
_cell_length_a 18.813209
_cell_length_b 15.758029
_cell_length_c 18.666726
_cell_angle_alpha 90.000000
_cell_angle_beta 90.000000
_cell_angle_gamma 90.000000
_cell_volume 5533.920659
_symmetry_space_group_name_H-M "F M M 2"
_symmetry_group_IT_number 42
_symmetry_cell_setting 'orthorhombic'
loop_
_space_group_symop_operation_xyz
x,y,z
-x,-y,z
-x,y,z
x,-y,z
x,1/2+y,1/2+z
-x,1/2-y,1/2+z
-x,1/2+y,1/2+z
x,1/2-y,1/2+z
1/2+x,y,1/2+z
1/2-x,-y,1/2+z
1/2-x,y,1/2+z
1/2+x,-y,1/2+z
1/2+x,1/2+y,z
1/2-x,1/2-y,z
1/2-x,1/2+y,z
1/2+x,1/2-y,z
loop_
_atom_site_type_symbol
_atom_site_label
_atom_site_fract_x
_atom_site_fract_y
_atom_site_fract_z
Si Si1 0.209188 0.338818 0.368940
Si Si2 0.076112 0.500000 0.749555
Si Si3 0.678668 0.859405 0.067455
Si Si4 0.329577 0.664534 0.021555
Si Si5 0.921810 0.159320 0.149502
Si Si6 0.676369 0.298477 0.716087
Si Si7 0.086090 0.000000 0.499594
Si Si8 0.311735 0.000000 0.867622
O O1 0.250000 0.250000 0.378892
O O2 0.154703 0.346630 0.436570
O O3 0.164064 0.340653 0.294702
O O4 0.264794 0.415651 0.372527
O O5 0.077177 0.418666 0.701149
O O6 0.148387 0.500000 0.792925
O O7 0.000000 0.500000 0.792804
O O8 0.668984 0.762808 0.043793
O O9 0.755270 0.885445 0.035791
O O10 0.681022 0.869446 0.153957
O O11 0.613545 0.916265 0.040376
O O12 0.387867 0.625898 0.074644
O O13 0.884800 0.234131 0.193877
O O14 0.000000 0.192885 0.130625
O O15 0.750000 0.250000 0.720241
O O16 0.123143 0.000000 0.422883
O O17 0.000000 0.000000 0.494759
#
# Coordination Sequence:
#
# PCOD8185960 Si02
#       8
#    16   8  16  16  16  16   8   8
#     4  11  21  36  57  87 118 154 200 252 294 359
#     4  10  21  36  51  80 120 150 186 243 305 363
#     4  10  19  36  57  82 115 157 198 249 287 360
#     4  10  18  38  58  83 114 153 206 248 285 354
#     4  10  21  36  59  87 116 154 200 254 308 361
#     4  10  19  36  59  84 114 153 205 250 296 358
#     4  12  25  38  57  90 128 162 192 251 326 371
#     4  12  23  36  58  90 120 160 200 248 303 366
#
# _framework density 18.793185999999999
#
# number of rings (size 3 to 8) (size 9 to 14) (size 15 to 20)
#    0.000    1.538    6.154    2.077    0.000    4.308 
#    0.000    0.769    0.000    0.000    0.000    2.154 
#    0.000    0.000    0.000    0.000    0.000    0.000 
#
# Total GULP energy -322117.603295 kJ/mol
# GULP energy per Si atom -12389.138588 kJ/mol
# Density = 1.875041 g / cm^3
# Si number density = 18.793186 Si / 1000 Ang^3
#
#
#
# Elastic Constant Matrix: (Units=GPa)
#
#
# Indices 1 2 3 4 5 6 
#
# 1 107.6046 32.9579 51.4845 0.0000 0.0000 0.0000
# 2 32.9579 69.6810 26.0863 0.0000 0.0000 0.0000
# 3 51.4845 26.0863 166.1141 0.0000 0.0000 0.0000
# 4 0.0000 0.0000 0.0000 13.3069 0.0000 0.0000
# 5 0.0000 0.0000 0.0000 0.0000 16.7769 0.0000
# 6 0.0000 0.0000 0.0000 0.0000 0.0000 28.0339
#
#
#
# Elastic Compliance Matrix: (Units=1/GPa)
#
#
# Indices 1 2 3 4 5 6 
#
# 1 0.012163 -0.004613 -0.003045 0.000000 0.000000 0.000000
# 2 -0.004613 0.016997 -0.001239 0.000000 0.000000 0.000000
# 3 -0.003045 -0.001239 0.007158 0.000000 0.000000 0.000000
# 4 0.000000 0.000000 0.000000 0.075149 0.000000 0.000000
# 5 0.000000 0.000000 0.000000 0.000000 0.059606 0.000000
# 6 0.000000 0.000000 0.000000 0.000000 0.000000 0.035671
#
#
# Mechanical properties :
#
#
# Convention : Reuss Voigt Hill
#
# Bulk Modulus (GPa) = 53.98664 62.71747 58.35206
# Shear Modulus (GPa) = 21.67180 27.14828 24.41004
#
# Velocity S-wave (km/s) = 3.39952 3.80489 3.60790
# Velocity P-wave (km/s) = 6.64817 7.26277 6.96225
#
# Compressibility (1/GPa) = 0.01852310
#
# Stress axis : x y z
#
# Youngs Moduli (GPa) = 82.21474 58.83407 139.69442
#
# Poissons Ratio (x) = 0.27140 0.42543
# Poissons Ratio (y) = 0.37925 0.17315
# Poissons Ratio (z) = 0.25038 0.07292
#
# Static dielectric constant tensor:
#      x y z
#    x 3.748380 0.000000 0.000000 
#    y 0.000000 3.327580 0.000000 
#    z 0.000000 0.000000 4.117650 
# 
# 
# High freq. dielectric constant tensor:
#      x y z
#    x 1.705110 0.000000 0.000000 
#    y 0.000000 1.717560 0.000000 
#    z 0.000000 0.000000 1.750270 
# 
# From -- ./inp_files/20932.got.cif
#   From: 2010.03.12/outbox.cif.g09.slc.cpg/sg42_11_cif.got.tgz:20932.got - 2010.04.14 02:04:31.
