data_PCOD8185982
_publ_section_title
;
Structure prediction by ZEFSAII (Michael W. Deem and Ramdas Pophale) SiO2 
 PCOD8185982
Probable space group: F M M 2
;
_chemical_formula_sum "Si O2"
_cell_formula_units_Z 96
_cell_length_a 8.814052
_cell_length_b 18.964054
_cell_length_c 30.840755
_cell_angle_alpha 90.000000
_cell_angle_beta 90.000000
_cell_angle_gamma 90.000000
_cell_volume 5155.037074
_symmetry_space_group_name_H-M "F M M 2"
_symmetry_group_IT_number 42
_symmetry_cell_setting 'orthorhombic'
loop_
_space_group_symop_operation_xyz
x,y,z
-x,-y,z
-x,y,z
x,-y,z
x,1/2+y,1/2+z
-x,1/2-y,1/2+z
-x,1/2+y,1/2+z
x,1/2-y,1/2+z
1/2+x,y,1/2+z
1/2-x,-y,1/2+z
1/2-x,y,1/2+z
1/2+x,-y,1/2+z
1/2+x,1/2+y,z
1/2-x,1/2-y,z
1/2-x,1/2+y,z
1/2+x,1/2-y,z
loop_
_atom_site_type_symbol
_atom_site_label
_atom_site_fract_x
_atom_site_fract_y
_atom_site_fract_z
Si Si1 0.175587 0.082305 0.588440
Si Si2 0.178902 0.173542 0.015709
Si Si3 0.179681 0.422112 0.185984
Si Si4 0.819686 0.078957 0.937975
Si Si5 0.819243 0.173487 0.763616
Si Si6 0.180201 0.921208 0.841717
O O1 0.280739 0.128690 0.557904
O O2 0.224638 0.101675 0.637523
O O3 0.000000 0.101251 0.580337
O O4 0.204799 0.000000 0.579314
O O5 0.250000 0.250000 0.018634
O O6 0.000000 0.181645 0.012789
O O7 0.245574 0.133447 0.973328
O O8 0.246839 0.500000 0.195896
O O9 0.242822 0.366811 0.221000
O O10 0.000000 0.426789 0.189512
O O11 0.765782 0.102528 0.889831
O O12 0.000000 0.078012 0.940201
O O13 0.758781 0.000000 0.948103
O O14 0.750000 0.250000 0.763764
O O15 0.756356 0.132695 0.805979
O O16 0.000000 0.178115 0.763715
O O17 0.000000 0.922325 0.839741
O O18 0.241034 0.000000 0.831652
#
# Coordination Sequence:
#
# PCOD8185982 Si02
#       6
#    16  16  16  16  16  16
#     4   9  18  34  55  76  98 125 160 204 250 294
#     4  11  22  34  49  71 101 134 166 201 243 291
#     4   8  15  30  52  74  94 121 160 201 236 275
#     4   8  15  29  49  72  95 120 156 203 247 284
#     4  10  19  30  47  72 100 128 157 191 234 283
#     4   8  14  27  49  73  93 119 160 202 235 276
#
# _framework density 18.622561999999999
#
# number of rings (size 3 to 8) (size 9 to 14) (size 15 to 20)
#    0.000    3.000    0.000    3.500    0.000    4.333 
#    0.000    2.500    0.000    4.000    0.000    4.667 
#    0.000    0.000    0.000    0.000    0.000    0.000 
#
# Total GULP energy -297492.795128 kJ/mol
# GULP energy per Si atom -12395.533130 kJ/mol
# Density = 1.858018 g / cm^3
# Si number density = 18.622562 Si / 1000 Ang^3
#
#
#
# Elastic Constant Matrix: (Units=GPa)
#
#
# Indices 1 2 3 4 5 6 
#
# 1 25.0854 25.5308 25.7848 0.0000 0.0000 0.0000
# 2 25.5308 136.3132 102.6856 0.0000 0.0000 0.0000
# 3 25.7848 102.6856 170.1449 0.0000 0.0000 0.0000
# 4 0.0000 0.0000 0.0000 17.7766 0.0000 0.0000
# 5 0.0000 0.0000 0.0000 0.0000 16.3149 0.0000
# 6 0.0000 0.0000 0.0000 0.0000 0.0000 20.4880
#
#
#
# Elastic Compliance Matrix: (Units=1/GPa)
#
#
# Indices 1 2 3 4 5 6 
#
# 1 0.050401 -0.006759 -0.003559 0.000000 0.000000 0.000000
# 2 -0.006759 0.014358 -0.007641 0.000000 0.000000 0.000000
# 3 -0.003559 -0.007641 0.011028 0.000000 0.000000 0.000000
# 4 0.000000 0.000000 0.000000 0.056254 0.000000 0.000000
# 5 0.000000 0.000000 0.000000 0.000000 0.061294 0.000000
# 6 0.000000 0.000000 0.000000 0.000000 0.000000 0.048809
#
#
# Mechanical properties :
#
#
# Convention : Reuss Voigt Hill
#
# Bulk Modulus (GPa) = 25.08187 71.06065 48.07126
# Shear Modulus (GPa) = 17.16142 22.75205 19.95674
#
# Velocity S-wave (km/s) = 3.03898 3.49914 3.27715
# Velocity P-wave (km/s) = 5.08052 7.38692 6.33949
#
# Compressibility (1/GPa) = 0.03986943
#
# Stress axis : x y z
#
# Youngs Moduli (GPa) = 19.84089 69.64776 90.67670
#
# Poissons Ratio (x) = 0.47074 0.32272
# Poissons Ratio (y) = 0.13410 0.69286
# Poissons Ratio (z) = 0.07061 0.53218
#
# Static dielectric constant tensor:
#      x y z
#    x 2.871260 0.000000 0.000000 
#    y 0.000000 3.544150 0.000000 
#    z 0.000000 0.000000 3.859710 
# 
# 
# High freq. dielectric constant tensor:
#      x y z
#    x 1.667590 0.000000 0.000000 
#    y 0.000000 1.722670 0.000000 
#    z 0.000000 0.000000 1.741040 
# 
# From -- ./inp_files/31443.got.cif
#   From: 2010.03.12/outbox.cif.g09.slc.cpg/sg42_16_cif.got.tgz:31443.got - 2010.04.14 02:04:31.
