data_PCOD8185753
_publ_section_title
;
Structure prediction by ZEFSAII (Michael W. Deem and Ramdas Pophale) SiO2 
 PCOD8185753
Probable space group: F M M 2
;
_chemical_formula_sum "Si O2"
_cell_formula_units_Z 112
_cell_length_a 17.847657
_cell_length_b 19.985408
_cell_length_c 17.555059
_cell_angle_alpha 90.000000
_cell_angle_beta 90.000000
_cell_angle_gamma 90.000000
_cell_volume 6261.761516
_symmetry_space_group_name_H-M "F M M 2"
_symmetry_group_IT_number 42
_symmetry_cell_setting 'orthorhombic'
loop_
_space_group_symop_operation_xyz
x,y,z
-x,-y,z
-x,y,z
x,-y,z
x,1/2+y,1/2+z
-x,1/2-y,1/2+z
-x,1/2+y,1/2+z
x,1/2-y,1/2+z
1/2+x,y,1/2+z
1/2-x,-y,1/2+z
1/2-x,y,1/2+z
1/2+x,-y,1/2+z
1/2+x,1/2+y,z
1/2-x,1/2-y,z
1/2-x,1/2+y,z
1/2+x,1/2-y,z
loop_
_atom_site_type_symbol
_atom_site_label
_atom_site_fract_x
_atom_site_fract_y
_atom_site_fract_z
Si Si1 0.792650 0.318557 0.388810
Si Si2 0.912369 0.636953 0.696551
Si Si3 0.332864 0.323371 0.586667
Si Si4 0.162465 0.176616 0.050755
Si Si5 0.583640 0.577022 0.481147
Si Si6 0.171972 0.075869 0.331605
Si Si7 0.837562 0.271317 0.240920
O O1 0.750000 0.250000 0.414617
O O2 0.835160 0.348739 0.462882
O O3 0.737958 0.372612 0.350602
O O4 0.854340 0.301623 0.324337
O O5 0.890388 0.632125 0.606269
O O6 0.864347 0.585686 0.748055
O O7 0.893440 0.710139 0.728227
O O8 0.000000 0.620933 0.704863
O O9 0.244048 0.327814 0.586375
O O10 0.364005 0.254016 0.551293
O O11 0.364460 0.385129 0.540600
O O12 0.355146 0.326323 0.675951
O O13 0.500000 0.605058 0.488706
O O14 0.588525 0.500000 0.504345
O O15 0.608209 0.588261 0.394448
O O16 0.203166 0.000000 0.335920
O O17 0.750000 0.250000 0.238571
#
# Coordination Sequence:
#
# PCOD8185753 Si02
#       7
#    16  16  16  16  16  16  16
#     4  11  17  34  61  82 106 148 190 233 289 329
#     4  11  22  36  54  84 118 153 188 228 283 343
#     4  10  16  31  52  77 107 143 188 226 283 334
#     4  10  18  32  54  80 106 144 186 236 280 327
#     4  10  21  34  51  79 116 151 183 230 289 344
#     4  11  21  36  57  84 115 151 191 234 282 340
#     4  10  18  33  57  78 107 144 184 235 283 326
#
# _framework density 17.886341999999999
#
# number of rings (size 3 to 8) (size 9 to 14) (size 15 to 20)
#    0.000    1.571    8.571    0.429    0.000    3.143 
#    0.000    4.286    0.000    0.000    0.000    0.000 
#    0.000    1.143    0.000    0.000    0.000    0.000 
#
# Total GULP energy -347002.806767 kJ/mol
# GULP energy per Si atom -12392.957385 kJ/mol
# Density = 1.784563 g / cm^3
# Si number density = 17.886342 Si / 1000 Ang^3
#
#
#
# Elastic Constant Matrix: (Units=GPa)
#
#
# Indices 1 2 3 4 5 6 
#
# 1 41.1477 20.2087 21.4503 0.0000 0.0000 0.0000
# 2 20.2087 59.6789 28.7931 0.0000 0.0000 0.0000
# 3 21.4503 28.7931 146.4985 0.0000 0.0000 0.0000
# 4 0.0000 0.0000 0.0000 20.2530 0.0000 0.0000
# 5 0.0000 0.0000 0.0000 0.0000 18.3256 0.0000
# 6 0.0000 0.0000 0.0000 0.0000 0.0000 16.5024
#
#
#
# Elastic Compliance Matrix: (Units=1/GPa)
#
#
# Indices 1 2 3 4 5 6 
#
# 1 0.030055 -0.008898 -0.002652 0.000000 0.000000 0.000000
# 2 -0.008898 0.021146 -0.002853 0.000000 0.000000 0.000000
# 3 -0.002652 -0.002853 0.007775 0.000000 0.000000 0.000000
# 4 0.000000 0.000000 0.000000 0.049375 0.000000 0.000000
# 5 0.000000 0.000000 0.000000 0.000000 0.054568 0.000000
# 6 0.000000 0.000000 0.000000 0.000000 0.000000 0.060597
#
#
# Mechanical properties :
#
#
# Convention : Reuss Voigt Hill
#
# Bulk Modulus (GPa) = 33.14539 43.13658 38.14099
# Shear Modulus (GPa) = 19.05633 22.80773 20.93203
#
# Velocity S-wave (km/s) = 3.26761 3.57480 3.42465
# Velocity P-wave (km/s) = 5.72780 6.41937 6.08342
#
# Compressibility (1/GPa) = 0.03017010
#
# Stress axis : x y z
#
# Youngs Moduli (GPa) = 33.27226 47.29035 128.61612
#
# Poissons Ratio (x) = 0.42079 0.34107
# Poissons Ratio (y) = 0.29605 0.36697
# Poissons Ratio (z) = 0.08823 0.13493
#
# Static dielectric constant tensor:
#      x y z
#    x 3.031430 0.000000 0.000000 
#    y 0.000000 3.182040 0.000000 
#    z 0.000000 0.000000 3.797230 
# 
# 
# High freq. dielectric constant tensor:
#      x y z
#    x 1.655750 0.000000 0.000000 
#    y 0.000000 1.663430 0.000000 
#    z 0.000000 0.000000 1.713850 
# 
# From -- ./inp_files/21045.got.cif
#   From: 2010.03.12/outbox.cif.g09.slc.cpg/sg42_11_cif.got.tgz:21045.got - 2010.04.14 02:04:31.
