data_PCOD8185562
_publ_section_title
;
Structure prediction by ZEFSAII (Michael W. Deem and Ramdas Pophale) SiO2 
 PCOD8185562
Probable space group: A B A 2
;
_chemical_formula_sum "Si O2"
_cell_formula_units_Z 48
_cell_length_a 14.923915
_cell_length_b 16.954573
_cell_length_c 8.398936
_cell_angle_alpha 90.000000
_cell_angle_beta 90.000000
_cell_angle_gamma 90.000000
_cell_volume 2125.171071
_symmetry_space_group_name_H-M "A B A 2"
_symmetry_group_IT_number 41
_symmetry_cell_setting 'orthorhombic'
loop_
_space_group_symop_operation_xyz
x,y,z
-x,-y,z
1/2-x,y,1/2+z
1/2+x,-y,1/2+z
x,1/2+y,1/2+z
-x,1/2-y,1/2+z
1/2-x,1/2+y,z
1/2+x,1/2-y,z
loop_
_atom_site_type_symbol
_atom_site_label
_atom_site_fract_x
_atom_site_fract_y
_atom_site_fract_z
Si Si1 0.991588 0.802445 0.126520
Si Si2 0.324978 0.589663 0.733880
Si Si3 0.692431 0.580401 0.647710
Si Si4 0.982818 0.140192 0.771030
Si Si5 0.695648 0.324960 0.034530
Si Si6 0.838980 0.165286 0.337194
O O1 0.062767 0.833871 0.256029
O O2 0.982648 0.708437 0.138465
O O3 0.017827 0.823156 0.946749
O O4 0.890270 0.835213 0.153155
O O5 0.278115 0.510362 0.668359
O O6 0.432452 0.586474 0.725341
O O7 0.300070 0.600188 0.917712
O O8 0.285980 0.667046 0.638870
O O9 0.606401 0.589111 0.760971
O O10 0.767510 0.644125 0.699360
O O11 0.665276 0.594843 0.464966
O O12 0.686241 0.246347 0.926984
#
# Coordination Sequence:
#
# PCOD8185562 Si02
#       6
#     8   8   8   8   8   8
#     4  11  22  42  69 102 132 174 239 282 335 396
#     4  11  25  44  67 101 140 181 217 281 345 406
#     4  12  25  43  68 103 140 178 228 277 350 405
#     4  11  23  41  69  97 141 180 228 284 340 402
#     4  11  24  44  70 100 132 178 228 278 339 403
#     4  12  24  44  71 103 130 183 228 286 334 406
#
# _framework density 22.586416
#
# number of rings (size 3 to 8) (size 9 to 14) (size 15 to 20)
#    0.000    0.667    5.000    3.500    2.333    1.333 
#    0.000    4.167    0.000    0.000    0.000    0.000 
#    0.000    0.000    0.000    0.000    0.000    0.000 
#
# Total GULP energy -297481.844441 kJ/mol
# GULP energy per Si atom -12395.076852 kJ/mol
# Density = 2.253501 g / cm^3
# Si number density = 22.586416 Si / 1000 Ang^3
#
#
#
# Elastic Constant Matrix: (Units=GPa)
#
#
# Indices 1 2 3 4 5 6 
#
# 1 99.3252 38.2537 41.4647 0.0000 0.0000 0.0000
# 2 38.2537 86.4751 43.3743 0.0000 0.0000 0.0000
# 3 41.4647 43.3743 83.0697 0.0000 0.0000 0.0000
# 4 0.0000 0.0000 0.0000 34.0354 0.0000 0.0000
# 5 0.0000 0.0000 0.0000 0.0000 41.7494 0.0000
# 6 0.0000 0.0000 0.0000 0.0000 0.0000 26.2067
#
#
#
# Elastic Compliance Matrix: (Units=1/GPa)
#
#
# Indices 1 2 3 4 5 6 
#
# 1 0.013457 -0.003501 -0.004889 0.000000 0.000000 0.000000
# 2 -0.003501 0.016578 -0.006909 0.000000 0.000000 0.000000
# 3 -0.004889 -0.006909 0.018086 0.000000 0.000000 0.000000
# 4 0.000000 0.000000 0.000000 0.029381 0.000000 0.000000
# 5 0.000000 0.000000 0.000000 0.000000 0.023952 0.000000
# 6 0.000000 0.000000 0.000000 0.000000 0.000000 0.038158
#
#
# Mechanical properties :
#
#
# Convention : Reuss Voigt Hill
#
# Bulk Modulus (GPa) = 57.06566 57.22839 57.14703
# Shear Modulus (GPa) = 28.40076 30.11679 29.25878
#
# Velocity S-wave (km/s) = 3.54987 3.65554 3.60309
# Velocity P-wave (km/s) = 6.49018 6.57342 6.53193
#
# Compressibility (1/GPa) = 0.01752367
#
# Stress axis : x y z
#
# Youngs Moduli (GPa) = 74.30895 60.32156 55.29138
#
# Poissons Ratio (x) = 0.21116 0.27035
# Poissons Ratio (y) = 0.26013 0.38199
# Poissons Ratio (z) = 0.36333 0.41674
#
# Static dielectric constant tensor:
#      x y z
#    x 4.302060 0.000000 0.000000 
#    y 0.000000 3.838360 0.000000 
#    z 0.000000 0.000000 4.178550 
# 
# 
# High freq. dielectric constant tensor:
#      x y z
#    x 1.898330 0.000000 0.000000 
#    y 0.000000 1.877110 0.000000 
#    z 0.000000 0.000000 1.898170 
# 
# From -- ./inp_files/2524.got.cif
#   From: 2010.03.12/outbox.cif.g09.slc.cpg/sg41_2_cif.got.tgz:2524.got - 2010.04.14 01:55:53.
