data_PCOD8185772
_publ_section_title
;
Structure prediction by ZEFSAII (Michael W. Deem and Ramdas Pophale) SiO2 
 PCOD8185772
Probable space group: F M M 2
;
_chemical_formula_sum "Si O2"
_cell_formula_units_Z 80
_cell_length_a 8.708768
_cell_length_b 26.136663
_cell_length_c 18.221502
_cell_angle_alpha 90.000000
_cell_angle_beta 90.000000
_cell_angle_gamma 90.000000
_cell_volume 4147.544290
_symmetry_space_group_name_H-M "F M M 2"
_symmetry_group_IT_number 42
_symmetry_cell_setting 'orthorhombic'
loop_
_space_group_symop_operation_xyz
x,y,z
-x,-y,z
-x,y,z
x,-y,z
x,1/2+y,1/2+z
-x,1/2-y,1/2+z
-x,1/2+y,1/2+z
x,1/2-y,1/2+z
1/2+x,y,1/2+z
1/2-x,-y,1/2+z
1/2-x,y,1/2+z
1/2+x,-y,1/2+z
1/2+x,1/2+y,z
1/2-x,1/2-y,z
1/2-x,1/2+y,z
1/2+x,1/2-y,z
loop_
_atom_site_type_symbol
_atom_site_label
_atom_site_fract_x
_atom_site_fract_y
_atom_site_fract_z
Si Si1 0.179805 0.000000 0.507520
Si Si2 0.324298 0.588362 0.753025
Si Si3 0.677530 0.000000 0.664157
Si Si4 0.679552 0.905260 0.424399
Si Si5 0.821124 0.701211 0.261091
Si Si6 0.680103 0.301065 0.420081
O O1 0.248660 0.950249 0.470666
O O2 0.216794 0.000000 0.593143
O O3 0.000000 0.000000 0.495501
O O4 0.500000 0.570608 0.741324
O O5 0.211312 0.550575 0.711243
O O6 0.281992 0.586817 0.838829
O O7 0.300997 0.646277 0.721183
O O8 0.500000 0.000000 0.641391
O O9 0.500000 0.904072 0.438098
O O10 0.748871 0.852272 0.455357
O O11 0.750000 0.750000 0.215500
O O12 0.722275 0.699393 0.334755
O O13 0.000000 0.709975 0.279920
O O14 0.500000 0.301560 0.432368
O O15 0.750000 0.250000 0.458214
#
# Coordination Sequence:
#
# PCOD8185772 Si02
#       6
#     8  16   8  16  16  16
#     4  12  25  40  57  77 105 141 179 220 271 326
#     4   9  19  35  55  79 109 142 173 214 265 314
#     4  12  25  38  55  77 103 139 181 224 267 314
#     4  10  20  36  57  82 111 141 177 221 268 316
#     4   9  16  27  46  74 107 140 172 212 263 312
#     4  10  17  27  46  75 109 142 176 215 262 312
#
# _framework density 19.288520999999999
#
# number of rings (size 3 to 8) (size 9 to 14) (size 15 to 20)
#    0.000    2.000    0.000    7.800    0.000    7.200 
#    0.000    0.000    0.000    1.200    0.000    5.600 
#    0.000    0.000    0.000    0.000    0.000    0.000 
#
# Total GULP energy -247913.937543 kJ/mol
# GULP energy per Si atom -12395.696877 kJ/mol
# Density = 1.924462 g / cm^3
# Si number density = 19.288521 Si / 1000 Ang^3
#
#
#
# Elastic Constant Matrix: (Units=GPa)
#
#
# Indices 1 2 3 4 5 6 
#
# 1 128.4177 71.5437 32.2358 0.0000 0.0000 0.0000
# 2 71.5437 194.6487 44.2186 0.0000 0.0000 0.0000
# 3 32.2358 44.2186 42.1050 0.0000 0.0000 0.0000
# 4 0.0000 0.0000 0.0000 -12.6590 0.0000 0.0000
# 5 0.0000 0.0000 0.0000 0.0000 22.1197 0.0000
# 6 0.0000 0.0000 0.0000 0.0000 0.0000 40.8453
#
#
#
# Elastic Compliance Matrix: (Units=1/GPa)
#
#
# Indices 1 2 3 4 5 6 
#
# 1 0.010621 -0.002701 -0.005295 0.000000 0.000000 0.000000
# 2 -0.002701 0.007434 -0.005739 0.000000 0.000000 0.000000
# 3 -0.005295 -0.005739 0.033831 0.000000 0.000000 0.000000
# 4 0.000000 0.000000 0.000000 -0.078995 0.000000 0.000000
# 5 0.000000 0.000000 0.000000 0.000000 0.045209 0.000000
# 6 0.000000 0.000000 0.000000 0.000000 0.000000 0.024483
#
#
# Mechanical properties :
#
#
# Convention : Reuss Voigt Hill
#
# Bulk Modulus (GPa) = 40.95681 73.46306 57.20994
# Shear Modulus (GPa) = 63.94543 24.53942 44.24243
#
# Velocity S-wave (km/s) = 5.76403 3.57070 4.79447
# Velocity P-wave (km/s) = 8.09806 7.42758 7.77006
#
# Compressibility (1/GPa) = 0.02441596
#
# Stress axis : x y z
#
# Youngs Moduli (GPa) = 94.15345 134.51714 29.55829
#
# Poissons Ratio (x) = 0.36332 0.15651
# Poissons Ratio (y) = 0.25430 0.16965
# Poissons Ratio (z) = 0.49854 0.77204
#
# Static dielectric constant tensor:
#      x y z
#    x 3.598130 0.000000 0.000000 
#    y 0.000000 4.421890 0.000000 
#    z 0.000000 0.000000 2.971310 
# 
# 
# High freq. dielectric constant tensor:
#      x y z
#    x 1.763560 0.000000 0.000000 
#    y 0.000000 1.785450 0.000000 
#    z 0.000000 0.000000 1.682370 
# 
# From -- ./inp_files/18242.got.cif
#   From: 2010.03.12/outbox.cif.g09.slc.cpg/sg42_10_cif.got.tgz:18242.got - 2010.04.14 02:04:31.
