data_PCOD8185528
_publ_section_title
;
Structure prediction by ZEFSAII (Michael W. Deem and Ramdas Pophale) SiO2 
 PCOD8185528
Probable space group: A B A 2
;
_chemical_formula_sum "Si O2"
_cell_formula_units_Z 40
_cell_length_a 17.995210
_cell_length_b 9.867232
_cell_length_c 10.086101
_cell_angle_alpha 90.000000
_cell_angle_beta 90.000000
_cell_angle_gamma 90.000000
_cell_volume 1790.917464
_symmetry_space_group_name_H-M "A B A 2"
_symmetry_group_IT_number 41
_symmetry_cell_setting 'orthorhombic'
loop_
_space_group_symop_operation_xyz
x,y,z
-x,-y,z
1/2-x,y,1/2+z
1/2+x,-y,1/2+z
x,1/2+y,1/2+z
-x,1/2-y,1/2+z
1/2-x,1/2+y,z
1/2+x,1/2-y,z
loop_
_atom_site_type_symbol
_atom_site_label
_atom_site_fract_x
_atom_site_fract_y
_atom_site_fract_z
Si Si1 0.644460 0.828481 0.595670
Si Si2 0.602471 0.126377 0.297136
Si Si3 0.733673 0.673882 0.985834
Si Si4 0.566586 0.828131 0.334745
Si Si5 0.330645 0.914494 0.752831
O O1 0.635803 0.681755 0.661127
O O2 0.722556 0.817948 0.510340
O O3 0.578206 0.847105 0.492093
O O4 0.637440 0.937910 0.714345
O O5 0.651985 0.180646 0.420801
O O6 0.520727 0.187195 0.316435
O O7 0.600778 0.965221 0.273302
O O8 0.783769 0.579743 0.888604
O O9 0.724826 0.613606 0.131759
O O10 0.604998 0.698070 0.267130
#
# Coordination Sequence:
#
# PCOD8185528 Si02
#       5
#     8   8   8   8   8
#     4  11  25  45  71 102 135 183 235 284 355 408
#     4  11  24  45  70  97 142 181 235 283 347 420
#     4  11  24  42  68 105 134 181 228 292 341 416
#     4  10  26  47  66 102 140 189 225 292 351 416
#     4  11  25  44  73  99 143 178 234 286 356 407
#
# _framework density 22.33492
#
# number of rings (size 3 to 8) (size 9 to 14) (size 15 to 20)
#    0.000    1.200    4.000    0.000    8.400    0.800 
#    3.600    0.000    0.000    0.000    0.000    0.000 
#    0.000    0.000    0.000    0.000    0.000    0.000 
#
# Total GULP energy -247792.570209 kJ/mol
# GULP energy per Si atom -12389.628510 kJ/mol
# Density = 2.228408 g / cm^3
# Si number density = 22.334920 Si / 1000 Ang^3
#
#
#
# Elastic Constant Matrix: (Units=GPa)
#
#
# Indices 1 2 3 4 5 6 
#
# 1 129.8977 56.0003 36.9109 0.0000 0.0000 0.0000
# 2 56.0003 125.3361 52.7022 0.0000 0.0000 0.0000
# 3 36.9109 52.7022 103.4374 0.0000 0.0000 0.0000
# 4 0.0000 0.0000 0.0000 41.8252 0.0000 0.0000
# 5 0.0000 0.0000 0.0000 0.0000 22.8916 0.0000
# 6 0.0000 0.0000 0.0000 0.0000 0.0000 32.0761
#
#
#
# Elastic Compliance Matrix: (Units=1/GPa)
#
#
# Indices 1 2 3 4 5 6 
#
# 1 0.009739 -0.003678 -0.001601 0.000000 0.000000 0.000000
# 2 -0.003678 0.011543 -0.004569 0.000000 0.000000 0.000000
# 3 -0.001601 -0.004569 0.012567 0.000000 0.000000 0.000000
# 4 0.000000 0.000000 0.000000 0.023909 0.000000 0.000000
# 5 0.000000 0.000000 0.000000 0.000000 0.043684 0.000000
# 6 0.000000 0.000000 0.000000 0.000000 0.000000 0.031176
#
#
# Mechanical properties :
#
#
# Convention : Reuss Voigt Hill
#
# Bulk Modulus (GPa) = 70.65792 72.21087 71.43440
# Shear Modulus (GPa) = 31.84067 33.56244 32.70156
#
# Velocity S-wave (km/s) = 3.77981 3.88066 3.83057
# Velocity P-wave (km/s) = 7.12415 7.24434 7.18450
#
# Compressibility (1/GPa) = 0.01415269
#
# Stress axis : x y z
#
# Youngs Moduli (GPa) = 102.67955 86.63241 79.57400
#
# Poissons Ratio (x) = 0.31864 0.12742
# Poissons Ratio (y) = 0.37766 0.36355
# Poissons Ratio (z) = 0.16442 0.39580
#
# Static dielectric constant tensor:
#      x y z
#    x 4.136720 0.000000 0.000000 
#    y 0.000000 4.090580 0.000000 
#    z 0.000000 0.000000 4.089780 
# 
# 
# High freq. dielectric constant tensor:
#      x y z
#    x 1.885020 0.000000 0.000000 
#    y 0.000000 1.869990 0.000000 
#    z 0.000000 0.000000 1.888250 
# 
# From -- ./inp_files/2911.got.cif
#   From: 2010.03.12/outbox.cif.g09.slc.cpg/sg41_2_cif.got.tgz:2911.got - 2010.04.14 01:55:53.
