data_PCOD8185510
_publ_section_title
;
Structure prediction by ZEFSAII (Michael W. Deem and Ramdas Pophale) SiO2 
 PCOD8185510
Probable space group: A B A 2
;
_chemical_formula_sum "Si O2"
_cell_formula_units_Z 48
_cell_length_a 25.532204
_cell_length_b 5.627295
_cell_length_c 14.145530
_cell_angle_alpha 90.000000
_cell_angle_beta 90.000000
_cell_angle_gamma 90.000000
_cell_volume 2032.390764
_symmetry_space_group_name_H-M "A B A 2"
_symmetry_group_IT_number 41
_symmetry_cell_setting 'orthorhombic'
loop_
_space_group_symop_operation_xyz
x,y,z
-x,-y,z
1/2-x,y,1/2+z
1/2+x,-y,1/2+z
x,1/2+y,1/2+z
-x,1/2-y,1/2+z
1/2-x,1/2+y,z
1/2+x,1/2-y,z
loop_
_atom_site_type_symbol
_atom_site_label
_atom_site_fract_x
_atom_site_fract_y
_atom_site_fract_z
Si Si1 0.280390 0.681112 0.639300
Si Si2 0.576879 0.506391 0.383414
Si Si3 0.651806 0.877317 0.317545
Si Si4 0.450246 0.359797 0.743419
Si Si5 0.047648 0.676070 0.543506
Si Si6 0.637670 0.642749 0.996045
O O1 0.250876 0.429776 0.622071
O O2 0.300482 0.666479 0.746572
O O3 0.327403 0.695967 0.564465
O O4 0.631692 0.621244 0.350717
O O5 0.547837 0.402906 0.290764
O O6 0.541009 0.691669 0.442131
O O7 0.590357 0.296286 0.454708
O O8 0.603750 0.011533 0.268209
O O9 0.671345 0.027205 0.409462
O O10 0.500000 0.500000 0.784945
O O11 0.454587 0.355681 0.630707
O O12 0.105690 0.559698 0.552324
O O13 0.000000 0.500000 0.554045
#
# Coordination Sequence:
#
# PCOD8185510 Si02
#       6
#     8   8   8   8   8   8
#     4  12  30  48  78 110 146 194 252 316 384 448
#     4  10  24  47  72  96 150 184 250 296 373 444
#     4  10  25  47  74 102 142 189 240 308 371 451
#     4  11  26  43  69 106 143 195 239 298 370 451
#     4  11  26  43  69 106 143 195 239 298 370 451
#     4  10  25  47  74 102 142 189 240 308 371 451
#
# _framework density 23.617505000000001
#
# number of rings (size 3 to 8) (size 9 to 14) (size 15 to 20)
#    0.000    1.333    0.000    2.000   18.667    8.667 
#    0.000    0.000    0.000    0.000    0.000    0.000 
#    0.000    0.000    0.000    0.000    0.000    0.000 
#
# Total GULP energy -297543.736430 kJ/mol
# GULP energy per Si atom -12397.655685 kJ/mol
# Density = 2.356375 g / cm^3
# Si number density = 23.617505 Si / 1000 Ang^3
#
#
#
# Elastic Constant Matrix: (Units=GPa)
#
#
# Indices 1 2 3 4 5 6 
#
# 1 66.5556 21.9028 24.3052 0.0000 0.0000 0.0000
# 2 21.9028 95.8936 15.7290 0.0000 0.0000 0.0000
# 3 24.3052 15.7290 99.1666 0.0000 0.0000 0.0000
# 4 0.0000 0.0000 0.0000 41.3639 0.0000 0.0000
# 5 0.0000 0.0000 0.0000 0.0000 30.4438 0.0000
# 6 0.0000 0.0000 0.0000 0.0000 0.0000 37.0647
#
#
#
# Elastic Compliance Matrix: (Units=1/GPa)
#
#
# Indices 1 2 3 4 5 6 
#
# 1 0.017510 -0.003383 -0.003755 0.000000 0.000000 0.000000
# 2 -0.003383 0.011361 -0.000973 0.000000 0.000000 0.000000
# 3 -0.003755 -0.000973 0.011159 0.000000 0.000000 0.000000
# 4 0.000000 0.000000 0.000000 0.024176 0.000000 0.000000
# 5 0.000000 0.000000 0.000000 0.000000 0.032847 0.000000
# 6 0.000000 0.000000 0.000000 0.000000 0.000000 0.026980
#
#
# Mechanical properties :
#
#
# Convention : Reuss Voigt Hill
#
# Bulk Modulus (GPa) = 42.00459 42.83221 42.41840
# Shear Modulus (GPa) = 33.74060 35.08641 34.41350
#
# Velocity S-wave (km/s) = 3.78382 3.85854 3.82136
# Velocity P-wave (km/s) = 6.07566 6.16655 6.12127
#
# Compressibility (1/GPa) = 0.02380692
#
# Stress axis : x y z
#
# Youngs Moduli (GPa) = 57.11112 88.02379 89.61684
#
# Poissons Ratio (x) = 0.29782 0.33650
# Poissons Ratio (y) = 0.19323 0.08717
# Poissons Ratio (z) = 0.21445 0.08562
#
# Static dielectric constant tensor:
#      x y z
#    x 3.967860 0.000000 0.000000 
#    y 0.000000 4.538460 0.000000 
#    z 0.000000 0.000000 4.476210 
# 
# 
# High freq. dielectric constant tensor:
#      x y z
#    x 1.913910 0.000000 0.000000 
#    y 0.000000 1.949940 0.000000 
#    z 0.000000 0.000000 1.949430 
# 
# From -- ./inp_files/9211.got.cif
#   From: 2010.03.12/outbox.cif.g09.slc.cpg/sg41_5_cif.got.tgz:9211.got - 2010.04.14 01:55:53.
