data_PCOD8185826
_publ_section_title
;
Structure prediction by ZEFSAII (Michael W. Deem and Ramdas Pophale) SiO2 
 PCOD8185826
Probable space group: F M M 2
;
_chemical_formula_sum "Si O2"
_cell_formula_units_Z 128
_cell_length_a 27.815288
_cell_length_b 29.126675
_cell_length_c 10.375224
_cell_angle_alpha 90.000000
_cell_angle_beta 90.000000
_cell_angle_gamma 90.000000
_cell_volume 8405.662584
_symmetry_space_group_name_H-M "F M M 2"
_symmetry_group_IT_number 42
_symmetry_cell_setting 'orthorhombic'
loop_
_space_group_symop_operation_xyz
x,y,z
-x,-y,z
-x,y,z
x,-y,z
x,1/2+y,1/2+z
-x,1/2-y,1/2+z
-x,1/2+y,1/2+z
x,1/2-y,1/2+z
1/2+x,y,1/2+z
1/2-x,-y,1/2+z
1/2-x,y,1/2+z
1/2+x,-y,1/2+z
1/2+x,1/2+y,z
1/2-x,1/2-y,z
1/2-x,1/2+y,z
1/2+x,1/2-y,z
loop_
_atom_site_type_symbol
_atom_site_label
_atom_site_fract_x
_atom_site_fract_y
_atom_site_fract_z
Si Si1 0.057187 0.215730 0.964640
Si Si2 0.445201 0.111920 0.457133
Si Si3 0.360823 0.054445 0.850777
Si Si4 0.445202 0.388084 0.257628
Si Si5 0.057186 0.284275 0.750145
Si Si6 0.860825 0.554445 0.363979
Si Si7 0.299680 0.945526 0.607380
Si Si8 0.692004 0.445511 0.607378
O O1 0.072704 0.163840 0.931606
O O2 0.079247 0.250004 0.857396
O O3 0.000000 0.218516 0.965263
O O4 0.076311 0.229521 0.107394
O O5 0.500000 0.105586 0.410563
O O6 0.440753 0.099541 0.607379
O O7 0.412965 0.077514 0.373831
O O8 0.412966 0.077508 0.840926
O O9 0.327477 0.071791 0.733764
O O10 0.368002 0.000000 0.848299
O O11 0.336083 0.071712 0.981631
O O12 0.500000 0.394420 0.304197
O O13 0.427295 0.336166 0.283166
O O14 0.000000 0.281490 0.749521
O O15 0.868011 0.500000 0.366457
O O16 0.827476 0.571786 0.480990
O O17 0.836084 0.571710 0.233126
O O18 0.245886 0.924799 0.607379
O O19 0.296928 0.000000 0.607394
O O20 0.695400 0.500000 0.607374
#
# Coordination Sequence:
#
# PCOD8185826 Si02
#       8
#    16  16  16  16  16  16  16  16
#     4   8  14  26  43  61  82 107 137 177 219 250
#     4   9  17  29  44  63  89 119 149 179 206 243
#     4  10  18  29  44  64  89 118 148 176 211 256
#     4   9  17  29  44  63  89 119 149 179 206 243
#     4   8  14  26  43  61  82 107 137 177 219 250
#     4  10  18  29  44  64  89 118 148 176 211 256
#     4   9  16  28  47  65  80 109 149 183 219 258
#     4   9  18  30  43  61  88 113 139 187 233 252
#
# _framework density 15.227829
#
# number of rings (size 3 to 8) (size 9 to 14) (size 15 to 20)
#    0.000    3.000    1.250    2.250    0.000    3.500 
#    2.250    1.875    0.000    2.250    0.000    0.000 
#    0.000    6.000    0.000    0.000    0.000    0.000 
#
# Total GULP energy -396703.207737 kJ/mol
# GULP energy per Si atom -12396.975242 kJ/mol
# Density = 1.519317 g / cm^3
# Si number density = 15.227829 Si / 1000 Ang^3
#
#
#
# Elastic Constant Matrix: (Units=GPa)
#
#
# Indices 1 2 3 4 5 6 
#
# 1 85.7916 34.0702 51.9029 -0.0032 0.0034 0.0015
# 2 34.0702 47.4105 38.6559 -0.0025 0.0032 0.0019
# 3 51.9029 38.6559 119.6064 -0.0271 0.0275 0.0020
# 4 -0.0032 -0.0025 -0.0271 19.1689 0.0128 0.0023
# 5 0.0034 0.0032 0.0275 0.0128 18.4499 -0.0009
# 6 0.0015 0.0019 0.0020 0.0023 -0.0009 1.8247
#
#
#
# Elastic Compliance Matrix: (Units=1/GPa)
#
#
# Indices 1 2 3 4 5 6 
#
# 1 0.018281 -0.009055 -0.005006 -0.000005 0.000006 0.000000
# 2 -0.009055 0.033124 -0.006776 -0.000007 0.000006 -0.000020
# 3 -0.005006 -0.006776 0.012723 0.000016 -0.000017 -0.000003
# 4 -0.000005 -0.000007 0.000016 0.052168 -0.000036 -0.000066
# 5 0.000006 0.000006 -0.000017 -0.000036 0.054201 0.000028
# 6 0.000000 -0.000020 -0.000003 -0.000066 0.000028 0.548032
#
#
# Mechanical properties :
#
#
# Convention : Reuss Voigt Hill
#
# Bulk Modulus (GPa) = 44.53679 55.78516 50.16097
# Shear Modulus (GPa) = 6.51305 16.43400 11.47352
#
# Velocity S-wave (km/s) = 2.07035 3.28869 2.74790
# Velocity P-wave (km/s) = 5.91824 7.15080 6.56352
#
# Compressibility (1/GPa) = 0.02245335
#
# Stress axis : x y z
#
# Youngs Moduli (GPa) = 54.70144 30.18915 78.59596
#
# Poissons Ratio (x) = 0.27337 0.39349
# Poissons Ratio (y) = 0.49533 0.53258
# Poissons Ratio (z) = 0.27386 0.20457
#
# Static dielectric constant tensor:
#      x y z
#    x 2.787630 0.000000 0.000000 
#    y 0.000000 2.703640 0.000000 
#    z 0.000000 0.000000 3.145390 
# 
# 
# High freq. dielectric constant tensor:
#      x y z
#    x 1.561480 0.000000 0.000000 
#    y 0.000000 1.548540 0.000000 
#    z 0.000000 0.000000 1.587860 
# 
# From -- ./inp_files/10811.got.cif
#   From: 2010.03.12/outbox.cif.g09.slc.cpg/sg42_6_cif.got.tgz:10811.got - 2010.04.14 02:04:31.
