data_PCOD8185251
_publ_section_title
;
Structure prediction by ZEFSAII (Michael W. Deem and Ramdas Pophale) SiO2 
 PCOD8185251
Probable space group: A B A 2
;
_chemical_formula_sum "Si O2"
_cell_formula_units_Z 52
_cell_length_a 24.583637
_cell_length_b 9.287016
_cell_length_c 11.890883
_cell_angle_alpha 90.000000
_cell_angle_beta 90.000000
_cell_angle_gamma 90.000000
_cell_volume 2714.791209
_symmetry_space_group_name_H-M "A B A 2"
_symmetry_group_IT_number 41
_symmetry_cell_setting 'orthorhombic'
loop_
_space_group_symop_operation_xyz
x,y,z
-x,-y,z
1/2-x,y,1/2+z
1/2+x,-y,1/2+z
x,1/2+y,1/2+z
-x,1/2-y,1/2+z
1/2-x,1/2+y,z
1/2+x,1/2-y,z
loop_
_atom_site_type_symbol
_atom_site_label
_atom_site_fract_x
_atom_site_fract_y
_atom_site_fract_z
Si Si1 0.686875 0.456285 0.259260
Si Si2 0.500000 0.500000 0.010382
Si Si3 0.598771 0.851674 0.591808
Si Si4 0.105999 0.443541 0.400794
Si Si5 0.329892 0.673676 0.486317
Si Si6 0.748735 0.704953 0.157346
Si Si7 0.637628 0.053292 0.147939
O O1 0.629616 0.412631 0.201608
O O2 0.683352 0.447929 0.393743
O O3 0.702234 0.618747 0.225469
O O4 0.734578 0.346574 0.224821
O O5 0.457980 0.415578 0.928115
O O6 0.534581 0.393358 0.091959
O O7 0.602017 0.678859 0.589806
O O8 0.626699 0.924155 0.480569
O O9 0.137391 0.298252 0.425464
O O10 0.116081 0.483195 0.271874
O O11 0.275296 0.743504 0.537928
O O12 0.367093 0.596359 0.580553
O O13 0.799611 0.600077 0.141805
#
# Coordination Sequence:
#
# PCOD8185251 Si02
#       7
#     8   4   8   8   8   8   8
#     4  11  23  38  62  91 130 166 213 253 301 383
#     4   8  20  44  72  84 122 168 202 270 346 350
#     4   9  20  43  65  89 124 163 205 268 314 374
#     4  10  21  45  65  87 126 164 206 271 309 377
#     4  12  24  39  62  93 130 167 211 251 310 373
#     4  11  22  38  56  92 128 174 197 248 308 365
#     4  11  24  39  62  97 127 159 216 256 301 385
#
# _framework density 19.154326999999999
#
# number of rings (size 3 to 8) (size 9 to 14) (size 15 to 20)
#    0.923    0.615    6.154    0.000    2.154    3.692 
#    2.769    1.538    0.000    0.000    0.000    0.000 
#    0.000    0.000    0.000    0.000    0.000    0.000 
#
# Total GULP energy -322243.584139 kJ/mol
# GULP energy per Si atom -12393.984005 kJ/mol
# Density = 1.911073 g / cm^3
# Si number density = 19.154327 Si / 1000 Ang^3
#
#
#
# Elastic Constant Matrix: (Units=GPa)
#
#
# Indices 1 2 3 4 5 6 
#
# 1 79.5632 -6.3281 31.4167 0.0000 0.0000 0.0000
# 2 -6.3281 34.5209 28.1933 0.0000 0.0000 0.0000
# 3 31.4167 28.1933 130.9955 0.0000 0.0000 0.0000
# 4 0.0000 0.0000 0.0000 35.9806 0.0000 0.0000
# 5 0.0000 0.0000 0.0000 0.0000 14.7689 0.0000
# 6 0.0000 0.0000 0.0000 0.0000 0.0000 19.3597
#
#
#
# Elastic Compliance Matrix: (Units=1/GPa)
#
#
# Indices 1 2 3 4 5 6 
#
# 1 0.015150 0.006970 -0.005133 0.000000 0.000000 0.000000
# 2 0.006970 0.038352 -0.009926 0.000000 0.000000 0.000000
# 3 -0.005133 -0.009926 0.011001 0.000000 0.000000 0.000000
# 4 0.000000 0.000000 0.000000 0.027793 0.000000 0.000000
# 5 0.000000 0.000000 0.000000 0.000000 0.067710 0.000000
# 6 0.000000 0.000000 0.000000 0.000000 0.000000 0.051654
#
#
# Mechanical properties :
#
#
# Convention : Reuss Voigt Hill
#
# Bulk Modulus (GPa) = 20.69358 39.07148 29.88253
# Shear Modulus (GPa) = 20.49627 26.80835 23.65231
#
# Velocity S-wave (km/s) = 3.27473 3.74518 3.51783
# Velocity P-wave (km/s) = 5.01253 6.25654 5.66877
#
# Compressibility (1/GPa) = 0.04832416
#
# Stress axis : x y z
#
# Youngs Moduli (GPa) = 66.00665 26.07424 90.89851
#
# Poissons Ratio (x) = -0.18173 0.46663
# Poissons Ratio (y) = -0.46005 0.90224
# Poissons Ratio (z) = 0.33884 0.25881
#
# Static dielectric constant tensor:
#      x y z
#    x 3.368670 0.000000 0.000000 
#    y 0.000000 3.531120 0.000000 
#    z 0.000000 0.000000 3.497420 
# 
# 
# High freq. dielectric constant tensor:
#      x y z
#    x 1.723720 0.000000 0.000000 
#    y 0.000000 1.746340 0.000000 
#    z 0.000000 0.000000 1.744520 
# 
# From -- ./inp_files/6537.got.cif
#   From: 2010.03.12/outbox.cif.g09.slc.cpg/sg41_4_cif.got.tgz:6537.got - 2010.04.14 01:55:53.
