data_PCOD8185045
_publ_section_title
;
Structure prediction by ZEFSAII (Michael W. Deem and Ramdas Pophale) SiO2 
 PCOD8185045
Probable space group: A B A 2
;
_chemical_formula_sum "Si O2"
_cell_formula_units_Z 48
_cell_length_a 15.474617
_cell_length_b 16.769057
_cell_length_c 9.153533
_cell_angle_alpha 90.000000
_cell_angle_beta 90.000000
_cell_angle_gamma 90.000000
_cell_volume 2375.293616
_symmetry_space_group_name_H-M "A B A 2"
_symmetry_group_IT_number 41
_symmetry_cell_setting 'orthorhombic'
loop_
_space_group_symop_operation_xyz
x,y,z
-x,-y,z
1/2-x,y,1/2+z
1/2+x,-y,1/2+z
x,1/2+y,1/2+z
-x,1/2-y,1/2+z
1/2-x,1/2+y,z
1/2+x,1/2-y,z
loop_
_atom_site_type_symbol
_atom_site_label
_atom_site_fract_x
_atom_site_fract_y
_atom_site_fract_z
Si Si1 0.523584 0.912701 0.016570
Si Si2 0.170819 0.617112 0.804824
Si Si3 0.750908 0.543880 0.260401
Si Si4 0.821732 0.823279 0.999157
Si Si5 0.164330 0.859142 0.503419
Si Si6 0.915880 0.950782 0.831709
O O1 0.436638 0.863118 0.045754
O O2 0.578241 0.917721 0.166120
O O3 0.500000 0.000000 0.962582
O O4 0.578354 0.876425 0.883474
O O5 0.193971 0.534287 0.720445
O O6 0.174694 0.680772 0.675083
O O7 0.237851 0.634284 0.933831
O O8 0.775585 0.602433 0.128374
O O9 0.685293 0.591541 0.360623
O O10 0.837509 0.513828 0.341702
O O11 0.903527 0.873276 0.935527
O O12 0.817022 0.731155 0.957482
O O13 0.000000 0.000000 0.880804
#
# Coordination Sequence:
#
# PCOD8185045 Si02
#       6
#     8   8   8   8   8   8
#     4  11  21  42  68  94 126 168 213 268 312 372
#     4  11  22  43  66  91 126 172 215 255 314 389
#     4  11  20  39  68  87 119 170 212 250 311 393
#     4  11  25  40  63  95 131 164 211 267 322 379
#     4  12  24  41  63  98 128 164 210 271 328 365
#     4  10  20  42  69  88 122 171 217 251 314 384
#
# _framework density 20.208027000000001
#
# number of rings (size 3 to 8) (size 9 to 14) (size 15 to 20)
#    0.000    1.000    5.000    5.000    0.000    2.000 
#    6.000    0.000    0.000    0.000    0.000    0.000 
#    0.000    0.000    0.000    0.000    0.000    0.000 
#
# Total GULP energy -297492.479047 kJ/mol
# GULP energy per Si atom -12395.519960 kJ/mol
# Density = 2.016203 g / cm^3
# Si number density = 20.208027 Si / 1000 Ang^3
#
#
#
# Elastic Constant Matrix: (Units=GPa)
#
#
# Indices 1 2 3 4 5 6 
#
# 1 72.9730 6.4618 25.4869 0.0000 0.0000 0.0000
# 2 6.4618 85.2174 9.9299 0.0000 0.0000 0.0000
# 3 25.4869 9.9299 78.3984 0.0000 0.0000 0.0000
# 4 0.0000 0.0000 0.0000 -249.1274 0.0000 0.0000
# 5 0.0000 0.0000 0.0000 0.0000 29.0156 0.0000
# 6 0.0000 0.0000 0.0000 0.0000 0.0000 17.5236
#
#
#
# Elastic Compliance Matrix: (Units=1/GPa)
#
#
# Indices 1 2 3 4 5 6 
#
# 1 0.015489 -0.000597 -0.004960 0.000000 0.000000 0.000000
# 2 -0.000597 0.011933 -0.001318 0.000000 0.000000 0.000000
# 3 -0.004960 -0.001318 0.014535 0.000000 0.000000 0.000000
# 4 0.000000 0.000000 0.000000 -0.004014 0.000000 0.000000
# 5 0.000000 0.000000 0.000000 0.000000 0.034464 0.000000
# 6 0.000000 0.000000 0.000000 0.000000 0.000000 0.057066
#
#
# Mechanical properties :
#
#
# Convention : Reuss Voigt Hill
#
# Bulk Modulus (GPa) = 35.44946 35.59399 35.52172
# Shear Modulus (GPa) = 32.76027 -27.53696 2.61165
#
# Velocity S-wave (km/s) = 4.03072 -3.69545 1.13806
# Velocity P-wave (km/s) = 6.26439 0.74593 4.39808
#
# Compressibility (1/GPa) = 0.02820918
#
# Stress axis : x y z
#
# Youngs Moduli (GPa) = 64.56276 83.79809 68.80115
#
# Poissons Ratio (x) = 0.04999 0.34124
# Poissons Ratio (y) = 0.03851 0.09065
# Poissons Ratio (z) = 0.32022 0.11041
#
# Static dielectric constant tensor:
#      x y z
#    x 3.878120 0.000000 0.000000 
#    y 0.000000 6.331340 0.000000 
#    z 0.000000 0.000000 3.685190 
# 
# 
# High freq. dielectric constant tensor:
#      x y z
#    x 1.789760 0.000000 0.000000 
#    y 0.000000 1.784430 0.000000 
#    z 0.000000 0.000000 1.786910 
# 
# From -- ./inp_files/2528.got.cif
#   From: 2010.03.12/outbox.cif.g09.slc.cpg/sg41_2_cif.got.tgz:2528.got - 2010.04.14 01:55:53.
