data_PCOD8185716
_publ_section_title
;
Structure prediction by ZEFSAII (Michael W. Deem and Ramdas Pophale) SiO2 
 PCOD8185716
Probable space group: A B A 2
;
_chemical_formula_sum "Si O2"
_cell_formula_units_Z 28
_cell_length_a 8.986159
_cell_length_b 8.957996
_cell_length_c 12.071325
_cell_angle_alpha 90.000000
_cell_angle_beta 90.000000
_cell_angle_gamma 90.000000
_cell_volume 971.717235
_symmetry_space_group_name_H-M "A B A 2"
_symmetry_group_IT_number 41
_symmetry_cell_setting 'orthorhombic'
loop_
_space_group_symop_operation_xyz
x,y,z
-x,-y,z
1/2-x,y,1/2+z
1/2+x,-y,1/2+z
x,1/2+y,1/2+z
-x,1/2-y,1/2+z
1/2-x,1/2+y,z
1/2+x,1/2-y,z
loop_
_atom_site_type_symbol
_atom_site_label
_atom_site_fract_x
_atom_site_fract_y
_atom_site_fract_z
Si Si1 0.809182 0.420433 0.081270
Si Si2 0.000000 0.000000 0.979972
Si Si3 0.540395 0.316325 0.371492
Si Si4 0.262864 0.830167 0.728522
O O1 0.840396 0.252977 0.124661
O O2 0.847722 0.543461 0.176662
O O3 0.637660 0.456517 0.056934
O O4 0.911703 0.426252 0.971890
O O5 0.027635 0.857660 0.902447
O O6 0.670606 0.308078 0.280827
O O7 0.388781 0.386053 0.317051
#
# Coordination Sequence:
#
# PCOD8185716 Si02
#       4
#     8   4   8   8
#     4  12  27  53  85 122 173 230 294 363 438 535
#     4  12  24  56  78 124 182 228 280 370 446 512
#     4  12  27  53  84 124 177 225 294 367 432 535
#     4  12  28  52  82 124 166 232 292 352 455 521
#
# _framework density 28.814968
#
# number of rings (size 3 to 8) (size 9 to 14) (size 15 to 20)
#    0.000    0.000    5.714    3.429    0.000    0.000 
#   10.286    0.000    0.000    0.000    0.000    0.000 
#    0.000    0.000    0.000    0.000    0.000    0.000 
#
# Total GULP energy -173539.402735 kJ/mol
# GULP energy per Si atom -12395.671624 kJ/mol
# Density = 2.874938 g / cm^3
# Si number density = 28.814968 Si / 1000 Ang^3
#
#
#
# Elastic Constant Matrix: (Units=GPa)
#
#
# Indices 1 2 3 4 5 6 
#
# 1 113.9153 51.5972 56.9898 0.0000 0.0000 0.0000
# 2 51.5972 105.8070 78.8760 0.0000 0.0000 0.0000
# 3 56.9898 78.8760 174.1451 0.0000 0.0000 0.0000
# 4 0.0000 0.0000 0.0000 45.7503 0.0000 0.0000
# 5 0.0000 0.0000 0.0000 0.0000 34.9257 0.0000
# 6 0.0000 0.0000 0.0000 0.0000 0.0000 35.3546
#
#
#
# Elastic Compliance Matrix: (Units=1/GPa)
#
#
# Indices 1 2 3 4 5 6 
#
# 1 0.011658 -0.004289 -0.001872 0.000000 0.000000 0.000000
# 2 -0.004289 0.015847 -0.005774 0.000000 0.000000 0.000000
# 3 -0.001872 -0.005774 0.008970 0.000000 0.000000 0.000000
# 4 0.000000 0.000000 0.000000 0.021858 0.000000 0.000000
# 5 0.000000 0.000000 0.000000 0.000000 0.028632 0.000000
# 6 0.000000 0.000000 0.000000 0.000000 0.000000 0.028285
#
#
# Mechanical properties :
#
#
# Convention : Reuss Voigt Hill
#
# Bulk Modulus (GPa) = 79.33882 85.42148 82.38015
# Shear Modulus (GPa) = 34.88620 36.96640 35.92630
#
# Velocity S-wave (km/s) = 3.48328 3.58563 3.53483
# Velocity P-wave (km/s) = 6.61599 6.84482 6.73138
#
# Compressibility (1/GPa) = 0.01260417
#
# Stress axis : x y z
#
# Youngs Moduli (GPa) = 85.77834 63.10258 111.47850
#
# Poissons Ratio (x) = 0.27066 0.20873
# Poissons Ratio (y) = 0.36792 0.64368
# Poissons Ratio (z) = 0.16061 0.36436
#
# Static dielectric constant tensor:
#      x y z
#    x 5.020410 0.000000 0.000000 
#    y 0.000000 5.386860 0.000000 
#    z 0.000000 0.000000 5.790480 
# 
# 
# High freq. dielectric constant tensor:
#      x y z
#    x 2.160160 0.000000 0.000000 
#    y 0.000000 2.195810 0.000000 
#    z 0.000000 0.000000 2.190120 
# 
# From -- ./inp_files/4246.got.cif
#   From: 2010.03.12/outbox.cif.g09.slc.cpg/sg41_3_cif.got.tgz:4246.got - 2010.04.14 01:55:53.
