data_PCOD8185643
_publ_section_title
;
Structure prediction by ZEFSAII (Michael W. Deem and Ramdas Pophale) SiO2 
 PCOD8185643
Probable space group: A B A 2
;
_chemical_formula_sum "Si O2"
_cell_formula_units_Z 48
_cell_length_a 9.466871
_cell_length_b 9.606357
_cell_length_c 24.795918
_cell_angle_alpha 90.000000
_cell_angle_beta 90.000000
_cell_angle_gamma 90.000000
_cell_volume 2254.993908
_symmetry_space_group_name_H-M "A B A 2"
_symmetry_group_IT_number 41
_symmetry_cell_setting 'orthorhombic'
loop_
_space_group_symop_operation_xyz
x,y,z
-x,-y,z
1/2-x,y,1/2+z
1/2+x,-y,1/2+z
x,1/2+y,1/2+z
-x,1/2-y,1/2+z
1/2-x,1/2+y,z
1/2+x,1/2-y,z
loop_
_atom_site_type_symbol
_atom_site_label
_atom_site_fract_x
_atom_site_fract_y
_atom_site_fract_z
Si Si1 0.171303 0.011332 0.656610
Si Si2 0.012086 0.163954 0.399486
Si Si3 0.171303 0.011332 0.266772
Si Si4 0.261372 0.758762 0.088089
Si Si5 0.761372 0.741238 0.835293
Si Si6 0.487915 0.163954 0.023896
O O1 0.250000 0.974001 0.711691
O O2 0.219208 0.164735 0.639017
O O3 0.239914 0.915164 0.610556
O O4 0.000000 0.000000 0.662207
O O5 0.916177 0.259758 0.360727
O O6 0.973557 0.185388 0.461691
O O7 0.164575 0.227036 0.387021
O O8 0.000000 0.000000 0.383790
O O9 0.219207 0.164736 0.284365
O O10 0.239914 0.915164 0.312827
O O11 0.000000 0.000000 0.261175
O O12 0.416177 0.740242 0.062655
O O13 0.164575 0.727037 0.036361
O O14 0.500000 0.000000 0.039592
#
# Coordination Sequence:
#
# PCOD8185643 Si02
#       6
#     8   8   8   8   8   8
#     4  12  28  46  69 100 136 180 229 284 337 404
#     4  11  24  45  70 102 139 178 225 281 338 399
#     4  12  28  46  69 100 136 180 229 284 337 404
#     4  12  22  48  68 100 138 176 224 282 340 396
#     4  12  22  48  68 100 138 176 224 282 340 396
#     4  11  24  45  70 102 139 178 225 281 338 399
#
# _framework density 21.286089
#
# number of rings (size 3 to 8) (size 9 to 14) (size 15 to 20)
#    0.000    0.333    6.667    2.000    4.667    2.667 
#    0.000    1.667    0.000    0.000    0.000    0.000 
#    0.000    0.000    0.000    0.000    0.000    0.000 
#
# Total GULP energy -297369.059325 kJ/mol
# GULP energy per Si atom -12390.377472 kJ/mol
# Density = 2.123764 g / cm^3
# Si number density = 21.286089 Si / 1000 Ang^3
#
#
#
# Elastic Constant Matrix: (Units=GPa)
#
#
# Indices 1 2 3 4 5 6 
#
# 1 102.7017 55.4917 49.0292 0.0000 0.0000 0.0000
# 2 55.4917 65.4938 31.4064 0.0000 0.0000 0.0000
# 3 49.0292 31.4064 107.2030 0.0000 0.0000 0.0000
# 4 0.0000 0.0000 0.0000 26.7563 0.0000 0.0000
# 5 0.0000 0.0000 0.0000 0.0000 42.3174 0.0000
# 6 0.0000 0.0000 0.0000 0.0000 0.0000 36.4807
#
#
#
# Elastic Compliance Matrix: (Units=1/GPa)
#
#
# Indices 1 2 3 4 5 6 
#
# 1 0.019908 -0.014545 -0.004844 0.000000 0.000000 0.000000
# 2 -0.014545 0.028391 -0.001665 0.000000 0.000000 0.000000
# 3 -0.004844 -0.001665 0.012031 0.000000 0.000000 0.000000
# 4 0.000000 0.000000 0.000000 0.037374 0.000000 0.000000
# 5 0.000000 0.000000 0.000000 0.000000 0.023631 0.000000
# 6 0.000000 0.000000 0.000000 0.000000 0.000000 0.027412
#
#
# Mechanical properties :
#
#
# Convention : Reuss Voigt Hill
#
# Bulk Modulus (GPa) = 54.87864 60.80589 57.84227
# Shear Modulus (GPa) = 25.38961 30.40895 27.89928
#
# Velocity S-wave (km/s) = 3.45741 3.78376 3.62426
# Velocity P-wave (km/s) = 6.46341 6.90776 6.68928
#
# Compressibility (1/GPa) = 0.01822203
#
# Stress axis : x y z
#
# Youngs Moduli (GPa) = 50.22983 35.22228 83.11641
#
# Poissons Ratio (x) = 0.51232 0.40261
# Poissons Ratio (y) = 0.73061 0.13841
# Poissons Ratio (z) = 0.24331 0.05865
#
# Static dielectric constant tensor:
#      x y z
#    x 3.977900 0.000000 0.000000 
#    y 0.000000 3.737900 0.000000 
#    z 0.000000 0.000000 3.925850 
# 
# 
# High freq. dielectric constant tensor:
#      x y z
#    x 1.842360 0.000000 0.000000 
#    y 0.000000 1.825890 0.000000 
#    z 0.000000 0.000000 1.852850 
# 
# From -- ./inp_files/12668.got.cif
#   From: 2010.03.12/outbox.cif.g09.slc.cpg/sg41_7_cif.got.tgz:12668.got - 2010.04.14 01:55:53.
