data_PCOD8185242
_publ_section_title
;
Structure prediction by ZEFSAII (Michael W. Deem and Ramdas Pophale) SiO2 
 PCOD8185242
Probable space group: A B A 2
;
_chemical_formula_sum "Si O2"
_cell_formula_units_Z 28
_cell_length_a 15.289573
_cell_length_b 14.046061
_cell_length_c 5.106888
_cell_angle_alpha 90.000000
_cell_angle_beta 90.000000
_cell_angle_gamma 90.000000
_cell_volume 1096.746458
_symmetry_space_group_name_H-M "A B A 2"
_symmetry_group_IT_number 41
_symmetry_cell_setting 'orthorhombic'
loop_
_space_group_symop_operation_xyz
x,y,z
-x,-y,z
1/2-x,y,1/2+z
1/2+x,-y,1/2+z
x,1/2+y,1/2+z
-x,1/2-y,1/2+z
1/2-x,1/2+y,z
1/2+x,1/2-y,z
loop_
_atom_site_type_symbol
_atom_site_label
_atom_site_fract_x
_atom_site_fract_y
_atom_site_fract_z
Si Si1 0.519467 0.195989 0.796160
Si Si2 0.692273 0.473012 0.910247
Si Si3 0.000000 0.500000 0.568161
Si Si4 0.198976 0.751340 0.420263
O O1 0.537923 0.250299 0.518324
O O2 0.611578 0.187844 0.939261
O O3 0.479855 0.091603 0.749821
O O4 0.747757 0.505166 0.656358
O O5 0.677808 0.360054 0.917414
O O6 0.591967 0.516478 0.908978
O O7 0.250223 0.786172 0.669786
#
# Coordination Sequence:
#
# PCOD8185242 Si02
#       4
#     8   8   4   8
#     4  12  27  46  71 109 144 190 247 303 368 448
#     4  10  24  44  71 107 149 191 248 309 365 439
#     4  12  28  48  80 110 152 202 246 312 378 442
#     4  10  21  43  72  99 143 192 240 307 368 434
#
# _framework density 25.530058
#
# number of rings (size 3 to 8) (size 9 to 14) (size 15 to 20)
#    0.000    1.143    2.857    1.714    8.000    6.857 
#    0.000    0.000    0.000    0.000    0.000    0.000 
#    0.000    0.000    0.000    0.000    0.000    0.000 
#
# Total GULP energy -173506.472409 kJ/mol
# GULP energy per Si atom -12393.319458 kJ/mol
# Density = 2.547195 g / cm^3
# Si number density = 25.530058 Si / 1000 Ang^3
#
#
#
# Elastic Constant Matrix: (Units=GPa)
#
#
# Indices 1 2 3 4 5 6 
#
# 1 199.1725 4.8494 61.6119 0.0000 0.0000 0.0000
# 2 4.8494 91.1383 26.2824 0.0000 0.0000 0.0000
# 3 61.6119 26.2824 186.9423 0.0000 0.0000 0.0000
# 4 0.0000 0.0000 0.0000 3.3844 0.0000 0.0000
# 5 0.0000 0.0000 0.0000 0.0000 33.6303 0.0000
# 6 0.0000 0.0000 0.0000 0.0000 0.0000 36.8726
#
#
#
# Elastic Compliance Matrix: (Units=1/GPa)
#
#
# Indices 1 2 3 4 5 6 
#
# 1 0.005596 0.000244 -0.001879 0.000000 0.000000 0.000000
# 2 0.000244 0.011447 -0.001690 0.000000 0.000000 0.000000
# 3 -0.001879 -0.001690 0.006206 0.000000 0.000000 0.000000
# 4 0.000000 0.000000 0.000000 0.295473 0.000000 0.000000
# 5 0.000000 0.000000 0.000000 0.000000 0.029735 0.000000
# 6 0.000000 0.000000 0.000000 0.000000 0.000000 0.027120
#
#
# Mechanical properties :
#
#
# Convention : Reuss Voigt Hill
#
# Bulk Modulus (GPa) = 60.24135 73.63786 66.93960
# Shear Modulus (GPa) = 12.89462 40.41142 26.65302
#
# Velocity S-wave (km/s) = 2.24983 3.98288 3.23458
# Velocity P-wave (km/s) = 5.51330 7.07512 6.34247
#
# Compressibility (1/GPa) = 0.01659989
#
# Stress axis : x y z
#
# Youngs Moduli (GPa) = 178.70041 87.36200 161.13578
#
# Poissons Ratio (x) = -0.02132 0.30271
# Poissons Ratio (y) = -0.04360 0.27227
# Poissons Ratio (z) = 0.33571 0.14762
#
# Static dielectric constant tensor:
#      x y z
#    x 4.694000 0.000000 0.000000 
#    y 0.000000 4.306920 0.000000 
#    z 0.000000 0.000000 4.789570 
# 
# 
# High freq. dielectric constant tensor:
#      x y z
#    x 2.035920 0.000000 0.000000 
#    y 0.000000 2.008160 0.000000 
#    z 0.000000 0.000000 2.020130 
# 
# From -- ./inp_files/163.got.cif
#   From: 2010.03.12/outbox.cif.g09.slc.cpg/sg41_1_cif.got.tgz:163.got - 2010.04.14 01:55:53.
