data_PCOD8185269
_publ_section_title
;
Structure prediction by ZEFSAII (Michael W. Deem and Ramdas Pophale) SiO2 
 PCOD8185269
Probable space group: A B A 2
;
_chemical_formula_sum "Si O2"
_cell_formula_units_Z 52
_cell_length_a 24.309167
_cell_length_b 9.825096
_cell_length_c 11.541230
_cell_angle_alpha 90.000000
_cell_angle_beta 90.000000
_cell_angle_gamma 90.000000
_cell_volume 2756.506213
_symmetry_space_group_name_H-M "A B A 2"
_symmetry_group_IT_number 41
_symmetry_cell_setting 'orthorhombic'
loop_
_space_group_symop_operation_xyz
x,y,z
-x,-y,z
1/2-x,y,1/2+z
1/2+x,-y,1/2+z
x,1/2+y,1/2+z
-x,1/2-y,1/2+z
1/2-x,1/2+y,z
1/2+x,1/2-y,z
loop_
_atom_site_type_symbol
_atom_site_label
_atom_site_fract_x
_atom_site_fract_y
_atom_site_fract_z
Si Si1 0.808402 0.524882 0.255390
Si Si2 0.742898 0.768945 0.351820
Si Si3 0.922720 0.303861 0.665259
Si Si4 0.641438 0.395997 0.372267
Si Si5 0.413519 0.362953 0.872797
Si Si6 0.157100 0.354178 0.016803
Si Si7 0.000000 0.500000 0.539038
O O1 0.759227 0.628835 0.288685
O O2 0.791452 0.367174 0.265729
O O3 0.859960 0.548258 0.340889
O O4 0.822864 0.553852 0.123049
O O5 0.795006 0.858162 0.388893
O O6 0.707185 0.733186 0.464987
O O7 0.878025 0.395589 0.736772
O O8 0.943119 0.181439 0.750973
O O9 0.891431 0.247304 0.552979
O O10 0.975844 0.385444 0.623226
O O11 0.605970 0.277252 0.436626
O O12 0.630424 0.544915 0.422281
O O13 0.452353 0.444061 0.957615
#
# Coordination Sequence:
#
# PCOD8185269 Si02
#       7
#     8   8   8   8   8   8   4
#     4  10  22  38  58  93 126 158 210 244 290 377
#     4  11  20  37  59  90 124 166 199 239 291 372
#     4   9  23  41  58  92 118 147 212 257 290 380
#     4   9  21  42  52  93 127 143 207 256 272 384
#     4   8  21  43  56  90 124 137 220 257 279 387
#     4  11  21  39  62  82 130 167 189 247 318 340
#     4  12  20  44  70  78 114 174 186 266 344 320
#
# _framework density 18.864457999999999
#
# number of rings (size 3 to 8) (size 9 to 14) (size 15 to 20)
#    0.923    1.231    3.077    0.923    2.154    1.231 
#   13.846    0.000    0.000    0.000    0.000    0.000 
#    0.000    0.000    0.000    0.000    0.000    0.000 
#
# Total GULP energy -322177.278732 kJ/mol
# GULP energy per Si atom -12391.433797 kJ/mol
# Density = 1.882152 g / cm^3
# Si number density = 18.864458 Si / 1000 Ang^3
#
#
#
# Elastic Constant Matrix: (Units=GPa)
#
#
# Indices 1 2 3 4 5 6 
#
# 1 54.5072 34.7728 13.2321 0.0000 0.0000 0.0000
# 2 34.7728 83.6283 33.6578 0.0000 0.0000 0.0000
# 3 13.2321 33.6578 52.3773 0.0000 0.0000 0.0000
# 4 0.0000 0.0000 0.0000 36.5361 0.0000 0.0000
# 5 0.0000 0.0000 0.0000 0.0000 23.0947 0.0000
# 6 0.0000 0.0000 0.0000 0.0000 0.0000 34.8866
#
#
#
# Elastic Compliance Matrix: (Units=1/GPa)
#
#
# Indices 1 2 3 4 5 6 
#
# 1 0.024979 -0.010584 0.000491 0.000000 0.000000 0.000000
# 2 -0.010584 0.020614 -0.010573 0.000000 0.000000 0.000000
# 3 0.000491 -0.010573 0.025762 0.000000 0.000000 0.000000
# 4 0.000000 0.000000 0.000000 0.027370 0.000000 0.000000
# 5 0.000000 0.000000 0.000000 0.000000 0.043300 0.000000
# 6 0.000000 0.000000 0.000000 0.000000 0.000000 0.028664
#
#
# Mechanical properties :
#
#
# Convention : Reuss Voigt Hill
#
# Bulk Modulus (GPa) = 33.30723 39.31537 36.31130
# Shear Modulus (GPa) = 22.51964 26.16015 24.33990
#
# Velocity S-wave (km/s) = 3.45883 3.72794 3.59590
# Velocity P-wave (km/s) = 5.80050 6.27824 6.04409
#
# Compressibility (1/GPa) = 0.03002352
#
# Stress axis : x y z
#
# Youngs Moduli (GPa) = 40.03364 48.51171 38.81650
#
# Poissons Ratio (x) = 0.51344 -0.01905
# Poissons Ratio (y) = 0.42371 0.41039
# Poissons Ratio (z) = -0.01965 0.51289
#
# Static dielectric constant tensor:
#      x y z
#    x 3.283170 0.000000 0.000000 
#    y 0.000000 3.457840 0.000000 
#    z 0.000000 0.000000 3.266560 
# 
# 
# High freq. dielectric constant tensor:
#      x y z
#    x 1.719090 0.000000 0.000000 
#    y 0.000000 1.735770 0.000000 
#    z 0.000000 0.000000 1.720370 
# 
# From -- ./inp_files/6553.got.cif
#   From: 2010.03.12/outbox.cif.g09.slc.cpg/sg41_4_cif.got.tgz:6553.got - 2010.04.14 01:55:53.
