data_PCOD8185184
_publ_section_title
;
Structure prediction by ZEFSAII (Michael W. Deem and Ramdas Pophale) SiO2 
 PCOD8185184
Probable space group: A B A 2
;
_chemical_formula_sum "Si O2"
_cell_formula_units_Z 64
_cell_length_a 11.085575
_cell_length_b 18.185771
_cell_length_c 15.098987
_cell_angle_alpha 90.000000
_cell_angle_beta 90.000000
_cell_angle_gamma 90.000000
_cell_volume 3043.951678
_symmetry_space_group_name_H-M "A B A 2"
_symmetry_group_IT_number 41
_symmetry_cell_setting 'orthorhombic'
loop_
_space_group_symop_operation_xyz
x,y,z
-x,-y,z
1/2-x,y,1/2+z
1/2+x,-y,1/2+z
x,1/2+y,1/2+z
-x,1/2-y,1/2+z
1/2-x,1/2+y,z
1/2+x,1/2-y,z
loop_
_atom_site_type_symbol
_atom_site_label
_atom_site_fract_x
_atom_site_fract_y
_atom_site_fract_z
Si Si1 0.412187 0.434249 0.321690
Si Si2 0.199010 0.453556 0.197983
Si Si3 0.055033 0.278458 0.053296
Si Si4 0.201861 0.199370 0.515278
Si Si5 0.898526 0.059391 0.515698
Si Si6 0.110382 0.679922 0.830732
Si Si7 0.956245 0.179460 0.744203
Si Si8 0.796992 0.876895 0.698736
O O1 0.500000 0.500000 0.295861
O O2 0.322724 0.425662 0.240037
O O3 0.347143 0.453823 0.416228
O O4 0.479426 0.357126 0.334145
O O5 0.205179 0.443067 0.091105
O O6 0.097253 0.402864 0.243753
O O7 0.173825 0.538296 0.218497
O O8 0.169920 0.241416 0.006232
O O9 0.037772 0.361732 0.019725
O O10 0.084954 0.275914 0.156931
O O11 0.918090 0.247807 0.031995
O O12 0.185976 0.161370 0.419239
O O13 0.211302 0.138615 0.593309
O O14 0.000000 0.000000 0.540885
O O15 0.090328 0.768668 0.823989
O O16 0.173412 0.645332 0.745085
O O17 0.100243 0.172364 0.744697
#
# Coordination Sequence:
#
# PCOD8185184 Si02
#       8
#     8   8   8   8   8   8   8   8
#     4  11  24  42  65 102 132 176 235 281 347 427
#     4  11  23  41  72  97 131 178 230 286 347 412
#     4  10  21  41  62  96 129 174 232 280 341 421
#     4  11  24  40  66  98 138 184 228 289 350 422
#     4  10  21  41  68  93 129 185 234 282 345 435
#     4  12  25  42  68  98 137 185 221 288 350 427
#     4  10  24  40  66  97 130 173 222 288 341 415
#     4  11  24  44  65  98 135 174 234 282 350 415
#
# _framework density 21.025300000000001
#
# number of rings (size 3 to 8) (size 9 to 14) (size 15 to 20)
#    0.000    1.250    3.750    2.625    7.000    1.000 
#    0.000    0.000    0.000    0.750    0.000    0.000 
#    0.000    0.000    0.000    0.000    0.000    0.000 
#
# Total GULP energy -396568.709186 kJ/mol
# GULP energy per Si atom -12392.772162 kJ/mol
# Density = 2.097745 g / cm^3
# Si number density = 21.025300 Si / 1000 Ang^3
#
#
#
# Elastic Constant Matrix: (Units=GPa)
#
#
# Indices 1 2 3 4 5 6 
#
# 1 104.8355 27.6473 58.3427 0.0000 0.0000 0.0000
# 2 27.6473 107.6431 29.5851 0.0000 0.0000 0.0000
# 3 58.3427 29.5851 128.4499 0.0000 0.0000 0.0000
# 4 0.0000 0.0000 0.0000 20.2126 0.0000 0.0000
# 5 0.0000 0.0000 0.0000 0.0000 40.7275 0.0000
# 6 0.0000 0.0000 0.0000 0.0000 0.0000 32.4248
#
#
#
# Elastic Compliance Matrix: (Units=1/GPa)
#
#
# Indices 1 2 3 4 5 6 
#
# 1 0.013100 -0.001846 -0.005525 0.000000 0.000000 0.000000
# 2 -0.001846 0.010178 -0.001506 0.000000 0.000000 0.000000
# 3 -0.005525 -0.001506 0.010641 0.000000 0.000000 0.000000
# 4 0.000000 0.000000 0.000000 0.049474 0.000000 0.000000
# 5 0.000000 0.000000 0.000000 0.000000 0.024553 0.000000
# 6 0.000000 0.000000 0.000000 0.000000 0.000000 0.030841
#
#
# Mechanical properties :
#
#
# Convention : Reuss Voigt Hill
#
# Bulk Modulus (GPa) = 61.85841 63.56430 62.71135
# Shear Modulus (GPa) = 30.87743 33.69653 32.28698
#
# Velocity S-wave (km/s) = 3.83637 4.00767 3.92296
# Velocity P-wave (km/s) = 7.00774 7.19119 7.10006
#
# Compressibility (1/GPa) = 0.01616595
#
# Stress axis : x y z
#
# Youngs Moduli (GPa) = 76.33334 98.25138 93.97210
#
# Poissons Ratio (x) = 0.18139 0.51920
# Poissons Ratio (y) = 0.14093 0.14149
# Poissons Ratio (z) = 0.42175 0.14794
#
# Static dielectric constant tensor:
#      x y z
#    x 3.738050 0.000000 0.000000 
#    y 0.000000 3.703980 0.000000 
#    z 0.000000 0.000000 3.980880 
# 
# 
# High freq. dielectric constant tensor:
#      x y z
#    x 1.810580 0.000000 0.000000 
#    y 0.000000 1.813450 0.000000 
#    z 0.000000 0.000000 1.829270 
# 
# From -- ./inp_files/8117.got.cif
#   From: 2010.03.12/outbox.cif.g09.slc.cpg/sg41_5_cif.got.tgz:8117.got - 2010.04.14 01:55:53.
