data_PCOD8185099
_publ_section_title
;
Structure prediction by ZEFSAII (Michael W. Deem and Ramdas Pophale) SiO2 
 PCOD8185099
Probable space group: A B A 2
;
_chemical_formula_sum "Si O2"
_cell_formula_units_Z 64
_cell_length_a 36.799279
_cell_length_b 5.244885
_cell_length_c 15.960489
_cell_angle_alpha 90.000000
_cell_angle_beta 90.000000
_cell_angle_gamma 90.000000
_cell_volume 3080.501844
_symmetry_space_group_name_H-M "A B A 2"
_symmetry_group_IT_number 41
_symmetry_cell_setting 'orthorhombic'
loop_
_space_group_symop_operation_xyz
x,y,z
-x,-y,z
1/2-x,y,1/2+z
1/2+x,-y,1/2+z
x,1/2+y,1/2+z
-x,1/2-y,1/2+z
1/2-x,1/2+y,z
1/2+x,1/2-y,z
loop_
_atom_site_type_symbol
_atom_site_label
_atom_site_fract_x
_atom_site_fract_y
_atom_site_fract_z
Si Si1 0.345937 0.019432 0.463380
Si Si2 0.540241 0.529796 0.365690
Si Si3 0.234350 0.516109 0.407341
Si Si4 0.040242 0.470206 0.260820
Si Si5 0.734378 0.983881 0.718922
Si Si6 0.888588 0.981120 0.464955
Si Si7 0.111419 0.518810 0.161568
Si Si8 0.154071 0.019366 0.163123
O O1 0.308930 0.013656 0.410959
O O2 0.367298 0.269959 0.432623
O O3 0.338458 0.019201 0.563250
O O4 0.368693 0.774133 0.433449
O O5 0.500000 0.500000 0.405690
O O6 0.545208 0.317276 0.293893
O O7 0.569952 0.481463 0.436176
O O8 0.545204 0.817279 0.332618
O O9 0.250237 0.266838 0.454294
O O10 0.249933 0.518045 0.313087
O O11 0.069958 0.518587 0.190349
O O12 0.000000 0.500000 0.220816
O O13 0.749773 0.733185 0.671911
O O14 0.691092 0.986230 0.715506
O O15 0.889530 0.984667 0.563262
O O16 0.132689 0.269795 0.193889
O O17 0.131339 0.773972 0.193074
#
# Coordination Sequence:
#
# PCOD8185099 Si02
#       8
#     8   8   8   8   8   8   8   8
#     4  10  21  38  59  82 114 150 191 240 290 341
#     4  10  21  39  59  88 124 156 193 236 284 338
#     4  10  21  38  53  78 112 144 185 242 280 346
#     4  10  21  39  59  88 124 156 193 236 284 338
#     4  10  21  38  53  78 112 144 185 242 280 346
#     4  10  21  39  60  88 118 152 197 238 284 345
#     4  10  21  39  60  88 118 152 197 238 284 345
#     4  10  21  38  59  82 114 150 191 240 290 341
#
# _framework density 20.775835000000001
#
# number of rings (size 3 to 8) (size 9 to 14) (size 15 to 20)
#    0.000    2.000    0.000    3.000    0.000    1.500 
#   27.000    0.000    0.000    9.000    0.000    0.000 
#    0.000    0.000    0.000    0.000    0.000    0.000 
#
# Total GULP energy -396734.466987 kJ/mol
# GULP energy per Si atom -12397.952093 kJ/mol
# Density = 2.072855 g / cm^3
# Si number density = 20.775835 Si / 1000 Ang^3
#
#
#
# Elastic Constant Matrix: (Units=GPa)
#
#
# Indices 1 2 3 4 5 6 
#
# 1 193.2236 77.2487 35.0913 0.0000 0.0000 0.0000
# 2 77.2487 197.5567 15.3911 0.0000 0.0000 0.0000
# 3 35.0913 15.3911 16.9738 0.0000 0.0000 0.0000
# 4 0.0000 0.0000 0.0000 6.2191 0.0000 0.0000
# 5 0.0000 0.0000 0.0000 0.0000 33.4017 0.0000
# 6 0.0000 0.0000 0.0000 0.0000 0.0000 38.0368
#
#
#
# Elastic Compliance Matrix: (Units=1/GPa)
#
#
# Indices 1 2 3 4 5 6 
#
# 1 0.009138 -0.002261 -0.016841 0.000000 0.000000 0.000000
# 2 -0.002261 0.006006 -0.000772 0.000000 0.000000 0.000000
# 3 -0.016841 -0.000772 0.094431 0.000000 0.000000 0.000000
# 4 0.000000 0.000000 0.000000 0.160795 0.000000 0.000000
# 5 0.000000 0.000000 0.000000 0.000000 0.029939 0.000000
# 6 0.000000 0.000000 0.000000 0.000000 0.000000 0.026290
#
#
# Mechanical properties :
#
#
# Convention : Reuss Voigt Hill
#
# Bulk Modulus (GPa) = 14.32099 73.69069 44.00584
# Shear Modulus (GPa) = 12.83294 34.19972 23.51633
#
# Velocity S-wave (km/s) = 2.48802 4.06165 3.36803
# Velocity P-wave (km/s) = 3.89381 7.58568 6.02927
#
# Compressibility (1/GPa) = 0.06982759
#
# Stress axis : x y z
#
# Youngs Moduli (GPa) = 109.43544 166.49851 10.58969
#
# Poissons Ratio (x) = 0.37646 0.17834
# Poissons Ratio (y) = 0.24744 0.00817
# Poissons Ratio (z) = 1.84302 0.12848
#
# Static dielectric constant tensor:
#      x y z
#    x 3.898660 0.000000 0.000000 
#    y 0.000000 6.774050 0.000000 
#    z 0.000000 0.000000 3.229330 
# 
# 
# High freq. dielectric constant tensor:
#      x y z
#    x 1.826810 0.000000 0.000000 
#    y 0.000000 1.848740 0.000000 
#    z 0.000000 0.000000 1.771900 
# 
# From -- ./inp_files/9500.got.cif
#   From: 2010.03.12/outbox.cif.g09.slc.cpg/sg41_5_cif.got.tgz:9500.got - 2010.04.14 01:55:53.
