data_PCOD8185793
_publ_section_title
;
Structure prediction by ZEFSAII (Michael W. Deem and Ramdas Pophale) SiO2 
 PCOD8185793
Probable space group: F M M 2
;
_chemical_formula_sum "Si O2"
_cell_formula_units_Z 88
_cell_length_a 13.544291
_cell_length_b 23.468981
_cell_length_c 13.654962
_cell_angle_alpha 90.000000
_cell_angle_beta 90.000000
_cell_angle_gamma 90.000000
_cell_volume 4340.512441
_symmetry_space_group_name_H-M "F M M 2"
_symmetry_group_IT_number 42
_symmetry_cell_setting 'orthorhombic'
loop_
_space_group_symop_operation_xyz
x,y,z
-x,-y,z
-x,y,z
x,-y,z
x,1/2+y,1/2+z
-x,1/2-y,1/2+z
-x,1/2+y,1/2+z
x,1/2-y,1/2+z
1/2+x,y,1/2+z
1/2-x,-y,1/2+z
1/2-x,y,1/2+z
1/2+x,-y,1/2+z
1/2+x,1/2+y,z
1/2-x,1/2-y,z
1/2-x,1/2+y,z
1/2+x,1/2-y,z
loop_
_atom_site_type_symbol
_atom_site_label
_atom_site_fract_x
_atom_site_fract_y
_atom_site_fract_z
Si Si1 0.390025 0.860497 0.068440
Si Si2 0.610956 0.271011 0.061888
Si Si3 0.387012 0.434262 0.965126
Si Si4 0.309544 0.619724 0.152926
Si Si5 0.289953 0.370894 0.364833
Si Si6 0.750000 0.750000 0.890546
O O1 0.500000 0.884458 0.090512
O O2 0.385299 0.794052 0.097751
O O3 0.307411 0.892010 0.132886
O O4 0.368075 0.872163 0.953320
O O5 0.500000 0.293190 0.049877
O O6 0.666979 0.313304 0.135924
O O7 0.662060 0.275119 0.956965
O O8 0.500000 0.422103 0.934124
O O9 0.359670 0.500000 0.951009
O O10 0.314172 0.397701 0.897142
O O11 0.374087 0.418327 0.079530
O O12 0.330852 0.599915 0.265102
O O13 0.279535 0.305045 0.327917
#
# Coordination Sequence:
#
# PCOD8185793 Si02
#       6
#    16  16  16  16  16   8
#     4   9  19  35  50  75 116 156 183 221 276 342
#     4  10  17  31  52  74 112 154 189 226 273 333
#     4  10  22  42  64  84 111 151 198 247 295 341
#     4  11  20  34  57  84 111 146 191 242 284 339
#     4  10  22  34  58  83 118 149 190 237 286 346
#     4  10  18  34  52  82 118 156 190 226 286 354
#
# _framework density 20.274103
#
# number of rings (size 3 to 8) (size 9 to 14) (size 15 to 20)
#    0.000    2.000    5.455    0.545    2.545    2.909 
#    0.000    0.000    0.000    8.727    0.000    0.000 
#    0.000    0.000    0.000    0.000    0.000    0.000 
#
# Total GULP energy -272591.613223 kJ/mol
# GULP energy per Si atom -12390.527874 kJ/mol
# Density = 2.022796 g / cm^3
# Si number density = 20.274103 Si / 1000 Ang^3
#
#
#
# Elastic Constant Matrix: (Units=GPa)
#
#
# Indices 1 2 3 4 5 6 
#
# 1 121.0534 15.9776 17.3154 0.0000 0.0000 0.0000
# 2 15.9776 59.1667 17.7686 0.0000 0.0000 0.0000
# 3 17.3154 17.7686 89.0865 0.0000 0.0000 0.0000
# 4 0.0000 0.0000 0.0000 5.3390 0.0000 0.0000
# 5 0.0000 0.0000 0.0000 0.0000 8.5370 0.0000
# 6 0.0000 0.0000 0.0000 0.0000 0.0000 21.3928
#
#
#
# Elastic Compliance Matrix: (Units=1/GPa)
#
#
# Indices 1 2 3 4 5 6 
#
# 1 0.008706 -0.001960 -0.001301 0.000000 0.000000 0.000000
# 2 -0.001960 0.018420 -0.003293 0.000000 0.000000 0.000000
# 3 -0.001301 -0.003293 0.012135 0.000000 0.000000 0.000000
# 4 0.000000 0.000000 0.000000 0.187302 0.000000 0.000000
# 5 0.000000 0.000000 0.000000 0.000000 0.117138 0.000000
# 6 0.000000 0.000000 0.000000 0.000000 0.000000 0.046745
#
#
# Mechanical properties :
#
#
# Convention : Reuss Voigt Hill
#
# Bulk Modulus (GPa) = 38.23845 41.26997 39.75421
# Shear Modulus (GPa) = 12.12797 21.60341 16.86569
#
# Velocity S-wave (km/s) = 2.44847 3.26784 2.88737
# Velocity P-wave (km/s) = 5.18604 5.88546 5.54678
#
# Compressibility (1/GPa) = 0.02615169
#
# Stress axis : x y z
#
# Youngs Moduli (GPa) = 114.86794 54.28996 82.40828
#
# Poissons Ratio (x) = 0.10642 0.10722
# Poissons Ratio (y) = 0.22516 0.27136
# Poissons Ratio (z) = 0.14946 0.17877
#
# Static dielectric constant tensor:
#      x y z
#    x 3.824080 0.000000 0.000000 
#    y 0.000000 3.568210 0.000000 
#    z 0.000000 0.000000 3.379330 
# 
# 
# High freq. dielectric constant tensor:
#      x y z
#    x 1.796760 0.000000 0.000000 
#    y 0.000000 1.764890 0.000000 
#    z 0.000000 0.000000 1.769950 
# 
# From -- ./inp_files/14119.got.cif
#   From: 2010.03.12/outbox.cif.g09.slc.cpg/sg42_8_cif.got.tgz:14119.got - 2010.04.14 02:04:31.
