data_PCOD8185406
_publ_section_title
;
Structure prediction by ZEFSAII (Michael W. Deem and Ramdas Pophale) SiO2 
 PCOD8185406
Probable space group: A B A 2
;
_chemical_formula_sum "Si O2"
_cell_formula_units_Z 56
_cell_length_a 11.785994
_cell_length_b 19.402367
_cell_length_c 11.785817
_cell_angle_alpha 90.000000
_cell_angle_beta 90.000000
_cell_angle_gamma 90.000000
_cell_volume 2695.135622
_symmetry_space_group_name_H-M "A B A 2"
_symmetry_group_IT_number 41
_symmetry_cell_setting 'orthorhombic'
loop_
_space_group_symop_operation_xyz
x,y,z
-x,-y,z
1/2-x,y,1/2+z
1/2+x,-y,1/2+z
x,1/2+y,1/2+z
-x,1/2-y,1/2+z
1/2-x,1/2+y,z
1/2+x,1/2-y,z
loop_
_atom_site_type_symbol
_atom_site_label
_atom_site_fract_x
_atom_site_fract_y
_atom_site_fract_z
Si Si1 0.945312 0.564031 0.796000
Si Si2 0.907513 0.327004 0.694870
Si Si3 0.658607 0.839074 0.098598
Si Si4 0.401365 0.807606 0.511465
Si Si5 0.755060 0.599033 0.141845
Si Si6 0.616509 0.488663 0.532038
Si Si7 0.048751 0.323329 0.257766
O O1 0.833806 0.596289 0.742857
O O2 0.000000 0.500000 0.724907
O O3 0.044474 0.622473 0.794585
O O4 0.908195 0.532333 0.916836
O O5 0.784650 0.347035 0.647501
O O6 0.897204 0.251518 0.744667
O O7 0.996843 0.327771 0.593256
O O8 0.634598 0.773031 0.018102
O O9 0.636879 0.906698 0.020759
O O10 0.578033 0.832240 0.209367
O O11 0.288369 0.850143 0.543391
O O12 0.447537 0.834981 0.391827
O O13 0.775121 0.522486 0.092648
O O14 0.874221 0.623971 0.189276
O O15 0.500000 0.500000 0.604221
#
# Coordination Sequence:
#
# PCOD8185406 Si02
#       7
#     8   8   8   8   8   8   8
#     4  10  23  40  66  93 123 177 218 270 337 402
#     4  10  23  43  64  98 131 170 231 278 324 416
#     4  11  23  45  66 101 134 171 232 286 328 421
#     4  10  24  42  67  98 135 176 222 283 348 397
#     4  11  21  45  64  93 136 171 222 275 341 408
#     4  11  23  40  65  94 132 170 218 277 337 407
#     4  11  23  40  67  97 133 176 217 282 346 394
#
# _framework density 20.778174
#
# number of rings (size 3 to 8) (size 9 to 14) (size 15 to 20)
#    0.000    1.429    2.857    1.714    4.000    1.143 
#    2.571    0.000    6.286    0.000    0.000    0.000 
#    0.000    0.000    0.000    0.000    0.000    0.000 
#
# Total GULP energy -346919.387427 kJ/mol
# GULP energy per Si atom -12389.978122 kJ/mol
# Density = 2.073088 g / cm^3
# Si number density = 20.778174 Si / 1000 Ang^3
#
#
#
# Elastic Constant Matrix: (Units=GPa)
#
#
# Indices 1 2 3 4 5 6 
#
# 1 117.4017 37.6478 25.3650 0.0000 0.0000 0.0000
# 2 37.6478 131.7274 27.7861 0.0000 0.0000 0.0000
# 3 25.3650 27.7861 92.8452 0.0000 0.0000 0.0000
# 4 0.0000 0.0000 0.0000 28.8177 0.0000 0.0000
# 5 0.0000 0.0000 0.0000 0.0000 18.5223 0.0000
# 6 0.0000 0.0000 0.0000 0.0000 0.0000 34.6954
#
#
#
# Elastic Compliance Matrix: (Units=1/GPa)
#
#
# Indices 1 2 3 4 5 6 
#
# 1 0.009694 -0.002361 -0.001942 0.000000 0.000000 0.000000
# 2 -0.002361 0.008678 -0.001952 0.000000 0.000000 0.000000
# 3 -0.001942 -0.001952 0.011885 0.000000 0.000000 0.000000
# 4 0.000000 0.000000 0.000000 0.034701 0.000000 0.000000
# 5 0.000000 0.000000 0.000000 0.000000 0.053989 0.000000
# 6 0.000000 0.000000 0.000000 0.000000 0.000000 0.028822
#
#
# Mechanical properties :
#
#
# Convention : Reuss Voigt Hill
#
# Bulk Modulus (GPa) = 56.34518 58.17469 57.25994
# Shear Modulus (GPa) = 30.08499 33.15211 31.61855
#
# Velocity S-wave (km/s) = 3.80927 3.99874 3.90515
# Velocity P-wave (km/s) = 6.82083 7.02699 6.92468
#
# Compressibility (1/GPa) = 0.01774775
#
# Stress axis : x y z
#
# Youngs Moduli (GPa) = 103.15172 115.23411 84.13737
#
# Poissons Ratio (x) = 0.27208 0.16339
# Poissons Ratio (y) = 0.24355 0.16424
# Poissons Ratio (z) = 0.20031 0.22494
#
# Static dielectric constant tensor:
#      x y z
#    x 3.863760 0.000000 0.000000 
#    y 0.000000 4.120170 0.000000 
#    z 0.000000 0.000000 3.528900 
# 
# 
# High freq. dielectric constant tensor:
#      x y z
#    x 1.825930 0.000000 0.000000 
#    y 0.000000 1.828510 0.000000 
#    z 0.000000 0.000000 1.793170 
# 
# From -- ./inp_files/5067.got.cif
#   From: 2010.03.12/outbox.cif.g09.slc.cpg/sg41_3_cif.got.tgz:5067.got - 2010.04.14 01:55:53.
