data_PCOD8185036
_publ_section_title
;
Structure prediction by ZEFSAII (Michael W. Deem and Ramdas Pophale) SiO2 
 PCOD8185036
Probable space group: A B A 2
;
_chemical_formula_sum "Si O2"
_cell_formula_units_Z 48
_cell_length_a 14.725409
_cell_length_b 13.911349
_cell_length_c 10.678750
_cell_angle_alpha 90.000000
_cell_angle_beta 90.000000
_cell_angle_gamma 90.000000
_cell_volume 2187.545181
_symmetry_space_group_name_H-M "A B A 2"
_symmetry_group_IT_number 41
_symmetry_cell_setting 'orthorhombic'
loop_
_space_group_symop_operation_xyz
x,y,z
-x,-y,z
1/2-x,y,1/2+z
1/2+x,-y,1/2+z
x,1/2+y,1/2+z
-x,1/2-y,1/2+z
1/2-x,1/2+y,z
1/2+x,1/2-y,z
loop_
_atom_site_type_symbol
_atom_site_label
_atom_site_fract_x
_atom_site_fract_y
_atom_site_fract_z
Si Si1 0.654934 0.834276 0.293010
Si Si2 0.806785 0.612226 0.796917
Si Si3 0.772491 0.166470 0.553193
Si Si4 0.361598 0.092440 0.789251
Si Si5 0.927708 0.808415 0.044142
Si Si6 0.605482 0.802572 0.036666
O O1 0.648264 0.717286 0.293278
O O2 0.756614 0.875006 0.287456
O O3 0.604895 0.868178 0.420417
O O4 0.599963 0.864863 0.166642
O O5 0.739082 0.603646 0.678460
O O6 0.875270 0.522719 0.786968
O O7 0.756002 0.599894 0.930816
O O8 0.874155 0.207897 0.556884
O O9 0.706051 0.257442 0.539860
O O10 0.414071 0.129382 0.668126
O O11 0.408592 0.131214 0.915512
O O12 0.033579 0.783973 0.032230
#
# Coordination Sequence:
#
# PCOD8185036 Si02
#       6
#     8   8   8   8   8   8
#     4  10  21  42  58  90 124 161 204 258 310 366
#     4  10  22  35  67  84 125 164 204 252 315 371
#     4  10  20  42  56  90 128 162 202 270 312 364
#     4  12  21  39  66  93 119 169 212 250 322 381
#     4  11  21  39  66  90 122 167 209 257 312 374
#     4  11  21  39  66  90 122 167 209 257 312 374
#
# _framework density 21.942404
#
# number of rings (size 3 to 8) (size 9 to 14) (size 15 to 20)
#    0.000    1.333    6.667    1.000    4.667    0.000 
#    0.000   13.333    0.000    2.000    0.000    0.000 
#    0.000    0.000    0.000    0.000    0.000    0.000 
#
# Total GULP energy -297429.349388 kJ/mol
# GULP energy per Si atom -12392.889558 kJ/mol
# Density = 2.189246 g / cm^3
# Si number density = 21.942404 Si / 1000 Ang^3
#
#
#
# Elastic Constant Matrix: (Units=GPa)
#
#
# Indices 1 2 3 4 5 6 
#
# 1 35.0051 -3.2101 -0.4495 0.0000 0.0000 0.0000
# 2 -3.2101 75.9879 28.6576 0.0000 0.0000 0.0000
# 3 -0.4495 28.6576 226.4664 0.0000 0.0000 0.0000
# 4 0.0000 0.0000 0.0000 10.6674 0.0000 0.0000
# 5 0.0000 0.0000 0.0000 0.0000 27.9109 0.0000
# 6 0.0000 0.0000 0.0000 0.0000 0.0000 11.8287
#
#
#
# Elastic Compliance Matrix: (Units=1/GPa)
#
#
# Indices 1 2 3 4 5 6 
#
# 1 0.028681 0.001250 -0.000101 0.000000 0.000000 0.000000
# 2 0.001250 0.013874 -0.001753 0.000000 0.000000 0.000000
# 3 -0.000101 -0.001753 0.004637 0.000000 0.000000 0.000000
# 4 0.000000 0.000000 0.000000 0.093743 0.000000 0.000000
# 5 0.000000 0.000000 0.000000 0.000000 0.035828 0.000000
# 6 0.000000 0.000000 0.000000 0.000000 0.000000 0.084540
#
#
# Mechanical properties :
#
#
# Convention : Reuss Voigt Hill
#
# Bulk Modulus (GPa) = 21.74732 43.05059 32.39895
# Shear Modulus (GPa) = 17.99596 30.91217 24.45406
#
# Velocity S-wave (km/s) = 2.86692 3.75745 3.34198
# Velocity P-wave (km/s) = 4.57074 6.20379 5.44879
#
# Compressibility (1/GPa) = 0.04598267
#
# Stress axis : x y z
#
# Youngs Moduli (GPa) = 34.86677 72.07749 215.64211
#
# Poissons Ratio (x) = -0.09008 0.02183
# Poissons Ratio (y) = -0.04358 0.37806
# Poissons Ratio (z) = 0.00353 0.12636
#
# Static dielectric constant tensor:
#      x y z
#    x 3.524210 0.000000 0.000000 
#    y 0.000000 3.538480 0.000000 
#    z 0.000000 0.000000 5.118500 
# 
# 
# High freq. dielectric constant tensor:
#      x y z
#    x 1.831010 0.000000 0.000000 
#    y 0.000000 1.820990 0.000000 
#    z 0.000000 0.000000 1.908830 
# 
# From -- ./inp_files/5518.got.cif
#   From: 2010.03.12/outbox.cif.g09.slc.cpg/sg41_3_cif.got.tgz:5518.got - 2010.04.14 01:55:53.
