data_PCOD8185808
_publ_section_title
;
Structure prediction by ZEFSAII (Michael W. Deem and Ramdas Pophale) SiO2 
 PCOD8185808
Probable space group: F M M 2
;
_chemical_formula_sum "Si O2"
_cell_formula_units_Z 96
_cell_length_a 9.007443
_cell_length_b 30.991709
_cell_length_c 20.045312
_cell_angle_alpha 90.000000
_cell_angle_beta 90.000000
_cell_angle_gamma 90.000000
_cell_volume 5595.770165
_symmetry_space_group_name_H-M "F M M 2"
_symmetry_group_IT_number 42
_symmetry_cell_setting 'orthorhombic'
loop_
_space_group_symop_operation_xyz
x,y,z
-x,-y,z
-x,y,z
x,-y,z
x,1/2+y,1/2+z
-x,1/2-y,1/2+z
-x,1/2+y,1/2+z
x,1/2-y,1/2+z
1/2+x,y,1/2+z
1/2-x,-y,1/2+z
1/2-x,y,1/2+z
1/2+x,-y,1/2+z
1/2+x,1/2+y,z
1/2-x,1/2-y,z
1/2-x,1/2+y,z
1/2+x,1/2-y,z
loop_
_atom_site_type_symbol
_atom_site_label
_atom_site_fract_x
_atom_site_fract_y
_atom_site_fract_z
Si Si1 0.821838 0.384160 0.615570
Si Si2 0.176259 0.451925 0.871722
Si Si3 0.337778 0.790091 0.625038
Si Si4 0.833317 0.208248 0.966895
Si Si5 0.676144 0.951881 0.723154
Si Si6 0.822616 0.880131 0.474898
O O1 0.770096 0.337033 0.642615
O O2 0.760881 0.418574 0.668824
O O3 0.743283 0.394125 0.545837
O O4 0.000000 0.384944 0.605061
O O5 0.233033 0.500000 0.891718
O O6 0.234361 0.440139 0.797296
O O7 0.234695 0.416603 0.923664
O O8 0.000000 0.451951 0.871204
O O9 0.500000 0.786611 0.656678
O O10 0.250000 0.750000 0.656920
O O11 0.343515 0.786125 0.545762
O O12 0.750000 0.250000 0.935963
O O13 0.740981 0.165396 0.949018
O O14 0.000000 0.205041 0.937078
O O15 0.500000 0.949396 0.722221
O O16 0.729283 0.000000 0.703553
O O17 0.000000 0.877010 0.479145
#
# Coordination Sequence:
#
# PCOD8185808 Si02
#       6
#    16  16  16  16  16  16
#     4   9  17  28  43  66  91 113 143 187 231 265
#     4   8  15  28  45  65  88 117 155 193 227 268
#     4   8  14  23  36  56  82 109 136 168 206 249
#     4   9  16  27  43  64  91 120 151 185 221 265
#     4   8  14  27  47  66  84 112 152 192 227 268
#     4  10  18  27  43  68  95 121 149 184 228 272
#
# _framework density 17.155816999999999
#
# number of rings (size 3 to 8) (size 9 to 14) (size 15 to 20)
#    0.000    3.333    0.000    3.000    0.000    4.667 
#    0.000    0.000    0.000    4.500    0.000    7.000 
#    0.000    0.000    0.000    0.000    0.000    0.000 
#
# Total GULP energy -297392.764874 kJ/mol
# GULP energy per Si atom -12391.365203 kJ/mol
# Density = 1.711677 g / cm^3
# Si number density = 17.155817 Si / 1000 Ang^3
#
#
#
# Elastic Constant Matrix: (Units=GPa)
#
#
# Indices 1 2 3 4 5 6 
#
# 1 53.6181 43.0273 28.6072 0.0000 0.0000 0.0000
# 2 43.0273 175.9422 88.3325 0.0000 0.0000 0.0000
# 3 28.6072 88.3325 80.3534 0.0000 0.0000 0.0000
# 4 0.0000 0.0000 0.0000 7.1004 0.0000 0.0000
# 5 0.0000 0.0000 0.0000 0.0000 11.4086 0.0000
# 6 0.0000 0.0000 0.0000 0.0000 0.0000 21.1597
#
#
#
# Elastic Compliance Matrix: (Units=1/GPa)
#
#
# Indices 1 2 3 4 5 6 
#
# 1 0.023962 -0.003519 -0.004662 0.000000 0.000000 0.000000
# 2 -0.003519 0.013201 -0.013259 0.000000 0.000000 0.000000
# 3 -0.004662 -0.013259 0.028680 0.000000 0.000000 0.000000
# 4 0.000000 0.000000 0.000000 0.140837 0.000000 0.000000
# 5 0.000000 0.000000 0.000000 0.000000 0.087653 0.000000
# 6 0.000000 0.000000 0.000000 0.000000 0.000000 0.047260
#
#
# Mechanical properties :
#
#
# Convention : Reuss Voigt Hill
#
# Bulk Modulus (GPa) = 43.54890 69.98306 56.76598
# Shear Modulus (GPa) = 12.75095 17.93021 15.34058
#
# Velocity S-wave (km/s) = 2.72921 3.23637 2.99355
# Velocity P-wave (km/s) = 5.94734 7.40585 6.71630
#
# Compressibility (1/GPa) = 0.02296269
#
# Stress axis : x y z
#
# Youngs Moduli (GPa) = 41.73270 75.75120 34.86704
#
# Poissons Ratio (x) = 0.26660 0.16255
# Poissons Ratio (y) = 0.14688 0.46230
# Poissons Ratio (z) = 0.19456 1.00439
#
# Static dielectric constant tensor:
#      x y z
#    x 3.029060 0.000000 0.000000 
#    y 0.000000 3.603950 0.000000 
#    z 0.000000 0.000000 3.008280 
# 
# 
# High freq. dielectric constant tensor:
#      x y z
#    x 1.634420 0.000000 0.000000 
#    y 0.000000 1.679510 0.000000 
#    z 0.000000 0.000000 1.619460 
# 
# From -- ./inp_files/28170.got.cif
#   From: 2010.03.12/outbox.cif.g09.slc.cpg/sg42_15_cif.got.tgz:28170.got - 2010.04.14 02:04:31.
