data_PCOD8185779
_publ_section_title
;
Structure prediction by ZEFSAII (Michael W. Deem and Ramdas Pophale) SiO2 
 PCOD8185779
Probable space group: F M M 2
;
_chemical_formula_sum "Si O2"
_cell_formula_units_Z 80
_cell_length_a 16.405199
_cell_length_b 9.714817
_cell_length_c 26.005021
_cell_angle_alpha 90.000000
_cell_angle_beta 90.000000
_cell_angle_gamma 90.000000
_cell_volume 4144.511374
_symmetry_space_group_name_H-M "F M M 2"
_symmetry_group_IT_number 42
_symmetry_cell_setting 'orthorhombic'
loop_
_space_group_symop_operation_xyz
x,y,z
-x,-y,z
-x,y,z
x,-y,z
x,1/2+y,1/2+z
-x,1/2-y,1/2+z
-x,1/2+y,1/2+z
x,1/2-y,1/2+z
1/2+x,y,1/2+z
1/2-x,-y,1/2+z
1/2-x,y,1/2+z
1/2+x,-y,1/2+z
1/2+x,1/2+y,z
1/2-x,1/2-y,z
1/2-x,1/2+y,z
1/2+x,1/2-y,z
loop_
_atom_site_type_symbol
_atom_site_label
_atom_site_fract_x
_atom_site_fract_y
_atom_site_fract_z
Si Si1 0.172623 0.000000 0.003940
Si Si2 0.903185 0.000000 0.391440
Si Si3 0.402977 0.500000 0.656643
Si Si4 0.597261 0.500000 0.276748
Si Si5 0.596041 0.500000 0.113746
Si Si6 0.593480 0.729664 0.469180
Si Si7 0.856484 0.000000 0.540901
Si Si8 0.403399 0.212442 0.694589
O O1 0.120781 0.000000 0.055368
O O2 0.266375 0.000000 0.017969
O O3 0.150328 0.864065 0.971490
O O4 0.874359 0.862945 0.421484
O O5 0.865449 0.000000 0.334115
O O6 0.000000 0.000000 0.390627
O O7 0.500000 0.500000 0.646141
O O8 0.356388 0.500000 0.602419
O O9 0.374065 0.369902 0.690689
O O10 0.500000 0.500000 0.280076
O O11 0.628389 0.363482 0.246309
O O12 0.500000 0.500000 0.115694
O O13 0.629626 0.365868 0.143810
O O14 0.500000 0.776561 0.461751
O O15 0.598575 0.637825 0.521072
O O16 0.500000 0.205308 0.695333
#
# Coordination Sequence:
#
# PCOD8185779 Si02
#       8
#     8   8   8   8   8  16   8  16
#     4  12  22  32  49  77 106 133 171 219 255 289
#     4   8  16  31  52  71  94 129 169 211 264 314
#     4  10  17  28  45  69 101 139 172 201 241 301
#     4   8  13  27  47  71  98 123 158 211 259 300
#     4   9  16  28  44  65  93 130 164 196 242 300
#     4  10  20  35  52  73 100 137 175 210 254 308
#     4  11  22  34  49  73 106 142 171 204 253 306
#     4   8  15  25  43  69  96 125 163 204 247 294
#
# _framework density 19.302636
#
# number of rings (size 3 to 8) (size 9 to 14) (size 15 to 20)
#    0.000    2.600    0.000    5.400    0.000    1.600 
#    0.000    1.000    0.000    4.800    0.000   22.400 
#    0.000    0.000    0.000    0.000    0.000    0.000 
#
# Total GULP energy -247901.121631 kJ/mol
# GULP energy per Si atom -12395.056082 kJ/mol
# Density = 1.925870 g / cm^3
# Si number density = 19.302636 Si / 1000 Ang^3
#
#
#
# Elastic Constant Matrix: (Units=GPa)
#
#
# Indices 1 2 3 4 5 6 
#
# 1 39.9200 30.6860 10.6093 0.0000 0.0000 0.0000
# 2 30.6860 160.2955 76.5692 0.0000 0.0000 0.0000
# 3 10.6093 76.5692 147.0929 0.0000 0.0000 0.0000
# 4 0.0000 0.0000 0.0000 15.3923 0.0000 0.0000
# 5 0.0000 0.0000 0.0000 0.0000 8.9680 0.0000
# 6 0.0000 0.0000 0.0000 0.0000 0.0000 12.6497
#
#
#
# Elastic Compliance Matrix: (Units=1/GPa)
#
#
# Indices 1 2 3 4 5 6 
#
# 1 0.029501 -0.006164 0.001081 0.000000 0.000000 0.000000
# 2 -0.006164 0.009591 -0.004548 0.000000 0.000000 0.000000
# 3 0.001081 -0.004548 0.009088 0.000000 0.000000 0.000000
# 4 0.000000 0.000000 0.000000 0.064968 0.000000 0.000000
# 5 0.000000 0.000000 0.000000 0.000000 0.111507 0.000000
# 6 0.000000 0.000000 0.000000 0.000000 0.000000 0.079053
#
#
# Mechanical properties :
#
#
# Convention : Reuss Voigt Hill
#
# Bulk Modulus (GPa) = 34.58085 64.78194 49.68140
# Shear Modulus (GPa) = 15.03267 22.69826 18.86546
#
# Velocity S-wave (km/s) = 2.79371 3.43288 3.12965
# Velocity P-wave (km/s) = 5.32545 7.02474 6.23327
#
# Compressibility (1/GPa) = 0.02891774
#
# Stress axis : x y z
#
# Youngs Moduli (GPa) = 33.89736 104.26584 110.03621
#
# Poissons Ratio (x) = 0.64266 -0.11892
# Poissons Ratio (y) = 0.20893 0.50044
# Poissons Ratio (z) = -0.03663 0.47420
#
# Static dielectric constant tensor:
#      x y z
#    x 3.108260 0.000000 0.000000 
#    y 0.000000 3.847810 0.000000 
#    z 0.000000 0.000000 3.780780 
# 
# 
# High freq. dielectric constant tensor:
#      x y z
#    x 1.710490 0.000000 0.000000 
#    y 0.000000 1.760460 0.000000 
#    z 0.000000 0.000000 1.732640 
# 
# From -- ./inp_files/31377.got.cif
#   From: 2010.03.12/outbox.cif.g09.slc.cpg/sg42_16_cif.got.tgz:31377.got - 2010.04.14 02:04:31.
