data_PCOD8185105
_publ_section_title
;
Structure prediction by ZEFSAII (Michael W. Deem and Ramdas Pophale) SiO2 
 PCOD8185105
Probable space group: A B A 2
;
_chemical_formula_sum "Si O2"
_cell_formula_units_Z 56
_cell_length_a 4.930733
_cell_length_b 23.521316
_cell_length_c 24.244539
_cell_angle_alpha 90.000000
_cell_angle_beta 90.000000
_cell_angle_gamma 90.000000
_cell_volume 2811.816876
_symmetry_space_group_name_H-M "A B A 2"
_symmetry_group_IT_number 41
_symmetry_cell_setting 'orthorhombic'
loop_
_space_group_symop_operation_xyz
x,y,z
-x,-y,z
1/2-x,y,1/2+z
1/2+x,-y,1/2+z
x,1/2+y,1/2+z
-x,1/2-y,1/2+z
1/2-x,1/2+y,z
1/2+x,1/2-y,z
loop_
_atom_site_type_symbol
_atom_site_label
_atom_site_fract_x
_atom_site_fract_y
_atom_site_fract_z
Si Si1 0.958734 0.787145 0.495950
Si Si2 0.594093 0.370884 0.401439
Si Si3 0.248658 0.712673 0.309872
Si Si4 0.905907 0.870884 0.590461
Si Si5 0.748658 0.787327 0.682028
Si Si6 0.394690 0.439688 0.932563
Si Si7 0.394690 0.939688 0.559337
O O1 0.646345 0.768379 0.495950
O O2 0.026364 0.822710 0.441345
O O3 0.026364 0.822710 0.550555
O O4 0.673101 0.344366 0.342500
O O5 0.862012 0.395351 0.429389
O O6 0.361194 0.419113 0.395657
O O7 0.451352 0.764354 0.325041
O O8 0.250000 0.695655 0.245950
O O9 0.826899 0.844366 0.649400
O O10 0.637988 0.895351 0.562511
O O11 0.138806 0.919113 0.596243
O O12 0.451352 0.764354 0.666859
O O13 0.500000 0.500000 0.909274
O O14 0.296963 0.445752 0.995950
O O15 0.500000 0.000000 0.582626
#
# Coordination Sequence:
#
# PCOD8185105 Si02
#       7
#     8   8   8   8   8   8   8
#     4  12  22  32  49  80 117 146 178 226 286 342
#     4  12  21  37  57  83 115 152 190 236 288 342
#     4  10  21  38  59  84 114 152 193 232 280 346
#     4  12  21  37  57  83 115 152 190 236 288 342
#     4  10  21  38  59  84 114 152 193 232 280 346
#     4  11  22  38  57  82 114 151 196 238 284 345
#     4  11  22  38  57  82 114 151 196 238 284 345
#
# _framework density 19.915948
#
# number of rings (size 3 to 8) (size 9 to 14) (size 15 to 20)
#    0.000    0.857    2.857    6.000    0.000    2.286 
#    0.000    0.000    0.000    3.429    0.000    0.000 
#    0.000    0.000    0.000    0.000    0.000    0.000 
#
# Total GULP energy -347354.878584 kJ/mol
# GULP energy per Si atom -12405.531378 kJ/mol
# Density = 1.987062 g / cm^3
# Si number density = 19.915948 Si / 1000 Ang^3
#
#
#
# Elastic Constant Matrix: (Units=GPa)
#
#
# Indices 1 2 3 4 5 6 
#
# 1 102.2504 28.1379 30.5576 0.0000 0.0000 0.0000
# 2 28.1379 90.5010 53.7527 0.0000 0.0000 0.0000
# 3 30.5576 53.7527 88.9333 0.0000 0.0000 0.0000
# 4 0.0000 0.0000 0.0000 22.9995 0.0000 0.0000
# 5 0.0000 0.0000 0.0000 0.0000 24.6568 0.0000
# 6 0.0000 0.0000 0.0000 0.0000 0.0000 48.3596
#
#
#
# Elastic Compliance Matrix: (Units=1/GPa)
#
#
# Indices 1 2 3 4 5 6 
#
# 1 0.011094 -0.001849 -0.002694 0.000000 0.000000 0.000000
# 2 -0.001849 0.017546 -0.009970 0.000000 0.000000 0.000000
# 3 -0.002694 -0.009970 0.018196 0.000000 0.000000 0.000000
# 4 0.000000 0.000000 0.000000 0.043479 0.000000 0.000000
# 5 0.000000 0.000000 0.000000 0.000000 0.040557 0.000000
# 6 0.000000 0.000000 0.000000 0.000000 0.000000 0.020678
#
#
# Mechanical properties :
#
#
# Convention : Reuss Voigt Hill
#
# Bulk Modulus (GPa) = 56.14878 56.28677 56.21778
# Shear Modulus (GPa) = 26.80775 30.48559 28.64667
#
# Velocity S-wave (km/s) = 3.67283 3.91668 3.79671
# Velocity P-wave (km/s) = 6.80002 6.98408 6.89266
#
# Compressibility (1/GPa) = 0.01780983
#
# Stress axis : x y z
#
# Youngs Moduli (GPa) = 90.13940 56.99308 54.95690
#
# Poissons Ratio (x) = 0.10538 0.14807
# Poissons Ratio (y) = 0.16666 0.54791
# Poissons Ratio (z) = 0.24287 0.56821
#
# Static dielectric constant tensor:
#      x y z
#    x 3.770930 0.000000 0.000000 
#    y 0.000000 3.606880 0.000000 
#    z 0.000000 0.000000 3.403700 
# 
# 
# High freq. dielectric constant tensor:
#      x y z
#    x 1.799200 0.000000 0.000000 
#    y 0.000000 1.770910 0.000000 
#    z 0.000000 0.000000 1.745330 
# 
# From -- ./inp_files/763.got.cif
#   From: 2010.03.12/outbox.cif.g09.slc.cpg/sg41_1_cif.got.tgz:763.got - 2010.04.14 01:55:53.
