data_PCOD8185534
_publ_section_title
;
Structure prediction by ZEFSAII (Michael W. Deem and Ramdas Pophale) SiO2 
 PCOD8185534
Probable space group: A B A 2
;
_chemical_formula_sum "Si O2"
_cell_formula_units_Z 56
_cell_length_a 12.822648
_cell_length_b 10.362511
_cell_length_c 19.682923
_cell_angle_alpha 90.000000
_cell_angle_beta 90.000000
_cell_angle_gamma 90.000000
_cell_volume 2615.365066
_symmetry_space_group_name_H-M "A B A 2"
_symmetry_group_IT_number 41
_symmetry_cell_setting 'orthorhombic'
loop_
_space_group_symop_operation_xyz
x,y,z
-x,-y,z
1/2-x,y,1/2+z
1/2+x,-y,1/2+z
x,1/2+y,1/2+z
-x,1/2-y,1/2+z
1/2-x,1/2+y,z
1/2+x,1/2-y,z
loop_
_atom_site_type_symbol
_atom_site_label
_atom_site_fract_x
_atom_site_fract_y
_atom_site_fract_z
Si Si1 0.083371 0.389565 0.304740
Si Si2 0.051370 0.125177 0.521571
Si Si3 0.721277 0.466975 0.060854
Si Si4 0.750972 0.617246 0.695970
Si Si5 0.588812 0.107498 0.457833
Si Si6 0.475293 0.358020 0.242542
Si Si7 0.588460 0.271530 0.117011
O O1 0.174023 0.434408 0.254078
O O2 0.129926 0.386310 0.380709
O O3 0.031504 0.251176 0.287508
O O4 0.000000 0.500000 0.297398
O O5 0.168854 0.093251 0.541368
O O6 0.044787 0.250579 0.474488
O O7 0.979492 0.151997 0.588415
O O8 0.000000 0.000000 0.484909
O O9 0.721131 0.510607 0.139633
O O10 0.630625 0.358917 0.055106
O O11 0.686737 0.578547 0.007932
O O12 0.692590 0.730817 0.656672
O O13 0.851877 0.667809 0.736685
O O14 0.500000 0.000000 0.465747
O O15 0.500000 0.500000 0.273648
O O16 0.516241 0.356061 0.165532
#
# Coordination Sequence:
#
# PCOD8185534 Si02
#       7
#     8   8   8   8   8   8   8
#     4  10  27  48  69  96 141 193 232 291 359 432
#     4  12  26  42  69 108 141 186 240 304 354 424
#     4  12  23  42  74 104 140 186 240 293 363 425
#     4  11  24  41  69 104 136 180 237 292 355 422
#     4  11  25  51  71  98 146 196 236 292 366 436
#     4  11  23  41  68 101 134 181 232 292 349 416
#     4  11  22  39  67 102 143 178 228 298 353 418
#
# _framework density 21.411925
#
# number of rings (size 3 to 8) (size 9 to 14) (size 15 to 20)
#    0.000    0.857    4.286    2.571    6.000    0.571 
#   10.286    0.000    0.000    0.000    0.000    0.000 
#    0.000    0.000    0.000    0.000    0.000    0.000 
#
# Total GULP energy -347100.712396 kJ/mol
# GULP energy per Si atom -12396.454014 kJ/mol
# Density = 2.136319 g / cm^3
# Si number density = 21.411925 Si / 1000 Ang^3
#
#
#
# Elastic Constant Matrix: (Units=GPa)
#
#
# Indices 1 2 3 4 5 6 
#
# 1 113.5686 47.2905 59.2499 0.0000 0.0000 0.0000
# 2 47.2905 137.9558 48.2562 0.0000 0.0000 0.0000
# 3 59.2499 48.2562 125.2733 0.0000 0.0000 0.0000
# 4 0.0000 0.0000 0.0000 20.9493 0.0000 0.0000
# 5 0.0000 0.0000 0.0000 0.0000 26.0490 0.0000
# 6 0.0000 0.0000 0.0000 0.0000 0.0000 31.8162
#
#
#
# Elastic Compliance Matrix: (Units=1/GPa)
#
#
# Indices 1 2 3 4 5 6 
#
# 1 0.012418 -0.002545 -0.004893 0.000000 0.000000 0.000000
# 2 -0.002545 0.008899 -0.002224 0.000000 0.000000 0.000000
# 3 -0.004893 -0.002224 0.011153 0.000000 0.000000 0.000000
# 4 0.000000 0.000000 0.000000 0.047734 0.000000 0.000000
# 5 0.000000 0.000000 0.000000 0.000000 0.038389 0.000000
# 6 0.000000 0.000000 0.000000 0.000000 0.000000 0.031431
#
#
# Mechanical properties :
#
#
# Convention : Reuss Voigt Hill
#
# Bulk Modulus (GPa) = 76.06899 76.26565 76.16732
# Shear Modulus (GPa) = 28.78021 30.56299 29.67160
#
# Velocity S-wave (km/s) = 3.67020 3.78217 3.72661
# Velocity P-wave (km/s) = 7.31875 7.40059 7.35978
#
# Compressibility (1/GPa) = 0.01314596
#
# Stress axis : x y z
#
# Youngs Moduli (GPa) = 80.53043 112.36930 89.65889
#
# Poissons Ratio (x) = 0.28601 0.43867
# Poissons Ratio (y) = 0.20497 0.19942
# Poissons Ratio (z) = 0.39401 0.24993
#
# Static dielectric constant tensor:
#      x y z
#    x 4.030510 0.000000 0.000000 
#    y 0.000000 3.928920 0.000000 
#    z 0.000000 0.000000 3.851010 
# 
# 
# High freq. dielectric constant tensor:
#      x y z
#    x 1.852960 0.000000 0.000000 
#    y 0.000000 1.851250 0.000000 
#    z 0.000000 0.000000 1.819160 
# 
# From -- ./inp_files/11378.got.cif
#   From: 2010.03.12/outbox.cif.g09.slc.cpg/sg41_6_cif.got.tgz:11378.got - 2010.04.14 01:55:53.
