data_PCOD8185006
_publ_section_title
;
Structure prediction by ZEFSAII (Michael W. Deem and Ramdas Pophale) SiO2 
 PCOD8185006
Probable space group: A B A 2
;
_chemical_formula_sum "Si O2"
_cell_formula_units_Z 64
_cell_length_a 10.135751
_cell_length_b 18.011639
_cell_length_c 17.219662
_cell_angle_alpha 90.000000
_cell_angle_beta 90.000000
_cell_angle_gamma 90.000000
_cell_volume 3143.647118
_symmetry_space_group_name_H-M "A B A 2"
_symmetry_group_IT_number 41
_symmetry_cell_setting 'orthorhombic'
loop_
_space_group_symop_operation_xyz
x,y,z
-x,-y,z
1/2-x,y,1/2+z
1/2+x,-y,1/2+z
x,1/2+y,1/2+z
-x,1/2-y,1/2+z
1/2-x,1/2+y,z
1/2+x,1/2-y,z
loop_
_atom_site_type_symbol
_atom_site_label
_atom_site_fract_x
_atom_site_fract_y
_atom_site_fract_z
Si Si1 0.522532 0.920642 0.500000
Si Si2 0.286056 0.671108 0.916441
Si Si3 0.499554 0.226170 0.668106
Si Si4 0.941528 0.921606 0.489120
Si Si5 0.872668 0.707781 0.029895
Si Si6 0.682115 0.112678 0.617445
Si Si7 0.731636 0.318818 0.735472
Si Si8 0.250016 0.550774 0.123781
O O1 0.571332 0.864978 0.433689
O O2 0.380063 0.898827 0.532259
O O3 0.625219 0.924047 0.572427
O O4 0.500000 0.000000 0.459745
O O5 0.173831 0.610478 0.934820
O O6 0.279713 0.689797 0.827037
O O7 0.280895 0.745838 0.969627
O O8 0.475384 0.237845 0.574758
O O9 0.574633 0.146721 0.677243
O O10 0.596505 0.289405 0.698879
O O11 0.362447 0.227383 0.714124
O O12 0.884261 0.935573 0.575399
O O13 0.055974 0.859973 0.486500
O O14 0.000000 0.000000 0.457099
O O15 0.792737 0.674543 0.102947
O O16 0.739633 0.035314 0.649500
O O17 0.747382 0.402491 0.703376
#
# Coordination Sequence:
#
# PCOD8185006 Si02
#       8
#     8   8   8   8   8   8   8   8
#     4   9  19  38  65  89 118 161 220 271 323 395
#     4  11  26  42  62  95 136 181 215 278 350 410
#     4  12  23  41  65  99 126 174 225 278 328 402
#     4  11  22  43  66  95 130 168 233 286 334 401
#     4  12  22  39  70  97 128 173 232 285 329 400
#     4  11  20  36  69  96 118 164 228 277 326 379
#     4  12  26  42  64  96 144 174 217 276 350 409
#     4  10  20  40  63  95 123 164 218 280 324 394
#
# _framework density 20.358518
#
# number of rings (size 3 to 8) (size 9 to 14) (size 15 to 20)
#    0.000    1.000    6.250    1.500    1.750    0.000 
#    2.250    1.875    0.000    0.000    0.000    0.000 
#    0.000    0.000    0.000    0.000    0.000    0.000 
#
# Total GULP energy -396656.348272 kJ/mol
# GULP energy per Si atom -12395.510884 kJ/mol
# Density = 2.031218 g / cm^3
# Si number density = 20.358518 Si / 1000 Ang^3
#
#
#
# Elastic Constant Matrix: (Units=GPa)
#
#
# Indices 1 2 3 4 5 6 
#
# 1 81.3735 37.4914 28.3358 0.0000 0.0000 0.0000
# 2 37.4914 130.7453 43.5768 0.0000 0.0000 0.0000
# 3 28.3358 43.5768 101.3938 0.0000 0.0000 0.0000
# 4 0.0000 0.0000 0.0000 21.2722 0.0000 0.0000
# 5 0.0000 0.0000 0.0000 0.0000 17.8455 0.0000
# 6 0.0000 0.0000 0.0000 0.0000 0.0000 46.1725
#
#
#
# Elastic Compliance Matrix: (Units=1/GPa)
#
#
# Indices 1 2 3 4 5 6 
#
# 1 0.014764 -0.003336 -0.002692 0.000000 0.000000 0.000000
# 2 -0.003336 0.009681 -0.003228 0.000000 0.000000 0.000000
# 3 -0.002692 -0.003228 0.012002 0.000000 0.000000 0.000000
# 4 0.000000 0.000000 0.000000 0.047010 0.000000 0.000000
# 5 0.000000 0.000000 0.000000 0.000000 0.056037 0.000000
# 6 0.000000 0.000000 0.000000 0.000000 0.000000 0.021658
#
#
# Mechanical properties :
#
#
# Convention : Reuss Voigt Hill
#
# Bulk Modulus (GPa) = 55.76079 59.14672 57.45376
# Shear Modulus (GPa) = 26.93350 30.66528 28.79939
#
# Velocity S-wave (km/s) = 3.64120 3.88527 3.76521
# Velocity P-wave (km/s) = 6.71764 7.01732 6.86911
#
# Compressibility (1/GPa) = 0.01793375
#
# Stress axis : x y z
#
# Youngs Moduli (GPa) = 67.73443 103.29367 83.31709
#
# Poissons Ratio (x) = 0.34461 0.22429
# Poissons Ratio (y) = 0.22598 0.26898
# Poissons Ratio (z) = 0.18234 0.33347
#
# Static dielectric constant tensor:
#      x y z
#    x 3.960260 0.000000 0.000000 
#    y 0.000000 3.918220 0.000000 
#    z 0.000000 0.000000 3.176460 
# 
# 
# High freq. dielectric constant tensor:
#      x y z
#    x 1.809350 0.000000 0.000000 
#    y 0.000000 1.814270 0.000000 
#    z 0.000000 0.000000 1.738780 
# 
# From -- ./inp_files/10184.got.cif
#   From: 2010.03.12/outbox.cif.g09.slc.cpg/sg41_6_cif.got.tgz:10184.got - 2010.04.14 01:55:53.
