data_PCOD8185615
_publ_section_title
;
Structure prediction by ZEFSAII (Michael W. Deem and Ramdas Pophale) SiO2 
 PCOD8185615
Probable space group: A B A 2
;
_chemical_formula_sum "Si O2"
_cell_formula_units_Z 48
_cell_length_a 22.793878
_cell_length_b 11.533771
_cell_length_c 8.357544
_cell_angle_alpha 90.000000
_cell_angle_beta 90.000000
_cell_angle_gamma 90.000000
_cell_volume 2197.193044
_symmetry_space_group_name_H-M "A B A 2"
_symmetry_group_IT_number 41
_symmetry_cell_setting 'orthorhombic'
loop_
_space_group_symop_operation_xyz
x,y,z
-x,-y,z
1/2-x,y,1/2+z
1/2+x,-y,1/2+z
x,1/2+y,1/2+z
-x,1/2-y,1/2+z
1/2-x,1/2+y,z
1/2+x,1/2-y,z
loop_
_atom_site_type_symbol
_atom_site_label
_atom_site_fract_x
_atom_site_fract_y
_atom_site_fract_z
Si Si1 0.130219 0.493651 0.425830
Si Si2 0.926231 0.216837 0.068115
Si Si3 0.143212 0.867512 0.587785
Si Si4 0.448109 0.713785 0.922330
Si Si5 0.167189 0.603723 0.959694
Si Si6 0.284253 0.650848 0.110229
O O1 0.112705 0.398380 0.556188
O O2 0.141594 0.426905 0.260789
O O3 0.077869 0.585262 0.410179
O O4 0.188388 0.558494 0.486362
O O5 0.942102 0.226352 0.252089
O O6 0.891707 0.326660 0.997704
O O7 0.984157 0.203468 0.962971
O O8 0.084428 0.792787 0.555638
O O9 0.198701 0.782370 0.564990
O O10 0.150997 0.968412 0.457919
O O11 0.193556 0.633188 0.788900
O O12 0.214249 0.636140 0.098385
#
# Coordination Sequence:
#
# PCOD8185615 Si02
#       6
#     8   8   8   8   8   8
#     4  11  23  48  70 102 139 187 234 290 356 415
#     4  12  25  45  73 103 142 185 238 292 355 422
#     4  11  24  47  73 100 141 186 230 294 354 419
#     4  11  26  45  70 102 144 185 237 292 356 420
#     4  12  26  45  72 103 137 186 232 287 358 415
#     4  11  27  44  71 102 141 182 237 287 352 421
#
# _framework density 21.846056999999998
#
# number of rings (size 3 to 8) (size 9 to 14) (size 15 to 20)
#    0.000    0.667    3.333    3.500    7.000    2.000 
#    3.000    0.000    0.000    0.000    0.000    0.000 
#    0.000    0.000    0.000    0.000    0.000    0.000 
#
# Total GULP energy -297730.246707 kJ/mol
# GULP energy per Si atom -12405.426946 kJ/mol
# Density = 2.179633 g / cm^3
# Si number density = 21.846057 Si / 1000 Ang^3
#
#
#
# Elastic Constant Matrix: (Units=GPa)
#
#
# Indices 1 2 3 4 5 6 
#
# 1 74.5909 22.8804 -9.2014 0.0000 0.0000 0.0000
# 2 22.8804 139.9894 4.4972 0.0000 0.0000 0.0000
# 3 -9.2014 4.4972 81.7221 0.0000 0.0000 0.0000
# 4 0.0000 0.0000 0.0000 43.9693 0.0000 0.0000
# 5 0.0000 0.0000 0.0000 0.0000 23.5680 0.0000
# 6 0.0000 0.0000 0.0000 0.0000 0.0000 19.5962
#
#
#
# Elastic Compliance Matrix: (Units=1/GPa)
#
#
# Indices 1 2 3 4 5 6 
#
# 1 0.014359 -0.002403 0.001749 0.000000 0.000000 0.000000
# 2 -0.002403 0.007558 -0.000687 0.000000 0.000000 0.000000
# 3 0.001749 -0.000687 0.012471 0.000000 0.000000 0.000000
# 4 0.000000 0.000000 0.000000 0.022743 0.000000 0.000000
# 5 0.000000 0.000000 0.000000 0.000000 0.042430 0.000000
# 6 0.000000 0.000000 0.000000 0.000000 0.000000 0.051030
#
#
# Mechanical properties :
#
#
# Convention : Reuss Voigt Hill
#
# Bulk Modulus (GPa) = 31.53814 36.96165 34.24989
# Shear Modulus (GPa) = 30.51701 35.96847 33.24274
#
# Velocity S-wave (km/s) = 3.74158 4.06205 3.90511
# Velocity P-wave (km/s) = 5.75620 6.24149 6.00375
#
# Compressibility (1/GPa) = 0.03170764
#
# Stress axis : x y z
#
# Youngs Moduli (GPa) = 69.64097 132.30611 80.18414
#
# Poissons Ratio (x) = 0.31795 -0.14024
# Poissons Ratio (y) = 0.16736 0.05505
# Poissons Ratio (z) = -0.12180 0.09083
#
# Static dielectric constant tensor:
#      x y z
#    x 4.066440 0.000000 0.000000 
#    y 0.000000 4.439540 0.000000 
#    z 0.000000 0.000000 3.924110 
# 
# 
# High freq. dielectric constant tensor:
#      x y z
#    x 1.859330 0.000000 0.000000 
#    y 0.000000 1.878250 0.000000 
#    z 0.000000 0.000000 1.868510 
# 
# From -- ./inp_files/3594.got.cif
#   From: 2010.03.12/outbox.cif.g09.slc.cpg/sg41_2_cif.got.tgz:3594.got - 2010.04.14 01:55:53.
