data_PCOD8185616
_publ_section_title
;
Structure prediction by ZEFSAII (Michael W. Deem and Ramdas Pophale) SiO2 
 PCOD8185616
Probable space group: A B A 2
;
_chemical_formula_sum "Si O2"
_cell_formula_units_Z 48
_cell_length_a 22.724189
_cell_length_b 8.635287
_cell_length_c 11.179543
_cell_angle_alpha 90.000000
_cell_angle_beta 90.000000
_cell_angle_gamma 90.000000
_cell_volume 2193.760536
_symmetry_space_group_name_H-M "A B A 2"
_symmetry_group_IT_number 41
_symmetry_cell_setting 'orthorhombic'
loop_
_space_group_symop_operation_xyz
x,y,z
-x,-y,z
1/2-x,y,1/2+z
1/2+x,-y,1/2+z
x,1/2+y,1/2+z
-x,1/2-y,1/2+z
1/2-x,1/2+y,z
1/2+x,1/2-y,z
loop_
_atom_site_type_symbol
_atom_site_label
_atom_site_fract_x
_atom_site_fract_y
_atom_site_fract_z
Si Si1 0.356649 0.865310 0.857530
Si Si2 0.207246 0.858663 0.600796
Si Si3 0.884982 0.460249 0.244856
Si Si4 0.319767 0.021042 0.632428
Si Si5 0.939855 0.429916 0.000157
Si Si6 0.565948 0.568719 0.985703
O O1 0.385991 0.714575 0.795984
O O2 0.314600 0.938806 0.760098
O O3 0.399184 0.005298 0.895051
O O4 0.323952 0.815602 0.976614
O O5 0.204623 0.691359 0.661871
O O6 0.178265 0.982966 0.693021
O O7 0.271172 0.921944 0.559004
O O8 0.911260 0.563902 0.350243
O O9 0.927129 0.491144 0.132810
O O10 0.385121 0.012676 0.572468
O O11 0.938019 0.247388 0.014796
O O12 0.000000 0.500000 0.956516
O O13 0.500000 0.500000 0.003444
#
# Coordination Sequence:
#
# PCOD8185616 Si02
#       6
#     8   8   8   8   8   8
#     4  11  24  46  71 105 140 182 237 299 359 426
#     4  11  27  44  74 103 142 185 240 300 364 429
#     4  11  23  48  71 104 141 185 241 299 356 424
#     4  12  26  46  73 106 142 189 239 297 366 431
#     4  11  25  44  72 101 142 190 242 289 358 426
#     4  12  26  46  71 104 149 192 240 296 361 436
#
# _framework density 21.880237999999999
#
# number of rings (size 3 to 8) (size 9 to 14) (size 15 to 20)
#    0.000    0.667    3.333    3.500    7.000    2.000 
#    3.000    0.000    0.000    0.000    0.000    0.000 
#    0.000    0.000    0.000    0.000    0.000    0.000 
#
# Total GULP energy -297337.324343 kJ/mol
# GULP energy per Si atom -12389.055181 kJ/mol
# Density = 2.183044 g / cm^3
# Si number density = 21.880238 Si / 1000 Ang^3
#
#
#
# Elastic Constant Matrix: (Units=GPa)
#
#
# Indices 1 2 3 4 5 6 
#
# 1 110.3133 28.2871 4.5037 0.0000 0.0000 0.0000
# 2 28.2871 91.7402 18.5639 0.0000 0.0000 0.0000
# 3 4.5037 18.5639 67.8104 0.0000 0.0000 0.0000
# 4 0.0000 0.0000 0.0000 43.6787 0.0000 0.0000
# 5 0.0000 0.0000 0.0000 0.0000 7.4017 0.0000
# 6 0.0000 0.0000 0.0000 0.0000 0.0000 35.0747
#
#
#
# Elastic Compliance Matrix: (Units=1/GPa)
#
#
# Indices 1 2 3 4 5 6 
#
# 1 0.009846 -0.003074 0.000188 0.000000 0.000000 0.000000
# 2 -0.003074 0.012499 -0.003218 0.000000 0.000000 0.000000
# 3 0.000188 -0.003218 0.015615 0.000000 0.000000 0.000000
# 4 0.000000 0.000000 0.000000 0.022894 0.000000 0.000000
# 5 0.000000 0.000000 0.000000 0.000000 0.135104 0.000000
# 6 0.000000 0.000000 0.000000 0.000000 0.000000 0.028511
#
#
# Mechanical properties :
#
#
# Convention : Reuss Voigt Hill
#
# Bulk Modulus (GPa) = 38.83106 41.39702 40.11404
# Shear Modulus (GPa) = 20.38645 31.79830 26.09237
#
# Velocity S-wave (km/s) = 3.05573 3.81634 3.45702
# Velocity P-wave (km/s) = 5.49869 6.19517 5.85729
#
# Compressibility (1/GPa) = 0.02575258
#
# Stress axis : x y z
#
# Youngs Moduli (GPa) = 101.56807 80.00513 64.03925
#
# Poissons Ratio (x) = 0.24591 -0.01201
# Poissons Ratio (y) = 0.31219 0.20606
# Poissons Ratio (z) = -0.01905 0.25743
#
# Static dielectric constant tensor:
#      x y z
#    x 3.985100 0.000000 0.000000 
#    y 0.000000 3.857300 0.000000 
#    z 0.000000 0.000000 4.008310 
# 
# 
# High freq. dielectric constant tensor:
#      x y z
#    x 1.858840 0.000000 0.000000 
#    y 0.000000 1.874170 0.000000 
#    z 0.000000 0.000000 1.870580 
# 
# From -- ./inp_files/6383.got.cif
#   From: 2010.03.12/outbox.cif.g09.slc.cpg/sg41_4_cif.got.tgz:6383.got - 2010.04.14 01:55:53.
