data_PCOD8185443
_publ_section_title
;
Structure prediction by ZEFSAII (Michael W. Deem and Ramdas Pophale) SiO2 
 PCOD8185443
Probable space group: A B A 2
;
_chemical_formula_sum "Si O2"
_cell_formula_units_Z 52
_cell_length_a 24.201323
_cell_length_b 11.704847
_cell_length_c 8.747976
_cell_angle_alpha 90.000000
_cell_angle_beta 90.000000
_cell_angle_gamma 90.000000
_cell_volume 2478.063506
_symmetry_space_group_name_H-M "A B A 2"
_symmetry_group_IT_number 41
_symmetry_cell_setting 'orthorhombic'
loop_
_space_group_symop_operation_xyz
x,y,z
-x,-y,z
1/2-x,y,1/2+z
1/2+x,-y,1/2+z
x,1/2+y,1/2+z
-x,1/2-y,1/2+z
1/2-x,1/2+y,z
1/2+x,1/2-y,z
loop_
_atom_site_type_symbol
_atom_site_label
_atom_site_fract_x
_atom_site_fract_y
_atom_site_fract_z
Si Si1 0.678193 0.736329 0.287500
Si Si2 0.256554 0.379852 0.548773
Si Si3 0.683334 0.002329 0.317869
Si Si4 0.933955 0.604256 0.750308
Si Si5 0.500000 0.000000 0.175873
Si Si6 0.950731 0.880432 0.401866
Si Si7 0.926302 0.129587 0.905540
O O1 0.710863 0.707671 0.441543
O O2 0.709427 0.690152 0.137918
O O3 0.672365 0.871614 0.279991
O O4 0.617167 0.684164 0.292090
O O5 0.300204 0.436201 0.661650
O O6 0.230387 0.481055 0.446356
O O7 0.629429 0.061292 0.383956
O O8 0.919884 0.473268 0.796006
O O9 0.950188 0.604680 0.572969
O O10 0.986900 0.645757 0.845980
O O11 0.529528 0.094086 0.279419
O O12 0.455271 0.069007 0.073851
O O13 0.914773 0.765622 0.394703
#
# Coordination Sequence:
#
# PCOD8185443 Si02
#       7
#     8   8   8   8   4   8   8
#     4  11  23  44  68  93 132 163 214 267 315 384
#     4  10  24  46  62  96 128 168 213 264 324 375
#     4  11  25  41  69  98 123 172 212 263 327 378
#     4  10  23  45  64  94 131 172 208 261 324 373
#     4  10  24  40  64  94 124 174 210 254 314 380
#     4  10  25  45  62  93 136 169 210 264 316 383
#     4  12  24  40  67  97 126 166 214 260 317 380
#
# _framework density 20.984127000000001
#
# number of rings (size 3 to 8) (size 9 to 14) (size 15 to 20)
#    0.000    1.538    1.538    2.769    8.615    1.231 
#   11.077    0.000    0.000    0.000    0.000    0.000 
#    0.000    0.000    0.000    0.000    0.000    0.000 
#
# Total GULP energy -322492.739326 kJ/mol
# GULP energy per Si atom -12403.566897 kJ/mol
# Density = 2.093637 g / cm^3
# Si number density = 20.984127 Si / 1000 Ang^3
#
#
#
# Elastic Constant Matrix: (Units=GPa)
#
#
# Indices 1 2 3 4 5 6 
#
# 1 45.7539 21.0141 4.5507 0.0000 0.0000 0.0000
# 2 21.0141 151.0781 35.6268 0.0000 0.0000 0.0000
# 3 4.5507 35.6268 113.4055 0.0000 0.0000 0.0000
# 4 0.0000 0.0000 0.0000 24.4664 0.0000 0.0000
# 5 0.0000 0.0000 0.0000 0.0000 12.4311 0.0000
# 6 0.0000 0.0000 0.0000 0.0000 0.0000 25.0539
#
#
#
# Elastic Compliance Matrix: (Units=1/GPa)
#
#
# Indices 1 2 3 4 5 6 
#
# 1 0.023348 -0.003269 0.000090 0.000000 0.000000 0.000000
# 2 -0.003269 0.007606 -0.002258 0.000000 0.000000 0.000000
# 3 0.000090 -0.002258 0.009524 0.000000 0.000000 0.000000
# 4 0.000000 0.000000 0.000000 0.040872 0.000000 0.000000
# 5 0.000000 0.000000 0.000000 0.000000 0.080443 0.000000
# 6 0.000000 0.000000 0.000000 0.000000 0.000000 0.039914
#
#
# Mechanical properties :
#
#
# Convention : Reuss Voigt Hill
#
# Bulk Modulus (GPa) = 33.77915 48.06898 40.92406
# Shear Modulus (GPa) = 22.47690 28.99335 25.73512
#
# Velocity S-wave (km/s) = 3.27638 3.72113 3.50581
# Velocity P-wave (km/s) = 5.51772 6.43579 5.99436
#
# Compressibility (1/GPa) = 0.02960406
#
# Stress axis : x y z
#
# Youngs Moduli (GPa) = 42.82943 131.46926 105.00028
#
# Poissons Ratio (x) = 0.42975 -0.00945
# Poissons Ratio (y) = 0.14000 0.23713
# Poissons Ratio (z) = -0.00385 0.29691
#
# Static dielectric constant tensor:
#      x y z
#    x 3.645270 0.000000 0.000000 
#    y 0.000000 3.906530 0.000000 
#    z 0.000000 0.000000 4.067240 
# 
# 
# High freq. dielectric constant tensor:
#      x y z
#    x 1.814370 0.000000 0.000000 
#    y 0.000000 1.827960 0.000000 
#    z 0.000000 0.000000 1.842130 
# 
# From -- ./inp_files/3786.got.cif
#   From: 2010.03.12/outbox.cif.g09.slc.cpg/sg41_2_cif.got.tgz:3786.got - 2010.04.14 01:55:53.
