data_PCOD8185447
_publ_section_title
;
Structure prediction by ZEFSAII (Michael W. Deem and Ramdas Pophale) SiO2 
 PCOD8185447
Probable space group: A B A 2
;
_chemical_formula_sum "Si O2"
_cell_formula_units_Z 48
_cell_length_a 13.409887
_cell_length_b 16.442251
_cell_length_c 9.389937
_cell_angle_alpha 90.000000
_cell_angle_beta 90.000000
_cell_angle_gamma 90.000000
_cell_volume 2070.375265
_symmetry_space_group_name_H-M "A B A 2"
_symmetry_group_IT_number 41
_symmetry_cell_setting 'orthorhombic'
loop_
_space_group_symop_operation_xyz
x,y,z
-x,-y,z
1/2-x,y,1/2+z
1/2+x,-y,1/2+z
x,1/2+y,1/2+z
-x,1/2-y,1/2+z
1/2-x,1/2+y,z
1/2+x,1/2-y,z
loop_
_atom_site_type_symbol
_atom_site_label
_atom_site_fract_x
_atom_site_fract_y
_atom_site_fract_z
Si Si1 0.295457 0.895332 0.653750
Si Si2 0.144585 0.828419 0.433037
Si Si3 0.879773 0.348743 0.310631
Si Si4 0.325824 0.570209 0.265240
Si Si5 0.543016 0.418367 0.529415
Si Si6 0.989587 0.407669 0.565933
O O1 0.205416 0.848504 0.576436
O O2 0.284228 0.864070 0.812982
O O3 0.402189 0.865941 0.587617
O O4 0.288037 0.993552 0.668150
O O5 0.118518 0.736263 0.393612
O O6 0.038833 0.872531 0.436101
O O7 0.767025 0.376647 0.310613
O O8 0.917804 0.353978 0.147401
O O9 0.954242 0.404775 0.402718
O O10 0.374850 0.547887 0.417500
O O11 0.401945 0.625901 0.170815
O O12 0.500000 0.500000 0.604850
O O13 0.000000 0.500000 0.617861
#
# Coordination Sequence:
#
# PCOD8185447 Si02
#       6
#     8   8   8   8   8   8
#     4  11  26  49  71 103 143 195 246 299 369 450
#     4  12  29  45  74 107 150 193 243 314 378 455
#     4  12  29  41  76 110 147 188 241 315 375 450
#     4  11  23  47  76 104 144 191 247 300 369 444
#     4  12  24  50  77 111 147 199 256 305 378 453
#     4  10  23  46  70 101 138 185 236 294 363 438
#
# _framework density 23.184203
#
# number of rings (size 3 to 8) (size 9 to 14) (size 15 to 20)
#    0.000    0.667    3.333    3.000   14.000    0.000 
#    0.000    0.000    0.000    0.000    0.000    0.000 
#    0.000    0.000    0.000    0.000    0.000    0.000 
#
# Total GULP energy -297450.355994 kJ/mol
# GULP energy per Si atom -12393.764833 kJ/mol
# Density = 2.313143 g / cm^3
# Si number density = 23.184203 Si / 1000 Ang^3
#
#
#
# Elastic Constant Matrix: (Units=GPa)
#
#
# Indices 1 2 3 4 5 6 
#
# 1 77.9588 36.3015 26.7637 0.0000 0.0000 0.0000
# 2 36.3015 98.0105 32.1322 0.0000 0.0000 0.0000
# 3 26.7637 32.1322 120.3403 0.0000 0.0000 0.0000
# 4 0.0000 0.0000 0.0000 30.3502 0.0000 0.0000
# 5 0.0000 0.0000 0.0000 0.0000 49.1535 0.0000
# 6 0.0000 0.0000 0.0000 0.0000 0.0000 19.3418
#
#
#
# Elastic Compliance Matrix: (Units=1/GPa)
#
#
# Indices 1 2 3 4 5 6 
#
# 1 0.016000 -0.005216 -0.002166 0.000000 0.000000 0.000000
# 2 -0.005216 0.012882 -0.002280 0.000000 0.000000 0.000000
# 3 -0.002166 -0.002280 0.009400 0.000000 0.000000 0.000000
# 4 0.000000 0.000000 0.000000 0.032949 0.000000 0.000000
# 5 0.000000 0.000000 0.000000 0.000000 0.020344 0.000000
# 6 0.000000 0.000000 0.000000 0.000000 0.000000 0.051702
#
#
# Mechanical properties :
#
#
# Convention : Reuss Voigt Hill
#
# Bulk Modulus (GPa) = 52.74417 54.07826 53.41122
# Shear Modulus (GPa) = 29.59999 33.17658 31.38829
#
# Velocity S-wave (km/s) = 3.57701 3.78696 3.68348
# Velocity P-wave (km/s) = 6.31344 6.51901 6.41705
#
# Compressibility (1/GPa) = 0.01895944
#
# Stress axis : x y z
#
# Youngs Moduli (GPa) = 62.50165 77.62592 106.38197
#
# Poissons Ratio (x) = 0.40490 0.23038
# Poissons Ratio (y) = 0.32601 0.24252
# Poissons Ratio (z) = 0.13535 0.17696
#
# Static dielectric constant tensor:
#      x y z
#    x 4.284430 0.000000 0.000000 
#    y 0.000000 3.986160 0.000000 
#    z 0.000000 0.000000 4.159870 
# 
# 
# High freq. dielectric constant tensor:
#      x y z
#    x 1.928970 0.000000 0.000000 
#    y 0.000000 1.892120 0.000000 
#    z 0.000000 0.000000 1.926790 
# 
# From -- ./inp_files/2538.got.cif
#   From: 2010.03.12/outbox.cif.g09.slc.cpg/sg41_2_cif.got.tgz:2538.got - 2010.04.14 01:55:53.
