data_PCOD8185900
_publ_section_title
;
Structure prediction by ZEFSAII (Michael W. Deem and Ramdas Pophale) SiO2 
 PCOD8185900
Probable space group: F M M 2
;
_chemical_formula_sum "Si O2"
_cell_formula_units_Z 72
_cell_length_a 7.698539
_cell_length_b 26.837038
_cell_length_c 18.509300
_cell_angle_alpha 90.000000
_cell_angle_beta 90.000000
_cell_angle_gamma 90.000000
_cell_volume 3824.132134
_symmetry_space_group_name_H-M "F M M 2"
_symmetry_group_IT_number 42
_symmetry_cell_setting 'orthorhombic'
loop_
_space_group_symop_operation_xyz
x,y,z
-x,-y,z
-x,y,z
x,-y,z
x,1/2+y,1/2+z
-x,1/2-y,1/2+z
-x,1/2+y,1/2+z
x,1/2-y,1/2+z
1/2+x,y,1/2+z
1/2-x,-y,1/2+z
1/2-x,y,1/2+z
1/2+x,-y,1/2+z
1/2+x,1/2+y,z
1/2-x,1/2-y,z
1/2-x,1/2+y,z
1/2+x,1/2-y,z
loop_
_atom_site_type_symbol
_atom_site_label
_atom_site_fract_x
_atom_site_fract_y
_atom_site_fract_z
Si Si1 0.201864 0.804239 0.935650
Si Si2 0.313665 0.904895 0.877362
Si Si3 0.000000 0.624295 0.145841
Si Si4 0.000000 0.556958 0.285779
Si Si5 0.500000 0.057521 0.005842
Si Si6 0.704992 0.805095 0.601068
O O1 0.250000 0.750000 0.904259
O O2 0.284934 0.845669 0.884299
O O3 0.000000 0.813236 0.933922
O O4 0.268474 0.809031 0.017925
O O5 0.500000 0.912298 0.837199
O O6 0.168293 0.933641 0.834055
O O7 0.328388 0.928343 0.958417
O O8 0.000000 0.593357 0.218761
O O9 0.000000 0.586884 0.079743
O O10 0.823552 0.656836 0.146251
O O11 0.000000 0.500000 0.259339
O O12 0.500000 0.000000 0.026004
O O13 0.500000 0.817072 0.611000
O O14 0.750000 0.750000 0.629740
#
# Coordination Sequence:
#
# PCOD8185900 Si02
#       6
#    16  16   8   8   8  16
#     4  10  18  31  60  98 130 158 199 253 304 363
#     4  10  21  40  65  90 118 162 209 252 300 369
#     4  12  23  40  63  94 125 163 199 259 306 361
#     4  12  27  44  62  86 125 167 206 254 324 369
#     4  10  21  40  67  90 118 158 216 267 298 344
#     4  10  19  34  61  93 126 161 199 244 303 366
#
# _framework density 18.8278
#
# number of rings (size 3 to 8) (size 9 to 14) (size 15 to 20)
#    0.667    0.889    4.444    1.667    1.556    0.889 
#    0.000    1.111    0.000    1.333    0.000    0.000 
#    0.000    0.000    0.000    0.000    0.000    0.000 
#
# Total GULP energy -223137.284505 kJ/mol
# GULP energy per Si atom -12396.515806 kJ/mol
# Density = 1.878495 g / cm^3
# Si number density = 18.827800 Si / 1000 Ang^3
#
#
#
# Elastic Constant Matrix: (Units=GPa)
#
#
# Indices 1 2 3 4 5 6 
#
# 1 119.0674 43.4886 33.4871 0.0000 0.0000 0.0000
# 2 43.4886 140.7319 33.8936 0.0000 0.0000 0.0000
# 3 33.4871 33.8936 67.2291 0.0000 0.0000 0.0000
# 4 0.0000 0.0000 0.0000 26.9149 0.0000 0.0000
# 5 0.0000 0.0000 0.0000 0.0000 -1.9015 0.0000
# 6 0.0000 0.0000 0.0000 0.0000 0.0000 19.5891
#
#
#
# Elastic Compliance Matrix: (Units=1/GPa)
#
#
# Indices 1 2 3 4 5 6 
#
# 1 0.010345 -0.002226 -0.004031 0.000000 0.000000 0.000000
# 2 -0.002226 0.008567 -0.003210 0.000000 0.000000 0.000000
# 3 -0.004031 -0.003210 0.018501 0.000000 0.000000 0.000000
# 4 0.000000 0.000000 0.000000 0.037154 0.000000 0.000000
# 5 0.000000 0.000000 0.000000 0.000000 -0.525905 0.000000
# 6 0.000000 0.000000 0.000000 0.000000 0.000000 0.051049
#
#
# Mechanical properties :
#
#
# Convention : Reuss Voigt Hill
#
# Bulk Modulus (GPa) = 54.11620 60.97412 57.54516
# Shear Modulus (GPa) = -13.32636 23.33111 5.00237
#
# Velocity S-wave (km/s) = -2.66334 3.52402 1.63177
# Velocity P-wave (km/s) = 4.39855 7.00098 5.84641
#
# Compressibility (1/GPa) = 0.01847875
#
# Stress axis : x y z
#
# Youngs Moduli (GPa) = 96.66217 116.73064 54.05225
#
# Poissons Ratio (x) = 0.25986 0.21787
# Poissons Ratio (y) = 0.21518 0.17351
# Poissons Ratio (z) = 0.38962 0.37472
#
# Static dielectric constant tensor:
#      x y z
#    x 3.608330 0.000000 0.000000 
#    y 0.000000 3.586590 0.000000 
#    z 0.000000 0.000000 3.099880 
# 
# 
# High freq. dielectric constant tensor:
#      x y z
#    x 1.739560 0.000000 0.000000 
#    y 0.000000 1.742770 0.000000 
#    z 0.000000 0.000000 1.690520 
# 
# From -- ./inp_files/12187.got.cif
#   From: 2010.03.12/outbox.cif.g09.slc.cpg/sg42_7_cif.got.tgz:12187.got - 2010.04.14 02:04:31.
