data_PCOD8185861
_publ_section_title
;
Structure prediction by ZEFSAII (Michael W. Deem and Ramdas Pophale) SiO2 
 PCOD8185861
Probable space group: F M M 2
;
_chemical_formula_sum "Si O2"
_cell_formula_units_Z 80
_cell_length_a 19.486393
_cell_length_b 8.594033
_cell_length_c 25.840119
_cell_angle_alpha 90.000000
_cell_angle_beta 90.000000
_cell_angle_gamma 90.000000
_cell_volume 4327.359573
_symmetry_space_group_name_H-M "F M M 2"
_symmetry_group_IT_number 42
_symmetry_cell_setting 'orthorhombic'
loop_
_space_group_symop_operation_xyz
x,y,z
-x,-y,z
-x,y,z
x,-y,z
x,1/2+y,1/2+z
-x,1/2-y,1/2+z
-x,1/2+y,1/2+z
x,1/2-y,1/2+z
1/2+x,y,1/2+z
1/2-x,-y,1/2+z
1/2-x,y,1/2+z
1/2+x,-y,1/2+z
1/2+x,1/2+y,z
1/2-x,1/2-y,z
1/2-x,1/2+y,z
1/2+x,1/2-y,z
loop_
_atom_site_type_symbol
_atom_site_label
_atom_site_fract_x
_atom_site_fract_y
_atom_site_fract_z
Si Si1 0.673782 0.184107 0.164590
Si Si2 0.080165 0.179899 0.853687
Si Si3 0.825946 0.684672 0.559408
Si Si4 0.075752 0.315495 0.470022
Si Si5 0.324962 0.818318 0.769227
O O1 0.750000 0.250000 0.166806
O O2 0.639068 0.255006 0.112894
O O3 0.639439 0.240952 0.218198
O O4 0.672722 0.000000 0.160866
O O5 0.098673 0.231597 0.912201
O O6 0.124877 0.288095 0.816877
O O7 0.000000 0.207673 0.842710
O O8 0.099427 0.000000 0.844311
O O9 0.823245 0.500000 0.560124
O O10 0.750000 0.750000 0.552570
O O11 0.870903 0.750855 0.511922
O O12 0.072377 0.500000 0.473616
O O13 0.000000 0.247256 0.481927
O O14 0.250000 0.750000 0.781512
O O15 0.316764 0.000000 0.759330
#
# Coordination Sequence:
#
# PCOD8185861 Si02
#       5
#    16  16  16  16  16
#     4  10  18  31  50  72 100 132 166 204 252 302
#     4   9  18  35  56  76 102 136 171 208 254 304
#     4  10  18  30  50  75 102 130 164 205 247 294
#     4   8  16  32  53  74  98 132 169 203 244 294
#     4  11  21  34  53  77 104 133 170 212 255 302
#
# _framework density 18.487024999999999
#
# number of rings (size 3 to 8) (size 9 to 14) (size 15 to 20)
#    0.000    2.400    0.000    7.800    0.000    1.200 
#    0.000    5.000    0.000    8.400    0.000    0.000 
#    0.000    0.000    0.000    0.000    0.000    0.000 
#
# Total GULP energy -247918.869202 kJ/mol
# GULP energy per Si atom -12395.943460 kJ/mol
# Density = 1.844495 g / cm^3
# Si number density = 18.487025 Si / 1000 Ang^3
#
#
#
# Elastic Constant Matrix: (Units=GPa)
#
#
# Indices 1 2 3 4 5 6 
#
# 1 63.3234 24.7961 67.6979 0.0000 0.0000 -0.0001
# 2 24.7961 93.9886 39.7606 0.0000 0.0000 -0.0001
# 3 67.6979 39.7606 167.6317 0.0000 0.0000 0.0000
# 4 0.0000 0.0000 0.0000 25.5346 0.0000 0.0000
# 5 0.0000 0.0000 0.0000 0.0000 8.8229 0.0000
# 6 -0.0001 -0.0001 0.0000 0.0000 0.0000 18.5048
#
#
#
# Elastic Compliance Matrix: (Units=1/GPa)
#
#
# Indices 1 2 3 4 5 6 
#
# 1 0.028506 -0.002946 -0.010813 0.000000 0.000000 0.000000
# 2 -0.002946 0.012131 -0.001688 0.000000 0.000000 0.000000
# 3 -0.010813 -0.001688 0.010733 0.000000 0.000000 0.000000
# 4 0.000000 0.000000 0.000000 0.039163 0.000000 0.000000
# 5 0.000000 0.000000 0.000000 0.000000 0.113342 0.000000
# 6 0.000000 0.000000 0.000000 0.000000 0.000000 0.054040
#
#
# Mechanical properties :
#
#
# Convention : Reuss Voigt Hill
#
# Bulk Modulus (GPa) = 48.83875 65.49475 57.16675
# Shear Modulus (GPa) = 16.91289 23.41840 20.16564
#
# Velocity S-wave (km/s) = 3.02793 3.56300 3.30631
# Velocity P-wave (km/s) = 6.22091 7.24092 6.75021
#
# Compressibility (1/GPa) = 0.02047554
#
# Stress axis : x y z
#
# Youngs Moduli (GPa) = 35.08051 82.43551 93.17346
#
# Poissons Ratio (x) = 0.24285 1.00751
# Poissons Ratio (y) = 0.10335 0.15723
# Poissons Ratio (z) = 0.37934 0.13911
#
# Static dielectric constant tensor:
#      x y z
#    x 3.287780 0.000000 0.000000 
#    y 0.000000 3.227100 0.000000 
#    z 0.000000 0.000000 4.139070 
# 
# 
# High freq. dielectric constant tensor:
#      x y z
#    x 1.684000 0.000000 0.000000 
#    y 0.000000 1.709180 0.000000 
#    z 0.000000 0.000000 1.738830 
# 
# From -- ./inp_files/31265.got.cif
#   From: 2010.03.12/outbox.cif.g09.slc.cpg/sg42_16_cif.got.tgz:31265.got - 2010.04.14 02:04:31.
