data_PCOD8185786
_publ_section_title
;
Structure prediction by ZEFSAII (Michael W. Deem and Ramdas Pophale) SiO2 
 PCOD8185786
Probable space group: F M M 2
;
_chemical_formula_sum "Si O2"
_cell_formula_units_Z 128
_cell_length_a 20.983460
_cell_length_b 18.226937
_cell_length_c 20.135020
_cell_angle_alpha 90.000000
_cell_angle_beta 90.000000
_cell_angle_gamma 90.000000
_cell_volume 7700.924386
_symmetry_space_group_name_H-M "F M M 2"
_symmetry_group_IT_number 42
_symmetry_cell_setting 'orthorhombic'
loop_
_space_group_symop_operation_xyz
x,y,z
-x,-y,z
-x,y,z
x,-y,z
x,1/2+y,1/2+z
-x,1/2-y,1/2+z
-x,1/2+y,1/2+z
x,1/2-y,1/2+z
1/2+x,y,1/2+z
1/2-x,-y,1/2+z
1/2-x,y,1/2+z
1/2+x,-y,1/2+z
1/2+x,1/2+y,z
1/2-x,1/2-y,z
1/2-x,1/2+y,z
1/2+x,1/2-y,z
loop_
_atom_site_type_symbol
_atom_site_label
_atom_site_fract_x
_atom_site_fract_y
_atom_site_fract_z
Si Si1 0.341005 0.582387 0.747220
Si Si2 0.251937 0.580978 0.371691
Si Si3 0.130141 0.913978 0.949402
Si Si4 0.344360 0.317179 0.304962
Si Si5 0.074297 0.325724 0.333126
Si Si6 0.757968 0.171629 0.175448
Si Si7 0.357882 0.414138 0.097120
Si Si8 0.926442 0.580038 0.725252
O O1 0.356063 0.500000 0.721255
O O2 0.289965 0.578452 0.805657
O O3 0.406535 0.619267 0.773236
O O4 0.309599 0.632287 0.689877
O O5 0.282903 0.500000 0.382430
O O6 0.204457 0.600290 0.431989
O O7 0.306325 0.643440 0.365450
O O8 0.083028 0.866517 0.903454
O O9 0.113047 0.000000 0.939693
O O10 0.120304 0.885968 0.024800
O O11 0.375687 0.241898 0.330155
O O12 0.297388 0.308970 0.242497
O O13 0.402146 0.368334 0.283089
O O14 0.000000 0.302321 0.324976
O O15 0.750000 0.250000 0.139678
O O16 0.792509 0.120333 0.122657
O O17 0.345826 0.500000 0.091392
O O18 0.411962 0.391894 0.150580
O O19 0.893534 0.500000 0.733678
O O20 0.000000 0.573433 0.735236
#
# Coordination Sequence:
#
# PCOD8185786 Si02
#       8
#    16  16  16  16  16  16  16  16
#     4   9  17  29  46  69  94 123 156 190 230 280
#     4   8  15  28  48  68  90 120 152 192 243 286
#     4   9  19  34  48  68  95 123 159 197 230 276
#     4  10  18  29  46  67  97 122 153 194 241 280
#     4  11  21  31  45  67  97 134 163 192 231 270
#     4  10  17  30  49  72  95 120 148 190 241 286
#     4   9  18  32  49  70  96 123 153 191 232 278
#     4   9  17  29  47  70  94 124 158 190 230 281
#
# _framework density 16.621381
#
# number of rings (size 3 to 8) (size 9 to 14) (size 15 to 20)
#    0.000    2.625    1.250    2.250    0.000    4.500 
#    2.250    1.250    0.000    0.000    0.000    0.000 
#    0.000    0.000    0.000    0.000    0.000    0.000 
#
# Total GULP energy -396555.340072 kJ/mol
# GULP energy per Si atom -12392.354377 kJ/mol
# Density = 1.658355 g / cm^3
# Si number density = 16.621381 Si / 1000 Ang^3
#
#
#
# Elastic Constant Matrix: (Units=GPa)
#
#
# Indices 1 2 3 4 5 6 
#
# 1 64.1536 26.4344 9.3298 0.0000 0.0000 0.0000
# 2 26.4344 71.8740 13.4337 0.0000 0.0000 0.0000
# 3 9.3298 13.4337 36.5155 0.0000 0.0000 0.0000
# 4 0.0000 0.0000 0.0000 15.6954 0.0000 0.0000
# 5 0.0000 0.0000 0.0000 0.0000 11.2853 0.0000
# 6 0.0000 0.0000 0.0000 0.0000 0.0000 25.5121
#
#
#
# Elastic Compliance Matrix: (Units=1/GPa)
#
#
# Indices 1 2 3 4 5 6 
#
# 1 0.018565 -0.006380 -0.002396 0.000000 0.000000 0.000000
# 2 -0.006380 0.017133 -0.004673 0.000000 0.000000 0.000000
# 3 -0.002396 -0.004673 0.029717 0.000000 0.000000 0.000000
# 4 0.000000 0.000000 0.000000 0.063713 0.000000 0.000000
# 5 0.000000 0.000000 0.000000 0.000000 0.088611 0.000000
# 6 0.000000 0.000000 0.000000 0.000000 0.000000 0.039197
#
#
# Mechanical properties :
#
#
# Convention : Reuss Voigt Hill
#
# Bulk Modulus (GPa) = 25.96289 30.10432 28.03361
# Shear Modulus (GPa) = 16.85354 18.72158 17.78756
#
# Velocity S-wave (km/s) = 3.18774 3.35976 3.27488
# Velocity P-wave (km/s) = 5.40398 5.76210 5.58591
#
# Compressibility (1/GPa) = 0.03851651
#
# Stress axis : x y z
#
# Youngs Moduli (GPa) = 53.86487 58.36639 33.65081
#
# Poissons Ratio (x) = 0.37238 0.08064
# Poissons Ratio (y) = 0.34366 0.15725
# Poissons Ratio (z) = 0.12907 0.27274
#
# Static dielectric constant tensor:
#      x y z
#    x 2.989530 0.000000 0.000000 
#    y 0.000000 3.486110 0.000000 
#    z 0.000000 0.000000 2.958710 
# 
# 
# High freq. dielectric constant tensor:
#      x y z
#    x 1.622320 0.000000 0.000000 
#    y 0.000000 1.648900 0.000000 
#    z 0.000000 0.000000 1.604660 
# 
# From -- ./inp_files/26200.got.cif
#   From: 2010.03.12/outbox.cif.g09.slc.cpg/sg42_14_cif.got.tgz:26200.got - 2010.04.14 02:04:31.
