data_PCOD8185611
_publ_section_title
;
Structure prediction by ZEFSAII (Michael W. Deem and Ramdas Pophale) SiO2 
 PCOD8185611
Probable space group: A B A 2
;
_chemical_formula_sum "Si O2"
_cell_formula_units_Z 64
_cell_length_a 28.398593
_cell_length_b 9.188657
_cell_length_c 11.255154
_cell_angle_alpha 90.000000
_cell_angle_beta 90.000000
_cell_angle_gamma 90.000000
_cell_volume 2936.975377
_symmetry_space_group_name_H-M "A B A 2"
_symmetry_group_IT_number 41
_symmetry_cell_setting 'orthorhombic'
loop_
_space_group_symop_operation_xyz
x,y,z
-x,-y,z
1/2-x,y,1/2+z
1/2+x,-y,1/2+z
x,1/2+y,1/2+z
-x,1/2-y,1/2+z
1/2-x,1/2+y,z
1/2+x,1/2-y,z
loop_
_atom_site_type_symbol
_atom_site_label
_atom_site_fract_x
_atom_site_fract_y
_atom_site_fract_z
Si Si1 0.531283 0.629013 0.795450
Si Si2 0.581574 0.171191 0.516081
Si Si3 0.199841 0.905573 0.816670
Si Si4 0.656996 0.444693 0.044494
Si Si5 0.618802 0.652375 0.629056
Si Si6 0.966424 0.624513 0.745936
Si Si7 0.294395 0.078251 0.785077
Si Si8 0.889698 0.968789 0.409052
O O1 0.500000 0.500000 0.739095
O O2 0.572686 0.680431 0.707250
O O3 0.497332 0.765475 0.824160
O O4 0.551920 0.573812 0.922292
O O5 0.622633 0.076990 0.576562
O O6 0.552076 0.217485 0.632132
O O7 0.599389 0.298273 0.426946
O O8 0.163012 0.898436 0.708753
O O9 0.248722 0.980366 0.787824
O O10 0.212523 0.737261 0.846123
O O11 0.179365 0.008309 0.919800
O O12 0.628273 0.292932 0.045159
O O13 0.696182 0.418716 0.144416
O O14 0.608512 0.520682 0.543120
O O15 0.926836 0.552159 0.827750
O O16 0.000000 0.500000 0.693779
O O17 0.338582 0.005243 0.851418
#
# Coordination Sequence:
#
# PCOD8185611 Si02
#       8
#     8   8   8   8   8   8   8   8
#     4  12  26  45  69 104 142 185 246 295 352 428
#     4  12  23  46  70  97 140 189 232 287 359 420
#     4  11  26  47  73 103 143 180 237 290 355 432
#     4  11  23  46  74  96 141 188 225 288 355 425
#     4  11  27  46  70 105 142 185 237 295 355 428
#     4  12  26  44  72 103 141 192 237 294 356 424
#     4  11  26  46  70 107 138 183 234 289 355 433
#     4  12  26  45  69 105 145 179 235 298 349 425
#
# _framework density 21.791126999999999
#
# number of rings (size 3 to 8) (size 9 to 14) (size 15 to 20)
#    0.000    0.500    5.000    2.625    7.000    3.500 
#    0.000    0.000    0.000    0.000    0.000    0.000 
#    0.000    0.000    0.000    0.000    0.000    0.000 
#
# Total GULP energy -396567.732760 kJ/mol
# GULP energy per Si atom -12392.741649 kJ/mol
# Density = 2.174153 g / cm^3
# Si number density = 21.791127 Si / 1000 Ang^3
#
#
#
# Elastic Constant Matrix: (Units=GPa)
#
#
# Indices 1 2 3 4 5 6 
#
# 1 137.1699 60.8218 43.4870 0.0000 0.0000 0.0000
# 2 60.8218 104.4035 39.7830 0.0000 0.0000 0.0000
# 3 43.4870 39.7830 106.3496 0.0000 0.0000 0.0000
# 4 0.0000 0.0000 0.0000 42.5936 0.0000 0.0000
# 5 0.0000 0.0000 0.0000 0.0000 20.8264 0.0000
# 6 0.0000 0.0000 0.0000 0.0000 0.0000 41.2038
#
#
#
# Elastic Compliance Matrix: (Units=1/GPa)
#
#
# Indices 1 2 3 4 5 6 
#
# 1 0.010287 -0.005120 -0.002291 0.000000 0.000000 0.000000
# 2 -0.005120 0.013718 -0.003038 0.000000 0.000000 0.000000
# 3 -0.002291 -0.003038 0.011476 0.000000 0.000000 0.000000
# 4 0.000000 0.000000 0.000000 0.023478 0.000000 0.000000
# 5 0.000000 0.000000 0.000000 0.000000 0.048016 0.000000
# 6 0.000000 0.000000 0.000000 0.000000 0.000000 0.024270
#
#
# Mechanical properties :
#
#
# Convention : Reuss Voigt Hill
#
# Bulk Modulus (GPa) = 68.57138 70.67853 69.62495
# Shear Modulus (GPa) = 31.84631 34.51350 33.17991
#
# Velocity S-wave (km/s) = 3.82702 3.98406 3.90633
# Velocity P-wave (km/s) = 7.14591 7.32588 7.23645
#
# Compressibility (1/GPa) = 0.01458334
#
# Stress axis : x y z
#
# Youngs Moduli (GPa) = 97.21336 72.89441 87.13546
#
# Poissons Ratio (x) = 0.37319 0.19964
# Poissons Ratio (y) = 0.49769 0.26475
# Poissons Ratio (z) = 0.22273 0.22148
#
# Static dielectric constant tensor:
#      x y z
#    x 4.161960 0.000000 0.000000 
#    y 0.000000 4.045750 0.000000 
#    z 0.000000 0.000000 3.903500 
# 
# 
# High freq. dielectric constant tensor:
#      x y z
#    x 1.870540 0.000000 0.000000 
#    y 0.000000 1.859350 0.000000 
#    z 0.000000 0.000000 1.858740 
# 
# From -- ./inp_files/6687.got.cif
#   From: 2010.03.12/outbox.cif.g09.slc.cpg/sg41_4_cif.got.tgz:6687.got - 2010.04.14 01:55:53.
