data_PCOD8185110
_publ_section_title
;
Structure prediction by ZEFSAII (Michael W. Deem and Ramdas Pophale) SiO2 
 PCOD8185110
Probable space group: A B A 2
;
_chemical_formula_sum "Si O2"
_cell_formula_units_Z 64
_cell_length_a 9.420656
_cell_length_b 13.880566
_cell_length_c 22.822686
_cell_angle_alpha 90.000000
_cell_angle_beta 90.000000
_cell_angle_gamma 90.000000
_cell_volume 2984.386565
_symmetry_space_group_name_H-M "A B A 2"
_symmetry_group_IT_number 41
_symmetry_cell_setting 'orthorhombic'
loop_
_space_group_symop_operation_xyz
x,y,z
-x,-y,z
1/2-x,y,1/2+z
1/2+x,-y,1/2+z
x,1/2+y,1/2+z
-x,1/2-y,1/2+z
1/2-x,1/2+y,z
1/2+x,1/2-y,z
loop_
_atom_site_type_symbol
_atom_site_label
_atom_site_fract_x
_atom_site_fract_y
_atom_site_fract_z
Si Si1 0.242234 0.650949 0.774490
Si Si2 0.639817 0.865329 0.895564
Si Si3 0.527663 0.719089 0.720429
Si Si4 0.651580 0.544465 0.517991
Si Si5 0.461919 0.785994 0.083124
Si Si6 0.756723 0.341558 0.023450
Si Si7 0.355768 0.949582 0.293085
Si Si8 0.169000 0.907504 0.395720
O O1 0.234079 0.679838 0.843313
O O2 0.367179 0.710091 0.743086
O O3 0.094067 0.682737 0.745645
O O4 0.256401 0.534967 0.767483
O O5 0.471919 0.841790 0.886899
O O6 0.646775 0.978965 0.890766
O O7 0.707464 0.822991 0.955041
O O8 0.536189 0.732715 0.651420
O O9 0.614353 0.624311 0.740444
O O10 0.500000 0.500000 0.495521
O O11 0.624428 0.614655 0.572454
O O12 0.752323 0.456385 0.536572
O O13 0.718047 0.606826 0.463842
O O14 0.392314 0.700820 0.044758
O O15 0.623038 0.792398 0.062579
O O16 0.287833 0.885969 0.346251
O O17 0.500000 0.000000 0.316599
#
# Coordination Sequence:
#
# PCOD8185110 Si02
#       8
#     8   8   8   8   8   8   8   8
#     4  10  23  39  59  86 119 157 200 254 308 364
#     4   9  17  34  61  89 115 147 195 246 302 365
#     4  11  24  40  56  85 122 161 206 247 300 363
#     4   9  17  36  62  87 108 156 199 236 300 369
#     4  11  22  38  61  84 116 160 204 246 292 362
#     4  10  21  38  61  89 115 149 201 252 302 360
#     4   9  21  38  59  87 122 160 200 252 311 364
#     4   9  14  33  61  87 117 144 194 245 297 365
#
# _framework density 21.444942999999999
#
# number of rings (size 3 to 8) (size 9 to 14) (size 15 to 20)
#    0.000    2.250    3.750    0.750    1.750    7.500 
#    0.000    4.375    0.000    3.000    0.000    0.000 
#    0.000    0.000    0.000    0.000    0.000    0.000 
#
# Total GULP energy -396576.232603 kJ/mol
# GULP energy per Si atom -12393.007269 kJ/mol
# Density = 2.139613 g / cm^3
# Si number density = 21.444943 Si / 1000 Ang^3
#
#
#
# Elastic Constant Matrix: (Units=GPa)
#
#
# Indices 1 2 3 4 5 6 
#
# 1 46.5747 11.5584 28.1634 0.0000 0.0000 0.0000
# 2 11.5584 39.2818 6.9401 0.0000 0.0000 0.0000
# 3 28.1634 6.9401 142.7644 0.0000 0.0000 0.0000
# 4 0.0000 0.0000 0.0000 11.5107 0.0000 0.0000
# 5 0.0000 0.0000 0.0000 0.0000 32.8102 0.0000
# 6 0.0000 0.0000 0.0000 0.0000 0.0000 51.7739
#
#
#
# Elastic Compliance Matrix: (Units=1/GPa)
#
#
# Indices 1 2 3 4 5 6 
#
# 1 0.026074 -0.006822 -0.004812 0.000000 0.000000 0.000000
# 2 -0.006822 0.027462 0.000011 0.000000 0.000000 0.000000
# 3 -0.004812 0.000011 0.007953 0.000000 0.000000 0.000000
# 4 0.000000 0.000000 0.000000 0.086876 0.000000 0.000000
# 5 0.000000 0.000000 0.000000 0.000000 0.030478 0.000000
# 6 0.000000 0.000000 0.000000 0.000000 0.000000 0.019315
#
#
# Mechanical properties :
#
#
# Convention : Reuss Voigt Hill
#
# Bulk Modulus (GPa) = 26.14840 35.77165 30.96003
# Shear Modulus (GPa) = 21.35365 31.34956 26.35161
#
# Velocity S-wave (km/s) = 3.15896 3.82758 3.50923
# Velocity P-wave (km/s) = 5.05224 6.02086 5.55769
#
# Compressibility (1/GPa) = 0.03824326
#
# Stress axis : x y z
#
# Youngs Moduli (GPa) = 38.35298 36.41333 125.73412
#
# Poissons Ratio (x) = 0.24841 0.60503
# Poissons Ratio (y) = 0.26164 -0.00135
# Poissons Ratio (z) = 0.18455 -0.00039
#
# Static dielectric constant tensor:
#      x y z
#    x 3.940410 0.000000 0.000000 
#    y 0.000000 3.834060 0.000000 
#    z 0.000000 0.000000 3.951440 
# 
# 
# High freq. dielectric constant tensor:
#      x y z
#    x 1.822660 0.000000 0.000000 
#    y 0.000000 1.833920 0.000000 
#    z 0.000000 0.000000 1.839340 
# 
# From -- ./inp_files/12014.got.cif
#   From: 2010.03.12/outbox.cif.g09.slc.cpg/sg41_7_cif.got.tgz:12014.got - 2010.04.14 01:55:53.
