data_PCOD8185745
_publ_section_title
;
Structure prediction by ZEFSAII (Michael W. Deem and Ramdas Pophale) SiO2 
 PCOD8185745
Probable space group: F M M 2
;
_chemical_formula_sum "Si O2"
_cell_formula_units_Z 128
_cell_length_a 17.872110
_cell_length_b 24.836985
_cell_length_c 18.783047
_cell_angle_alpha 90.000000
_cell_angle_beta 90.000000
_cell_angle_gamma 90.000000
_cell_volume 8337.594110
_symmetry_space_group_name_H-M "F M M 2"
_symmetry_group_IT_number 42
_symmetry_cell_setting 'orthorhombic'
loop_
_space_group_symop_operation_xyz
x,y,z
-x,-y,z
-x,y,z
x,-y,z
x,1/2+y,1/2+z
-x,1/2-y,1/2+z
-x,1/2+y,1/2+z
x,1/2-y,1/2+z
1/2+x,y,1/2+z
1/2-x,-y,1/2+z
1/2-x,y,1/2+z
1/2+x,-y,1/2+z
1/2+x,1/2+y,z
1/2-x,1/2-y,z
1/2-x,1/2+y,z
1/2+x,1/2-y,z
loop_
_atom_site_type_symbol
_atom_site_label
_atom_site_fract_x
_atom_site_fract_y
_atom_site_fract_z
Si Si1 0.583825 0.236941 0.558140
Si Si2 0.305779 0.699943 0.648164
Si Si3 0.730052 0.188866 0.914635
Si Si4 0.083090 0.437831 0.515327
Si Si5 0.698177 0.643898 0.054714
Si Si6 0.651808 0.168837 0.304207
Si Si7 0.086025 0.059711 0.849617
Si Si8 0.581547 0.262857 0.394990
O O1 0.500000 0.232565 0.590573
O O2 0.626498 0.287432 0.593715
O O3 0.631746 0.184496 0.573332
O O4 0.578728 0.240652 0.474033
O O5 0.250000 0.750000 0.655701
O O6 0.260106 0.648647 0.616882
O O7 0.341458 0.685658 0.722989
O O8 0.750000 0.250000 0.936243
O O9 0.767837 0.169590 0.841958
O O10 0.641659 0.188211 0.894792
O O11 0.757650 0.152579 0.980147
O O12 0.084768 0.500000 0.534056
O O13 0.154153 0.412486 0.556131
O O14 0.095764 0.426533 0.432317
O O15 0.000000 0.414960 0.536578
O O16 0.622916 0.107597 0.304837
O O17 0.599477 0.212296 0.343806
O O18 0.000000 0.057922 0.828175
O O19 0.120798 0.000000 0.833009
O O20 0.500000 0.285860 0.372720
#
# Coordination Sequence:
#
# PCOD8185745 Si02
#       8
#    16  16  16  16  16  16  16  16
#     4  10  18  28  44  65  91 124 158 187 222 276
#     4  10  21  32  43  66  99 124 156 194 233 280
#     4  10  16  28  45  65  87 120 157 186 218 272
#     4   9  17  29  48  76  99 116 153 201 236 275
#     4  11  16  30  47  64  92 129 153 185 238 279
#     4  11  19  30  48  68  91 127 158 188 235 283
#     4   9  17  29  46  70  97 120 149 193 237 278
#     4  10  18  28  45  67  90 120 160 191 219 271
#
# _framework density 15.35215
#
# number of rings (size 3 to 8) (size 9 to 14) (size 15 to 20)
#    0.000    2.000    5.000    3.000    0.000    3.000 
#    0.000    0.625    0.000    0.750    0.000    0.000 
#    0.000    3.000    0.000    0.000    0.000    0.250 
#
# Total GULP energy -396484.109672 kJ/mol
# GULP energy per Si atom -12390.128427 kJ/mol
# Density = 1.531721 g / cm^3
# Si number density = 15.352150 Si / 1000 Ang^3
#
#
#
# Elastic Constant Matrix: (Units=GPa)
#
#
# Indices 1 2 3 4 5 6 
#
# 1 116.5802 37.5950 35.6900 0.0000 0.0000 0.0000
# 2 37.5950 54.4782 27.3620 0.0000 0.0000 0.0000
# 3 35.6900 27.3620 78.0980 0.0000 0.0000 0.0000
# 4 0.0000 0.0000 0.0000 13.6760 0.0000 0.0000
# 5 0.0000 0.0000 0.0000 0.0000 9.8896 0.0000
# 6 0.0000 0.0000 0.0000 0.0000 0.0000 25.0044
#
#
#
# Elastic Compliance Matrix: (Units=1/GPa)
#
#
# Indices 1 2 3 4 5 6 
#
# 1 0.011595 -0.006480 -0.003028 0.000000 0.000000 0.000000
# 2 -0.006480 0.025898 -0.006112 0.000000 0.000000 0.000000
# 3 -0.003028 -0.006112 0.016330 0.000000 0.000000 0.000000
# 4 0.000000 0.000000 0.000000 0.073121 0.000000 0.000000
# 5 0.000000 0.000000 0.000000 0.000000 0.101117 0.000000
# 6 0.000000 0.000000 0.000000 0.000000 0.000000 0.039993
#
#
# Mechanical properties :
#
#
# Convention : Reuss Voigt Hill
#
# Bulk Modulus (GPa) = 44.28505 50.05004 47.16754
# Shear Modulus (GPa) = 16.29615 19.61462 17.95538
#
# Velocity S-wave (km/s) = 3.26159 3.57830 3.42360
# Velocity P-wave (km/s) = 6.56450 7.05297 6.81311
#
# Compressibility (1/GPa) = 0.02258099
#
# Stress axis : x y z
#
# Youngs Moduli (GPa) = 86.24643 38.61326 61.23848
#
# Poissons Ratio (x) = 0.25023 0.18544
# Poissons Ratio (y) = 0.55892 0.37428
# Poissons Ratio (z) = 0.26117 0.23600
#
# Static dielectric constant tensor:
#      x y z
#    x 3.577240 0.000000 0.000000 
#    y 0.000000 2.773190 0.000000 
#    z 0.000000 0.000000 2.770350 
# 
# 
# High freq. dielectric constant tensor:
#      x y z
#    x 1.598000 0.000000 0.000000 
#    y 0.000000 1.553770 0.000000 
#    z 0.000000 0.000000 1.568120 
# 
# From -- ./inp_files/21213.got.cif
#   From: 2010.03.12/outbox.cif.g09.slc.cpg/sg42_11_cif.got.tgz:21213.got - 2010.04.14 02:04:31.
