data_PCOD8185264
_publ_section_title
;
Structure prediction by ZEFSAII (Michael W. Deem and Ramdas Pophale) SiO2 
 PCOD8185264
Probable space group: A B A 2
;
_chemical_formula_sum "Si O2"
_cell_formula_units_Z 48
_cell_length_a 10.700312
_cell_length_b 25.483253
_cell_length_c 8.473012
_cell_angle_alpha 90.000000
_cell_angle_beta 90.000000
_cell_angle_gamma 90.000000
_cell_volume 2310.410388
_symmetry_space_group_name_H-M "A B A 2"
_symmetry_group_IT_number 41
_symmetry_cell_setting 'orthorhombic'
loop_
_space_group_symop_operation_xyz
x,y,z
-x,-y,z
1/2-x,y,1/2+z
1/2+x,-y,1/2+z
x,1/2+y,1/2+z
-x,1/2-y,1/2+z
1/2-x,1/2+y,z
1/2+x,1/2-y,z
loop_
_atom_site_type_symbol
_atom_site_label
_atom_site_fract_x
_atom_site_fract_y
_atom_site_fract_z
Si Si1 0.132856 0.227187 0.805710
Si Si2 0.309856 0.001494 0.946580
Si Si3 0.403631 0.456733 0.749536
Si Si4 0.115238 0.760160 0.960214
Si Si5 0.504165 0.364679 0.940675
Si Si6 0.093982 0.044748 0.143743
O O1 0.129109 0.226362 0.617349
O O2 0.262491 0.253196 0.854485
O O3 0.124013 0.167412 0.872349
O O4 0.010477 0.259294 0.868619
O O5 0.392450 0.039597 0.833870
O O6 0.230335 0.963927 0.832334
O O7 0.227291 0.038725 0.058327
O O8 0.391988 0.963557 0.059609
O O9 0.500000 0.500000 0.815246
O O10 0.455407 0.399803 0.794810
O O11 0.101969 0.822872 0.994339
O O12 0.538857 0.398761 0.094927
O O13 0.000000 0.000000 0.082250
#
# Coordination Sequence:
#
# PCOD8185264 Si02
#       6
#     8   8   8   8   8   8
#     4  10  23  45  69  98 136 183 233 305 352 415
#     4  10  22  34  68  86 144 174 210 278 328 400
#     4  11  20  43  59 101 137 172 222 275 335 423
#     4  10  23  45  69  98 136 183 233 305 352 415
#     4  10  23  40  72  92 142 182 225 288 356 418
#     4  11  20  43  59 101 137 172 222 275 335 423
#
# _framework density 20.77553
#
# number of rings (size 3 to 8) (size 9 to 14) (size 15 to 20)
#    1.000    0.667    3.333    1.500    0.000    2.667 
#    0.000    0.000    0.000    0.000    0.000    0.000 
#    0.000    0.000    0.000    0.000    0.000    0.000 
#
# Total GULP energy -297440.932830 kJ/mol
# GULP energy per Si atom -12393.372201 kJ/mol
# Density = 2.072824 g / cm^3
# Si number density = 20.775530 Si / 1000 Ang^3
#
#
#
# Elastic Constant Matrix: (Units=GPa)
#
#
# Indices 1 2 3 4 5 6 
#
# 1 91.8889 16.2700 27.5668 0.0000 0.0000 0.0000
# 2 16.2700 88.8452 11.4553 0.0000 0.0000 0.0000
# 3 27.5668 11.4553 124.1770 0.0000 0.0000 0.0000
# 4 0.0000 0.0000 0.0000 23.5646 0.0000 0.0000
# 5 0.0000 0.0000 0.0000 0.0000 42.3751 0.0000
# 6 0.0000 0.0000 0.0000 0.0000 0.0000 35.2583
#
#
#
# Elastic Compliance Matrix: (Units=1/GPa)
#
#
# Indices 1 2 3 4 5 6 
#
# 1 0.011958 -0.001870 -0.002482 0.000000 0.000000 0.000000
# 2 -0.001870 0.011683 -0.000663 0.000000 0.000000 0.000000
# 3 -0.002482 -0.000663 0.008665 0.000000 0.000000 0.000000
# 4 0.000000 0.000000 0.000000 0.042436 0.000000 0.000000
# 5 0.000000 0.000000 0.000000 0.000000 0.023599 0.000000
# 6 0.000000 0.000000 0.000000 0.000000 0.000000 0.028362
#
#
# Mechanical properties :
#
#
# Convention : Reuss Voigt Hill
#
# Bulk Modulus (GPa) = 44.88840 46.16615 45.52727
# Shear Modulus (GPa) = 34.68372 36.88087 35.78230
#
# Velocity S-wave (km/s) = 4.09032 4.21789 4.15460
# Velocity P-wave (km/s) = 6.63031 6.78163 6.70639
#
# Compressibility (1/GPa) = 0.02227747
#
# Stress axis : x y z
#
# Youngs Moduli (GPa) = 83.62283 85.59152 115.40415
#
# Poissons Ratio (x) = 0.16004 0.28646
# Poissons Ratio (y) = 0.15636 0.07648
# Poissons Ratio (z) = 0.20757 0.05672
#
# Static dielectric constant tensor:
#      x y z
#    x 3.861770 0.000000 0.000000 
#    y 0.000000 3.396750 0.000000 
#    z 0.000000 0.000000 3.832400 
# 
# 
# High freq. dielectric constant tensor:
#      x y z
#    x 1.817050 0.000000 0.000000 
#    y 0.000000 1.776680 0.000000 
#    z 0.000000 0.000000 1.825320 
# 
# From -- ./inp_files/2129.got.cif
#   From: 2010.03.12/outbox.cif.g09.slc.cpg/sg41_2_cif.got.tgz:2129.got - 2010.04.14 01:55:53.
