data_PCOD8185219
_publ_section_title
;
Structure prediction by ZEFSAII (Michael W. Deem and Ramdas Pophale) SiO2 
 PCOD8185219
Probable space group: A B A 2
;
_chemical_formula_sum "Si O2"
_cell_formula_units_Z 48
_cell_length_a 22.652823
_cell_length_b 12.303947
_cell_length_c 8.091631
_cell_angle_alpha 90.000000
_cell_angle_beta 90.000000
_cell_angle_gamma 90.000000
_cell_volume 2255.292382
_symmetry_space_group_name_H-M "A B A 2"
_symmetry_group_IT_number 41
_symmetry_cell_setting 'orthorhombic'
loop_
_space_group_symop_operation_xyz
x,y,z
-x,-y,z
1/2-x,y,1/2+z
1/2+x,-y,1/2+z
x,1/2+y,1/2+z
-x,1/2-y,1/2+z
1/2-x,1/2+y,z
1/2+x,1/2-y,z
loop_
_atom_site_type_symbol
_atom_site_label
_atom_site_fract_x
_atom_site_fract_y
_atom_site_fract_z
Si Si1 0.066931 0.990635 0.008130
Si Si2 0.271263 0.592161 0.465329
Si Si3 0.572247 0.273986 0.904980
Si Si4 0.024724 0.883812 0.687531
Si Si5 0.182979 0.959866 0.171804
Si Si6 0.305178 0.732048 0.749190
O O1 0.113352 0.938406 0.134433
O O2 0.068308 0.919478 0.838299
O O3 0.000000 0.000000 0.078653
O O4 0.089488 0.113507 0.991344
O O5 0.214635 0.525264 0.526297
O O6 0.312522 0.521855 0.346301
O O7 0.311962 0.635039 0.615112
O O8 0.244523 0.698256 0.378854
O O9 0.523075 0.300049 0.765506
O O10 0.632130 0.233579 0.823501
O O11 0.554185 0.181003 0.037029
O O12 0.000000 0.000000 0.619919
O O13 0.217397 0.845438 0.173689
#
# Coordination Sequence:
#
# PCOD8185219 Si02
#       6
#     8   8   8   8   8   8
#     4   9  21  41  63  92 130 162 206 261 316 375
#     4  10  24  44  61  90 130 161 217 267 317 377
#     4  10  21  42  64  89 126 165 205 259 319 378
#     4   9  22  42  61  90 129 163 207 258 314 390
#     4  11  22  42  66  94 123 172 212 265 317 384
#     4  11  23  41  63  91 120 165 209 260 323 376
#
# _framework density 21.283270999999999
#
# number of rings (size 3 to 8) (size 9 to 14) (size 15 to 20)
#    0.000    2.333    1.667    1.000    4.667    4.000 
#    6.000    0.000    0.000    0.000    0.000    0.000 
#    0.000    0.000    0.000    0.000    0.000    0.000 
#
# Total GULP energy -297395.747515 kJ/mol
# GULP energy per Si atom -12391.489480 kJ/mol
# Density = 2.123483 g / cm^3
# Si number density = 21.283271 Si / 1000 Ang^3
#
#
#
# Elastic Constant Matrix: (Units=GPa)
#
#
# Indices 1 2 3 4 5 6 
#
# 1 92.7670 30.7306 50.3886 0.0000 0.0000 0.0000
# 2 30.7306 100.5413 30.8630 0.0000 0.0000 0.0000
# 3 50.3886 30.8630 82.1855 0.0000 0.0000 0.0000
# 4 0.0000 0.0000 0.0000 11.2966 0.0000 0.0000
# 5 0.0000 0.0000 0.0000 0.0000 21.8792 0.0000
# 6 0.0000 0.0000 0.0000 0.0000 0.0000 17.5923
#
#
#
# Elastic Compliance Matrix: (Units=1/GPa)
#
#
# Indices 1 2 3 4 5 6 
#
# 1 0.016582 -0.002201 -0.009340 0.000000 0.000000 0.000000
# 2 -0.002201 0.011534 -0.002982 0.000000 0.000000 0.000000
# 3 -0.009340 -0.002982 0.019014 0.000000 0.000000 0.000000
# 4 0.000000 0.000000 0.000000 0.088522 0.000000 0.000000
# 5 0.000000 0.000000 0.000000 0.000000 0.045706 0.000000
# 6 0.000000 0.000000 0.000000 0.000000 0.000000 0.056843
#
#
# Mechanical properties :
#
#
# Convention : Reuss Voigt Hill
#
# Bulk Modulus (GPa) = 55.29745 55.49533 55.39639
# Shear Modulus (GPa) = 18.29657 21.05439 19.67548
#
# Velocity S-wave (km/s) = 2.93519 3.14864 3.04379
# Velocity P-wave (km/s) = 6.12578 6.27294 6.19980
#
# Compressibility (1/GPa) = 0.01808402
#
# Stress axis : x y z
#
# Youngs Moduli (GPa) = 60.30581 86.69783 52.59334
#
# Poissons Ratio (x) = 0.19085 0.49122
# Poissons Ratio (y) = 0.13275 0.15683
# Poissons Ratio (z) = 0.56326 0.25852
#
# Static dielectric constant tensor:
#      x y z
#    x 3.590510 0.000000 0.000000 
#    y 0.000000 3.989870 0.000000 
#    z 0.000000 0.000000 3.735010 
# 
# 
# High freq. dielectric constant tensor:
#      x y z
#    x 1.819710 0.000000 0.000000 
#    y 0.000000 1.854180 0.000000 
#    z 0.000000 0.000000 1.826640 
# 
# From -- ./inp_files/3619.got.cif
#   From: 2010.03.12/outbox.cif.g09.slc.cpg/sg41_2_cif.got.tgz:3619.got - 2010.04.14 01:55:53.
