data_PCOD8185790
_publ_section_title
;
Structure prediction by ZEFSAII (Michael W. Deem and Ramdas Pophale) SiO2 
 PCOD8185790
Probable space group: F M M 2
;
_chemical_formula_sum "Si O2"
_cell_formula_units_Z 128
_cell_length_a 19.663331
_cell_length_b 18.298465
_cell_length_c 19.911861
_cell_angle_alpha 90.000000
_cell_angle_beta 90.000000
_cell_angle_gamma 90.000000
_cell_volume 7164.462296
_symmetry_space_group_name_H-M "F M M 2"
_symmetry_group_IT_number 42
_symmetry_cell_setting 'orthorhombic'
loop_
_space_group_symop_operation_xyz
x,y,z
-x,-y,z
-x,y,z
x,-y,z
x,1/2+y,1/2+z
-x,1/2-y,1/2+z
-x,1/2+y,1/2+z
x,1/2-y,1/2+z
1/2+x,y,1/2+z
1/2-x,-y,1/2+z
1/2-x,y,1/2+z
1/2+x,-y,1/2+z
1/2+x,1/2+y,z
1/2-x,1/2-y,z
1/2-x,1/2+y,z
1/2+x,1/2-y,z
loop_
_atom_site_type_symbol
_atom_site_label
_atom_site_fract_x
_atom_site_fract_y
_atom_site_fract_z
Si Si1 0.420893 0.916470 0.143970
Si Si2 0.153369 0.177757 0.534906
Si Si3 0.186443 0.083997 0.750672
Si Si4 0.314314 0.161056 0.530864
Si Si5 0.200409 0.082038 0.897508
Si Si6 0.639114 0.082525 0.912663
Si Si7 0.815641 0.086575 0.169538
Si Si8 0.575576 0.086859 0.774811
O O1 0.500000 0.896532 0.148913
O O2 0.381778 0.858738 0.098531
O O3 0.387702 0.908310 0.217559
O O4 0.410175 0.000000 0.117796
O O5 0.233716 0.168266 0.535105
O O6 0.141756 0.264626 0.534454
O O7 0.118720 0.138304 0.471365
O O8 0.182834 0.119850 0.825268
O O9 0.244741 0.117671 0.701241
O O10 0.207613 0.000000 0.762677
O O11 0.333840 0.125067 0.459424
O O12 0.333584 0.112778 0.594923
O O13 0.280975 0.082010 0.902631
O O14 0.171228 0.000000 0.901320
O O15 0.602869 0.113643 0.846571
O O16 0.614114 0.000000 0.930316
O O17 0.876084 0.116895 0.216306
O O18 0.812227 0.000000 0.166343
O O19 0.500000 0.117953 0.763066
O O20 0.576442 0.000000 0.773770
#
# Coordination Sequence:
#
# PCOD8185790 Si02
#       8
#    16  16  16  16  16  16  16  16
#     4  10  20  34  55  81 106 137 176 222 277 326
#     4  10  20  33  48  72 109 139 172 217 259 318
#     4   9  16  29  52  78 104 133 172 222 268 310
#     4  10  20  32  50  74 106 141 176 214 261 312
#     4   9  16  29  51  78 102 130 170 216 263 310
#     4   9  16  28  48  72 100 134 168 208 264 320
#     4  10  17  30  53  78 103 137 177 219 263 310
#     4   9  17  29  48  76 105 131 167 217 267 314
#
# _framework density 17.865960999999999
#
# number of rings (size 3 to 8) (size 9 to 14) (size 15 to 20)
#    0.000    2.500    2.500    0.750    0.000    1.500 
#    0.000    3.125    2.750    1.500    0.000    3.500 
#    0.000    0.000    0.000    0.000    0.000    0.000 
#
# Total GULP energy -396597.154079 kJ/mol
# GULP energy per Si atom -12393.661065 kJ/mol
# Density = 1.782530 g / cm^3
# Si number density = 17.865961 Si / 1000 Ang^3
#
#
#
# Elastic Constant Matrix: (Units=GPa)
#
#
# Indices 1 2 3 4 5 6 
#
# 1 52.6156 28.3743 38.1944 0.0000 0.0000 0.0000
# 2 28.3743 66.1783 51.5423 0.0000 0.0000 0.0000
# 3 38.1944 51.5423 157.3537 0.0000 0.0000 0.0000
# 4 0.0000 0.0000 0.0000 1.4149 0.0000 0.0000
# 5 0.0000 0.0000 0.0000 0.0000 18.3915 0.0000
# 6 0.0000 0.0000 0.0000 0.0000 0.0000 13.0337
#
#
#
# Elastic Compliance Matrix: (Units=1/GPa)
#
#
# Indices 1 2 3 4 5 6 
#
# 1 0.026151 -0.008415 -0.003591 0.000000 0.000000 0.000000
# 2 -0.008415 0.022994 -0.005489 0.000000 0.000000 0.000000
# 3 -0.003591 -0.005489 0.009025 0.000000 0.000000 0.000000
# 4 0.000000 0.000000 0.000000 0.706784 0.000000 0.000000
# 5 0.000000 0.000000 0.000000 0.000000 0.054373 0.000000
# 6 0.000000 0.000000 0.000000 0.000000 0.000000 0.076724
#
#
# Mechanical properties :
#
#
# Convention : Reuss Voigt Hill
#
# Bulk Modulus (GPa) = 43.14379 56.92993 50.03686
# Shear Modulus (GPa) = 5.32613 17.10380 11.21497
#
# Velocity S-wave (km/s) = 1.72848 3.09745 2.50817
# Velocity P-wave (km/s) = 5.30891 6.68778 6.03784
#
# Compressibility (1/GPa) = 0.02317830
#
# Stress axis : x y z
#
# Youngs Moduli (GPa) = 38.23973 43.48946 110.80614
#
# Poissons Ratio (x) = 0.36598 0.39791
# Poissons Ratio (y) = 0.32181 0.60823
# Poissons Ratio (z) = 0.13732 0.23872
#
# Static dielectric constant tensor:
#      x y z
#    x 3.134150 0.000000 0.000000 
#    y 0.000000 3.139590 0.000000 
#    z 0.000000 0.000000 3.534160 
# 
# 
# High freq. dielectric constant tensor:
#      x y z
#    x 1.662420 0.000000 0.000000 
#    y 0.000000 1.655010 0.000000 
#    z 0.000000 0.000000 1.706910 
# 
# From -- ./inp_files/26626.got.cif
#   From: 2010.03.12/outbox.cif.g09.slc.cpg/sg42_14_cif.got.tgz:26626.got - 2010.04.14 02:04:31.
