data_PCOD8185833
_publ_section_title
;
Structure prediction by ZEFSAII (Michael W. Deem and Ramdas Pophale) SiO2 
 PCOD8185833
Probable space group: F M M 2
;
_chemical_formula_sum "Si O2"
_cell_formula_units_Z 80
_cell_length_a 20.901525
_cell_length_b 16.434875
_cell_length_c 12.608725
_cell_angle_alpha 90.000000
_cell_angle_beta 90.000000
_cell_angle_gamma 90.000000
_cell_volume 4331.272938
_symmetry_space_group_name_H-M "F M M 2"
_symmetry_group_IT_number 42
_symmetry_cell_setting 'orthorhombic'
loop_
_space_group_symop_operation_xyz
x,y,z
-x,-y,z
-x,y,z
x,-y,z
x,1/2+y,1/2+z
-x,1/2-y,1/2+z
-x,1/2+y,1/2+z
x,1/2-y,1/2+z
1/2+x,y,1/2+z
1/2-x,-y,1/2+z
1/2-x,y,1/2+z
1/2+x,-y,1/2+z
1/2+x,1/2+y,z
1/2-x,1/2-y,z
1/2-x,1/2+y,z
1/2+x,1/2-y,z
loop_
_atom_site_type_symbol
_atom_site_label
_atom_site_fract_x
_atom_site_fract_y
_atom_site_fract_z
Si Si1 0.840389 0.407151 0.497940
Si Si2 0.215893 0.164596 0.191506
Si Si3 0.215893 0.164596 0.427716
Si Si4 0.159612 0.407152 0.121282
Si Si5 0.072433 0.402923 0.309611
O O1 0.857085 0.500000 0.526201
O O2 0.840435 0.353605 0.606510
O O3 0.770681 0.403742 0.442338
O O4 0.892364 0.370149 0.415677
O O5 0.250000 0.250000 0.167512
O O6 0.186597 0.161511 0.309611
O O7 0.270681 0.096258 0.176883
O O8 0.250000 0.250000 0.451711
O O9 0.159565 0.146394 0.512712
O O10 0.142915 0.500000 0.093022
O O11 0.107637 0.370149 0.203545
O O12 0.076370 0.500000 0.309612
O O13 0.000000 0.370668 0.309609
#
# Coordination Sequence:
#
# PCOD8185833 Si02
#       5
#    16  16  16  16  16
#     4  10  18  29  48  72  97 123 161 203 238 287
#     4  10  19  30  46  72 102 132 150 190 250 300
#     4  10  19  30  46  72 102 132 150 190 250 300
#     4  10  18  29  48  72  97 123 161 203 238 287
#     4   9  18  32  49  70  96 128 165 204 244 283
#
# _framework density 18.470320999999998
#
# number of rings (size 3 to 8) (size 9 to 14) (size 15 to 20)
#    0.000    2.200    2.000    4.800    0.000    2.400 
#    0.000    0.000    0.000    6.000    0.000    5.600 
#    0.000    0.000    0.000    0.000    0.000    0.000 
#
# Total GULP energy -247859.362348 kJ/mol
# GULP energy per Si atom -12392.968117 kJ/mol
# Density = 1.842828 g / cm^3
# Si number density = 18.470321 Si / 1000 Ang^3
#
#
#
# Elastic Constant Matrix: (Units=GPa)
#
#
# Indices 1 2 3 4 5 6 
#
# 1 87.7715 8.8616 70.0873 0.0000 0.0000 0.0000
# 2 8.8616 57.5730 49.1900 0.0000 0.0000 0.0000
# 3 70.0873 49.1900 219.4242 0.0000 0.0000 0.0000
# 4 0.0000 0.0000 0.0000 29.0679 0.0000 0.0000
# 5 0.0000 0.0000 0.0000 0.0000 27.0328 0.0000
# 6 0.0000 0.0000 0.0000 0.0000 0.0000 10.9079
#
#
#
# Elastic Compliance Matrix: (Units=1/GPa)
#
#
# Indices 1 2 3 4 5 6 
#
# 1 0.015534 0.002286 -0.005474 0.000000 0.000000 0.000000
# 2 0.002286 0.021821 -0.005622 0.000000 0.000000 0.000000
# 3 -0.005474 -0.005622 0.007566 0.000000 0.000000 0.000000
# 4 0.000000 0.000000 0.000000 0.034402 0.000000 0.000000
# 5 0.000000 0.000000 0.000000 0.000000 0.036992 0.000000
# 6 0.000000 0.000000 0.000000 0.000000 0.000000 0.091677
#
#
# Mechanical properties :
#
#
# Convention : Reuss Voigt Hill
#
# Bulk Modulus (GPa) = 36.62911 69.00517 52.81714
# Shear Modulus (GPa) = 21.30269 29.17703 25.23986
#
# Velocity S-wave (km/s) = 3.39978 3.97882 3.70064
# Velocity P-wave (km/s) = 5.94018 7.65174 6.84963
#
# Compressibility (1/GPa) = 0.02730069
#
# Stress axis : x y z
#
# Youngs Moduli (GPa) = 64.37637 45.82796 132.16615
#
# Poissons Ratio (x) = -0.10477 0.72350
# Poissons Ratio (y) = -0.14718 0.74303
# Poissons Ratio (z) = 0.35241 0.25764
#
# Static dielectric constant tensor:
#      x y z
#    x 3.078850 0.000000 0.000000 
#    y 0.000000 3.263550 0.000000 
#    z 0.000000 0.000000 3.766970 
# 
# 
# High freq. dielectric constant tensor:
#      x y z
#    x 1.649670 0.000000 0.000000 
#    y 0.000000 1.703730 0.000000 
#    z 0.000000 0.000000 1.737110 
# 
# From -- ./inp_files/16595.got.cif
#   From: 2010.03.12/outbox.cif.g09.slc.cpg/sg42_9_cif.got.tgz:16595.got - 2010.04.14 02:04:31.
