data_PCOD8185081
_publ_section_title
;
Structure prediction by ZEFSAII (Michael W. Deem and Ramdas Pophale) SiO2 
 PCOD8185081
Probable space group: A B A 2
;
_chemical_formula_sum "Si O2"
_cell_formula_units_Z 64
_cell_length_a 20.797995
_cell_length_b 16.416699
_cell_length_c 9.426480
_cell_angle_alpha 90.000000
_cell_angle_beta 90.000000
_cell_angle_gamma 90.000000
_cell_volume 3218.524766
_symmetry_space_group_name_H-M "A B A 2"
_symmetry_group_IT_number 41
_symmetry_cell_setting 'orthorhombic'
loop_
_space_group_symop_operation_xyz
x,y,z
-x,-y,z
1/2-x,y,1/2+z
1/2+x,-y,1/2+z
x,1/2+y,1/2+z
-x,1/2-y,1/2+z
1/2-x,1/2+y,z
1/2+x,1/2-y,z
loop_
_atom_site_type_symbol
_atom_site_label
_atom_site_fract_x
_atom_site_fract_y
_atom_site_fract_z
Si Si1 0.466344 0.153096 0.819990
Si Si2 0.870127 0.241422 0.953220
Si Si3 0.391155 0.370935 0.227163
Si Si4 0.316597 0.887791 0.267530
Si Si5 0.071218 0.534497 0.603892
Si Si6 0.424368 0.011919 0.291801
Si Si7 0.797999 0.575627 0.950823
Si Si8 0.376478 0.583544 0.520189
O O1 0.439409 0.240712 0.874887
O O2 0.542072 0.156117 0.798875
O O3 0.428606 0.123134 0.677854
O O4 0.444657 0.083734 0.934669
O O5 0.822854 0.201791 0.836914
O O6 0.840631 0.329228 0.998468
O O7 0.878573 0.184745 0.090442
O O8 0.386070 0.465577 0.180644
O O9 0.338572 0.361849 0.351683
O O10 0.388134 0.925963 0.268849
O O11 0.269670 0.938914 0.371603
O O12 0.288928 0.883848 0.106948
O O13 0.093800 0.548317 0.444030
O O14 0.000000 0.500000 0.605120
O O15 0.500000 0.000000 0.268649
O O16 0.394814 0.076622 0.183992
O O17 0.831008 0.488175 0.966994
#
# Coordination Sequence:
#
# PCOD8185081 Si02
#       8
#     8   8   8   8   8   8   8   8
#     4   9  21  35  61  91 132 165 206 258 325 367
#     4  10  22  41  58  90 135 160 204 273 319 386
#     4  11  19  37  64  90 129 172 210 258 319 393
#     4  11  24  42  65  94 124 168 219 267 323 392
#     4   9  17  34  59  91 122 169 208 252 304 375
#     4  10  21  36  67  95 126 164 219 266 313 383
#     4  11  24  42  69  89 119 175 221 261 317 389
#     4   9  22  40  62  93 131 161 209 266 317 378
#
# _framework density 19.884886000000002
#
# number of rings (size 3 to 8) (size 9 to 14) (size 15 to 20)
#    0.750    1.250    2.500    0.750    3.500    2.000 
#    2.250    5.000    0.000    0.000    0.000    0.000 
#    0.000    0.000    0.000    0.000    0.000    0.000 
#
# Total GULP energy -396459.207974 kJ/mol
# GULP energy per Si atom -12389.350249 kJ/mol
# Density = 1.983963 g / cm^3
# Si number density = 19.884886 Si / 1000 Ang^3
#
#
#
# Elastic Constant Matrix: (Units=GPa)
#
#
# Indices 1 2 3 4 5 6 
#
# 1 78.2047 29.1244 44.5272 0.0000 0.0000 0.0000
# 2 29.1244 76.7424 47.1227 0.0000 0.0000 0.0000
# 3 44.5272 47.1227 158.4441 0.0000 0.0000 0.0000
# 4 0.0000 0.0000 0.0000 36.3398 0.0000 0.0000
# 5 0.0000 0.0000 0.0000 0.0000 31.9157 0.0000
# 6 0.0000 0.0000 0.0000 0.0000 0.0000 19.0634
#
#
#
# Elastic Compliance Matrix: (Units=1/GPa)
#
#
# Indices 1 2 3 4 5 6 
#
# 1 0.016215 -0.004105 -0.003336 0.000000 0.000000 0.000000
# 2 -0.004105 0.016981 -0.003897 0.000000 0.000000 0.000000
# 3 -0.003336 -0.003897 0.008408 0.000000 0.000000 0.000000
# 4 0.000000 0.000000 0.000000 0.027518 0.000000 0.000000
# 5 0.000000 0.000000 0.000000 0.000000 0.031333 0.000000
# 6 0.000000 0.000000 0.000000 0.000000 0.000000 0.052457
#
#
# Mechanical properties :
#
#
# Convention : Reuss Voigt Hill
#
# Bulk Modulus (GPa) = 52.83099 61.65998 57.24549
# Shear Modulus (GPa) = 27.48806 30.30489 28.89647
#
# Velocity S-wave (km/s) = 3.72204 3.90810 3.81621
# Velocity P-wave (km/s) = 6.71547 7.17218 6.94758
#
# Compressibility (1/GPa) = 0.01892828
#
# Stress axis : x y z
#
# Youngs Moduli (GPa) = 61.67033 58.88807 118.93756
#
# Poissons Ratio (x) = 0.24176 0.39677
# Poissons Ratio (y) = 0.25318 0.46346
# Poissons Ratio (z) = 0.20573 0.22947
#
# Static dielectric constant tensor:
#      x y z
#    x 3.457240 0.000000 0.000000 
#    y 0.000000 3.387890 0.000000 
#    z 0.000000 0.000000 4.019890 
# 
# 
# High freq. dielectric constant tensor:
#      x y z
#    x 1.755110 0.000000 0.000000 
#    y 0.000000 1.748200 0.000000 
#    z 0.000000 0.000000 1.799240 
# 
# From -- ./inp_files/3727.got.cif
#   From: 2010.03.12/outbox.cif.g09.slc.cpg/sg41_2_cif.got.tgz:3727.got - 2010.04.14 01:55:53.
