data_PCOD8185573
_publ_section_title
;
Structure prediction by ZEFSAII (Michael W. Deem and Ramdas Pophale) SiO2 
 PCOD8185573
Probable space group: A B A 2
;
_chemical_formula_sum "Si O2"
_cell_formula_units_Z 44
_cell_length_a 13.979899
_cell_length_b 8.611094
_cell_length_c 16.564615
_cell_angle_alpha 90.000000
_cell_angle_beta 90.000000
_cell_angle_gamma 90.000000
_cell_volume 1994.085200
_symmetry_space_group_name_H-M "A B A 2"
_symmetry_group_IT_number 41
_symmetry_cell_setting 'orthorhombic'
loop_
_space_group_symop_operation_xyz
x,y,z
-x,-y,z
1/2-x,y,1/2+z
1/2+x,-y,1/2+z
x,1/2+y,1/2+z
-x,1/2-y,1/2+z
1/2-x,1/2+y,z
1/2+x,1/2-y,z
loop_
_atom_site_type_symbol
_atom_site_label
_atom_site_fract_x
_atom_site_fract_y
_atom_site_fract_z
Si Si1 0.838215 0.302761 0.348150
Si Si2 0.663209 0.171068 0.085803
Si Si3 0.817599 0.859209 0.662782
Si Si4 0.049903 0.733945 0.028593
Si Si5 0.820585 0.498033 0.936768
Si Si6 0.500000 0.500000 0.922201
O O1 0.813263 0.309273 0.254658
O O2 0.753384 0.374681 0.401385
O O3 0.935300 0.395250 0.364100
O O4 0.852528 0.120907 0.368355
O O5 0.714757 0.322535 0.121710
O O6 0.561981 0.216540 0.047695
O O7 0.656515 0.041356 0.156398
O O8 0.724527 0.096457 0.011654
O O9 0.895949 0.757667 0.614368
O O10 0.087778 0.591564 0.973893
O O11 0.065690 0.891747 0.978673
#
# Coordination Sequence:
#
# PCOD8185573 Si02
#       6
#     8   8   8   8   8   4
#     4  12  25  42  71 103 142 182 235 303 368 420
#     4  11  23  44  70  97 132 190 228 288 349 437
#     4  11  25  43  68  99 144 176 230 294 363 414
#     4  11  26  45  72  97 137 189 242 290 346 440
#     4  11  22  46  68 100 136 184 234 291 353 430
#     4  12  26  42  68 102 134 188 250 290 352 434
#
# _framework density 22.065256000000002
#
# number of rings (size 3 to 8) (size 9 to 14) (size 15 to 20)
#    0.000    0.727    1.818    7.636    5.091    0.000 
#    0.000    0.000    0.000    0.000    0.000    0.000 
#    0.000    0.000    0.000    0.000    0.000    0.000 
#
# Total GULP energy -272785.311933 kJ/mol
# GULP energy per Si atom -12399.332361 kJ/mol
# Density = 2.201503 g / cm^3
# Si number density = 22.065256 Si / 1000 Ang^3
#
#
#
# Elastic Constant Matrix: (Units=GPa)
#
#
# Indices 1 2 3 4 5 6 
#
# 1 102.2442 16.0180 29.2551 0.0000 0.0000 0.0000
# 2 16.0180 77.0422 17.2561 0.0000 0.0000 0.0000
# 3 29.2551 17.2561 123.1017 0.0000 0.0000 0.0000
# 4 0.0000 0.0000 0.0000 27.6794 0.0000 0.0000
# 5 0.0000 0.0000 0.0000 0.0000 10.2525 0.0000
# 6 0.0000 0.0000 0.0000 0.0000 0.0000 33.5000
#
#
#
# Elastic Compliance Matrix: (Units=1/GPa)
#
#
# Indices 1 2 3 4 5 6 
#
# 1 0.010708 -0.001710 -0.002305 0.000000 0.000000 0.000000
# 2 -0.001710 0.013674 -0.001510 0.000000 0.000000 0.000000
# 3 -0.002305 -0.001510 0.008883 0.000000 0.000000 0.000000
# 4 0.000000 0.000000 0.000000 0.036128 0.000000 0.000000
# 5 0.000000 0.000000 0.000000 0.000000 0.097537 0.000000
# 6 0.000000 0.000000 0.000000 0.000000 0.000000 0.029851
#
#
# Mechanical properties :
#
#
# Convention : Reuss Voigt Hill
#
# Bulk Modulus (GPa) = 45.01725 47.49406 46.25566
# Shear Modulus (GPa) = 23.23034 30.27698 26.75366
#
# Velocity S-wave (km/s) = 3.24821 3.70828 3.48584
# Velocity P-wave (km/s) = 5.87486 6.31714 6.10001
#
# Compressibility (1/GPa) = 0.02221371
#
# Stress axis : x y z
#
# Youngs Moduli (GPa) = 93.38858 73.13291 112.57616
#
# Poissons Ratio (x) = 0.12506 0.25949
# Poissons Ratio (y) = 0.15970 0.17003
# Poissons Ratio (z) = 0.21526 0.11046
#
# Static dielectric constant tensor:
#      x y z
#    x 3.810640 0.000000 0.000000 
#    y 0.000000 4.307920 0.000000 
#    z 0.000000 0.000000 4.004440 
# 
# 
# High freq. dielectric constant tensor:
#      x y z
#    x 1.862570 0.000000 0.000000 
#    y 0.000000 1.880090 0.000000 
#    z 0.000000 0.000000 1.864880 
# 
# From -- ./inp_files/10274.got.cif
#   From: 2010.03.12/outbox.cif.g09.slc.cpg/sg41_6_cif.got.tgz:10274.got - 2010.04.14 01:55:53.
