data_PCOD8185684
_publ_section_title
;
Structure prediction by ZEFSAII (Michael W. Deem and Ramdas Pophale) SiO2 
 PCOD8185684
Probable space group: A B A 2
;
_chemical_formula_sum "Si O2"
_cell_formula_units_Z 48
_cell_length_a 10.218890
_cell_length_b 9.488294
_cell_length_c 21.991280
_cell_angle_alpha 90.000000
_cell_angle_beta 90.000000
_cell_angle_gamma 90.000000
_cell_volume 2132.270829
_symmetry_space_group_name_H-M "A B A 2"
_symmetry_group_IT_number 41
_symmetry_cell_setting 'orthorhombic'
loop_
_space_group_symop_operation_xyz
x,y,z
-x,-y,z
1/2-x,y,1/2+z
1/2+x,-y,1/2+z
x,1/2+y,1/2+z
-x,1/2-y,1/2+z
1/2-x,1/2+y,z
1/2+x,1/2-y,z
loop_
_atom_site_type_symbol
_atom_site_label
_atom_site_fract_x
_atom_site_fract_y
_atom_site_fract_z
Si Si1 0.316190 0.318183 0.555880
Si Si2 0.750000 0.854013 0.443553
Si Si3 0.351868 0.543378 0.124529
Si Si4 0.000000 0.500000 0.984745
Si Si5 0.316190 0.318183 0.831225
Si Si6 0.851868 0.456622 0.762576
Si Si7 0.500000 0.000000 0.402360
O O1 0.235410 0.241519 0.502974
O O2 0.237765 0.453770 0.579312
O O3 0.340509 0.209332 0.610391
O O4 0.453221 0.372235 0.528073
O O5 0.735410 0.758481 0.384131
O O6 0.880547 0.950596 0.441298
O O7 0.619453 0.950596 0.445808
O O8 0.500000 0.500000 0.114868
O O9 0.305373 0.518544 0.193553
O O10 0.237765 0.453770 0.807794
O O11 0.453221 0.372235 0.859032
O O12 0.340509 0.209332 0.776714
O O13 0.000000 0.500000 0.772237
#
# Coordination Sequence:
#
# PCOD8185684 Si02
#       7
#     8   8   8   4   8   8   4
#     4  12  25  47  73 107 142 189 240 298 361 429
#     4  12  26  46  76 108 148 188 236 298 368 432
#     4  11  26  47  72 102 141 190 242 298 356 425
#     4  12  26  46  73 114 145 192 236 298 368 440
#     4  12  25  47  73 107 142 189 240 298 361 429
#     4  11  26  47  72 102 141 190 242 298 356 425
#     4  12  26  46  73 114 145 192 236 298 368 440
#
# _framework density 22.511212
#
# number of rings (size 3 to 8) (size 9 to 14) (size 15 to 20)
#    0.000    0.333    3.333    5.000    2.333    0.000 
#    0.000    1.667    0.000    0.000    0.000    0.000 
#    0.000    0.000    0.000    0.000    0.000    0.000 
#
# Total GULP energy -297741.627042 kJ/mol
# GULP energy per Si atom -12405.901127 kJ/mol
# Density = 2.245998 g / cm^3
# Si number density = 22.511212 Si / 1000 Ang^3
#
#
#
# Elastic Constant Matrix: (Units=GPa)
#
#
# Indices 1 2 3 4 5 6 
#
# 1 117.8693 48.2236 42.3928 0.0000 0.0000 0.0000
# 2 48.2236 132.9510 34.3256 0.0000 0.0000 0.0000
# 3 42.3928 34.3256 92.1533 0.0000 0.0000 0.0000
# 4 0.0000 0.0000 0.0000 48.6719 0.0000 0.0000
# 5 0.0000 0.0000 0.0000 0.0000 27.6139 0.0000
# 6 0.0000 0.0000 0.0000 0.0000 0.0000 39.6718
#
#
#
# Elastic Compliance Matrix: (Units=1/GPa)
#
#
# Indices 1 2 3 4 5 6 
#
# 1 0.011159 -0.003012 -0.004012 0.000000 0.000000 0.000000
# 2 -0.003012 0.009135 -0.002017 0.000000 0.000000 0.000000
# 3 -0.004012 -0.002017 0.013448 0.000000 0.000000 0.000000
# 4 0.000000 0.000000 0.000000 0.020546 0.000000 0.000000
# 5 0.000000 0.000000 0.000000 0.000000 0.036214 0.000000
# 6 0.000000 0.000000 0.000000 0.000000 0.000000 0.025207
#
#
# Mechanical properties :
#
#
# Convention : Reuss Voigt Hill
#
# Bulk Modulus (GPa) = 63.85236 65.87306 64.86271
# Shear Modulus (GPa) = 35.96878 37.72696 36.84787
#
# Velocity S-wave (km/s) = 4.00161 4.09824 4.05021
# Velocity P-wave (km/s) = 7.05526 7.19166 7.12379
#
# Compressibility (1/GPa) = 0.01566113
#
# Stress axis : x y z
#
# Youngs Moduli (GPa) = 89.61382 109.47173 74.35931
#
# Poissons Ratio (x) = 0.32971 0.29830
# Poissons Ratio (y) = 0.26990 0.14998
# Poissons Ratio (z) = 0.35949 0.22081
#
# Static dielectric constant tensor:
#      x y z
#    x 3.927900 0.000000 0.000000 
#    y 0.000000 4.264400 0.000000 
#    z 0.000000 0.000000 4.046070 
# 
# 
# High freq. dielectric constant tensor:
#      x y z
#    x 1.886350 0.000000 0.000000 
#    y 0.000000 1.906790 0.000000 
#    z 0.000000 0.000000 1.889460 
# 
# From -- ./inp_files/12129.got.cif
#   From: 2010.03.12/outbox.cif.g09.slc.cpg/sg41_7_cif.got.tgz:12129.got - 2010.04.14 01:55:53.
