data_PCOD8185205
_publ_section_title
;
Structure prediction by ZEFSAII (Michael W. Deem and Ramdas Pophale) SiO2 
 PCOD8185205
Probable space group: A B A 2
;
_chemical_formula_sum "Si O2"
_cell_formula_units_Z 64
_cell_length_a 8.584777
_cell_length_b 13.546295
_cell_length_c 22.775199
_cell_angle_alpha 90.000000
_cell_angle_beta 90.000000
_cell_angle_gamma 90.000000
_cell_volume 2648.571660
_symmetry_space_group_name_H-M "A B A 2"
_symmetry_group_IT_number 41
_symmetry_cell_setting 'orthorhombic'
loop_
_space_group_symop_operation_xyz
x,y,z
-x,-y,z
1/2-x,y,1/2+z
1/2+x,-y,1/2+z
x,1/2+y,1/2+z
-x,1/2-y,1/2+z
1/2-x,1/2+y,z
1/2+x,1/2-y,z
loop_
_atom_site_type_symbol
_atom_site_label
_atom_site_fract_x
_atom_site_fract_y
_atom_site_fract_z
Si Si1 0.366661 0.797645 0.540810
Si Si2 0.171100 0.138902 0.980209
Si Si3 0.540341 0.261371 0.157568
Si Si4 0.826601 0.020300 0.540191
Si Si5 0.744884 0.863881 0.846451
Si Si6 0.466268 0.772201 0.284096
Si Si7 0.821606 0.402770 0.156609
Si Si8 0.327533 0.473896 0.773001
O O1 0.495259 0.829738 0.493371
O O2 0.301391 0.691472 0.521879
O O3 0.437770 0.808305 0.605805
O O4 0.209701 0.863549 0.540238
O O5 0.203043 0.155568 0.912256
O O6 0.199863 0.024459 0.994948
O O7 0.497805 0.290646 0.224558
O O8 0.715740 0.302778 0.148716
O O9 0.500956 0.141108 0.156364
O O10 0.796298 0.976370 0.603848
O O11 0.000000 0.000000 0.516857
O O12 0.586969 0.803130 0.834806
O O13 0.873298 0.821883 0.801754
O O14 0.722508 0.979143 0.826507
O O15 0.326609 0.853889 0.271392
O O16 0.781467 0.469497 0.212823
O O17 0.500000 0.500000 0.792307
#
# Coordination Sequence:
#
# PCOD8185205 Si02
#       8
#     8   8   8   8   8   8   8   8
#     4  12  26  46  72 105 144 188 242 298 363 434
#     4  12  26  47  70 102 142 192 244 296 354 424
#     4  12  22  42  71 102 142 181 229 291 360 426
#     4  12  28  45  71 104 141 186 239 299 368 431
#     4  11  24  44  70  99 136 185 237 284 348 419
#     4  11  23  43  71 102 137 183 231 290 356 425
#     4  12  24  41  70 105 139 181 230 289 361 430
#     4  10  21  41  67  99 134 177 228 280 353 413
#
# _framework density 24.163967
#
# number of rings (size 3 to 8) (size 9 to 14) (size 15 to 20)
#    0.000    0.500    6.250    2.250    1.750    5.000 
#    0.000    0.625    0.000    0.000    0.000    0.000 
#    0.000    0.000    0.000    0.000    0.000    0.000 
#
# Total GULP energy -396436.984227 kJ/mol
# GULP energy per Si atom -12388.655757 kJ/mol
# Density = 2.410897 g / cm^3
# Si number density = 24.163967 Si / 1000 Ang^3
#
#
#
# Elastic Constant Matrix: (Units=GPa)
#
#
# Indices 1 2 3 4 5 6 
#
# 1 49.3797 1.3272 19.9892 0.0000 0.0000 0.0000
# 2 1.3272 63.8318 19.2637 0.0000 0.0000 0.0000
# 3 19.9892 19.2637 116.2440 0.0000 0.0000 0.0000
# 4 0.0000 0.0000 0.0000 11.6572 0.0000 0.0000
# 5 0.0000 0.0000 0.0000 0.0000 31.8214 0.0000
# 6 0.0000 0.0000 0.0000 0.0000 0.0000 40.1704
#
#
#
# Elastic Compliance Matrix: (Units=1/GPa)
#
#
# Indices 1 2 3 4 5 6 
#
# 1 0.021797 0.000714 -0.003866 0.000000 0.000000 0.000000
# 2 0.000714 0.016514 -0.002859 0.000000 0.000000 0.000000
# 3 -0.003866 -0.002859 0.009741 0.000000 0.000000 0.000000
# 4 0.000000 0.000000 0.000000 0.085784 0.000000 0.000000
# 5 0.000000 0.000000 0.000000 0.000000 0.031425 0.000000
# 6 0.000000 0.000000 0.000000 0.000000 0.000000 0.024894
#
#
# Mechanical properties :
#
#
# Convention : Reuss Voigt Hill
#
# Bulk Modulus (GPa) = 27.75597 34.51286 31.13441
# Shear Modulus (GPa) = 23.34371 29.32147 26.33259
#
# Velocity S-wave (km/s) = 3.11151 3.48722 3.30471
# Velocity P-wave (km/s) = 4.94167 5.52522 5.24157
#
# Compressibility (1/GPa) = 0.03602829
#
# Stress axis : x y z
#
# Youngs Moduli (GPa) = 45.87736 60.55365 102.65538
#
# Poissons Ratio (x) = -0.04321 0.39692
# Poissons Ratio (y) = -0.03274 0.29353
# Poissons Ratio (z) = 0.17738 0.17315
#
# Static dielectric constant tensor:
#      x y z
#    x 4.252400 0.000000 0.000000 
#    y 0.000000 4.839470 0.000000 
#    z 0.000000 0.000000 4.262120 
# 
# 
# High freq. dielectric constant tensor:
#      x y z
#    x 1.942940 0.000000 0.000000 
#    y 0.000000 1.960520 0.000000 
#    z 0.000000 0.000000 1.959940 
# 
# From -- ./inp_files/12057.got.cif
#   From: 2010.03.12/outbox.cif.g09.slc.cpg/sg41_7_cif.got.tgz:12057.got - 2010.04.14 01:55:53.
