data_PCOD8185669
_publ_section_title
;
Structure prediction by ZEFSAII (Michael W. Deem and Ramdas Pophale) SiO2 
 PCOD8185669
Probable space group: A B A 2
;
_chemical_formula_sum "Si O2"
_cell_formula_units_Z 52
_cell_length_a 9.030642
_cell_length_b 12.717664
_cell_length_c 20.551260
_cell_angle_alpha 90.000000
_cell_angle_beta 90.000000
_cell_angle_gamma 90.000000
_cell_volume 2360.284891
_symmetry_space_group_name_H-M "A B A 2"
_symmetry_group_IT_number 41
_symmetry_cell_setting 'orthorhombic'
loop_
_space_group_symop_operation_xyz
x,y,z
-x,-y,z
1/2-x,y,1/2+z
1/2+x,-y,1/2+z
x,1/2+y,1/2+z
-x,1/2-y,1/2+z
1/2-x,1/2+y,z
1/2+x,1/2-y,z
loop_
_atom_site_type_symbol
_atom_site_label
_atom_site_fract_x
_atom_site_fract_y
_atom_site_fract_z
Si Si1 0.969425 0.790334 0.110570
Si Si2 0.812700 0.304548 0.194762
Si Si3 0.092927 0.094722 0.992385
Si Si4 0.064528 0.286690 0.898872
Si Si5 0.500000 0.500000 0.743486
Si Si6 0.669722 0.683452 0.812418
Si Si7 0.430345 0.604816 0.518629
O O1 0.801903 0.808327 0.134766
O O2 0.005670 0.878560 0.056708
O O3 0.071210 0.787641 0.174628
O O4 0.005484 0.683354 0.072240
O O5 0.739907 0.262138 0.259971
O O6 0.896280 0.417924 0.202820
O O7 0.257346 0.078221 0.017767
O O8 0.107360 0.185022 0.939729
O O9 0.000000 0.000000 0.959520
O O10 0.213330 0.340188 0.870165
O O11 0.965927 0.251769 0.838407
O O12 0.981864 0.368471 0.945265
O O13 0.612915 0.571325 0.785682
O O14 0.500000 0.500000 0.544180
#
# Coordination Sequence:
#
# PCOD8185669 Si02
#       7
#     8   8   8   8   4   8   8
#     4  11  25  46  70 100 149 183 234 307 363 430
#     4  12  25  47  73 105 143 195 242 306 364 442
#     4  11  26  42  71 107 138 189 240 293 369 433
#     4  11  25  46  71 100 148 185 234 307 360 431
#     4  12  28  44  80 104 140 202 248 302 388 436
#     4  12  25  47  73 104 145 193 244 304 365 442
#     4  11  26  42  70 106 141 189 237 294 364 438
#
# _framework density 22.031238999999999
#
# number of rings (size 3 to 8) (size 9 to 14) (size 15 to 20)
#    0.000    0.615    6.154    0.000    6.462    2.462 
#    0.000    1.538    0.000    0.000    0.000    0.000 
#    0.000    0.000    0.000    0.000    0.000    0.000 
#
# Total GULP energy -322135.031660 kJ/mol
# GULP energy per Si atom -12389.808910 kJ/mol
# Density = 2.198109 g / cm^3
# Si number density = 22.031239 Si / 1000 Ang^3
#
#
#
# Elastic Constant Matrix: (Units=GPa)
#
#
# Indices 1 2 3 4 5 6 
#
# 1 133.6514 54.8343 54.2609 0.0000 0.0000 0.0000
# 2 54.8343 75.6649 16.9812 0.0000 0.0000 0.0000
# 3 54.2609 16.9812 78.8730 0.0000 0.0000 0.0000
# 4 0.0000 0.0000 0.0000 3.1562 0.0000 0.0000
# 5 0.0000 0.0000 0.0000 0.0000 50.0916 0.0000
# 6 0.0000 0.0000 0.0000 0.0000 0.0000 45.5137
#
#
#
# Elastic Compliance Matrix: (Units=1/GPa)
#
#
# Indices 1 2 3 4 5 6 
#
# 1 0.014192 -0.008505 -0.007932 0.000000 0.000000 0.000000
# 2 -0.008505 0.018984 0.001764 0.000000 0.000000 0.000000
# 3 -0.007932 0.001764 0.017756 0.000000 0.000000 0.000000
# 4 0.000000 0.000000 0.000000 0.316832 0.000000 0.000000
# 5 0.000000 0.000000 0.000000 0.000000 0.019963 0.000000
# 6 0.000000 0.000000 0.000000 0.000000 0.000000 0.021971
#
#
# Mechanical properties :
#
#
# Convention : Reuss Voigt Hill
#
# Bulk Modulus (GPa) = 46.32875 60.03802 53.18338
# Shear Modulus (GPa) = 11.20475 30.55983 20.88229
#
# Velocity S-wave (km/s) = 2.25763 3.72844 3.08206
# Velocity P-wave (km/s) = 5.27922 6.77093 6.07106
#
# Compressibility (1/GPa) = 0.02158487
#
# Stress axis : x y z
#
# Youngs Moduli (GPa) = 70.46330 52.67703 56.31926
#
# Poissons Ratio (x) = 0.44799 0.44674
# Poissons Ratio (y) = 0.59926 -0.09932
# Poissons Ratio (z) = 0.55893 -0.09290
#
# Static dielectric constant tensor:
#      x y z
#    x 4.188690 0.000000 0.000000 
#    y 0.000000 3.949380 0.000000 
#    z 0.000000 0.000000 4.203040 
# 
# 
# High freq. dielectric constant tensor:
#      x y z
#    x 1.883350 0.000000 0.000000 
#    y 0.000000 1.850250 0.000000 
#    z 0.000000 0.000000 1.887680 
# 
# From -- ./inp_files/11179.got.cif
#   From: 2010.03.12/outbox.cif.g09.slc.cpg/sg41_6_cif.got.tgz:11179.got - 2010.04.14 01:55:53.
