data_PCOD8185258
_publ_section_title
;
Structure prediction by ZEFSAII (Michael W. Deem and Ramdas Pophale) SiO2 
 PCOD8185258
Probable space group: A B A 2
;
_chemical_formula_sum "Si O2"
_cell_formula_units_Z 52
_cell_length_a 26.913180
_cell_length_b 7.189203
_cell_length_c 12.180986
_cell_angle_alpha 90.000000
_cell_angle_beta 90.000000
_cell_angle_gamma 90.000000
_cell_volume 2356.829725
_symmetry_space_group_name_H-M "A B A 2"
_symmetry_group_IT_number 41
_symmetry_cell_setting 'orthorhombic'
loop_
_space_group_symop_operation_xyz
x,y,z
-x,-y,z
1/2-x,y,1/2+z
1/2+x,-y,1/2+z
x,1/2+y,1/2+z
-x,1/2-y,1/2+z
1/2-x,1/2+y,z
1/2+x,1/2-y,z
loop_
_atom_site_type_symbol
_atom_site_label
_atom_site_fract_x
_atom_site_fract_y
_atom_site_fract_z
Si Si1 0.416103 0.206968 0.376220
Si Si2 0.360026 0.000553 0.024977
Si Si3 0.500000 0.000000 0.499136
Si Si4 0.287218 0.972026 0.841399
Si Si5 0.585817 0.159413 0.634010
Si Si6 0.666421 0.350237 0.135399
Si Si7 0.184824 0.077436 0.895634
O O1 0.397609 0.381304 0.449024
O O2 0.467404 0.132170 0.422498
O O3 0.427126 0.269647 0.253998
O O4 0.374235 0.037620 0.379618
O O5 0.345644 0.871383 0.130386
O O6 0.382628 0.191127 0.066383
O O7 0.311931 0.059382 0.951685
O O8 0.533615 0.131174 0.574543
O O9 0.309257 0.767732 0.824600
O O10 0.299238 0.103723 0.738644
O O11 0.227282 0.940135 0.851262
O O12 0.615183 0.965200 0.640043
O O13 0.696624 0.395133 0.024271
#
# Coordination Sequence:
#
# PCOD8185258 Si02
#       7
#     8   8   4   8   8   8   8
#     4  10  24  48  62 106 134 170 240 277 333 419
#     4  10  24  43  69 104 136 175 231 273 332 421
#     4  12  26  44  74  98 132 182 226 296 338 400
#     4  10  22  40  67 100 139 181 212 285 336 400
#     4  12  24  45  75  92 138 181 216 290 346 384
#     4  10  21  46  63  95 144 173 224 276 331 402
#     4  10  22  38  65  97 135 172 229 264 333 416
#
# _framework density 22.063537
#
# number of rings (size 3 to 8) (size 9 to 14) (size 15 to 20)
#    0.000    1.846    6.154    0.000    2.154    9.231 
#    0.000    0.000    0.000    0.000    0.000    0.000 
#    0.000    0.000    0.000    0.000    0.000    0.000 
#
# Total GULP energy -322232.440858 kJ/mol
# GULP energy per Si atom -12393.555418 kJ/mol
# Density = 2.201332 g / cm^3
# Si number density = 22.063537 Si / 1000 Ang^3
#
#
#
# Elastic Constant Matrix: (Units=GPa)
#
#
# Indices 1 2 3 4 5 6 
#
# 1 124.8130 26.5965 37.8017 0.0000 0.0000 0.0000
# 2 26.5965 48.9521 36.0946 0.0000 0.0000 0.0000
# 3 37.8017 36.0946 112.2792 0.0000 0.0000 0.0000
# 4 0.0000 0.0000 0.0000 29.4496 0.0000 0.0000
# 5 0.0000 0.0000 0.0000 0.0000 38.0180 0.0000
# 6 0.0000 0.0000 0.0000 0.0000 0.0000 32.5014
#
#
#
# Elastic Compliance Matrix: (Units=1/GPa)
#
#
# Indices 1 2 3 4 5 6 
#
# 1 0.009390 -0.003631 -0.001994 0.000000 0.000000 0.000000
# 2 -0.003631 0.028179 -0.007836 0.000000 0.000000 0.000000
# 3 -0.001994 -0.007836 0.012097 0.000000 0.000000 0.000000
# 4 0.000000 0.000000 0.000000 0.033956 0.000000 0.000000
# 5 0.000000 0.000000 0.000000 0.000000 0.026303 0.000000
# 6 0.000000 0.000000 0.000000 0.000000 0.000000 0.030768
#
#
# Mechanical properties :
#
#
# Convention : Reuss Voigt Hill
#
# Bulk Modulus (GPa) = 43.97028 54.11444 49.04236
# Shear Modulus (GPa) = 28.53931 32.36389 30.45160
#
# Velocity S-wave (km/s) = 3.60044 3.83410 3.71910
# Velocity P-wave (km/s) = 6.10380 6.64683 6.38109
#
# Compressibility (1/GPa) = 0.02274264
#
# Stress axis : x y z
#
# Youngs Moduli (GPa) = 106.49983 35.48728 82.66670
#
# Poissons Ratio (x) = 0.12887 0.16483
# Poissons Ratio (y) = 0.38674 0.64779
# Poissons Ratio (z) = 0.21235 0.27808
#
# Static dielectric constant tensor:
#      x y z
#    x 4.165130 0.000000 0.000000 
#    y 0.000000 3.837630 0.000000 
#    z 0.000000 0.000000 4.115290 
# 
# 
# High freq. dielectric constant tensor:
#      x y z
#    x 1.864490 0.000000 0.000000 
#    y 0.000000 1.854680 0.000000 
#    z 0.000000 0.000000 1.878630 
# 
# From -- ./inp_files/6545.got.cif
#   From: 2010.03.12/outbox.cif.g09.slc.cpg/sg41_4_cif.got.tgz:6545.got - 2010.04.14 01:55:53.
