data_PCOD8185107
_publ_section_title
;
Structure prediction by ZEFSAII (Michael W. Deem and Ramdas Pophale) SiO2 
 PCOD8185107
Probable space group: A B A 2
;
_chemical_formula_sum "Si O2"
_cell_formula_units_Z 48
_cell_length_a 18.187269
_cell_length_b 8.674706
_cell_length_c 16.626440
_cell_angle_alpha 90.000000
_cell_angle_beta 90.000000
_cell_angle_gamma 90.000000
_cell_volume 2623.140329
_symmetry_space_group_name_H-M "A B A 2"
_symmetry_group_IT_number 41
_symmetry_cell_setting 'orthorhombic'
loop_
_space_group_symop_operation_xyz
x,y,z
-x,-y,z
1/2-x,y,1/2+z
1/2+x,-y,1/2+z
x,1/2+y,1/2+z
-x,1/2-y,1/2+z
1/2-x,1/2+y,z
1/2+x,1/2-y,z
loop_
_atom_site_type_symbol
_atom_site_label
_atom_site_fract_x
_atom_site_fract_y
_atom_site_fract_z
Si Si1 0.036305 0.350745 0.907070
Si Si2 0.821950 0.464221 0.346927
Si Si3 0.329620 0.387916 0.305587
Si Si4 0.579685 0.938042 0.680044
Si Si5 0.450393 0.353749 0.774930
Si Si6 0.076714 0.076545 0.995056
O O1 0.104032 0.429883 0.862925
O O2 0.000000 0.500000 0.944721
O O3 0.990137 0.242358 0.845874
O O4 0.062360 0.257783 0.984975
O O5 0.740702 0.531972 0.344916
O O6 0.821658 0.297706 0.302851
O O7 0.871966 0.582120 0.299435
O O8 0.853954 0.463497 0.437913
O O9 0.353329 0.466089 0.220773
O O10 0.573467 0.757617 0.701802
O O11 0.596147 0.963146 0.586071
O O12 0.500000 0.000000 0.705894
O O13 0.500000 0.500000 0.747347
O O14 0.000000 0.000000 0.966055
#
# Coordination Sequence:
#
# PCOD8185107 Si02
#       6
#     8   8   8   8   8   8
#     4  11  19  36  61  88 120 156 206 246 289 370
#     4  11  22  37  62  85 117 162 206 248 301 371
#     4  11  21  37  57  91 114 161 205 246 300 360
#     4  11  21  37  61  91 123 154 196 256 301 351
#     4  12  18  36  62  88 119 158 206 244 290 369
#     4  10  21  38  60  89 123 154 194 251 308 350
#
# _framework density 18.298679
#
# number of rings (size 3 to 8) (size 9 to 14) (size 15 to 20)
#    0.000    1.000    8.333    1.000    0.000    0.667 
#    0.000    6.667    0.000    0.000    0.000    0.000 
#    0.000    0.000    0.000    0.000    0.000    0.000 
#
# Total GULP energy -297315.198832 kJ/mol
# GULP energy per Si atom -12388.133285 kJ/mol
# Density = 1.825703 g / cm^3
# Si number density = 18.298679 Si / 1000 Ang^3
#
#
#
# Elastic Constant Matrix: (Units=GPa)
#
#
# Indices 1 2 3 4 5 6 
#
# 1 96.7536 51.6498 52.1904 0.0000 0.0000 0.0000
# 2 51.6498 113.6298 49.2308 0.0000 0.0000 0.0000
# 3 52.1904 49.2308 78.7275 0.0000 0.0000 0.0000
# 4 0.0000 0.0000 0.0000 25.2382 0.0000 0.0000
# 5 0.0000 0.0000 0.0000 0.0000 22.6369 0.0000
# 6 0.0000 0.0000 0.0000 0.0000 0.0000 43.0206
#
#
#
# Elastic Compliance Matrix: (Units=1/GPa)
#
#
# Indices 1 2 3 4 5 6 
#
# 1 0.017304 -0.003971 -0.008988 0.000000 0.000000 0.000000
# 2 -0.003971 0.012982 -0.005486 0.000000 0.000000 0.000000
# 3 -0.008988 -0.005486 0.022090 0.000000 0.000000 0.000000
# 4 0.000000 0.000000 0.000000 0.039622 0.000000 0.000000
# 5 0.000000 0.000000 0.000000 0.000000 0.044176 0.000000
# 6 0.000000 0.000000 0.000000 0.000000 0.000000 0.023245
#
#
# Mechanical properties :
#
#
# Convention : Reuss Voigt Hill
#
# Bulk Modulus (GPa) = 64.56864 66.13920 65.35392
# Shear Modulus (GPa) = 24.81754 27.24848 26.03301
#
# Velocity S-wave (km/s) = 3.68672 3.86307 3.77592
# Velocity P-wave (km/s) = 7.31335 7.49136 7.40289
#
# Compressibility (1/GPa) = 0.01548739
#
# Stress axis : x y z
#
# Youngs Moduli (GPa) = 57.79152 77.02791 45.26854
#
# Poissons Ratio (x) = 0.30590 0.40685
# Poissons Ratio (y) = 0.22951 0.24832
# Poissons Ratio (z) = 0.51940 0.42254
#
# Static dielectric constant tensor:
#      x y z
#    x 3.729450 0.000000 0.000000 
#    y 0.000000 3.704300 0.000000 
#    z 0.000000 0.000000 3.167290 
# 
# 
# High freq. dielectric constant tensor:
#      x y z
#    x 1.710190 0.000000 0.000000 
#    y 0.000000 1.730420 0.000000 
#    z 0.000000 0.000000 1.681390 
# 
# From -- ./inp_files/8713.got.cif
#   From: 2010.03.12/outbox.cif.g09.slc.cpg/sg41_5_cif.got.tgz:8713.got - 2010.04.14 01:55:53.
