data_PCOD8185665
_publ_section_title
;
Structure prediction by ZEFSAII (Michael W. Deem and Ramdas Pophale) SiO2 
 PCOD8185665
Probable space group: A B A 2
;
_chemical_formula_sum "Si O2"
_cell_formula_units_Z 32
_cell_length_a 20.385867
_cell_length_b 13.193516
_cell_length_c 4.980658
_cell_angle_alpha 90.000000
_cell_angle_beta 90.000000
_cell_angle_gamma 90.000000
_cell_volume 1339.604063
_symmetry_space_group_name_H-M "A B A 2"
_symmetry_group_IT_number 41
_symmetry_cell_setting 'orthorhombic'
loop_
_space_group_symop_operation_xyz
x,y,z
-x,-y,z
1/2-x,y,1/2+z
1/2+x,-y,1/2+z
x,1/2+y,1/2+z
-x,1/2-y,1/2+z
1/2-x,1/2+y,z
1/2+x,1/2-y,z
loop_
_atom_site_type_symbol
_atom_site_label
_atom_site_fract_x
_atom_site_fract_y
_atom_site_fract_z
Si Si1 0.588675 0.839134 0.789120
Si Si2 0.039592 0.365301 0.081387
Si Si3 0.206051 0.290978 0.435101
Si Si4 0.392792 0.451159 0.072757
O O1 0.552911 0.754928 0.606307
O O2 0.647627 0.791054 0.963856
O O3 0.615434 0.927875 0.595835
O O4 0.535166 0.886477 0.993659
O O5 0.049654 0.421675 0.365059
O O6 0.090979 0.406345 0.864321
O O7 0.264459 0.274746 0.641502
O O8 0.175802 0.403457 0.470394
#
# Coordination Sequence:
#
# PCOD8185665 Si02
#       4
#     8   8   8   8
#     4  11  25  45  72 100 139 183 218 281 355 401
#     4  11  25  43  68 106 138 170 227 284 341 423
#     4  11  25  45  67  98 136 180 239 283 319 400
#     4  11  26  45  69 100 139 179 223 282 347 406
#
# _framework density 23.887657000000001
#
# number of rings (size 3 to 8) (size 9 to 14) (size 15 to 20)
#    0.000    1.000    0.000    6.750    0.000   18.000 
#    0.000    0.000    0.000    0.000    0.000    0.000 
#    0.000    0.000    0.000    0.000    0.000    0.000 
#
# Total GULP energy -198508.677354 kJ/mol
# GULP energy per Si atom -12406.792335 kJ/mol
# Density = 2.383329 g / cm^3
# Si number density = 23.887657 Si / 1000 Ang^3
#
#
#
# Elastic Constant Matrix: (Units=GPa)
#
#
# Indices 1 2 3 4 5 6 
#
# 1 116.4774 27.9308 15.1419 0.0000 0.0000 0.0000
# 2 27.9308 129.7597 42.2338 0.0000 0.0000 0.0000
# 3 15.1419 42.2338 88.0853 0.0000 0.0000 0.0000
# 4 0.0000 0.0000 0.0000 39.7813 0.0000 0.0000
# 5 0.0000 0.0000 0.0000 0.0000 38.1961 0.0000
# 6 0.0000 0.0000 0.0000 0.0000 0.0000 28.9118
#
#
#
# Elastic Compliance Matrix: (Units=1/GPa)
#
#
# Indices 1 2 3 4 5 6 
#
# 1 0.009093 -0.001716 -0.000740 0.000000 0.000000 0.000000
# 2 -0.001716 0.009456 -0.004239 0.000000 0.000000 0.000000
# 3 -0.000740 -0.004239 0.013512 0.000000 0.000000 0.000000
# 4 0.000000 0.000000 0.000000 0.025137 0.000000 0.000000
# 5 0.000000 0.000000 0.000000 0.000000 0.026181 0.000000
# 6 0.000000 0.000000 0.000000 0.000000 0.000000 0.034588
#
#
# Mechanical properties :
#
#
# Convention : Reuss Voigt Hill
#
# Bulk Modulus (GPa) = 53.56018 56.10391 54.83205
# Shear Modulus (GPa) = 36.34232 37.97891 37.16062
#
# Velocity S-wave (km/s) = 3.90473 3.99168 3.94844
# Velocity P-wave (km/s) = 6.54214 6.69195 6.61747
#
# Compressibility (1/GPa) = 0.01867059
#
# Stress axis : x y z
#
# Youngs Moduli (GPa) = 109.97272 105.75786 74.00777
#
# Poissons Ratio (x) = 0.18152 0.05478
# Poissons Ratio (y) = 0.18876 0.31369
# Poissons Ratio (z) = 0.08140 0.44826
#
# Static dielectric constant tensor:
#      x y z
#    x 4.171530 0.000000 0.000000 
#    y 0.000000 4.428640 0.000000 
#    z 0.000000 0.000000 4.226350 
# 
# 
# High freq. dielectric constant tensor:
#      x y z
#    x 1.939470 0.000000 0.000000 
#    y 0.000000 1.953390 0.000000 
#    z 0.000000 0.000000 1.953320 
# 
# From -- ./inp_files/610.got.cif
#   From: 2010.03.12/outbox.cif.g09.slc.cpg/sg41_1_cif.got.tgz:610.got - 2010.04.14 01:55:53.
