data_PCOD8185432
_publ_section_title
;
Structure prediction by ZEFSAII (Michael W. Deem and Ramdas Pophale) SiO2 
 PCOD8185432
Probable space group: A B A 2
;
_chemical_formula_sum "Si O2"
_cell_formula_units_Z 64
_cell_length_a 17.151754
_cell_length_b 12.178875
_cell_length_c 14.139455
_cell_angle_alpha 90.000000
_cell_angle_beta 90.000000
_cell_angle_gamma 90.000000
_cell_volume 2953.577577
_symmetry_space_group_name_H-M "A B A 2"
_symmetry_group_IT_number 41
_symmetry_cell_setting 'orthorhombic'
loop_
_space_group_symop_operation_xyz
x,y,z
-x,-y,z
1/2-x,y,1/2+z
1/2+x,-y,1/2+z
x,1/2+y,1/2+z
-x,1/2-y,1/2+z
1/2-x,1/2+y,z
1/2+x,1/2-y,z
loop_
_atom_site_type_symbol
_atom_site_label
_atom_site_fract_x
_atom_site_fract_y
_atom_site_fract_z
Si Si1 0.832662 0.611019 0.551910
Si Si2 0.191129 0.098394 0.933646
Si Si3 0.861832 0.491775 0.904955
Si Si4 0.480179 0.798896 0.169771
Si Si5 0.940252 0.278482 0.972176
Si Si6 0.666480 0.680943 0.548065
Si Si7 0.467344 0.610260 0.852013
Si Si8 0.058672 0.408681 0.725404
O O1 0.838328 0.490308 0.508908
O O2 0.863090 0.701833 0.476044
O O3 0.746794 0.636703 0.590207
O O4 0.884975 0.620526 0.641950
O O5 0.274969 0.059350 0.893411
O O6 0.127423 0.106259 0.848956
O O7 0.191024 0.215204 0.985097
O O8 0.922082 0.392412 0.919656
O O9 0.888313 0.557742 0.813200
O O10 0.870065 0.580693 0.988148
O O11 0.390212 0.790339 0.135921
O O12 0.496041 0.894851 0.245767
O O13 0.504341 0.697856 0.238822
O O14 0.532813 0.810978 0.077238
O O15 0.008687 0.214086 0.917674
O O16 0.500000 0.500000 0.902254
O O17 0.000000 0.500000 0.690534
#
# Coordination Sequence:
#
# PCOD8185432 Si02
#       8
#     8   8   8   8   8   8   8   8
#     4  10  23  43  68  99 136 188 234 293 360 432
#     4  11  22  45  69 100 139 188 233 293 365 442
#     4  11  26  43  71 101 144 189 237 303 366 440
#     4  11  26  42  69 103 140 184 237 296 354 433
#     4  11  23  45  68 102 141 188 237 299 354 437
#     4  11  23  44  70 100 143 188 236 291 373 432
#     4  12  25  42  70 104 139 182 243 294 360 427
#     4  11  24  44  69 101 135 182 241 286 356 429
#
# _framework density 21.668637
#
# number of rings (size 3 to 8) (size 9 to 14) (size 15 to 20)
#    0.000    1.000    3.750    2.250    5.250    1.000 
#    2.250    3.750    0.000    0.000    0.000    0.000 
#    0.000    0.000    0.000    0.000    0.000    0.000 
#
# Total GULP energy -396641.302916 kJ/mol
# GULP energy per Si atom -12395.040716 kJ/mol
# Density = 2.161932 g / cm^3
# Si number density = 21.668637 Si / 1000 Ang^3
#
#
#
# Elastic Constant Matrix: (Units=GPa)
#
#
# Indices 1 2 3 4 5 6 
#
# 1 123.2940 45.7520 48.1071 0.0000 0.0000 0.0000
# 2 45.7520 108.2106 21.2557 0.0000 0.0000 0.0000
# 3 48.1071 21.2557 83.1904 0.0000 0.0000 0.0000
# 4 0.0000 0.0000 0.0000 24.3280 0.0000 0.0000
# 5 0.0000 0.0000 0.0000 0.0000 677.9812 0.0000
# 6 0.0000 0.0000 0.0000 0.0000 0.0000 37.1162
#
#
#
# Elastic Compliance Matrix: (Units=1/GPa)
#
#
# Indices 1 2 3 4 5 6 
#
# 1 0.011823 -0.003849 -0.005853 0.000000 0.000000 0.000000
# 2 -0.003849 0.010983 -0.000580 0.000000 0.000000 0.000000
# 3 -0.005853 -0.000580 0.015554 0.000000 0.000000 0.000000
# 4 0.000000 0.000000 0.000000 0.041105 0.000000 0.000000
# 5 0.000000 0.000000 0.000000 0.000000 0.001475 0.000000
# 6 0.000000 0.000000 0.000000 0.000000 0.000000 0.026942
#
#
# Mechanical properties :
#
#
# Convention : Reuss Voigt Hill
#
# Bulk Modulus (GPa) = 56.19961 60.54719 58.37340
# Shear Modulus (GPa) = 37.20834 161.19043 99.19939
#
# Velocity S-wave (km/s) = 4.14835 8.63425 6.77344
# Velocity P-wave (km/s) = 6.99552 11.28731 9.38991
#
# Compressibility (1/GPa) = 0.01779372
#
# Stress axis : x y z
#
# Youngs Moduli (GPa) = 84.58160 91.05302 64.29288
#
# Poissons Ratio (x) = 0.35046 0.37634
# Poissons Ratio (y) = 0.32555 0.03731
# Poissons Ratio (z) = 0.49510 0.05284
#
# Static dielectric constant tensor:
#      x y z
#    x -5.861230 0.000000 0.000000 
#    y 0.000000 4.591090 0.000000 
#    z 0.000000 0.000000 3.575130 
# 
# 
# High freq. dielectric constant tensor:
#      x y z
#    x 1.862750 0.000000 0.000000 
#    y 0.000000 1.874280 0.000000 
#    z 0.000000 0.000000 1.831230 
# 
# From -- ./inp_files/8845.got.cif
#   From: 2010.03.12/outbox.cif.g09.slc.cpg/sg41_5_cif.got.tgz:8845.got - 2010.04.14 01:55:53.
