data_PCOD8185920
_publ_section_title
;
Structure prediction by ZEFSAII (Michael W. Deem and Ramdas Pophale) SiO2 
 PCOD8185920
Probable space group: F M M 2
;
_chemical_formula_sum "Si O2"
_cell_formula_units_Z 96
_cell_length_a 15.977000
_cell_length_b 19.657159
_cell_length_c 14.641250
_cell_angle_alpha 90.000000
_cell_angle_beta 90.000000
_cell_angle_gamma 90.000000
_cell_volume 4598.266544
_symmetry_space_group_name_H-M "F M M 2"
_symmetry_group_IT_number 42
_symmetry_cell_setting 'orthorhombic'
loop_
_space_group_symop_operation_xyz
x,y,z
-x,-y,z
-x,y,z
x,-y,z
x,1/2+y,1/2+z
-x,1/2-y,1/2+z
-x,1/2+y,1/2+z
x,1/2-y,1/2+z
1/2+x,y,1/2+z
1/2-x,-y,1/2+z
1/2-x,y,1/2+z
1/2+x,-y,1/2+z
1/2+x,1/2+y,z
1/2-x,1/2-y,z
1/2-x,1/2+y,z
1/2+x,1/2-y,z
loop_
_atom_site_type_symbol
_atom_site_label
_atom_site_fract_x
_atom_site_fract_y
_atom_site_fract_z
Si Si1 0.094911 0.320779 0.254520
Si Si2 0.099411 0.077256 0.288597
Si Si3 0.161771 0.790674 0.373612
Si Si4 0.346241 0.233838 0.076986
Si Si5 0.099490 0.423608 0.401308
Si Si6 0.594712 0.620083 0.093896
O O1 0.099444 0.247752 0.304548
O O2 0.139664 0.322479 0.155615
O O3 0.137948 0.376269 0.321735
O O4 0.000000 0.340674 0.235538
O O5 0.158176 0.129668 0.345426
O O6 0.130573 0.082870 0.183258
O O7 0.000000 0.094958 0.297705
O O8 0.116395 0.000000 0.322506
O O9 0.250000 0.750000 0.364318
O O10 0.126039 0.790173 0.476668
O O11 0.250000 0.250000 0.074925
O O12 0.399880 0.299078 0.105890
O O13 0.124899 0.500000 0.377683
O O14 0.140326 0.402515 0.499323
O O15 0.000000 0.412640 0.404805
O O16 0.500000 0.596152 0.084147
#
# Coordination Sequence:
#
# PCOD8185920 Si02
#       6
#    16  16  16  16  16  16
#     4  11  21  35  59  87 113 147 198 248 298 357
#     4  10  21  37  61  94 127 161 203 256 315 368
#     4  11  23  39  60  85 121 162 200 244 302 367
#     4  11  23  37  57  82 121 155 198 246 299 359
#     4   9  18  33  54  82 115 147 186 241 297 349
#     4  10  18  32  58  87 116 151 196 250 301 353
#
# _framework density 20.877433
#
# number of rings (size 3 to 8) (size 9 to 14) (size 15 to 20)
#    0.000    1.667    3.333    2.000    0.000    4.000 
#    0.000    1.667    0.000    2.000    0.000    0.000 
#    0.000    0.000    0.000    0.000    0.000    0.000 
#
# Total GULP energy -297460.553092 kJ/mol
# GULP energy per Si atom -12394.189712 kJ/mol
# Density = 2.082992 g / cm^3
# Si number density = 20.877433 Si / 1000 Ang^3
#
#
#
# Elastic Constant Matrix: (Units=GPa)
#
#
# Indices 1 2 3 4 5 6 
#
# 1 31.1372 15.5759 23.3993 0.0000 0.0000 0.0000
# 2 15.5759 138.8380 55.7990 0.0000 0.0000 0.0000
# 3 23.3993 55.7990 156.6312 0.0000 0.0000 0.0000
# 4 0.0000 0.0000 0.0000 35.4120 0.0000 0.0000
# 5 0.0000 0.0000 0.0000 0.0000 34.7728 0.0000
# 6 0.0000 0.0000 0.0000 0.0000 0.0000 19.6210
#
#
#
# Elastic Compliance Matrix: (Units=1/GPa)
#
#
# Indices 1 2 3 4 5 6 
#
# 1 0.036763 -0.002237 -0.004695 0.000000 0.000000 0.000000
# 2 -0.002237 0.008542 -0.002709 0.000000 0.000000 0.000000
# 3 -0.004695 -0.002709 0.008051 0.000000 0.000000 0.000000
# 4 0.000000 0.000000 0.000000 0.028239 0.000000 0.000000
# 5 0.000000 0.000000 0.000000 0.000000 0.028758 0.000000
# 6 0.000000 0.000000 0.000000 0.000000 0.000000 0.050966
#
#
# Mechanical properties :
#
#
# Convention : Reuss Voigt Hill
#
# Bulk Modulus (GPa) = 29.34806 57.35054 43.34930
# Shear Modulus (GPa) = 26.04706 33.41665 29.73186
#
# Velocity S-wave (km/s) = 3.53600 4.00510 3.77784
# Velocity P-wave (km/s) = 5.54607 6.99411 6.31175
#
# Compressibility (1/GPa) = 0.03407380
#
# Stress axis : x y z
#
# Youngs Moduli (GPa) = 27.20096 117.06352 124.21029
#
# Poissons Ratio (x) = 0.26192 0.58317
# Poissons Ratio (y) = 0.06086 0.33648
# Poissons Ratio (z) = 0.12771 0.31712
#
# Static dielectric constant tensor:
#      x y z
#    x 3.346040 0.000000 0.000000 
#    y 0.000000 3.680130 0.000000 
#    z 0.000000 0.000000 4.206220 
# 
# 
# High freq. dielectric constant tensor:
#      x y z
#    x 1.781070 0.000000 0.000000 
#    y 0.000000 1.803230 0.000000 
#    z 0.000000 0.000000 1.831850 
# 
# From -- ./inp_files/14025.got.cif
#   From: 2010.03.12/outbox.cif.g09.slc.cpg/sg42_8_cif.got.tgz:14025.got - 2010.04.14 02:04:31.
