data_PCOD8185878
_publ_section_title
;
Structure prediction by ZEFSAII (Michael W. Deem and Ramdas Pophale) SiO2 
 PCOD8185878
Probable space group: F M M 2
;
_chemical_formula_sum "Si O2"
_cell_formula_units_Z 104
_cell_length_a 14.139525
_cell_length_b 18.744785
_cell_length_c 18.200530
_cell_angle_alpha 90.000000
_cell_angle_beta 90.000000
_cell_angle_gamma 90.000000
_cell_volume 4823.911354
_symmetry_space_group_name_H-M "F M M 2"
_symmetry_group_IT_number 42
_symmetry_cell_setting 'orthorhombic'
loop_
_space_group_symop_operation_xyz
x,y,z
-x,-y,z
-x,y,z
x,-y,z
x,1/2+y,1/2+z
-x,1/2-y,1/2+z
-x,1/2+y,1/2+z
x,1/2-y,1/2+z
1/2+x,y,1/2+z
1/2-x,-y,1/2+z
1/2-x,y,1/2+z
1/2+x,-y,1/2+z
1/2+x,1/2+y,z
1/2-x,1/2-y,z
1/2-x,1/2+y,z
1/2+x,1/2-y,z
loop_
_atom_site_type_symbol
_atom_site_label
_atom_site_fract_x
_atom_site_fract_y
_atom_site_fract_z
Si Si1 0.395066 0.364021 0.519320
Si Si2 0.296833 0.500000 0.454705
Si Si3 0.851088 0.769586 0.389986
Si Si4 0.887308 0.285030 0.162045
Si Si5 0.110553 0.500000 0.793408
Si Si6 0.895699 0.638095 0.302432
Si Si7 0.888449 0.847385 0.247846
Si Si8 0.886365 0.000000 0.881642
O O1 0.500000 0.392345 0.540260
O O2 0.328929 0.430361 0.499543
O O3 0.409758 0.310828 0.451249
O O4 0.348872 0.318092 0.586219
O O5 0.336920 0.500000 0.371726
O O6 0.181258 0.500000 0.453661
O O7 0.750000 0.750000 0.424241
O O8 0.904287 0.697976 0.365607
O O9 0.833313 0.820562 0.319969
O O10 0.843574 0.332129 0.229445
O O11 0.857203 0.201567 0.177082
O O12 0.000000 0.288667 0.162585
O O13 0.135291 0.568489 0.741702
O O14 0.000000 0.500000 0.814117
O O15 0.848902 0.567305 0.334809
O O16 0.000000 0.614812 0.278571
O O17 0.000000 0.834817 0.262069
O O18 0.000000 0.000000 0.901187
#
# Coordination Sequence:
#
# PCOD8185878 Si02
#       8
#    16   8  16  16   8  16  16   8
#     4  11  21  35  56  88 130 165 193 247 318 374
#     4  12  22  33  55  95 130 152 203 251 311 378
#     4  11  20  31  51  78 112 153 202 252 302 355
#     4   8  17  33  55  83 119 161 202 241 299 369
#     4  10  18  30  57  92 126 158 191 249 311 357
#     4   9  18  35  56  78 104 146 203 254 295 352
#     4   9  17  33  55  84 117 154 199 245 301 367
#     4  10  22  39  60  83 114 154 204 260 308 353
#
# _framework density 21.559270000000001
#
# number of rings (size 3 to 8) (size 9 to 14) (size 15 to 20)
#    0.000    2.154    1.538    3.923    0.000    0.615 
#    0.000    5.385    0.000    0.923    0.000    4.308 
#    0.000   19.692    0.000    0.000    0.000    0.000 
#
# Total GULP energy -322147.918538 kJ/mol
# GULP energy per Si atom -12390.304559 kJ/mol
# Density = 2.151020 g / cm^3
# Si number density = 21.559270 Si / 1000 Ang^3
#
#
#
# Elastic Constant Matrix: (Units=GPa)
#
#
# Indices 1 2 3 4 5 6 
#
# 1 57.9819 22.2378 19.3728 0.0000 0.0000 0.0000
# 2 22.2378 202.3114 85.6419 0.0000 0.0000 0.0000
# 3 19.3728 85.6419 125.0004 0.0000 0.0000 0.0000
# 4 0.0000 0.0000 0.0000 38.0618 0.0000 0.0000
# 5 0.0000 0.0000 0.0000 0.0000 19.5292 0.0000
# 6 0.0000 0.0000 0.0000 0.0000 0.0000 8.9421
#
#
#
# Elastic Compliance Matrix: (Units=1/GPa)
#
#
# Indices 1 2 3 4 5 6 
#
# 1 0.018376 -0.001147 -0.002062 0.000000 0.000000 0.000000
# 2 -0.001147 0.007034 -0.004641 0.000000 0.000000 0.000000
# 3 -0.002062 -0.004641 0.011499 0.000000 0.000000 0.000000
# 4 0.000000 0.000000 0.000000 0.026273 0.000000 0.000000
# 5 0.000000 0.000000 0.000000 0.000000 0.051205 0.000000
# 6 0.000000 0.000000 0.000000 0.000000 0.000000 0.111831
#
#
# Mechanical properties :
#
#
# Convention : Reuss Voigt Hill
#
# Bulk Modulus (GPa) = 47.15156 71.08874 59.12015
# Shear Modulus (GPa) = 20.08129 30.50938 25.29533
#
# Velocity S-wave (km/s) = 3.05527 3.76592 3.42905
# Velocity P-wave (km/s) = 5.86211 7.20796 6.56959
#
# Compressibility (1/GPa) = 0.02120820
#
# Stress axis : x y z
#
# Youngs Moduli (GPa) = 54.41997 142.17350 86.96081
#
# Poissons Ratio (x) = 0.16306 0.17932
# Poissons Ratio (y) = 0.06241 0.40361
# Poissons Ratio (z) = 0.11222 0.65986
#
# Static dielectric constant tensor:
#      x y z
#    x 3.703450 0.000000 0.000000 
#    y 0.000000 4.143020 0.000000 
#    z 0.000000 0.000000 3.785490 
# 
# 
# High freq. dielectric constant tensor:
#      x y z
#    x 1.844280 0.000000 0.000000 
#    y 0.000000 1.856500 0.000000 
#    z 0.000000 0.000000 1.805100 
# 
# From -- ./inp_files/20143.got.cif
#   From: 2010.03.12/outbox.cif.g09.slc.cpg/sg42_11_cif.got.tgz:20143.got - 2010.04.14 02:04:31.
