data_PCOD8185390
_publ_section_title
;
Structure prediction by ZEFSAII (Michael W. Deem and Ramdas Pophale) SiO2 
 PCOD8185390
Probable space group: A B A 2
;
_chemical_formula_sum "Si O2"
_cell_formula_units_Z 56
_cell_length_a 22.021697
_cell_length_b 13.699686
_cell_length_c 8.632654
_cell_angle_alpha 90.000000
_cell_angle_beta 90.000000
_cell_angle_gamma 90.000000
_cell_volume 2604.388269
_symmetry_space_group_name_H-M "A B A 2"
_symmetry_group_IT_number 41
_symmetry_cell_setting 'orthorhombic'
loop_
_space_group_symop_operation_xyz
x,y,z
-x,-y,z
1/2-x,y,1/2+z
1/2+x,-y,1/2+z
x,1/2+y,1/2+z
-x,1/2-y,1/2+z
1/2-x,1/2+y,z
1/2+x,1/2-y,z
loop_
_atom_site_type_symbol
_atom_site_label
_atom_site_fract_x
_atom_site_fract_y
_atom_site_fract_z
Si Si1 0.913609 0.446252 0.668210
Si Si2 0.000000 0.000000 0.917154
Si Si3 0.216346 0.731145 0.023616
Si Si4 0.835077 0.764325 0.192258
Si Si5 0.684776 0.088651 0.707649
Si Si6 0.801222 0.999161 0.545101
Si Si7 0.082459 0.410076 0.166508
Si Si8 0.000000 0.500000 0.923370
O O1 0.857357 0.374373 0.689520
O O2 0.881076 0.551256 0.650715
O O3 0.953743 0.436857 0.822055
O O4 0.957803 0.429326 0.522194
O O5 0.955720 0.068497 0.819799
O O6 0.288336 0.747430 0.049805
O O7 0.183855 0.796479 0.158057
O O8 0.199013 0.617510 0.030361
O O9 0.198891 0.767307 0.851440
O O10 0.895077 0.700728 0.167372
O O11 0.739439 0.034201 0.621529
O O12 0.690622 0.062601 0.889048
O O13 0.858473 0.020437 0.656533
O O14 0.037280 0.422315 0.023140
#
# Coordination Sequence:
#
# PCOD8185390 Si02
#       8
#     8   4   8   8   8   8   8   4
#     4  11  23  45  68  98 134 184 233 288 347 417
#     4  10  26  44  68  94 134 190 236 290 342 404
#     4  12  24  42  66 108 141 182 216 281 361 431
#     4  12  25  41  68 100 141 174 233 278 356 425
#     4  12  24  41  71 101 143 179 224 289 354 425
#     4  12  24  43  69 101 141 182 225 288 355 424
#     4  11  24  45  66  99 135 181 235 288 341 419
#     4  10  22  46  68  84 136 186 232 286 342 390
#
# _framework density 21.502171000000001
#
# number of rings (size 3 to 8) (size 9 to 14) (size 15 to 20)
#    0.000    0.571    5.714    1.714    2.000    2.286 
#    0.000    5.714    0.000    0.000    0.000    0.000 
#    0.000    0.000    0.000    0.000    0.000    0.000 
#
# Total GULP energy -347111.893409 kJ/mol
# GULP energy per Si atom -12396.853336 kJ/mol
# Density = 2.145323 g / cm^3
# Si number density = 21.502171 Si / 1000 Ang^3
#
#
#
# Elastic Constant Matrix: (Units=GPa)
#
#
# Indices 1 2 3 4 5 6 
#
# 1 122.6798 17.0813 62.2353 0.0000 0.0000 0.0000
# 2 17.0813 92.4811 37.6528 0.0000 0.0000 0.0000
# 3 62.2353 37.6528 128.2271 0.0000 0.0000 0.0000
# 4 0.0000 0.0000 0.0000 26.5696 0.0000 0.0000
# 5 0.0000 0.0000 0.0000 0.0000 -50.2002 0.0000
# 6 0.0000 0.0000 0.0000 0.0000 0.0000 37.3769
#
#
#
# Elastic Compliance Matrix: (Units=1/GPa)
#
#
# Indices 1 2 3 4 5 6 
#
# 1 0.010816 0.000159 -0.005296 0.000000 0.000000 0.000000
# 2 0.000159 0.012284 -0.003684 0.000000 0.000000 0.000000
# 3 -0.005296 -0.003684 0.011451 0.000000 0.000000 0.000000
# 4 0.000000 0.000000 0.000000 0.037637 0.000000 0.000000
# 5 0.000000 0.000000 0.000000 0.000000 -0.019920 0.000000
# 6 0.000000 0.000000 0.000000 0.000000 0.000000 0.026754
#
#
# Mechanical properties :
#
#
# Convention : Reuss Voigt Hill
#
# Bulk Modulus (GPa) = 59.14543 64.14743 61.64643
# Shear Modulus (GPa) = 48.87569 17.84385 33.35977
#
# Velocity S-wave (km/s) = 4.77283 2.88386 3.94313
# Velocity P-wave (km/s) = 7.61181 6.40208 7.03300
#
# Compressibility (1/GPa) = 0.01690748
#
# Stress axis : x y z
#
# Youngs Moduli (GPa) = 92.45621 81.40931 87.32952
#
# Poissons Ratio (x) = -0.01291 0.46250
# Poissons Ratio (y) = -0.01466 0.32172
# Poissons Ratio (z) = 0.48966 0.29991
#
# Static dielectric constant tensor:
#      x y z
#    x 4.256680 0.000000 0.000000 
#    y 0.000000 3.740230 0.000000 
#    z 0.000000 0.000000 4.102070 
# 
# 
# High freq. dielectric constant tensor:
#      x y z
#    x 1.861090 0.000000 0.000000 
#    y 0.000000 1.831860 0.000000 
#    z 0.000000 0.000000 1.852420 
# 
# From -- ./inp_files/3445.got.cif
#   From: 2010.03.12/outbox.cif.g09.slc.cpg/sg41_2_cif.got.tgz:3445.got - 2010.04.14 01:55:53.
