data_PCOD8185393
_publ_section_title
;
Structure prediction by ZEFSAII (Michael W. Deem and Ramdas Pophale) SiO2 
 PCOD8185393
Probable space group: A B A 2
;
_chemical_formula_sum "Si O2"
_cell_formula_units_Z 56
_cell_length_a 8.601130
_cell_length_b 20.428480
_cell_length_c 13.812132
_cell_angle_alpha 90.000000
_cell_angle_beta 90.000000
_cell_angle_gamma 90.000000
_cell_volume 2426.902258
_symmetry_space_group_name_H-M "A B A 2"
_symmetry_group_IT_number 41
_symmetry_cell_setting 'orthorhombic'
loop_
_space_group_symop_operation_xyz
x,y,z
-x,-y,z
1/2-x,y,1/2+z
1/2+x,-y,1/2+z
x,1/2+y,1/2+z
-x,1/2-y,1/2+z
1/2-x,1/2+y,z
1/2+x,1/2-y,z
loop_
_atom_site_type_symbol
_atom_site_label
_atom_site_fract_x
_atom_site_fract_y
_atom_site_fract_z
Si Si1 0.500000 0.000000 0.860271
Si Si2 0.167314 0.667996 0.138967
Si Si3 0.329067 0.690337 0.849900
Si Si4 0.500000 0.000000 0.362015
Si Si5 0.167342 0.310693 0.417948
Si Si6 0.248889 0.079860 0.469592
Si Si7 0.180239 0.303075 0.121075
Si Si8 0.248903 0.413726 0.780443
O O1 0.378742 0.028045 0.937969
O O2 0.578708 0.052403 0.786639
O O3 0.131474 0.651039 0.251150
O O4 0.289001 0.728141 0.154164
O O5 0.001322 0.689254 0.093809
O O6 0.237867 0.604306 0.082601
O O7 0.484375 0.699634 0.911783
O O8 0.247259 0.760313 0.842058
O O9 0.211524 0.646464 0.912132
O O10 0.582538 0.948058 0.436142
O O11 0.381497 0.969252 0.283175
O O12 0.213331 0.305723 0.527850
O O13 0.225571 0.380749 0.384280
O O14 0.235953 0.361531 0.192996
#
# Coordination Sequence:
#
# PCOD8185393 Si02
#       8
#     4   8   8   4   8   8   8   8
#     4  10  26  46  72 106 150 202 236 290 346 448
#     4  12  24  43  70 111 142 183 238 306 368 432
#     4  12  24  44  71 105 144 183 229 310 369 420
#     4  10  22  48  74  98 156 212 224 292 350 438
#     4  12  24  43  71 104 145 183 232 306 371 420
#     4  11  24  46  72 103 146 191 248 283 359 437
#     4  12  25  42  72 107 143 181 242 305 372 431
#     4  11  23  47  71 102 148 189 247 287 357 438
#
# _framework density 23.074683
#
# number of rings (size 3 to 8) (size 9 to 14) (size 15 to 20)
#    0.000    0.571    5.714    1.714    2.000    1.143 
#    0.000   15.000    0.000    0.000    0.000    0.000 
#    0.000    0.000    0.000    0.000    0.000    0.000 
#
# Total GULP energy -346907.344666 kJ/mol
# GULP energy per Si atom -12389.548024 kJ/mol
# Density = 2.302216 g / cm^3
# Si number density = 23.074683 Si / 1000 Ang^3
#
#
#
# Elastic Constant Matrix: (Units=GPa)
#
#
# Indices 1 2 3 4 5 6 
#
# 1 60.4875 19.3213 14.2929 0.0000 0.0000 0.0000
# 2 19.3213 84.3666 16.8404 0.0000 0.0000 0.0000
# 3 14.2929 16.8404 110.5428 0.0000 0.0000 0.0000
# 4 0.0000 0.0000 0.0000 46.5038 0.0000 0.0000
# 5 0.0000 0.0000 0.0000 0.0000 26.1510 0.0000
# 6 0.0000 0.0000 0.0000 0.0000 0.0000 38.0853
#
#
#
# Elastic Compliance Matrix: (Units=1/GPa)
#
#
# Indices 1 2 3 4 5 6 
#
# 1 0.018166 -0.003807 -0.001769 0.000000 0.000000 0.000000
# 2 -0.003807 0.013023 -0.001492 0.000000 0.000000 0.000000
# 3 -0.001769 -0.001492 0.009502 0.000000 0.000000 0.000000
# 4 0.000000 0.000000 0.000000 0.021504 0.000000 0.000000
# 5 0.000000 0.000000 0.000000 0.000000 0.038239 0.000000
# 6 0.000000 0.000000 0.000000 0.000000 0.000000 0.026257
#
#
# Mechanical properties :
#
#
# Convention : Reuss Voigt Hill
#
# Bulk Modulus (GPa) = 37.65662 39.58957 38.62309
# Shear Modulus (GPa) = 33.40483 35.81083 34.60783
#
# Velocity S-wave (km/s) = 3.80897 3.94376 3.87695
# Velocity P-wave (km/s) = 5.97488 6.15890 6.06759
#
# Compressibility (1/GPa) = 0.02655576
#
# Stress axis : x y z
#
# Youngs Moduli (GPa) = 55.04642 76.78884 105.23861
#
# Poissons Ratio (x) = 0.29236 0.18615
# Poissons Ratio (y) = 0.20958 0.15698
# Poissons Ratio (z) = 0.09737 0.11454
#
# Static dielectric constant tensor:
#      x y z
#    x 4.217890 0.000000 0.000000 
#    y 0.000000 4.431080 0.000000 
#    z 0.000000 0.000000 3.942280 
# 
# 
# High freq. dielectric constant tensor:
#      x y z
#    x 1.916750 0.000000 0.000000 
#    y 0.000000 1.921240 0.000000 
#    z 0.000000 0.000000 1.903040 
# 
# From -- ./inp_files/7506.got.cif
#   From: 2010.03.12/outbox.cif.g09.slc.cpg/sg41_4_cif.got.tgz:7506.got - 2010.04.14 01:55:53.
