data_PCOD8185458
_publ_section_title
;
Structure prediction by ZEFSAII (Michael W. Deem and Ramdas Pophale) SiO2 
 PCOD8185458
Probable space group: A B A 2
;
_chemical_formula_sum "Si O2"
_cell_formula_units_Z 60
_cell_length_a 26.391585
_cell_length_b 11.923547
_cell_length_c 8.740343
_cell_angle_alpha 90.000000
_cell_angle_beta 90.000000
_cell_angle_gamma 90.000000
_cell_volume 2750.422534
_symmetry_space_group_name_H-M "A B A 2"
_symmetry_group_IT_number 41
_symmetry_cell_setting 'orthorhombic'
loop_
_space_group_symop_operation_xyz
x,y,z
-x,-y,z
1/2-x,y,1/2+z
1/2+x,-y,1/2+z
x,1/2+y,1/2+z
-x,1/2-y,1/2+z
1/2-x,1/2+y,z
1/2+x,1/2-y,z
loop_
_atom_site_type_symbol
_atom_site_label
_atom_site_fract_x
_atom_site_fract_y
_atom_site_fract_z
Si Si1 0.837727 0.253369 0.169170
Si Si2 0.500000 0.500000 0.145525
Si Si3 0.417664 0.370518 0.966398
Si Si4 0.863970 0.401707 0.454229
Si Si5 0.764160 0.652366 0.252447
Si Si6 0.261371 0.996933 0.502014
Si Si7 0.917910 0.837704 0.244827
Si Si8 0.313860 0.141735 0.860030
O O1 0.858375 0.336335 0.297824
O O2 0.796358 0.173256 0.248342
O O3 0.885438 0.186200 0.101654
O O4 0.808618 0.320472 0.036862
O O5 0.535056 0.423398 0.256352
O O6 0.470424 0.411596 0.038528
O O7 0.388313 0.479484 0.905416
O O8 0.428060 0.283069 0.825534
O O9 0.809578 0.423730 0.542972
O O10 0.900877 0.330071 0.566275
O O11 0.783230 0.615420 0.421407
O O12 0.797831 0.764583 0.232383
O O13 0.775154 0.549347 0.136253
O O14 0.227928 0.044610 0.359255
O O15 0.870954 0.898589 0.330389
#
# Coordination Sequence:
#
# PCOD8185458 Si02
#       8
#     8   4   8   8   8   8   8   8
#     4  11  23  41  60  93 137 176 223 278 332 396
#     4  10  24  46  76 100 134 172 228 296 356 394
#     4  10  23  48  69 101 133 172 226 291 344 404
#     4  11  22  42  65  94 133 182 223 275 336 398
#     4  12  23  37  56  91 132 185 224 269 319 393
#     4  12  23  35  60  89 132 183 226 264 327 391
#     4  10  24  45  73  98 134 176 227 286 342 412
#     4  11  24  40  59  94 138 175 228 270 321 403
#
# _framework density 21.814829
#
# number of rings (size 3 to 8) (size 9 to 14) (size 15 to 20)
#    0.000    1.067    4.000    2.400    5.600    2.133 
#    0.000    4.000    0.000    1.600    0.000    0.000 
#    0.000    0.000    0.000    0.000    0.000    0.000 
#
# Total GULP energy -371698.003806 kJ/mol
# GULP energy per Si atom -12389.933460 kJ/mol
# Density = 2.176518 g / cm^3
# Si number density = 21.814829 Si / 1000 Ang^3
#
#
#
# Elastic Constant Matrix: (Units=GPa)
#
#
# Indices 1 2 3 4 5 6 
#
# 1 117.1230 47.4083 23.8378 0.0000 0.0000 0.0000
# 2 47.4083 112.3829 49.9082 0.0000 0.0000 0.0000
# 3 23.8378 49.9082 74.4455 0.0000 0.0000 0.0000
# 4 0.0000 0.0000 0.0000 52.9455 0.0000 0.0000
# 5 0.0000 0.0000 0.0000 0.0000 31.1215 0.0000
# 6 0.0000 0.0000 0.0000 0.0000 0.0000 37.6130
#
#
#
# Elastic Compliance Matrix: (Units=1/GPa)
#
#
# Indices 1 2 3 4 5 6 
#
# 1 0.010312 -0.004106 -0.000549 0.000000 0.000000 0.000000
# 2 -0.004106 0.014305 -0.008275 0.000000 0.000000 0.000000
# 3 -0.000549 -0.008275 0.019156 0.000000 0.000000 0.000000
# 4 0.000000 0.000000 0.000000 0.018887 0.000000 0.000000
# 5 0.000000 0.000000 0.000000 0.000000 0.032132 0.000000
# 6 0.000000 0.000000 0.000000 0.000000 0.000000 0.026587
#
#
# Mechanical properties :
#
#
# Convention : Reuss Voigt Hill
#
# Bulk Modulus (GPa) = 55.82848 60.69556 58.26202
# Shear Modulus (GPa) = 32.63454 36.52248 34.57851
#
# Velocity S-wave (km/s) = 3.87199 4.09614 3.98564
# Velocity P-wave (km/s) = 6.75553 7.08905 6.92430
#
# Compressibility (1/GPa) = 0.01791201
#
# Stress axis : x y z
#
# Youngs Moduli (GPa) = 96.97577 69.90381 52.20198
#
# Poissons Ratio (x) = 0.28703 0.02867
# Poissons Ratio (y) = 0.39820 0.43200
# Poissons Ratio (z) = 0.05326 0.57849
#
# Static dielectric constant tensor:
#      x y z
#    x 3.894420 0.000000 0.000000 
#    y 0.000000 4.115630 0.000000 
#    z 0.000000 0.000000 3.888110 
# 
# 
# High freq. dielectric constant tensor:
#      x y z
#    x 1.842310 0.000000 0.000000 
#    y 0.000000 1.869610 0.000000 
#    z 0.000000 0.000000 1.858700 
# 
# From -- ./inp_files/3815.got.cif
#   From: 2010.03.12/outbox.cif.g09.slc.cpg/sg41_2_cif.got.tgz:3815.got - 2010.04.14 01:55:53.
