data_PCOD8185054
_publ_section_title
;
Structure prediction by ZEFSAII (Michael W. Deem and Ramdas Pophale) SiO2 
 PCOD8185054
Probable space group: A B A 2
;
_chemical_formula_sum "Si O2"
_cell_formula_units_Z 48
_cell_length_a 9.307312
_cell_length_b 14.825598
_cell_length_c 15.557525
_cell_angle_alpha 90.000000
_cell_angle_beta 90.000000
_cell_angle_gamma 90.000000
_cell_volume 2146.727897
_symmetry_space_group_name_H-M "A B A 2"
_symmetry_group_IT_number 41
_symmetry_cell_setting 'orthorhombic'
loop_
_space_group_symop_operation_xyz
x,y,z
-x,-y,z
1/2-x,y,1/2+z
1/2+x,-y,1/2+z
x,1/2+y,1/2+z
-x,1/2-y,1/2+z
1/2-x,1/2+y,z
1/2+x,1/2-y,z
loop_
_atom_site_type_symbol
_atom_site_label
_atom_site_fract_x
_atom_site_fract_y
_atom_site_fract_z
Si Si1 0.000000 0.500000 0.658551
Si Si2 0.725702 0.037119 0.266455
Si Si3 0.500000 0.000000 0.130742
Si Si4 0.598022 0.694837 0.863978
Si Si5 0.201032 0.660873 0.294951
Si Si6 0.039887 0.175041 0.048110
Si Si7 0.840676 0.327754 0.100413
O O1 0.879118 0.537485 0.721707
O O2 0.955145 0.419973 0.595882
O O3 0.710388 0.118427 0.333725
O O4 0.609358 0.053793 0.191783
O O5 0.699961 0.944869 0.319892
O O6 0.584384 0.924083 0.075132
O O7 0.456481 0.701925 0.806380
O O8 0.680140 0.789875 0.853688
O O9 0.546619 0.671829 0.959521
O O10 0.236545 0.666592 0.193548
O O11 0.210390 0.197510 0.034558
O O12 0.962399 0.251735 0.103782
#
# Coordination Sequence:
#
# PCOD8185054 Si02
#       7
#     4   8   4   8   8   8   8
#     4  12  26  43  70 107 134 180 250 282 342 429
#     4  11  23  44  71 102 131 185 240 283 343 424
#     4  10  20  43  72 101 128 182 240 284 330 415
#     4  12  25  44  70  98 146 178 229 292 363 410
#     4  11  23  43  70  96 130 187 234 281 341 436
#     4  12  27  42  68 105 142 181 227 297 358 412
#     4  11  23  45  70 104 140 185 240 284 349 428
#
# _framework density 22.359611000000001
#
# number of rings (size 3 to 8) (size 9 to 14) (size 15 to 20)
#    0.000    0.667    6.667    3.000    7.000    0.000 
#    0.000    0.000    0.000    1.000    0.000    0.000 
#    0.000    0.000    0.000    0.000    0.000    0.000 
#
# Total GULP energy -297562.067015 kJ/mol
# GULP energy per Si atom -12398.419459 kJ/mol
# Density = 2.230872 g / cm^3
# Si number density = 22.359611 Si / 1000 Ang^3
#
#
#
# Elastic Constant Matrix: (Units=GPa)
#
#
# Indices 1 2 3 4 5 6 
#
# 1 138.4769 36.4976 33.2468 0.0000 0.0000 0.0000
# 2 36.4976 108.1473 25.4495 0.0000 0.0000 0.0000
# 3 33.2468 25.4495 79.1458 0.0000 0.0000 0.0000
# 4 0.0000 0.0000 0.0000 22.0690 0.0000 0.0000
# 5 0.0000 0.0000 0.0000 0.0000 42.1399 0.0000
# 6 0.0000 0.0000 0.0000 0.0000 0.0000 44.9744
#
#
#
# Elastic Compliance Matrix: (Units=1/GPa)
#
#
# Indices 1 2 3 4 5 6 
#
# 1 0.008485 -0.002191 -0.002860 0.000000 0.000000 0.000000
# 2 -0.002191 0.010569 -0.002478 0.000000 0.000000 0.000000
# 3 -0.002860 -0.002478 0.014633 0.000000 0.000000 0.000000
# 4 0.000000 0.000000 0.000000 0.045312 0.000000 0.000000
# 5 0.000000 0.000000 0.000000 0.000000 0.023730 0.000000
# 6 0.000000 0.000000 0.000000 0.000000 0.000000 0.022235
#
#
# Mechanical properties :
#
#
# Convention : Reuss Voigt Hill
#
# Bulk Modulus (GPa) = 53.67747 57.35089 55.51418
# Shear Modulus (GPa) = 34.19184 37.20839 35.70012
#
# Velocity S-wave (km/s) = 3.91471 4.08375 4.00013
# Velocity P-wave (km/s) = 6.67022 6.92395 6.79827
#
# Compressibility (1/GPa) = 0.01862979
#
# Stress axis : x y z
#
# Youngs Moduli (GPa) = 117.84849 94.61498 68.33749
#
# Poissons Ratio (x) = 0.20727 0.19545
# Poissons Ratio (y) = 0.25816 0.16936
# Poissons Ratio (z) = 0.33706 0.23449
#
# Static dielectric constant tensor:
#      x y z
#    x 4.203240 0.000000 0.000000 
#    y 0.000000 3.866980 0.000000 
#    z 0.000000 0.000000 3.717310 
# 
# 
# High freq. dielectric constant tensor:
#      x y z
#    x 1.899840 0.000000 0.000000 
#    y 0.000000 1.886800 0.000000 
#    z 0.000000 0.000000 1.853240 
# 
# From -- ./inp_files/7351.got.cif
#   From: 2010.03.12/outbox.cif.g09.slc.cpg/sg41_4_cif.got.tgz:7351.got - 2010.04.14 01:55:53.
