data_PCOD8185353
_publ_section_title
;
Structure prediction by ZEFSAII (Michael W. Deem and Ramdas Pophale) SiO2 
 PCOD8185353
Probable space group: A B A 2
;
_chemical_formula_sum "Si O2"
_cell_formula_units_Z 52
_cell_length_a 23.837865
_cell_length_b 19.566778
_cell_length_c 5.194754
_cell_angle_alpha 90.000000
_cell_angle_beta 90.000000
_cell_angle_gamma 90.000000
_cell_volume 2422.990212
_symmetry_space_group_name_H-M "A B A 2"
_symmetry_group_IT_number 41
_symmetry_cell_setting 'orthorhombic'
loop_
_space_group_symop_operation_xyz
x,y,z
-x,-y,z
1/2-x,y,1/2+z
1/2+x,-y,1/2+z
x,1/2+y,1/2+z
-x,1/2-y,1/2+z
1/2-x,1/2+y,z
1/2+x,1/2-y,z
loop_
_atom_site_type_symbol
_atom_site_label
_atom_site_fract_x
_atom_site_fract_y
_atom_site_fract_z
Si Si1 0.786504 0.927326 0.955420
Si Si2 0.023407 0.281000 0.414741
Si Si3 0.000000 0.000000 0.599802
Si Si4 0.457477 0.394313 0.253618
Si Si5 0.215223 0.228452 0.937327
Si Si6 0.380312 0.326048 0.626024
Si Si7 0.613239 0.032341 0.384752
O O1 0.742013 0.942424 0.729676
O O2 0.808141 0.848874 0.955943
O O3 0.839455 0.975761 0.913063
O O4 0.011024 0.359462 0.508485
O O5 0.090383 0.279235 0.347787
O O6 0.012944 0.231565 0.657790
O O7 0.003920 0.066564 0.418301
O O8 0.942679 0.000760 0.758867
O O9 0.429594 0.333678 0.416774
O O10 0.406786 0.444445 0.167734
O O11 0.235738 0.240223 0.646141
O O12 0.170025 0.286075 0.996747
O O13 0.362673 0.401371 0.730561
#
# Coordination Sequence:
#
# PCOD8185353 Si02
#       7
#     8   8   4   8   8   8   8
#     4  10  24  47  69  98 136 175 231 288 345 415
#     4  11  22  42  64  94 134 173 216 275 326 401
#     4  10  22  44  66  96 142 184 222 286 344 412
#     4  10  22  43  63  95 143 171 229 280 332 408
#     4  10  24  45  68  96 134 173 222 284 346 405
#     4  10  23  42  68  97 137 173 225 282 335 404
#     4  10  23  42  69 101 138 183 233 284 342 420
#
# _framework density 21.461085000000001
#
# number of rings (size 3 to 8) (size 9 to 14) (size 15 to 20)
#    0.000    1.846    1.538    0.462    8.615    1.231 
#   13.846    0.000    0.000    0.000    0.000    0.000 
#    0.000    0.000    0.000    0.000    0.000    0.000 
#
# Total GULP energy -322166.177116 kJ/mol
# GULP energy per Si atom -12391.006812 kJ/mol
# Density = 2.141224 g / cm^3
# Si number density = 21.461085 Si / 1000 Ang^3
#
#
#
# Elastic Constant Matrix: (Units=GPa)
#
#
# Indices 1 2 3 4 5 6 
#
# 1 93.8133 82.5018 29.1502 0.0000 0.0000 0.0000
# 2 82.5018 126.8138 39.5903 0.0000 0.0000 0.0000
# 3 29.1502 39.5903 100.9686 0.0000 0.0000 0.0000
# 4 0.0000 0.0000 0.0000 30.0247 0.0000 0.0000
# 5 0.0000 0.0000 0.0000 0.0000 13.8889 0.0000
# 6 0.0000 0.0000 0.0000 0.0000 0.0000 49.5199
#
#
#
# Elastic Compliance Matrix: (Units=1/GPa)
#
#
# Indices 1 2 3 4 5 6 
#
# 1 0.024994 -0.015962 -0.000957 0.000000 0.000000 0.000000
# 2 -0.015962 0.019179 -0.002912 0.000000 0.000000 0.000000
# 3 -0.000957 -0.002912 0.011322 0.000000 0.000000 0.000000
# 4 0.000000 0.000000 0.000000 0.033306 0.000000 0.000000
# 5 0.000000 0.000000 0.000000 0.000000 0.072000 0.000000
# 6 0.000000 0.000000 0.000000 0.000000 0.000000 0.020194
#
#
# Mechanical properties :
#
#
# Convention : Reuss Voigt Hill
#
# Bulk Modulus (GPa) = 63.15739 69.34224 66.24981
# Shear Modulus (GPa) = 22.13038 30.04361 26.08700
#
# Velocity S-wave (km/s) = 3.21469 3.74560 3.49025
# Velocity P-wave (km/s) = 6.57812 7.14751 6.86872
#
# Compressibility (1/GPa) = 0.01583346
#
# Stress axis : x y z
#
# Youngs Moduli (GPa) = 40.00981 52.14090 88.32189
#
# Poissons Ratio (x) = 0.83225 0.08455
# Poissons Ratio (y) = 0.63862 0.25719
# Poissons Ratio (z) = 0.03830 0.15183
#
# Static dielectric constant tensor:
#      x y z
#    x 3.556280 0.000000 0.000000 
#    y 0.000000 4.027740 0.000000 
#    z 0.000000 0.000000 4.398190 
# 
# 
# High freq. dielectric constant tensor:
#      x y z
#    x 1.808530 0.000000 0.000000 
#    y 0.000000 1.847720 0.000000 
#    z 0.000000 0.000000 1.871370 
# 
# From -- ./inp_files/712.got.cif
#   From: 2010.03.12/outbox.cif.g09.slc.cpg/sg41_1_cif.got.tgz:712.got - 2010.04.14 01:55:53.
