data_PCOD8185763
_publ_section_title
;
Structure prediction by ZEFSAII (Michael W. Deem and Ramdas Pophale) SiO2 
 PCOD8185763
Probable space group: F M M 2
;
_chemical_formula_sum "Si O2"
_cell_formula_units_Z 80
_cell_length_a 8.850576
_cell_length_b 26.177134
_cell_length_c 18.628750
_cell_angle_alpha 90.000000
_cell_angle_beta 90.000000
_cell_angle_gamma 90.000000
_cell_volume 4315.959357
_symmetry_space_group_name_H-M "F M M 2"
_symmetry_group_IT_number 42
_symmetry_cell_setting 'orthorhombic'
loop_
_space_group_symop_operation_xyz
x,y,z
-x,-y,z
-x,y,z
x,-y,z
x,1/2+y,1/2+z
-x,1/2-y,1/2+z
-x,1/2+y,1/2+z
x,1/2-y,1/2+z
1/2+x,y,1/2+z
1/2-x,-y,1/2+z
1/2-x,y,1/2+z
1/2+x,-y,1/2+z
1/2+x,1/2+y,z
1/2-x,1/2-y,z
1/2-x,1/2+y,z
1/2+x,1/2-y,z
loop_
_atom_site_type_symbol
_atom_site_label
_atom_site_fract_x
_atom_site_fract_y
_atom_site_fract_z
Si Si1 0.320304 0.000000 0.963990
Si Si2 0.177573 0.500000 0.124909
Si Si3 0.672914 0.589185 0.210331
Si Si4 0.678225 0.902909 0.876048
Si Si5 0.821550 0.199672 0.872441
Si Si6 0.675954 0.701924 0.217295
O O1 0.260833 0.049963 0.922769
O O2 0.500000 0.000000 0.963031
O O3 0.254314 0.000000 0.044551
O O4 0.225929 0.448916 0.165214
O O5 0.000000 0.500000 0.120175
O O6 0.500000 0.571564 0.203052
O O7 0.722776 0.586893 0.293368
O O8 0.694879 0.646903 0.178742
O O9 0.500000 0.894529 0.882788
O O10 0.759376 0.852472 0.907781
O O11 0.750000 0.250000 0.910720
O O12 0.769619 0.199269 0.790310
O O13 0.000000 0.201835 0.879737
O O14 0.500000 0.712232 0.233741
O O15 0.750000 0.750000 0.172968
#
# Coordination Sequence:
#
# PCOD8185763 Si02
#       6
#     8   8  16  16  16  16
#     4   9  19  35  53  71  94 127 164 202 246 291
#     4  11  22  33  49  73  98 127 162 202 246 289
#     4   9  18  32  51  73  97 129 162 195 239 288
#     4   9  17  33  54  72  94 127 167 203 236 282
#     4  10  17  26  43  71 103 129 156 193 240 287
#     4   9  16  27  45  70  98 128 160 194 238 285
#
# _framework density 18.535855999999999
#
# number of rings (size 3 to 8) (size 9 to 14) (size 15 to 20)
#    0.000    2.600    0.000    5.700    0.000    5.600 
#    0.000    2.500    0.000    1.200    0.000    2.800 
#    0.000    0.000    0.000    0.000    0.000    0.000 
#
# Total GULP energy -247857.453531 kJ/mol
# GULP energy per Si atom -12392.872677 kJ/mol
# Density = 1.849367 g / cm^3
# Si number density = 18.535856 Si / 1000 Ang^3
#
#
#
# Elastic Constant Matrix: (Units=GPa)
#
#
# Indices 1 2 3 4 5 6 
#
# 1 89.1159 65.9899 28.6900 0.0000 0.0000 0.0000
# 2 65.9899 198.9771 58.7194 0.0000 0.0000 0.0000
# 3 28.6900 58.7194 62.8001 0.0000 0.0000 0.0000
# 4 0.0000 0.0000 0.0000 0.0680 0.0000 0.0000
# 5 0.0000 0.0000 0.0000 0.0000 12.9445 0.0000
# 6 0.0000 0.0000 0.0000 0.0000 0.0000 39.3016
#
#
#
# Elastic Compliance Matrix: (Units=1/GPa)
#
#
# Indices 1 2 3 4 5 6 
#
# 1 0.015299 -0.004159 -0.003101 0.000000 0.000000 0.000000
# 2 -0.004159 0.008071 -0.005647 0.000000 0.000000 0.000000
# 3 -0.003101 -0.005647 0.022620 0.000000 0.000000 0.000000
# 4 0.000000 0.000000 0.000000 14.716512 0.000000 0.000000
# 5 0.000000 0.000000 0.000000 0.000000 0.077253 0.000000
# 6 0.000000 0.000000 0.000000 0.000000 0.000000 0.025444
#
#
# Mechanical properties :
#
#
# Convention : Reuss Voigt Hill
#
# Bulk Modulus (GPa) = 49.56001 73.07685 61.31843
# Shear Modulus (GPa) = 0.33562 23.62907 11.98235
#
# Velocity S-wave (km/s) = 0.42598 3.57427 2.54528
# Velocity P-wave (km/s) = 5.19975 7.51958 6.46457
#
# Compressibility (1/GPa) = 0.02017756
#
# Stress axis : x y z
#
# Youngs Moduli (GPa) = 65.36281 123.89374 44.20836
#
# Poissons Ratio (x) = 0.51526 0.13708
# Poissons Ratio (y) = 0.27183 0.24964
# Poissons Ratio (z) = 0.20268 0.69963
#
# Static dielectric constant tensor:
#      x y z
#    x 3.313370 0.000000 0.000000 
#    y 0.000000 4.337000 0.000000 
#    z 0.000000 0.000000 2.966770 
# 
# 
# High freq. dielectric constant tensor:
#      x y z
#    x 1.712520 0.000000 0.000000 
#    y 0.000000 1.752530 0.000000 
#    z 0.000000 0.000000 1.652360 
# 
# From -- ./inp_files/18255.got.cif
#   From: 2010.03.12/outbox.cif.g09.slc.cpg/sg42_10_cif.got.tgz:18255.got - 2010.04.14 02:04:31.
