data_PCOD8185870
_publ_section_title
;
Structure prediction by ZEFSAII (Michael W. Deem and Ramdas Pophale) SiO2 
 PCOD8185870
Probable space group: F M M 2
;
_chemical_formula_sum "Si O2"
_cell_formula_units_Z 68
_cell_length_a 15.441766
_cell_length_b 7.948728
_cell_length_c 26.697108
_cell_angle_alpha 90.000000
_cell_angle_beta 90.000000
_cell_angle_gamma 90.000000
_cell_volume 3276.867050
_symmetry_space_group_name_H-M "F M M 2"
_symmetry_group_IT_number 42
_symmetry_cell_setting 'orthorhombic'
loop_
_space_group_symop_operation_xyz
x,y,z
-x,-y,z
-x,y,z
x,-y,z
x,1/2+y,1/2+z
-x,1/2-y,1/2+z
-x,1/2+y,1/2+z
x,1/2-y,1/2+z
1/2+x,y,1/2+z
1/2-x,-y,1/2+z
1/2-x,y,1/2+z
1/2+x,-y,1/2+z
1/2+x,1/2+y,z
1/2-x,1/2-y,z
1/2-x,1/2+y,z
1/2+x,1/2-y,z
loop_
_atom_site_type_symbol
_atom_site_label
_atom_site_fract_x
_atom_site_fract_y
_atom_site_fract_z
Si Si1 0.103157 0.815459 0.408550
Si Si2 0.500000 0.000000 0.255722
Si Si3 0.000000 0.686262 0.682566
Si Si4 0.656658 0.692289 0.620873
Si Si5 0.100708 0.303440 0.516660
Si Si6 0.596342 0.500000 0.851444
O O1 0.133764 0.776112 0.464877
O O2 0.142228 0.671396 0.371355
O O3 0.000000 0.818148 0.405222
O O4 0.139404 0.000000 0.392880
O O5 0.500000 0.170429 0.224405
O O6 0.413518 0.000000 0.290895
O O7 0.084096 0.696803 0.647666
O O8 0.000000 0.500000 0.707631
O O9 0.640023 0.500000 0.635617
O O10 0.750000 0.750000 0.640906
O O11 0.653234 0.716047 0.561206
O O12 0.120445 0.500000 0.516151
O O13 0.000000 0.265062 0.524929
O O14 0.500000 0.500000 0.876439
#
# Coordination Sequence:
#
# PCOD8185870 Si02
#       6
#    16   4   8  16  16   8
#     4   9  15  25  45  76 117 151 190 236 294 353
#     4  10  22  38  60  82 122 156 202 268 324 368
#     4  12  24  44  63  89 127 162 206 271 318 371
#     4  12  24  40  61  90 127 169 215 255 309 377
#     4  10  18  30  52  83 122 164 196 239 293 356
#     4   8  16  30  48  77 113 142 192 252 301 349
#
# _framework density 20.751528
#
# number of rings (size 3 to 8) (size 9 to 14) (size 15 to 20)
#    0.353    1.412    3.529    2.824    0.000    1.882 
#    0.000    0.000    0.000    0.000    0.000    1.647 
#    0.000    0.000    0.000    0.000    0.000    0.000 
#
# Total GULP energy -210754.548391 kJ/mol
# GULP energy per Si atom -12397.326376 kJ/mol
# Density = 2.070430 g / cm^3
# Si number density = 20.751528 Si / 1000 Ang^3
#
#
#
# Elastic Constant Matrix: (Units=GPa)
#
#
# Indices 1 2 3 4 5 6 
#
# 1 66.1348 25.5135 20.2466 0.0000 0.0000 0.0000
# 2 25.5135 180.8022 59.5777 0.0000 0.0000 0.0000
# 3 20.2466 59.5777 113.8621 0.0000 0.0000 0.0000
# 4 0.0000 0.0000 0.0000 32.2687 0.0000 0.0000
# 5 0.0000 0.0000 0.0000 0.0000 0.2207 0.0000
# 6 0.0000 0.0000 0.0000 0.0000 0.0000 17.1035
#
#
#
# Elastic Compliance Matrix: (Units=1/GPa)
#
#
# Indices 1 2 3 4 5 6 
#
# 1 0.016381 -0.001633 -0.002058 0.000000 0.000000 0.000000
# 2 -0.001633 0.006846 -0.003292 0.000000 0.000000 0.000000
# 3 -0.002058 -0.003292 0.010871 0.000000 0.000000 0.000000
# 4 0.000000 0.000000 0.000000 0.030990 0.000000 0.000000
# 5 0.000000 0.000000 0.000000 0.000000 4.530740 0.000000
# 6 0.000000 0.000000 0.000000 0.000000 0.000000 0.058468
#
#
# Mechanical properties :
#
#
# Convention : Reuss Voigt Hill
#
# Bulk Modulus (GPa) = 49.67374 63.49720 56.58547
# Shear Modulus (GPa) = 1.06953 26.94933 14.00943
#
# Velocity S-wave (km/s) = 0.71869 3.60761 2.60109
# Velocity P-wave (km/s) = 4.96770 6.92953 6.02895
#
# Compressibility (1/GPa) = 0.02013136
#
# Stress axis : x y z
#
# Youngs Moduli (GPa) = 61.04694 146.06890 91.98864
#
# Poissons Ratio (x) = 0.23858 0.18933
# Poissons Ratio (y) = 0.09971 0.30280
# Poissons Ratio (z) = 0.12564 0.48082
#
# Static dielectric constant tensor:
#      x y z
#    x 3.280490 0.000000 0.000000 
#    y 0.000000 4.077800 0.000000 
#    z 0.000000 0.000000 3.515660 
# 
# 
# High freq. dielectric constant tensor:
#      x y z
#    x 1.770090 0.000000 0.000000 
#    y 0.000000 1.835780 0.000000 
#    z 0.000000 0.000000 1.784920 
# 
# From -- ./inp_files/29796.got.cif
#   From: 2010.03.12/outbox.cif.g09.slc.cpg/sg42_15_cif.got.tgz:29796.got - 2010.04.14 02:04:31.
