data_PCOD8185448
_publ_section_title
;
Structure prediction by ZEFSAII (Michael W. Deem and Ramdas Pophale) SiO2 
 PCOD8185448
Probable space group: A B A 2
;
_chemical_formula_sum "Si O2"
_cell_formula_units_Z 60
_cell_length_a 9.178046
_cell_length_b 10.605643
_cell_length_c 26.273110
_cell_angle_alpha 90.000000
_cell_angle_beta 90.000000
_cell_angle_gamma 90.000000
_cell_volume 2557.400338
_symmetry_space_group_name_H-M "A B A 2"
_symmetry_group_IT_number 41
_symmetry_cell_setting 'orthorhombic'
loop_
_space_group_symop_operation_xyz
x,y,z
-x,-y,z
1/2-x,y,1/2+z
1/2+x,-y,1/2+z
x,1/2+y,1/2+z
-x,1/2-y,1/2+z
1/2-x,1/2+y,z
1/2+x,1/2-y,z
loop_
_atom_site_type_symbol
_atom_site_label
_atom_site_fract_x
_atom_site_fract_y
_atom_site_fract_z
Si Si1 0.000000 0.000000 0.602551
Si Si2 0.053608 0.360555 0.580430
Si Si3 0.164415 0.967455 0.870152
Si Si4 0.662299 0.682736 0.536625
Si Si5 0.132259 0.694576 0.839055
Si Si6 0.157367 0.708143 0.168919
Si Si7 0.551429 0.860879 0.726368
Si Si8 0.421010 0.876307 0.930644
O O1 0.081727 0.094695 0.639704
O O2 0.879945 0.051662 0.563287
O O3 0.161517 0.318209 0.534345
O O4 0.146550 0.329657 0.631511
O O5 0.000000 0.500000 0.579642
O O6 0.901982 0.286545 0.574997
O O7 0.171713 0.843822 0.832305
O O8 0.256127 0.916660 0.917527
O O9 0.233144 0.099616 0.850611
O O10 0.000000 0.000000 0.885975
O O11 0.597551 0.711463 0.480184
O O12 0.078682 0.640952 0.786059
O O13 0.007542 0.684858 0.883049
O O14 0.316523 0.671982 0.188282
O O15 0.068774 0.751911 0.218797
O O16 0.500000 0.000000 0.710952
O O17 0.500000 0.000000 0.950309
#
# Coordination Sequence:
#
# PCOD8185448 Si02
#       8
#     4   8   8   8   8   8   8   8
#     4  10  24  46  72 106 150 192 250 310 372 450
#     4  11  27  48  73 107 151 194 252 315 378 461
#     4  11  25  46  76 104 148 195 247 311 386 446
#     4  11  25  45  74 106 146 199 247 306 391 447
#     4  11  27  50  75 109 156 196 254 322 384 465
#     4  11  27  46  75 108 148 195 247 311 379 450
#     4  12  29  48  78 110 150 199 252 309 386 462
#     4  10  23  46  70 107 150 194 248 313 374 464
#
# _framework density 23.461324000000001
#
# number of rings (size 3 to 8) (size 9 to 14) (size 15 to 20)
#    0.000    1.067    0.667    4.000   16.800    0.533 
#    2.400    0.000    0.000    0.000    0.000    0.000 
#    0.000    0.000    0.000    0.000    0.000    0.000 
#
# Total GULP energy -371655.016529 kJ/mol
# GULP energy per Si atom -12388.500551 kJ/mol
# Density = 2.340793 g / cm^3
# Si number density = 23.461324 Si / 1000 Ang^3
#
#
#
# Elastic Constant Matrix: (Units=GPa)
#
#
# Indices 1 2 3 4 5 6 
#
# 1 144.8485 65.4779 39.8927 0.0000 0.0000 0.0000
# 2 65.4779 115.5100 24.5967 0.0000 0.0000 0.0000
# 3 39.8927 24.5967 116.3034 0.0000 0.0000 0.0000
# 4 0.0000 0.0000 0.0000 19.6355 0.0000 0.0000
# 5 0.0000 0.0000 0.0000 0.0000 -3.2310 0.0000
# 6 0.0000 0.0000 0.0000 0.0000 0.0000 39.3393
#
#
#
# Elastic Compliance Matrix: (Units=1/GPa)
#
#
# Indices 1 2 3 4 5 6 
#
# 1 0.009836 -0.005086 -0.002298 0.000000 0.000000 0.000000
# 2 -0.005086 0.011696 -0.000729 0.000000 0.000000 0.000000
# 3 -0.002298 -0.000729 0.009541 0.000000 0.000000 0.000000
# 4 0.000000 0.000000 0.000000 0.050928 0.000000 0.000000
# 5 0.000000 0.000000 0.000000 0.000000 -0.309502 0.000000
# 6 0.000000 0.000000 0.000000 0.000000 0.000000 0.025420
#
#
# Mechanical properties :
#
#
# Convention : Reuss Voigt Hill
#
# Bulk Modulus (GPa) = 67.35930 70.73295 69.04613
# Shear Modulus (GPa) = -27.63854 27.59507 -0.02173
#
# Velocity S-wave (km/s) = -3.43599 3.43329 -0.09635
# Velocity P-wave (km/s) = 3.60995 6.77723 5.42967
#
# Compressibility (1/GPa) = 0.01484576
#
# Stress axis : x y z
#
# Youngs Moduli (GPa) = 101.66867 85.50208 104.81507
#
# Poissons Ratio (x) = 0.43488 0.24087
# Poissons Ratio (y) = 0.51711 0.07640
# Poissons Ratio (z) = 0.23364 0.06232
#
# Static dielectric constant tensor:
#      x y z
#    x 4.497890 0.000000 0.000000 
#    y 0.000000 4.711450 0.000000 
#    z 0.000000 0.000000 4.077250 
# 
# 
# High freq. dielectric constant tensor:
#      x y z
#    x 1.943050 0.000000 0.000000 
#    y 0.000000 1.936150 0.000000 
#    z 0.000000 0.000000 1.923230 
# 
# From -- ./inp_files/12471.got.cif
#   From: 2010.03.12/outbox.cif.g09.slc.cpg/sg41_7_cif.got.tgz:12471.got - 2010.04.14 01:55:53.
