data_PCOD8185316
_publ_section_title
;
Structure prediction by ZEFSAII (Michael W. Deem and Ramdas Pophale) SiO2 
 PCOD8185316
Probable space group: A B A 2
;
_chemical_formula_sum "Si O2"
_cell_formula_units_Z 56
_cell_length_a 13.486862
_cell_length_b 12.381144
_cell_length_c 14.076565
_cell_angle_alpha 90.000000
_cell_angle_beta 90.000000
_cell_angle_gamma 90.000000
_cell_volume 2350.543964
_symmetry_space_group_name_H-M "A B A 2"
_symmetry_group_IT_number 41
_symmetry_cell_setting 'orthorhombic'
loop_
_space_group_symop_operation_xyz
x,y,z
-x,-y,z
1/2-x,y,1/2+z
1/2+x,-y,1/2+z
x,1/2+y,1/2+z
-x,1/2-y,1/2+z
1/2-x,1/2+y,z
1/2+x,1/2-y,z
loop_
_atom_site_type_symbol
_atom_site_label
_atom_site_fract_x
_atom_site_fract_y
_atom_site_fract_z
Si Si1 0.706996 0.236415 0.685460
Si Si2 0.200877 0.395549 0.869711
Si Si3 0.788560 0.551070 0.557439
Si Si4 0.102219 0.656670 0.605181
Si Si5 0.917913 0.915241 0.310637
Si Si6 0.593106 0.942891 0.134447
Si Si7 0.494321 0.816727 0.971909
O O1 0.731498 0.192727 0.790749
O O2 0.657514 0.142134 0.621927
O O3 0.807673 0.263127 0.629248
O O4 0.635332 0.340516 0.693636
O O5 0.183741 0.514607 0.819763
O O6 0.110231 0.349466 0.929167
O O7 0.285752 0.409384 0.948420
O O8 0.858736 0.448326 0.552458
O O9 0.681953 0.524166 0.606526
O O10 0.054874 0.625228 0.706100
O O11 0.020889 0.708764 0.534775
O O12 0.926742 0.812336 0.383175
O O13 0.000000 0.000000 0.344557
O O14 0.500000 0.000000 0.191460
O O15 0.541774 0.907028 0.037682
#
# Coordination Sequence:
#
# PCOD8185316 Si02
#       7
#     8   8   8   8   8   8   8
#     4  11  25  39  68 104 136 182 232 296 354 422
#     4  11  21  42  66  95 135 181 233 272 367 417
#     4  11  22  44  65 100 142 184 234 296 352 426
#     4  11  24  41  68 100 139 175 241 296 349 417
#     4  10  22  40  66  95 134 184 230 280 351 434
#     4  11  21  42  71  94 134 189 236 285 355 426
#     4  11  22  40  68 100 129 185 236 284 349 432
#
# _framework density 23.824272000000001
#
# number of rings (size 3 to 8) (size 9 to 14) (size 15 to 20)
#    0.000    1.143    5.714    0.429    4.000    2.286 
#    0.000    0.000    0.000    0.857    0.000    0.000 
#    0.000    0.000    0.000    0.000    0.000    0.000 
#
# Total GULP energy -346896.257379 kJ/mol
# GULP energy per Si atom -12389.152049 kJ/mol
# Density = 2.377005 g / cm^3
# Si number density = 23.824272 Si / 1000 Ang^3
#
#
#
# Elastic Constant Matrix: (Units=GPa)
#
#
# Indices 1 2 3 4 5 6 
#
# 1 34.2724 33.1860 10.5952 0.0000 0.0000 0.0000
# 2 33.1860 130.0473 71.8007 0.0000 0.0000 0.0000
# 3 10.5952 71.8007 150.1715 0.0000 0.0000 0.0000
# 4 0.0000 0.0000 0.0000 50.1715 0.0000 0.0000
# 5 0.0000 0.0000 0.0000 0.0000 18.2301 0.0000
# 6 0.0000 0.0000 0.0000 0.0000 0.0000 17.8536
#
#
#
# Elastic Compliance Matrix: (Units=1/GPa)
#
#
# Indices 1 2 3 4 5 6 
#
# 1 0.039583 -0.011629 0.002767 0.000000 0.000000 0.000000
# 2 -0.011629 0.013864 -0.005808 0.000000 0.000000 0.000000
# 3 0.002767 -0.005808 0.009241 0.000000 0.000000 0.000000
# 4 0.000000 0.000000 0.000000 0.019932 0.000000 0.000000
# 5 0.000000 0.000000 0.000000 0.000000 0.054854 0.000000
# 6 0.000000 0.000000 0.000000 0.000000 0.000000 0.056011
#
#
# Mechanical properties :
#
#
# Convention : Reuss Voigt Hill
#
# Bulk Modulus (GPa) = 29.98679 60.62834 45.30756
# Shear Modulus (GPa) = 21.37307 30.51166 25.94236
#
# Velocity S-wave (km/s) = 2.99843 3.58256 3.30344
# Velocity P-wave (km/s) = 4.95999 6.52812 5.79732
#
# Compressibility (1/GPa) = 0.03334802
#
# Stress axis : x y z
#
# Youngs Moduli (GPa) = 25.26360 72.13078 108.21551
#
# Poissons Ratio (x) = 0.83879 -0.29946
# Poissons Ratio (y) = 0.29378 0.62853
# Poissons Ratio (z) = -0.06991 0.41894
#
# Static dielectric constant tensor:
#      x y z
#    x 4.376560 0.000000 0.000000 
#    y 0.000000 4.561480 0.000000 
#    z 0.000000 0.000000 4.390050 
# 
# 
# High freq. dielectric constant tensor:
#      x y z
#    x 1.923370 0.000000 0.000000 
#    y 0.000000 1.946380 0.000000 
#    z 0.000000 0.000000 1.940830 
# 
# From -- ./inp_files/8408.got.cif
#   From: 2010.03.12/outbox.cif.g09.slc.cpg/sg41_5_cif.got.tgz:8408.got - 2010.04.14 01:55:53.
