data_PCOD8185089
_publ_section_title
;
Structure prediction by ZEFSAII (Michael W. Deem and Ramdas Pophale) SiO2 
 PCOD8185089
Probable space group: A B A 2
;
_chemical_formula_sum "Si O2"
_cell_formula_units_Z 56
_cell_length_a 14.844717
_cell_length_b 5.229583
_cell_length_c 34.231127
_cell_angle_alpha 90.000000
_cell_angle_beta 90.000000
_cell_angle_gamma 90.000000
_cell_volume 2657.419886
_symmetry_space_group_name_H-M "A B A 2"
_symmetry_group_IT_number 41
_symmetry_cell_setting 'orthorhombic'
loop_
_space_group_symop_operation_xyz
x,y,z
-x,-y,z
1/2-x,y,1/2+z
1/2+x,-y,1/2+z
x,1/2+y,1/2+z
-x,1/2-y,1/2+z
1/2-x,1/2+y,z
1/2+x,1/2-y,z
loop_
_atom_site_type_symbol
_atom_site_label
_atom_site_fract_x
_atom_site_fract_y
_atom_site_fract_z
Si Si1 0.850079 0.805809 0.014110
Si Si2 0.808295 0.253098 0.195732
Si Si3 0.303259 0.301050 0.282934
Si Si4 0.559524 0.746872 0.437073
Si Si5 0.440108 0.251990 0.126410
Si Si6 0.647712 0.305896 0.547526
Si Si7 0.557683 0.746745 0.349925
O O1 0.900988 0.571049 0.035586
O O2 0.749364 0.838025 0.031149
O O3 0.900698 0.069000 0.025643
O O4 0.856484 0.765589 0.967291
O O5 0.762329 0.526168 0.187560
O O6 0.846205 0.240673 0.240025
O O7 0.894415 0.221075 0.168403
O O8 0.278664 0.599625 0.287000
O O9 0.367641 0.220728 0.317538
O O10 0.500000 0.500000 0.447473
O O11 0.600181 0.717526 0.393383
O O12 0.500000 0.000000 0.440483
O O13 0.500000 0.500000 0.117996
O O14 0.360313 0.232907 0.094060
O O15 0.500000 0.000000 0.125003
O O16 0.500000 0.500000 0.339114
O O17 0.500000 0.000000 0.348579
#
# Coordination Sequence:
#
# PCOD8185089 Si02
#       7
#     8   8   8   8   8   8   8
#     4  10  21  39  58  83 112 160 205 240 300 360
#     4  10  23  41  67  88 125 165 200 244 301 359
#     4  10  21  40  61  96 123 160 207 245 289 358
#     4  10  21  37  59  86 120 156 200 250 298 350
#     4  12  26  41  62  95 123 153 204 256 304 357
#     4  10  23  38  58  83 117 150 206 242 304 358
#     4  10  21  38  61  91 126 164 196 245 310 356
#
# _framework density 21.073073000000001
#
# number of rings (size 3 to 8) (size 9 to 14) (size 15 to 20)
#    0.000    1.714    0.000    3.429    4.000    4.571 
#    5.143    0.000    0.000    0.000    0.000    0.000 
#    0.000    0.000    0.000    0.000    0.000    0.000 
#
# Total GULP energy -347041.646604 kJ/mol
# GULP energy per Si atom -12394.344522 kJ/mol
# Density = 2.102511 g / cm^3
# Si number density = 21.073073 Si / 1000 Ang^3
#
#
#
# Elastic Constant Matrix: (Units=GPa)
#
#
# Indices 1 2 3 4 5 6 
#
# 1 48.0921 4.0631 49.6287 0.0000 0.0000 0.0000
# 2 4.0631 159.1633 18.9309 0.0000 0.0000 0.0000
# 3 49.6287 18.9309 147.1550 0.0000 0.0000 0.0000
# 4 0.0000 0.0000 0.0000 36.3131 0.0000 0.0000
# 5 0.0000 0.0000 0.0000 0.0000 59.3396 0.0000
# 6 0.0000 0.0000 0.0000 0.0000 0.0000 7.8922
#
#
#
# Elastic Compliance Matrix: (Units=1/GPa)
#
#
# Indices 1 2 3 4 5 6 
#
# 1 0.031928 0.000473 -0.010829 0.000000 0.000000 0.000000
# 2 0.000473 0.006387 -0.000981 0.000000 0.000000 0.000000
# 3 -0.010829 -0.000981 0.010574 0.000000 0.000000 0.000000
# 4 0.000000 0.000000 0.000000 0.027538 0.000000 0.000000
# 5 0.000000 0.000000 0.000000 0.000000 0.016852 0.000000
# 6 0.000000 0.000000 0.000000 0.000000 0.000000 0.126707
#
#
# Mechanical properties :
#
#
# Convention : Reuss Voigt Hill
#
# Bulk Modulus (GPa) = 38.14548 55.51731 46.83139
# Shear Modulus (GPa) = 19.88861 39.49482 29.69172
#
# Velocity S-wave (km/s) = 3.07545 4.33388 3.75772
# Velocity P-wave (km/s) = 5.54545 7.17257 6.41084
#
# Compressibility (1/GPa) = 0.02621543
#
# Stress axis : x y z
#
# Youngs Moduli (GPa) = 31.32019 156.55602 94.57295
#
# Poissons Ratio (x) = -0.07404 1.02411
# Poissons Ratio (y) = -0.01481 0.09280
# Poissons Ratio (z) = 0.33916 0.15362
#
# Static dielectric constant tensor:
#      x y z
#    x 3.311520 0.000000 0.000000 
#    y 0.000000 4.925490 0.000000 
#    z 0.000000 0.000000 4.128480 
# 
# 
# High freq. dielectric constant tensor:
#      x y z
#    x 1.782710 0.000000 0.000000 
#    y 0.000000 1.866880 0.000000 
#    z 0.000000 0.000000 1.841010 
# 
# From -- ./inp_files/12737.got.cif
#   From: 2010.03.12/outbox.cif.g09.slc.cpg/sg41_7_cif.got.tgz:12737.got - 2010.04.14 01:55:53.
