data_PCOD8185132
_publ_section_title
;
Structure prediction by ZEFSAII (Michael W. Deem and Ramdas Pophale) SiO2 
 PCOD8185132
Probable space group: A B A 2
;
_chemical_formula_sum "Si O2"
_cell_formula_units_Z 56
_cell_length_a 4.847991
_cell_length_b 22.193842
_cell_length_c 24.835055
_cell_angle_alpha 90.000000
_cell_angle_beta 90.000000
_cell_angle_gamma 90.000000
_cell_volume 2672.141309
_symmetry_space_group_name_H-M "A B A 2"
_symmetry_group_IT_number 41
_symmetry_cell_setting 'orthorhombic'
loop_
_space_group_symop_operation_xyz
x,y,z
-x,-y,z
1/2-x,y,1/2+z
1/2+x,-y,1/2+z
x,1/2+y,1/2+z
-x,1/2-y,1/2+z
1/2-x,1/2+y,z
1/2+x,1/2-y,z
loop_
_atom_site_type_symbol
_atom_site_label
_atom_site_fract_x
_atom_site_fract_y
_atom_site_fract_z
Si Si1 0.265646 0.881538 0.823090
Si Si2 0.778267 0.450620 0.351018
Si Si3 0.832171 0.210660 0.911667
Si Si4 0.812309 0.128814 0.009527
Si Si5 0.731196 0.209006 0.607816
Si Si6 0.318537 0.555899 0.477092
Si Si7 0.275877 0.791083 0.730433
O O1 0.461186 0.942959 0.828440
O O2 0.313736 0.839440 0.874459
O O3 0.334673 0.848979 0.767290
O O4 0.937012 0.892204 0.828575
O O5 0.748181 0.454839 0.414808
O O6 0.000000 0.500000 0.329904
O O7 0.645231 0.269401 0.901005
O O8 0.871919 0.185996 0.972096
O O9 0.503968 0.112995 0.990878
O O10 0.019487 0.070968 0.003482
O O11 0.825078 0.150787 0.071140
O O12 0.534881 0.265924 0.596335
O O13 0.692695 0.186477 0.669134
O O14 0.500000 0.500000 0.500391
O O15 0.476026 0.735255 0.743091
#
# Coordination Sequence:
#
# PCOD8185132 Si02
#       7
#     8   8   8   8   8   8   8
#     4  12  22  38  59  87 120 156 198 244 301 354
#     4  12  23  40  59  85 117 157 205 249 296 360
#     4  12  22  34  52  84 124 152 182 232 300 362
#     4  12  22  38  59  87 120 156 198 244 301 354
#     4  10  21  39  62  88 119 160 203 240 288 361
#     4  12  23  40  59  85 117 157 205 249 296 360
#     4  10  21  39  62  88 119 160 203 240 288 361
#
# _framework density 20.956976000000001
#
# number of rings (size 3 to 8) (size 9 to 14) (size 15 to 20)
#    0.000    0.571    2.857    7.714    0.000    0.000 
#    0.000    0.000    0.000    5.143    0.000    0.000 
#    0.000    0.000    0.000    0.000    0.000    0.000 
#
# Total GULP energy -346878.102825 kJ/mol
# GULP energy per Si atom -12388.503672 kJ/mol
# Density = 2.090928 g / cm^3
# Si number density = 20.956976 Si / 1000 Ang^3
#
#
#
# Elastic Constant Matrix: (Units=GPa)
#
#
# Indices 1 2 3 4 5 6 
#
# 1 110.7312 14.8123 22.9793 0.0000 0.0000 0.0000
# 2 14.8123 38.0736 23.1088 0.0000 0.0000 0.0000
# 3 22.9793 23.1088 91.3499 0.0000 0.0000 0.0000
# 4 0.0000 0.0000 0.0000 24.8822 0.0000 0.0000
# 5 0.0000 0.0000 0.0000 0.0000 24.0976 0.0000
# 6 0.0000 0.0000 0.0000 0.0000 0.0000 27.3624
#
#
#
# Elastic Compliance Matrix: (Units=1/GPa)
#
#
# Indices 1 2 3 4 5 6 
#
# 1 0.009762 -0.002726 -0.001766 0.000000 0.000000 0.000000
# 2 -0.002726 0.031790 -0.007356 0.000000 0.000000 0.000000
# 3 -0.001766 -0.007356 0.013252 0.000000 0.000000 0.000000
# 4 0.000000 0.000000 0.000000 0.040189 0.000000 0.000000
# 5 0.000000 0.000000 0.000000 0.000000 0.041498 0.000000
# 6 0.000000 0.000000 0.000000 0.000000 0.000000 0.036547
#
#
# Mechanical properties :
#
#
# Convention : Reuss Voigt Hill
#
# Bulk Modulus (GPa) = 32.14622 40.21726 36.18174
# Shear Modulus (GPa) = 24.14245 27.21872 25.68058
#
# Velocity S-wave (km/s) = 3.39780 3.60778 3.50436
# Velocity P-wave (km/s) = 5.54669 6.04871 5.80313
#
# Compressibility (1/GPa) = 0.03110786
#
# Stress axis : x y z
#
# Youngs Moduli (GPa) = 102.43776 31.45613 75.45975
#
# Poissons Ratio (x) = 0.08575 0.13327
# Poissons Ratio (y) = 0.27924 0.55510
# Poissons Ratio (z) = 0.18091 0.23140
#
# Static dielectric constant tensor:
#      x y z
#    x 4.214100 0.000000 0.000000 
#    y 0.000000 4.004940 0.000000 
#    z 0.000000 0.000000 3.527160 
# 
# 
# High freq. dielectric constant tensor:
#      x y z
#    x 1.855050 0.000000 0.000000 
#    y 0.000000 1.815780 0.000000 
#    z 0.000000 0.000000 1.784360 
# 
# From -- ./inp_files/11868.got.cif
#   From: 2010.03.12/outbox.cif.g09.slc.cpg/sg41_6_cif.got.tgz:11868.got - 2010.04.14 01:55:53.
