data_PCOD8185677
_publ_section_title
;
Structure prediction by ZEFSAII (Michael W. Deem and Ramdas Pophale) SiO2 
 PCOD8185677
Probable space group: A B A 2
;
_chemical_formula_sum "Si O2"
_cell_formula_units_Z 48
_cell_length_a 10.803341
_cell_length_b 8.298988
_cell_length_c 22.036915
_cell_angle_alpha 90.000000
_cell_angle_beta 90.000000
_cell_angle_gamma 90.000000
_cell_volume 1975.759222
_symmetry_space_group_name_H-M "A B A 2"
_symmetry_group_IT_number 41
_symmetry_cell_setting 'orthorhombic'
loop_
_space_group_symop_operation_xyz
x,y,z
-x,-y,z
1/2-x,y,1/2+z
1/2+x,-y,1/2+z
x,1/2+y,1/2+z
-x,1/2-y,1/2+z
1/2-x,1/2+y,z
1/2+x,1/2-y,z
loop_
_atom_site_type_symbol
_atom_site_label
_atom_site_fract_x
_atom_site_fract_y
_atom_site_fract_z
Si Si1 0.414862 0.357766 0.076500
Si Si2 0.862703 0.835836 0.693669
Si Si3 0.411114 0.859522 0.373936
Si Si4 0.236256 0.023894 0.978533
Si Si5 0.381686 0.808408 0.240244
Si Si6 0.940251 0.189749 0.469916
O O1 0.500000 0.500000 0.105064
O O2 0.367877 0.228580 0.124915
O O3 0.302920 0.449015 0.043078
O O4 0.484476 0.252961 0.026596
O O5 0.723431 0.806588 0.715026
O O6 0.975874 0.747227 0.730153
O O7 0.874969 0.026786 0.701736
O O8 0.312757 0.926664 0.420808
O O9 0.348034 0.804933 0.311596
O O10 0.489728 0.718367 0.406507
O O11 0.500000 0.000000 0.351464
O O12 0.388355 0.997358 0.975294
O O13 0.190820 0.206795 0.971588
#
# Coordination Sequence:
#
# PCOD8185677 Si02
#       6
#     8   8   8   8   8   8
#     4   9  21  40  61  93 134 172 219 276 342 409
#     4  11  26  44  67  98 133 182 228 281 342 410
#     4   9  18  39  60  85 130 164 217 271 336 395
#     4   9  19  34  64  89 119 173 206 274 333 396
#     4  11  26  44  67  98 131 184 228 283 341 407
#     4   9  19  37  63  93 126 170 216 276 345 394
#
# _framework density 24.294457000000001
#
# number of rings (size 3 to 8) (size 9 to 14) (size 15 to 20)
#    0.000    2.333    1.667    2.000    7.000    1.333 
#    3.000    2.500    3.667    0.000    0.000    0.000 
#    0.000    0.000    0.000    0.000    0.000    0.000 
#
# Total GULP energy -297330.338402 kJ/mol
# GULP energy per Si atom -12388.764100 kJ/mol
# Density = 2.423916 g / cm^3
# Si number density = 24.294457 Si / 1000 Ang^3
#
#
#
# Elastic Constant Matrix: (Units=GPa)
#
#
# Indices 1 2 3 4 5 6 
#
# 1 70.7243 -9.1603 -7.7192 0.0000 0.0000 0.0000
# 2 -9.1603 68.7182 23.3516 0.0000 0.0000 0.0000
# 3 -7.7192 23.3516 121.1243 0.0000 0.0000 0.0000
# 4 0.0000 0.0000 0.0000 17.6397 0.0000 0.0000
# 5 0.0000 0.0000 0.0000 0.0000 38.7003 0.0000
# 6 0.0000 0.0000 0.0000 0.0000 0.0000 30.7616
#
#
#
# Elastic Compliance Matrix: (Units=1/GPa)
#
#
# Indices 1 2 3 4 5 6 
#
# 1 0.014427 0.001724 0.000587 0.000000 0.000000 0.000000
# 2 0.001724 0.015778 -0.002932 0.000000 0.000000 0.000000
# 3 0.000587 -0.002932 0.008859 0.000000 0.000000 0.000000
# 4 0.000000 0.000000 0.000000 0.056690 0.000000 0.000000
# 5 0.000000 0.000000 0.000000 0.000000 0.025840 0.000000
# 6 0.000000 0.000000 0.000000 0.000000 0.000000 0.032508
#
#
# Mechanical properties :
#
#
# Convention : Reuss Voigt Hill
#
# Bulk Modulus (GPa) = 26.44029 30.39009 28.41519
# Shear Modulus (GPa) = 29.77055 34.35998 32.06527
#
# Velocity S-wave (km/s) = 3.50438 3.76482 3.63693
# Velocity P-wave (km/s) = 5.22313 5.60666 5.41829
#
# Compressibility (1/GPa) = 0.03782106
#
# Stress axis : x y z
#
# Youngs Moduli (GPa) = 69.31571 63.37818 112.88374
#
# Poissons Ratio (x) = -0.10924 -0.06628
# Poissons Ratio (y) = -0.11947 0.33098
# Poissons Ratio (z) = -0.04070 0.18583
#
# Static dielectric constant tensor:
#      x y z
#    x 4.997670 0.000000 0.000000 
#    y 0.000000 4.686710 0.000000 
#    z 0.000000 0.000000 4.222350 
# 
# 
# High freq. dielectric constant tensor:
#      x y z
#    x 1.989520 0.000000 0.000000 
#    y 0.000000 1.961560 0.000000 
#    z 0.000000 0.000000 1.956710 
# 
# From -- ./inp_files/12110.got.cif
#   From: 2010.03.12/outbox.cif.g09.slc.cpg/sg41_7_cif.got.tgz:12110.got - 2010.04.14 01:55:53.
