data_PCOD8185585
_publ_section_title
;
Structure prediction by ZEFSAII (Michael W. Deem and Ramdas Pophale) SiO2 
 PCOD8185585
Probable space group: A B A 2
;
_chemical_formula_sum "Si O2"
_cell_formula_units_Z 60
_cell_length_a 11.909626
_cell_length_b 16.873898
_cell_length_c 14.200272
_cell_angle_alpha 90.000000
_cell_angle_beta 90.000000
_cell_angle_gamma 90.000000
_cell_volume 2853.712425
_symmetry_space_group_name_H-M "A B A 2"
_symmetry_group_IT_number 41
_symmetry_cell_setting 'orthorhombic'
loop_
_space_group_symop_operation_xyz
x,y,z
-x,-y,z
1/2-x,y,1/2+z
1/2+x,-y,1/2+z
x,1/2+y,1/2+z
-x,1/2-y,1/2+z
1/2-x,1/2+y,z
1/2+x,1/2-y,z
loop_
_atom_site_type_symbol
_atom_site_label
_atom_site_fract_x
_atom_site_fract_y
_atom_site_fract_z
Si Si1 0.867241 0.989190 0.883640
Si Si2 0.736047 0.224432 0.077022
Si Si3 0.800699 0.906961 0.056416
Si Si4 0.405690 0.342843 0.220857
Si Si5 0.099818 0.556824 0.179892
Si Si6 0.947165 0.699523 0.219924
Si Si7 0.776803 0.654948 0.377205
Si Si8 0.000000 0.000000 0.153195
O O1 0.798583 0.066858 0.915337
O O2 0.841175 0.975779 0.774061
O O3 0.000000 0.000000 0.900967
O O4 0.811887 0.917235 0.943483
O O5 0.710321 0.317066 0.089126
O O6 0.847568 0.192759 0.127541
O O7 0.631488 0.182383 0.129195
O O8 0.750815 0.208804 0.967063
O O9 0.689639 0.948864 0.096580
O O10 0.912778 0.950269 0.091578
O O11 0.518318 0.291112 0.231502
O O12 0.331125 0.333366 0.312811
O O13 0.433784 0.435851 0.215336
O O14 0.000000 0.500000 0.147368
O O15 0.056263 0.644951 0.204130
O O16 0.887166 0.679027 0.318356
#
# Coordination Sequence:
#
# PCOD8185585 Si02
#       8
#     8   8   8   8   8   8   8   4
#     4  11  23  42  70 101 134 184 235 279 352 421
#     4  11  26  43  68 100 139 180 230 291 351 416
#     4  12  25  43  70 105 137 182 235 288 352 425
#     4  11  25  46  70  99 137 184 234 293 356 414
#     4  11  24  45  70  97 137 187 231 288 358 415
#     4  11  23  46  69  98 138 185 235 289 355 424
#     4  11  25  44  68 102 138 181 234 290 348 427
#     4  12  24  44  74 100 142 182 238 300 350 418
#
# _framework density 21.025245000000002
#
# number of rings (size 3 to 8) (size 9 to 14) (size 15 to 20)
#    0.000    0.800    6.000    1.600    5.600    1.067 
#    2.400    0.000    1.467    0.000    0.000    0.000 
#    0.000    0.000    0.000    0.000    0.000    0.000 
#
# Total GULP energy -371987.400842 kJ/mol
# GULP energy per Si atom -12399.580028 kJ/mol
# Density = 2.097739 g / cm^3
# Si number density = 21.025245 Si / 1000 Ang^3
#
#
#
# Elastic Constant Matrix: (Units=GPa)
#
#
# Indices 1 2 3 4 5 6 
#
# 1 84.9137 26.7057 49.4208 0.0000 0.0000 0.0000
# 2 26.7057 110.8784 23.3272 0.0000 0.0000 0.0000
# 3 49.4208 23.3272 114.5735 0.0000 0.0000 0.0000
# 4 0.0000 0.0000 0.0000 30.1686 0.0000 0.0000
# 5 0.0000 0.0000 0.0000 0.0000 17.4441 0.0000
# 6 0.0000 0.0000 0.0000 0.0000 0.0000 41.0498
#
#
#
# Elastic Compliance Matrix: (Units=1/GPa)
#
#
# Indices 1 2 3 4 5 6 
#
# 1 0.016397 -0.002571 -0.006549 0.000000 0.000000 0.000000
# 2 -0.002571 0.009826 -0.000891 0.000000 0.000000 0.000000
# 3 -0.006549 -0.000891 0.011735 0.000000 0.000000 0.000000
# 4 0.000000 0.000000 0.000000 0.033147 0.000000 0.000000
# 5 0.000000 0.000000 0.000000 0.000000 0.057326 0.000000
# 6 0.000000 0.000000 0.000000 0.000000 0.000000 0.024361
#
#
# Mechanical properties :
#
#
# Convention : Reuss Voigt Hill
#
# Bulk Modulus (GPa) = 55.76238 56.58588 56.17413
# Shear Modulus (GPa) = 27.96527 31.79329 29.87928
#
# Velocity S-wave (km/s) = 3.65098 3.89285 3.77386
# Velocity P-wave (km/s) = 6.65974 6.86859 6.76497
#
# Compressibility (1/GPa) = 0.01793324
#
# Stress axis : x y z
#
# Youngs Moduli (GPa) = 60.98612 101.77321 85.21872
#
# Poissons Ratio (x) = 0.26171 0.55812
# Poissons Ratio (y) = 0.15682 0.07596
# Poissons Ratio (z) = 0.39942 0.09071
#
# Static dielectric constant tensor:
#      x y z
#    x 3.784740 0.000000 0.000000 
#    y 0.000000 3.931000 0.000000 
#    z 0.000000 0.000000 3.726500 
# 
# 
# High freq. dielectric constant tensor:
#      x y z
#    x 1.825460 0.000000 0.000000 
#    y 0.000000 1.833230 0.000000 
#    z 0.000000 0.000000 1.819300 
# 
# From -- ./inp_files/8063.got.cif
#   From: 2010.03.12/outbox.cif.g09.slc.cpg/sg41_5_cif.got.tgz:8063.got - 2010.04.14 01:55:53.
