data_PCOD8185694
_publ_section_title
;
Structure prediction by ZEFSAII (Michael W. Deem and Ramdas Pophale) SiO2 
 PCOD8185694
Probable space group: A B A 2
;
_chemical_formula_sum "Si O2"
_cell_formula_units_Z 36
_cell_length_a 18.419624
_cell_length_b 13.803473
_cell_length_c 5.717149
_cell_angle_alpha 90.000000
_cell_angle_beta 90.000000
_cell_angle_gamma 90.000000
_cell_volume 1453.612476
_symmetry_space_group_name_H-M "A B A 2"
_symmetry_group_IT_number 41
_symmetry_cell_setting 'orthorhombic'
loop_
_space_group_symop_operation_xyz
x,y,z
-x,-y,z
1/2-x,y,1/2+z
1/2+x,-y,1/2+z
x,1/2+y,1/2+z
-x,1/2-y,1/2+z
1/2-x,1/2+y,z
1/2+x,1/2-y,z
loop_
_atom_site_type_symbol
_atom_site_label
_atom_site_fract_x
_atom_site_fract_y
_atom_site_fract_z
Si Si1 0.050393 0.849983 0.529380
Si Si2 0.212521 0.827317 0.971746
Si Si3 0.500000 0.500000 0.171861
Si Si4 0.603483 0.796345 0.203921
Si Si5 0.869128 0.998926 0.845374
O O1 0.106350 0.767305 0.441848
O O2 0.101179 0.927020 0.654784
O O3 0.982992 0.812794 0.680493
O O4 0.014283 0.902807 0.311042
O O5 0.250283 0.799779 0.222726
O O6 0.137041 0.765559 0.986458
O O7 0.197304 0.944086 0.971075
O O8 0.569049 0.469809 0.023858
O O9 0.650858 0.895668 0.227014
#
# Coordination Sequence:
#
# PCOD8185694 Si02
#       5
#     8   8   4   8   8
#     4  12  23  44  73 120 152 179 243 320 394 461
#     4  12  30  52  72 106 154 208 266 309 358 461
#     4  12  20  42  76 112 152 184 230 320 406 446
#     4  12  24  45  79 105 150 198 248 310 390 454
#     4  12  25  48  74 110 151 193 244 321 394 448
#
# _framework density 24.765884
#
# number of rings (size 3 to 8) (size 9 to 14) (size 15 to 20)
#    0.000    0.000    6.667    4.000    0.000    3.556 
#    0.000    0.000    0.000    0.000    0.000    0.000 
#    0.000    0.000    0.000    0.000    0.000    0.000 
#
# Total GULP energy -223077.504980 kJ/mol
# GULP energy per Si atom -12393.194721 kJ/mol
# Density = 2.470952 g / cm^3
# Si number density = 24.765884 Si / 1000 Ang^3
#
#
#
# Elastic Constant Matrix: (Units=GPa)
#
#
# Indices 1 2 3 4 5 6 
#
# 1 41.7910 16.9932 23.0984 0.0000 0.0000 0.0000
# 2 16.9932 172.2209 42.9483 0.0000 0.0000 0.0000
# 3 23.0984 42.9483 124.3498 0.0000 0.0000 0.0000
# 4 0.0000 0.0000 0.0000 52.9965 0.0000 0.0000
# 5 0.0000 0.0000 0.0000 0.0000 45.0538 0.0000
# 6 0.0000 0.0000 0.0000 0.0000 0.0000 29.0321
#
#
#
# Elastic Compliance Matrix: (Units=1/GPa)
#
#
# Indices 1 2 3 4 5 6 
#
# 1 0.027039 -0.001549 -0.004488 0.000000 0.000000 0.000000
# 2 -0.001549 0.006442 -0.001937 0.000000 0.000000 0.000000
# 3 -0.004488 -0.001937 0.009545 0.000000 0.000000 0.000000
# 4 0.000000 0.000000 0.000000 0.018869 0.000000 0.000000
# 5 0.000000 0.000000 0.000000 0.000000 0.022196 0.000000
# 6 0.000000 0.000000 0.000000 0.000000 0.000000 0.034445
#
#
# Mechanical properties :
#
#
# Convention : Reuss Voigt Hill
#
# Bulk Modulus (GPa) = 36.93019 56.04905 46.48962
# Shear Modulus (GPa) = 34.84103 42.43796 38.63949
#
# Velocity S-wave (km/s) = 3.75482 4.14401 3.95421
# Velocity P-wave (km/s) = 5.80882 6.75114 6.29763
#
# Compressibility (1/GPa) = 0.02707811
#
# Stress axis : x y z
#
# Youngs Moduli (GPa) = 36.98393 155.21997 104.77163
#
# Poissons Ratio (x) = 0.24041 0.47017
# Poissons Ratio (y) = 0.05728 0.20299
# Poissons Ratio (z) = 0.16597 0.30073
#
# Static dielectric constant tensor:
#      x y z
#    x 4.402330 0.000000 0.000000 
#    y 0.000000 4.755870 0.000000 
#    z 0.000000 0.000000 4.675520 
# 
# 
# High freq. dielectric constant tensor:
#      x y z
#    x 1.967840 0.000000 0.000000 
#    y 0.000000 2.000100 0.000000 
#    z 0.000000 0.000000 1.993360 
# 
# From -- ./inp_files/629.got.cif
#   From: 2010.03.12/outbox.cif.g09.slc.cpg/sg41_1_cif.got.tgz:629.got - 2010.04.14 01:55:53.
