data_PCOD8185061
_publ_section_title
;
Structure prediction by ZEFSAII (Michael W. Deem and Ramdas Pophale) SiO2 
 PCOD8185061
Probable space group: A B A 2
;
_chemical_formula_sum "Si O2"
_cell_formula_units_Z 56
_cell_length_a 14.378461
_cell_length_b 21.680360
_cell_length_c 8.397218
_cell_angle_alpha 90.000000
_cell_angle_beta 90.000000
_cell_angle_gamma 90.000000
_cell_volume 2617.666537
_symmetry_space_group_name_H-M "A B A 2"
_symmetry_group_IT_number 41
_symmetry_cell_setting 'orthorhombic'
loop_
_space_group_symop_operation_xyz
x,y,z
-x,-y,z
1/2-x,y,1/2+z
1/2+x,-y,1/2+z
x,1/2+y,1/2+z
-x,1/2-y,1/2+z
1/2-x,1/2+y,z
1/2+x,1/2-y,z
loop_
_atom_site_type_symbol
_atom_site_label
_atom_site_fract_x
_atom_site_fract_y
_atom_site_fract_z
Si Si1 0.191945 0.687976 0.354510
Si Si2 0.000000 0.500000 0.198362
Si Si3 0.614753 0.315723 0.493190
Si Si4 0.054793 0.909425 0.452346
Si Si5 0.191945 0.812024 0.542214
Si Si6 0.500000 0.500000 0.198362
Si Si7 0.385247 0.815723 0.403535
Si Si8 0.445207 0.590575 0.944378
O O1 0.302068 0.674576 0.365761
O O2 0.166962 0.750000 0.448362
O O3 0.141996 0.634702 0.453213
O O4 0.156436 0.688710 0.172364
O O5 0.932685 0.456201 0.298799
O O6 0.067315 0.456201 0.097925
O O7 0.541272 0.370640 0.472569
O O8 0.566464 0.250000 0.448362
O O9 0.062193 0.953263 0.299915
O O10 0.141996 0.865298 0.443511
O O11 0.302068 0.825424 0.530963
O O12 0.156436 0.811290 0.724361
O O13 0.437807 0.546737 0.096809
O O14 0.458728 0.870640 0.424156
#
# Coordination Sequence:
#
# PCOD8185061 Si02
#       8
#     8   4   8   8   8   4   8   8
#     4  11  23  40  66  96 126 158 202 257 314 373
#     4  10  20  46  60  86 116 172 208 244 298 366
#     4  11  23  40  66  96 126 158 202 257 314 373
#     4  11  23  44  65  86 128 164 206 257 308 356
#     4  11  23  40  66  96 126 158 202 257 314 373
#     4  10  28  38  68  90 120 168 220 252 286 378
#     4  11  23  40  66  96 126 158 202 257 314 373
#     4  11  23  44  65  86 128 164 206 257 308 356
#
# _framework density 21.393098999999999
#
# number of rings (size 3 to 8) (size 9 to 14) (size 15 to 20)
#    0.000    1.143    2.857    4.286    8.000    0.000 
#    0.000    8.571    0.000    0.000    0.000    0.000 
#    0.000    0.000    0.000    0.000    0.000    0.000 
#
# Total GULP energy -346983.454060 kJ/mol
# GULP energy per Si atom -12392.266216 kJ/mol
# Density = 2.134441 g / cm^3
# Si number density = 21.393099 Si / 1000 Ang^3
#
#
#
# Elastic Constant Matrix: (Units=GPa)
#
#
# Indices 1 2 3 4 5 6 
#
# 1 66.1823 58.8246 13.2249 0.0000 0.0000 0.0000
# 2 58.8246 164.9235 50.4693 0.0000 0.0000 0.0000
# 3 13.2249 50.4693 106.4410 0.0000 0.0000 0.0000
# 4 0.0000 0.0000 0.0000 60.9408 0.0000 0.0000
# 5 0.0000 0.0000 0.0000 0.0000 16.9515 0.0000
# 6 0.0000 0.0000 0.0000 0.0000 0.0000 -4.9720
#
#
#
# Elastic Compliance Matrix: (Units=1/GPa)
#
#
# Indices 1 2 3 4 5 6 
#
# 1 0.022247 -0.008292 0.001168 0.000000 0.000000 0.000000
# 2 -0.008292 0.010183 -0.003798 0.000000 0.000000 0.000000
# 3 0.001168 -0.003798 0.011051 0.000000 0.000000 0.000000
# 4 0.000000 0.000000 0.000000 0.016409 0.000000 0.000000
# 5 0.000000 0.000000 0.000000 0.000000 0.058992 0.000000
# 6 0.000000 0.000000 0.000000 0.000000 0.000000 -0.201125
#
#
# Mechanical properties :
#
#
# Convention : Reuss Voigt Hill
#
# Bulk Modulus (GPa) = 46.22046 64.73161 55.47604
# Shear Modulus (GPa) = -94.01096 28.91925 -32.54585
#
# Velocity S-wave (km/s) = -6.63626 3.68068 -3.90465
# Velocity P-wave (km/s) = 6.08832 6.95608 2.37901
#
# Compressibility (1/GPa) = 0.02163544
#
# Stress axis : x y z
#
# Youngs Moduli (GPa) = 44.95012 98.19874 90.49184
#
# Poissons Ratio (x) = 0.81430 -0.10567
# Poissons Ratio (y) = 0.37274 0.34371
# Poissons Ratio (z) = -0.05249 0.37298
#
# Static dielectric constant tensor:
#      x y z
#    x 3.669150 0.000000 0.000000 
#    y 0.000000 4.244420 0.000000 
#    z 0.000000 0.000000 4.264470 
# 
# 
# High freq. dielectric constant tensor:
#      x y z
#    x 1.809460 0.000000 0.000000 
#    y 0.000000 1.862290 0.000000 
#    z 0.000000 0.000000 1.858200 
# 
# From -- ./inp_files/2710.got.cif
#   From: 2010.03.12/outbox.cif.g09.slc.cpg/sg41_2_cif.got.tgz:2710.got - 2010.04.14 01:55:53.
