data_PCOD8185144
_publ_section_title
;
Structure prediction by ZEFSAII (Michael W. Deem and Ramdas Pophale) SiO2 
 PCOD8185144
Probable space group: A B A 2
;
_chemical_formula_sum "Si O2"
_cell_formula_units_Z 60
_cell_length_a 27.882500
_cell_length_b 5.034259
_cell_length_c 20.181711
_cell_angle_alpha 90.000000
_cell_angle_beta 90.000000
_cell_angle_gamma 90.000000
_cell_volume 2832.860891
_symmetry_space_group_name_H-M "A B A 2"
_symmetry_group_IT_number 41
_symmetry_cell_setting 'orthorhombic'
loop_
_space_group_symop_operation_xyz
x,y,z
-x,-y,z
1/2-x,y,1/2+z
1/2+x,-y,1/2+z
x,1/2+y,1/2+z
-x,1/2-y,1/2+z
1/2-x,1/2+y,z
1/2+x,1/2-y,z
loop_
_atom_site_type_symbol
_atom_site_label
_atom_site_fract_x
_atom_site_fract_y
_atom_site_fract_z
Si Si1 0.901846 0.547162 0.748200
Si Si2 0.281464 0.965969 0.550483
Si Si3 0.610496 0.488501 0.097850
Si Si4 0.000000 0.500000 0.802680
Si Si5 0.278845 0.430543 0.896840
Si Si6 0.624165 0.538554 0.826713
Si Si7 0.542367 0.666730 0.915462
Si Si8 0.944400 0.984148 0.542954
O O1 0.890762 0.435550 0.675878
O O2 0.882306 0.337800 0.801570
O O3 0.958455 0.593456 0.753925
O O4 0.880245 0.833907 0.765928
O O5 0.245787 0.200225 0.572856
O O6 0.333293 0.994086 0.583074
O O7 0.292441 0.967649 0.473013
O O8 0.583678 0.764306 0.084775
O O9 0.583267 0.262024 0.055006
O O10 0.017291 0.737822 0.848579
O O11 0.264303 0.130553 0.879628
O O12 0.323196 0.509851 0.852775
O O13 0.587740 0.493387 0.889479
O O14 0.500000 0.500000 0.953230
O O15 0.558595 0.903651 0.964852
O O16 0.000000 0.000000 0.566087
#
# Coordination Sequence:
#
# PCOD8185144 Si02
#       8
#     8   8   8   4   8   8   8   8
#     4  11  25  42  64  92 132 180 227 254 318 392
#     4  10  22  42  70  97 125 168 218 275 342 394
#     4  12  26  46  64  96 137 179 227 274 320 400
#     4  10  22  38  62  90 130 174 214 270 312 390
#     4  10  21  39  64  97 128 159 208 273 339 391
#     4  11  23  41  66  94 127 173 216 271 325 393
#     4  11  21  40  63  96 133 165 220 276 338 392
#     4  12  26  40  65  98 135 176 219 276 337 392
#
# _framework density 21.18
#
# number of rings (size 3 to 8) (size 9 to 14) (size 15 to 20)
#    0.000    1.067    2.000    4.400    1.867    4.267 
#    0.000    4.000    0.000    0.000    0.000    0.000 
#    0.000    0.000    0.000    0.000    0.000    0.000 
#
# Total GULP energy -371976.273632 kJ/mol
# GULP energy per Si atom -12399.209121 kJ/mol
# Density = 2.113179 g / cm^3
# Si number density = 21.180000 Si / 1000 Ang^3
#
#
#
# Elastic Constant Matrix: (Units=GPa)
#
#
# Indices 1 2 3 4 5 6 
#
# 1 134.1100 21.2030 61.4253 0.0000 0.0000 0.0000
# 2 21.2030 87.6303 20.7012 0.0000 0.0000 0.0000
# 3 61.4253 20.7012 85.6427 0.0000 0.0000 0.0000
# 4 0.0000 0.0000 0.0000 30.5050 0.0000 0.0000
# 5 0.0000 0.0000 0.0000 0.0000 50.3712 0.0000
# 6 0.0000 0.0000 0.0000 0.0000 0.0000 -8.8575
#
#
#
# Elastic Compliance Matrix: (Units=1/GPa)
#
#
# Indices 1 2 3 4 5 6 
#
# 1 0.011165 -0.000859 -0.007800 0.000000 0.000000 0.000000
# 2 -0.000859 0.012169 -0.002325 0.000000 0.000000 0.000000
# 3 -0.007800 -0.002325 0.017833 0.000000 0.000000 0.000000
# 4 0.000000 0.000000 0.000000 0.032782 0.000000 0.000000
# 5 0.000000 0.000000 0.000000 0.000000 0.019853 0.000000
# 6 0.000000 0.000000 0.000000 0.000000 0.000000 -0.112898
#
#
# Mechanical properties :
#
#
# Convention : Reuss Voigt Hill
#
# Bulk Modulus (GPa) = 52.08921 57.11577 54.60249
# Shear Modulus (GPa) = 539.32026 28.00729 283.66378
#
# Velocity S-wave (km/s) = 15.97465 3.64035 11.58537
# Velocity P-wave (km/s) = 19.10234 6.68543 14.31074
#
# Compressibility (1/GPa) = 0.01919783
#
# Stress axis : x y z
#
# Youngs Moduli (GPa) = 89.56523 82.17795 56.07553
#
# Poissons Ratio (x) = 0.07057 0.43741
# Poissons Ratio (y) = 0.07692 0.13040
# Poissons Ratio (z) = 0.69863 0.19110
#
# Static dielectric constant tensor:
#      x y z
#    x 3.943770 0.000000 0.000000 
#    y 0.000000 3.918890 0.000000 
#    z 0.000000 0.000000 3.630240 
# 
# 
# High freq. dielectric constant tensor:
#      x y z
#    x 1.840320 0.000000 0.000000 
#    y 0.000000 1.841010 0.000000 
#    z 0.000000 0.000000 1.813590 
# 
# From -- ./inp_files/11748.got.cif
#   From: 2010.03.12/outbox.cif.g09.slc.cpg/sg41_6_cif.got.tgz:11748.got - 2010.04.14 01:55:53.
