data_PCOD8185743
_publ_section_title
;
Structure prediction by ZEFSAII (Michael W. Deem and Ramdas Pophale) SiO2 
 PCOD8185743
Probable space group: F M M 2
;
_chemical_formula_sum "Si O2"
_cell_formula_units_Z 88
_cell_length_a 9.527553
_cell_length_b 23.952895
_cell_length_c 20.335340
_cell_angle_alpha 90.000000
_cell_angle_beta 90.000000
_cell_angle_gamma 90.000000
_cell_volume 4640.778304
_symmetry_space_group_name_H-M "F M M 2"
_symmetry_group_IT_number 42
_symmetry_cell_setting 'orthorhombic'
loop_
_space_group_symop_operation_xyz
x,y,z
-x,-y,z
-x,y,z
x,-y,z
x,1/2+y,1/2+z
-x,1/2-y,1/2+z
-x,1/2+y,1/2+z
x,1/2-y,1/2+z
1/2+x,y,1/2+z
1/2-x,-y,1/2+z
1/2-x,y,1/2+z
1/2+x,-y,1/2+z
1/2+x,1/2+y,z
1/2-x,1/2-y,z
1/2-x,1/2+y,z
1/2+x,1/2-y,z
loop_
_atom_site_type_symbol
_atom_site_label
_atom_site_fract_x
_atom_site_fract_y
_atom_site_fract_z
Si Si1 0.844624 0.622388 0.126470
Si Si2 0.158705 0.602263 0.982294
Si Si3 0.160945 0.500000 0.793296
Si Si4 0.252507 0.500000 0.646043
Si Si5 0.345520 0.000000 0.506593
Si Si6 0.837611 0.882462 0.339070
Si Si7 0.167887 0.192858 0.222554
O O1 0.846301 0.555654 0.138249
O O2 0.718382 0.651419 0.165082
O O3 0.000000 0.644276 0.147394
O O4 0.818860 0.637419 0.049132
O O5 0.266872 0.552692 0.978235
O O6 0.186148 0.636988 0.914797
O O7 0.000000 0.578350 0.981214
O O8 0.171869 0.500000 0.714629
O O9 0.232070 0.556571 0.823069
O O10 0.000000 0.500000 0.814719
O O11 0.142889 0.500000 0.585860
O O12 0.500000 0.000000 0.476609
O O13 0.779644 0.834036 0.291404
O O14 0.000000 0.888336 0.320873
O O15 0.250000 0.250000 0.213441
O O16 0.000000 0.201617 0.217485
#
# Coordination Sequence:
#
# PCOD8185743 Si02
#       7
#    16  16   8   8   8  16  16
#     4  10  20  35  57  85 115 148 182 222 273 328
#     4   9  18  34  55  77 108 147 185 222 268 329
#     4  10  16  26  50  84 112 139 180 223 264 319
#     4  10  18  30  51  81 118 151 178 220 270 325
#     4  10  19  28  45  77 118 152 182 221 268 322
#     4   9  18  33  57  83 108 143 185 223 268 328
#     4  11  23  40  61  82 107 142 185 234 281 327
#
# _framework density 18.962337000000002
#
# number of rings (size 3 to 8) (size 9 to 14) (size 15 to 20)
#    0.000    2.182    1.818    1.909    0.000    6.545 
#    0.000    2.727    0.000    2.182    0.000    0.000 
#    0.000    0.000    0.000    0.000    0.000    0.000 
#
# Total GULP energy -272597.790207 kJ/mol
# GULP energy per Si atom -12390.808646 kJ/mol
# Density = 1.891918 g / cm^3
# Si number density = 18.962337 Si / 1000 Ang^3
#
#
#
# Elastic Constant Matrix: (Units=GPa)
#
#
# Indices 1 2 3 4 5 6 
#
# 1 92.7083 29.4322 36.7681 0.0000 0.0000 0.0000
# 2 29.4322 80.0072 42.1263 0.0000 0.0000 0.0000
# 3 36.7681 42.1263 139.2570 0.0000 0.0000 0.0000
# 4 0.0000 0.0000 0.0000 10.8894 0.0000 0.0000
# 5 0.0000 0.0000 0.0000 0.0000 23.2105 0.0000
# 6 0.0000 0.0000 0.0000 0.0000 0.0000 22.3737
#
#
#
# Elastic Compliance Matrix: (Units=1/GPa)
#
#
# Indices 1 2 3 4 5 6 
#
# 1 0.012818 -0.003489 -0.002329 0.000000 0.000000 0.000000
# 2 -0.003489 0.015817 -0.003863 0.000000 0.000000 0.000000
# 3 -0.002329 -0.003863 0.008965 0.000000 0.000000 0.000000
# 4 0.000000 0.000000 0.000000 0.091832 0.000000 0.000000
# 5 0.000000 0.000000 0.000000 0.000000 0.043084 0.000000
# 6 0.000000 0.000000 0.000000 0.000000 0.000000 0.044695
#
#
# Mechanical properties :
#
#
# Convention : Reuss Voigt Hill
#
# Bulk Modulus (GPa) = 54.83556 58.73619 56.78588
# Shear Modulus (GPa) = 20.60563 24.87111 22.73837
#
# Velocity S-wave (km/s) = 3.30003 3.62554 3.46661
# Velocity P-wave (km/s) = 6.59554 6.96911 6.78490
#
# Compressibility (1/GPa) = 0.01823634
#
# Stress axis : x y z
#
# Youngs Moduli (GPa) = 78.01639 63.22466 111.55027
#
# Poissons Ratio (x) = 0.22060 0.25978
# Poissons Ratio (y) = 0.27221 0.43097
# Poissons Ratio (z) = 0.18169 0.24426
#
# Static dielectric constant tensor:
#      x y z
#    x 3.201000 0.000000 0.000000 
#    y 0.000000 3.318170 0.000000 
#    z 0.000000 0.000000 3.696520 
# 
# 
# High freq. dielectric constant tensor:
#      x y z
#    x 1.713380 0.000000 0.000000 
#    y 0.000000 1.703680 0.000000 
#    z 0.000000 0.000000 1.753340 
# 
# From -- ./inp_files/23590.got.cif
#   From: 2010.03.12/outbox.cif.g09.slc.cpg/sg42_12_cif.got.tgz:23590.got - 2010.04.14 02:04:31.
