data_PCOD8185130
_publ_section_title
;
Structure prediction by ZEFSAII (Michael W. Deem and Ramdas Pophale) SiO2 
 PCOD8185130
Probable space group: A B A 2
;
_chemical_formula_sum "Si O2"
_cell_formula_units_Z 64
_cell_length_a 30.048801
_cell_length_b 8.422117
_cell_length_c 12.328902
_cell_angle_alpha 90.000000
_cell_angle_beta 90.000000
_cell_angle_gamma 90.000000
_cell_volume 3120.130928
_symmetry_space_group_name_H-M "A B A 2"
_symmetry_group_IT_number 41
_symmetry_cell_setting 'orthorhombic'
loop_
_space_group_symop_operation_xyz
x,y,z
-x,-y,z
1/2-x,y,1/2+z
1/2+x,-y,1/2+z
x,1/2+y,1/2+z
-x,1/2-y,1/2+z
1/2-x,1/2+y,z
1/2+x,1/2-y,z
loop_
_atom_site_type_symbol
_atom_site_label
_atom_site_fract_x
_atom_site_fract_y
_atom_site_fract_z
Si Si1 0.698053 0.860233 0.949730
Si Si2 0.951606 0.451532 0.265177
Si Si3 0.105343 0.749868 0.693210
Si Si4 0.097476 0.571221 0.907738
Si Si5 0.234418 0.428982 0.576720
Si Si6 0.023040 0.170384 0.549976
Si Si7 0.066338 0.224957 0.971682
Si Si8 0.295630 0.215604 0.707823
O O1 0.646689 0.910983 0.956363
O O2 0.715222 0.844246 0.827592
O O3 0.703638 0.692170 0.010316
O O4 0.727119 0.999736 0.001159
O O5 0.925349 0.596141 0.209288
O O6 0.958573 0.313153 0.173725
O O7 0.924704 0.391523 0.370335
O O8 0.000000 0.500000 0.307276
O O9 0.095432 0.612741 0.780587
O O10 0.097124 0.678039 0.573515
O O11 0.156636 0.802317 0.703081
O O12 0.064583 0.693246 0.969091
O O13 0.079209 0.396605 0.926465
O O14 0.257597 0.339431 0.676645
O O15 0.203461 0.566988 0.624969
O O16 0.984683 0.292977 0.514260
O O17 0.000000 0.000000 0.541657
#
# Coordination Sequence:
#
# PCOD8185130 Si02
#       8
#     8   8   8   8   8   8   8   8
#     4  10  21  39  62  87 120 156 198 246 299 356
#     4  11  21  41  63  86 120 163 201 245 303 348
#     4  11  22  40  59  91 124 154 198 253 295 355
#     4  10  21  40  61  85 122 158 196 248 297 347
#     4  10  21  39  63  87 117 159 197 242 308 357
#     4   9  18  37  62  78 118 155 194 239 287 344
#     4  11  22  41  61  86 121 161 199 247 296 355
#     4  10  22  39  61  88 122 152 200 248 296 358
#
# _framework density 20.511959999999998
#
# number of rings (size 3 to 8) (size 9 to 14) (size 15 to 20)
#    0.000    1.750    3.750    2.250    0.000    2.000 
#    9.000    1.250    0.000    0.000    0.000    0.000 
#    0.000    0.000    0.000    0.000    0.000    0.000 
#
# Total GULP energy -396750.161935 kJ/mol
# GULP energy per Si atom -12398.442560 kJ/mol
# Density = 2.046527 g / cm^3
# Si number density = 20.511960 Si / 1000 Ang^3
#
#
#
# Elastic Constant Matrix: (Units=GPa)
#
#
# Indices 1 2 3 4 5 6 
#
# 1 76.1950 23.5056 33.1287 0.0000 0.0000 0.0000
# 2 23.5056 54.4221 20.6258 0.0000 0.0000 0.0000
# 3 33.1287 20.6258 121.6124 0.0000 0.0000 0.0000
# 4 0.0000 0.0000 0.0000 16.9727 0.0000 0.0000
# 5 0.0000 0.0000 0.0000 0.0000 23.7194 0.0000
# 6 0.0000 0.0000 0.0000 0.0000 0.0000 15.2422
#
#
#
# Elastic Compliance Matrix: (Units=1/GPa)
#
#
# Indices 1 2 3 4 5 6 
#
# 1 0.016424 -0.005769 -0.003496 0.000000 0.000000 0.000000
# 2 -0.005769 0.021663 -0.002103 0.000000 0.000000 0.000000
# 3 -0.003496 -0.002103 0.009532 0.000000 0.000000 0.000000
# 4 0.000000 0.000000 0.000000 0.058918 0.000000 0.000000
# 5 0.000000 0.000000 0.000000 0.000000 0.042160 0.000000
# 6 0.000000 0.000000 0.000000 0.000000 0.000000 0.065608
#
#
# Mechanical properties :
#
#
# Convention : Reuss Voigt Hill
#
# Bulk Modulus (GPa) = 40.18538 45.19440 42.68989
# Shear Modulus (GPa) = 20.38046 22.85149 21.61597
#
# Velocity S-wave (km/s) = 3.15554 3.34137 3.24979
# Velocity P-wave (km/s) = 5.73675 6.08008 5.91091
#
# Compressibility (1/GPa) = 0.02488467
#
# Stress axis : x y z
#
# Youngs Moduli (GPa) = 60.88760 46.16079 104.91293
#
# Poissons Ratio (x) = 0.26629 0.36674
# Poissons Ratio (y) = 0.35125 0.22060
# Poissons Ratio (z) = 0.21284 0.09706
#
# Static dielectric constant tensor:
#      x y z
#    x 3.752240 0.000000 0.000000 
#    y 0.000000 3.422500 0.000000 
#    z 0.000000 0.000000 3.979280 
# 
# 
# High freq. dielectric constant tensor:
#      x y z
#    x 1.804160 0.000000 0.000000 
#    y 0.000000 1.774870 0.000000 
#    z 0.000000 0.000000 1.820280 
# 
# From -- ./inp_files/6672.got.cif
#   From: 2010.03.12/outbox.cif.g09.slc.cpg/sg41_4_cif.got.tgz:6672.got - 2010.04.14 01:55:53.
