data_PCOD8185967
_publ_section_title
;
Structure prediction by ZEFSAII (Michael W. Deem and Ramdas Pophale) SiO2 
 PCOD8185967
Probable space group: F M M 2
;
_chemical_formula_sum "Si O2"
_cell_formula_units_Z 128
_cell_length_a 26.848501
_cell_length_b 23.208467
_cell_length_c 11.566958
_cell_angle_alpha 90.000000
_cell_angle_beta 90.000000
_cell_angle_gamma 90.000000
_cell_volume 7207.516689
_symmetry_space_group_name_H-M "F M M 2"
_symmetry_group_IT_number 42
_symmetry_cell_setting 'orthorhombic'
loop_
_space_group_symop_operation_xyz
x,y,z
-x,-y,z
-x,y,z
x,-y,z
x,1/2+y,1/2+z
-x,1/2-y,1/2+z
-x,1/2+y,1/2+z
x,1/2-y,1/2+z
1/2+x,y,1/2+z
1/2-x,-y,1/2+z
1/2-x,y,1/2+z
1/2+x,-y,1/2+z
1/2+x,1/2+y,z
1/2-x,1/2-y,z
1/2-x,1/2+y,z
1/2+x,1/2-y,z
loop_
_atom_site_type_symbol
_atom_site_label
_atom_site_fract_x
_atom_site_fract_y
_atom_site_fract_z
Si Si1 0.194154 0.124805 0.539480
Si Si2 0.556595 0.782869 0.348835
Si Si3 0.702648 0.375250 0.155705
Si Si4 0.637648 0.208137 0.188854
Si Si5 0.611961 0.816925 0.567049
Si Si6 0.556905 0.654174 0.296551
Si Si7 0.642696 0.565164 0.350427
Si Si8 0.796796 0.216709 0.341663
O O1 0.249639 0.106005 0.579232
O O2 0.165202 0.149412 0.651547
O O3 0.168038 0.070200 0.478298
O O4 0.187635 0.173260 0.441014
O O5 0.500000 0.802221 0.342001
O O6 0.581190 0.804569 0.228514
O O7 0.582475 0.819483 0.448992
O O8 0.561487 0.713704 0.368700
O O9 0.657067 0.363138 0.067527
O O10 0.683693 0.421848 0.250036
O O11 0.717627 0.317216 0.224274
O O12 0.636952 0.254028 0.084695
O O13 0.661122 0.237016 0.305972
O O14 0.572178 0.831509 0.666083
O O15 0.500000 0.631038 0.300193
O O16 0.594634 0.606770 0.346889
O O17 0.624191 0.500000 0.334367
O O18 0.750000 0.250000 0.392223
#
# Coordination Sequence:
#
# PCOD8185967 Si02
#       8
#    16  16  16  16  16  16  16  16
#     4  11  21  32  50  74 102 137 170 196 248 298
#     4  10  19  30  48  74 107 141 162 187 239 307
#     4   9  20  33  48  74 100 134 166 204 246 294
#     4  10  19  30  43  71 107 136 164 200 230 290
#     4   9  17  29  47  72 104 137 164 190 235 294
#     4   9  18  34  51  72  99 127 165 210 253 297
#     4  10  22  39  53  71  95 123 174 227 257 288
#     4  10  19  28  45  73 105 133 160 196 229 290
#
# _framework density 17.759238
#
# number of rings (size 3 to 8) (size 9 to 14) (size 15 to 20)
#    0.000    2.250    1.250    4.125    5.250    1.250 
#    0.000    0.625    0.000    0.000    0.000    0.875 
#    0.000    4.000    0.000    0.000    0.000    0.000 
#
# Total GULP energy -396568.025492 kJ/mol
# GULP energy per Si atom -12392.750797 kJ/mol
# Density = 1.771882 g / cm^3
# Si number density = 17.759238 Si / 1000 Ang^3
#
#
#
# Elastic Constant Matrix: (Units=GPa)
#
#
# Indices 1 2 3 4 5 6 
#
# 1 120.0924 29.7692 33.5415 0.0000 0.0000 0.0000
# 2 29.7692 50.4316 16.8819 0.0000 0.0000 0.0000
# 3 33.5415 16.8819 51.8643 0.0001 -0.0001 0.0000
# 4 0.0000 0.0000 0.0001 13.2871 -0.0001 0.0000
# 5 0.0000 0.0000 -0.0001 -0.0001 28.5765 0.0000
# 6 0.0000 0.0000 0.0000 0.0000 0.0000 15.6736
#
#
#
# Elastic Compliance Matrix: (Units=1/GPa)
#
#
# Indices 1 2 3 4 5 6 
#
# 1 0.011051 -0.004636 -0.005638 0.000000 0.000000 0.000000
# 2 -0.004636 0.024198 -0.004879 0.000000 0.000000 0.000000
# 3 -0.005638 -0.004879 0.024515 0.000000 0.000000 0.000000
# 4 0.000000 0.000000 0.000000 0.075261 0.000000 0.000000
# 5 0.000000 0.000000 0.000000 0.000000 0.034994 0.000000
# 6 0.000000 0.000000 0.000000 0.000000 0.000000 0.063801
#
#
# Mechanical properties :
#
#
# Convention : Reuss Voigt Hill
#
# Bulk Modulus (GPa) = 33.94436 42.53041 38.23739
# Shear Modulus (GPa) = 18.25187 20.98715 19.61951
#
# Velocity S-wave (km/s) = 3.20932 3.44140 3.32738
# Velocity P-wave (km/s) = 5.73481 6.30804 6.02824
#
# Compressibility (1/GPa) = 0.02945998
#
# Stress axis : x y z
#
# Youngs Moduli (GPa) = 90.49213 41.32496 40.79134
#
# Poissons Ratio (x) = 0.19158 0.22997
# Poissons Ratio (y) = 0.41951 0.19900
# Poissons Ratio (z) = 0.51016 0.20160
#
# Static dielectric constant tensor:
#      x y z
#    x 3.452460 0.000000 0.000000 
#    y 0.000000 2.941120 0.000000 
#    z 0.000000 0.000000 3.198380 
# 
# 
# High freq. dielectric constant tensor:
#      x y z
#    x 1.698260 0.000000 0.000000 
#    y 0.000000 1.630680 0.000000 
#    z 0.000000 0.000000 1.681310 
# 
# From -- ./inp_files/10404.got.cif
#   From: 2010.03.12/outbox.cif.g09.slc.cpg/sg42_6_cif.got.tgz:10404.got - 2010.04.14 02:04:31.
