data_PCOD8185181
_publ_section_title
;
Structure prediction by ZEFSAII (Michael W. Deem and Ramdas Pophale) SiO2 
 PCOD8185181
Probable space group: A B A 2
;
_chemical_formula_sum "Si O2"
_cell_formula_units_Z 60
_cell_length_a 28.788882
_cell_length_b 8.327166
_cell_length_c 11.443432
_cell_angle_alpha 90.000000
_cell_angle_beta 90.000000
_cell_angle_gamma 90.000000
_cell_volume 2743.331657
_symmetry_space_group_name_H-M "A B A 2"
_symmetry_group_IT_number 41
_symmetry_cell_setting 'orthorhombic'
loop_
_space_group_symop_operation_xyz
x,y,z
-x,-y,z
1/2-x,y,1/2+z
1/2+x,-y,1/2+z
x,1/2+y,1/2+z
-x,1/2-y,1/2+z
1/2-x,1/2+y,z
1/2+x,1/2-y,z
loop_
_atom_site_type_symbol
_atom_site_label
_atom_site_fract_x
_atom_site_fract_y
_atom_site_fract_z
Si Si1 0.813018 0.296986 0.632390
Si Si2 0.573934 0.215544 0.385920
Si Si3 0.000000 0.500000 0.281177
Si Si4 0.305938 0.923504 0.906273
Si Si5 0.150111 0.479831 0.282895
Si Si6 0.079596 0.184060 0.647198
Si Si7 0.113732 0.008108 0.240467
Si Si8 0.242946 0.152781 0.810621
O O1 0.808827 0.188626 0.518956
O O2 0.852726 0.435746 0.632000
O O3 0.764250 0.374023 0.679404
O O4 0.828668 0.183929 0.737309
O O5 0.524424 0.130861 0.364699
O O6 0.575255 0.308394 0.507961
O O7 0.581313 0.345853 0.282854
O O8 0.612545 0.072825 0.380764
O O9 0.035602 0.591338 0.197360
O O10 0.267506 0.841724 0.820976
O O11 0.356495 0.942706 0.850627
O O12 0.279762 0.096757 0.913163
O O13 0.126197 0.585721 0.180177
O O14 0.192007 0.579712 0.338044
O O15 0.081135 0.364709 0.696985
#
# Coordination Sequence:
#
# PCOD8185181 Si02
#       8
#     8   8   4   8   8   8   8   8
#     4  10  23  38  56  85 127 170 212 262 307 346
#     4  10  24  44  66  92 125 160 196 256 320 370
#     4  10  26  44  62 100 124 144 202 252 306 406
#     4  11  23  37  57  86 126 170 213 260 305 345
#     4  10  21  41  57  88 127 157 214 256 294 374
#     4  11  23  42  71  91 123 164 193 254 323 368
#     4  10  23  41  62  95 120 160 218 251 298 386
#     4  11  22  36  54  87 123 165 218 259 290 358
#
# _framework density 21.871216
#
# number of rings (size 3 to 8) (size 9 to 14) (size 15 to 20)
#    0.000    1.600    2.667    0.800    3.733    3.733 
#    0.000    0.000    0.000    0.000    0.000    0.000 
#    0.000    0.000    0.000    0.000    0.000    0.000 
#
# Total GULP energy -371736.546340 kJ/mol
# GULP energy per Si atom -12391.218211 kJ/mol
# Density = 2.182144 g / cm^3
# Si number density = 21.871216 Si / 1000 Ang^3
#
#
#
# Elastic Constant Matrix: (Units=GPa)
#
#
# Indices 1 2 3 4 5 6 
#
# 1 92.3717 27.8016 22.7813 0.0000 0.0000 0.0000
# 2 27.8016 83.6811 14.3612 0.0000 0.0000 0.0000
# 3 22.7813 14.3612 73.7687 0.0000 0.0000 0.0000
# 4 0.0000 0.0000 0.0000 45.4223 0.0000 0.0000
# 5 0.0000 0.0000 0.0000 0.0000 15.1948 0.0000
# 6 0.0000 0.0000 0.0000 0.0000 0.0000 49.5962
#
#
#
# Elastic Compliance Matrix: (Units=1/GPa)
#
#
# Indices 1 2 3 4 5 6 
#
# 1 0.012725 -0.003676 -0.003214 0.000000 0.000000 0.000000
# 2 -0.003676 0.013425 -0.001478 0.000000 0.000000 0.000000
# 3 -0.003214 -0.001478 0.014836 0.000000 0.000000 0.000000
# 4 0.000000 0.000000 0.000000 0.022016 0.000000 0.000000
# 5 0.000000 0.000000 0.000000 0.000000 0.065812 0.000000
# 6 0.000000 0.000000 0.000000 0.000000 0.000000 0.020163
#
#
# Mechanical properties :
#
#
# Convention : Reuss Voigt Hill
#
# Bulk Modulus (GPa) = 41.23816 42.18998 41.71407
# Shear Modulus (GPa) = 28.76922 34.36783 31.56852
#
# Velocity S-wave (km/s) = 3.63077 3.96835 3.80331
# Velocity P-wave (km/s) = 6.03925 6.35053 6.19684
#
# Compressibility (1/GPa) = 0.02424938
#
# Stress axis : x y z
#
# Youngs Moduli (GPa) = 78.58612 74.48713 67.40240
#
# Poissons Ratio (x) = 0.27382 0.21664
# Poissons Ratio (y) = 0.28889 0.09964
# Poissons Ratio (z) = 0.25258 0.11012
#
# Static dielectric constant tensor:
#      x y z
#    x 4.036570 0.000000 0.000000 
#    y 0.000000 4.344970 0.000000 
#    z 0.000000 0.000000 3.529610 
# 
# 
# High freq. dielectric constant tensor:
#      x y z
#    x 1.857610 0.000000 0.000000 
#    y 0.000000 1.885240 0.000000 
#    z 0.000000 0.000000 1.830070 
# 
# From -- ./inp_files/6567.got.cif
#   From: 2010.03.12/outbox.cif.g09.slc.cpg/sg41_4_cif.got.tgz:6567.got - 2010.04.14 01:55:53.
