data_PCOD8185810
_publ_section_title
;
Structure prediction by ZEFSAII (Michael W. Deem and Ramdas Pophale) SiO2 
 PCOD8185810
Probable space group: F M M 2
;
_chemical_formula_sum "Si O2"
_cell_formula_units_Z 104
_cell_length_a 9.281240
_cell_length_b 25.762787
_cell_length_c 25.144898
_cell_angle_alpha 90.000000
_cell_angle_beta 90.000000
_cell_angle_gamma 90.000000
_cell_volume 6012.411879
_symmetry_space_group_name_H-M "F M M 2"
_symmetry_group_IT_number 42
_symmetry_cell_setting 'orthorhombic'
loop_
_space_group_symop_operation_xyz
x,y,z
-x,-y,z
-x,y,z
x,-y,z
x,1/2+y,1/2+z
-x,1/2-y,1/2+z
-x,1/2+y,1/2+z
x,1/2-y,1/2+z
1/2+x,y,1/2+z
1/2-x,-y,1/2+z
1/2-x,y,1/2+z
1/2+x,-y,1/2+z
1/2+x,1/2+y,z
1/2-x,1/2-y,z
1/2-x,1/2+y,z
1/2+x,1/2-y,z
loop_
_atom_site_type_symbol
_atom_site_label
_atom_site_fract_x
_atom_site_fract_y
_atom_site_fract_z
Si Si1 0.329267 0.395538 0.341870
Si Si2 0.159071 0.110972 0.223397
Si Si3 0.837222 0.500000 0.341666
Si Si4 0.344204 0.500000 0.613836
Si Si5 0.668004 0.199144 0.038147
Si Si6 0.331902 0.801404 0.916305
Si Si7 0.752992 0.500000 0.225838
Si Si8 0.171790 0.112089 0.619693
O O1 0.500000 0.406759 0.344104
O O2 0.285080 0.374655 0.282845
O O3 0.247642 0.448096 0.359832
O O4 0.281077 0.350687 0.382363
O O5 0.264685 0.130718 0.176592
O O6 0.000000 0.134412 0.213196
O O7 0.147117 0.048860 0.222819
O O8 0.849821 0.500000 0.278243
O O9 0.000000 0.500000 0.365240
O O10 0.500000 0.500000 0.585593
O O11 0.365865 0.500000 0.677604
O O12 0.266251 0.444885 0.600511
O O13 0.500000 0.209506 0.045675
O O14 0.750000 0.250000 0.058105
O O15 0.720960 0.151713 0.074443
O O16 0.707134 0.186002 0.977400
O O17 0.500000 0.790645 0.908678
O O18 0.250000 0.750000 0.896538
O O19 0.000000 0.108796 0.626072
#
# Coordination Sequence:
#
# PCOD8185810 Si02
#       8
#    16  16   8   8  16  16   8  16
#     4   9  18  32  48  69  99 130 158 191 236 286
#     4   9  16  26  43  66  93 125 156 184 220 271
#     4  10  18  27  45  72  99 128 161 194 229 274
#     4   8  13  23  40  61  88 118 143 174 216 259
#     4   9  18  33  52  71  89 115 155 198 236 276
#     4   9  18  34  54  72  90 118 159 203 243 283
#     4   8  14  24  39  61  91 122 156 188 217 257
#     4   9  17  29  45  68  96 121 149 187 229 272
#
# _framework density 17.297550999999999
#
# number of rings (size 3 to 8) (size 9 to 14) (size 15 to 20)
#    0.000    3.077    0.000    0.692    0.000    6.769 
#    0.000    1.538    0.000    7.385    0.000    0.000 
#    0.000    0.000    0.000    0.000    0.000    0.000 
#
# Total GULP energy -322147.567440 kJ/mol
# GULP energy per Si atom -12390.291055 kJ/mol
# Density = 1.725818 g / cm^3
# Si number density = 17.297551 Si / 1000 Ang^3
#
#
#
# Elastic Constant Matrix: (Units=GPa)
#
#
# Indices 1 2 3 4 5 6 
#
# 1 51.2450 42.4506 30.4656 0.0000 0.0000 0.0000
# 2 42.4506 141.7034 77.1181 0.0000 0.0000 0.0000
# 3 30.4656 77.1181 88.0453 0.0000 0.0000 0.0000
# 4 0.0000 0.0000 0.0000 34.2092 0.0000 0.0000
# 5 0.0000 0.0000 0.0000 0.0000 21.5643 0.0000
# 6 0.0000 0.0000 0.0000 0.0000 0.0000 24.7554
#
#
#
# Elastic Compliance Matrix: (Units=1/GPa)
#
#
# Indices 1 2 3 4 5 6 
#
# 1 0.026773 -0.005692 -0.004278 0.000000 0.000000 0.000000
# 2 -0.005692 0.014695 -0.010902 0.000000 0.000000 0.000000
# 3 -0.004278 -0.010902 0.022387 0.000000 0.000000 0.000000
# 4 0.000000 0.000000 0.000000 0.029232 0.000000 0.000000
# 5 0.000000 0.000000 0.000000 0.000000 0.046373 0.000000
# 6 0.000000 0.000000 0.000000 0.000000 0.000000 0.040395
#
#
# Mechanical properties :
#
#
# Convention : Reuss Voigt Hill
#
# Bulk Modulus (GPa) = 45.22728 64.56251 54.89489
# Shear Modulus (GPa) = 21.83693 24.83640 23.33667
#
# Velocity S-wave (km/s) = 3.55692 3.79335 3.67704
# Velocity P-wave (km/s) = 6.56295 7.52274 7.05918
#
# Compressibility (1/GPa) = 0.02211055
#
# Stress axis : x y z
#
# Youngs Moduli (GPa) = 37.35128 68.04943 44.66876
#
# Poissons Ratio (x) = 0.38734 0.19111
# Poissons Ratio (y) = 0.21261 0.48697
# Poissons Ratio (z) = 0.15980 0.74186
#
# Static dielectric constant tensor:
#      x y z
#    x 3.011500 0.000000 0.000000 
#    y 0.000000 3.285660 0.000000 
#    z 0.000000 0.000000 3.205600 
# 
# 
# High freq. dielectric constant tensor:
#      x y z
#    x 1.652900 0.000000 0.000000 
#    y 0.000000 1.658940 0.000000 
#    z 0.000000 0.000000 1.652120 
# 
# From -- ./inp_files/28326.got.cif
#   From: 2010.03.12/outbox.cif.g09.slc.cpg/sg42_15_cif.got.tgz:28326.got - 2010.04.14 02:04:31.
