data_PCOD8185599
_publ_section_title
;
Structure prediction by ZEFSAII (Michael W. Deem and Ramdas Pophale) SiO2 
 PCOD8185599
Probable space group: A B A 2
;
_chemical_formula_sum "Si O2"
_cell_formula_units_Z 64
_cell_length_a 17.700670
_cell_length_b 15.549530
_cell_length_c 11.159637
_cell_angle_alpha 90.000000
_cell_angle_beta 90.000000
_cell_angle_gamma 90.000000
_cell_volume 3071.546116
_symmetry_space_group_name_H-M "A B A 2"
_symmetry_group_IT_number 41
_symmetry_cell_setting 'orthorhombic'
loop_
_space_group_symop_operation_xyz
x,y,z
-x,-y,z
1/2-x,y,1/2+z
1/2+x,-y,1/2+z
x,1/2+y,1/2+z
-x,1/2-y,1/2+z
1/2-x,1/2+y,z
1/2+x,1/2-y,z
loop_
_atom_site_type_symbol
_atom_site_label
_atom_site_fract_x
_atom_site_fract_y
_atom_site_fract_z
Si Si1 0.827979 0.150348 0.548240
Si Si2 0.845323 0.827734 0.407931
Si Si3 0.664643 0.682715 0.092898
Si Si4 0.517777 0.594859 0.037621
Si Si5 0.420200 0.523243 0.556577
Si Si6 0.962224 0.371483 0.286803
Si Si7 0.931751 0.271816 0.687393
Si Si8 0.818730 0.777699 0.837653
O O1 0.741210 0.128846 0.576220
O O2 0.859650 0.217992 0.644097
O O3 0.832238 0.192709 0.417131
O O4 0.874088 0.064020 0.562290
O O5 0.857393 0.740085 0.479142
O O6 0.867720 0.909726 0.487058
O O7 0.904501 0.827519 0.299685
O O8 0.757944 0.830364 0.366416
O O9 0.597616 0.614439 0.101706
O O10 0.677449 0.747242 0.201661
O O11 0.500000 0.500000 0.084068
O O12 0.456716 0.663496 0.083499
O O13 0.519135 0.595861 0.891502
O O14 0.500000 0.500000 0.491235
O O15 0.441550 0.555597 0.690017
O O16 0.886037 0.345103 0.356315
O O17 0.998097 0.290046 0.218188
#
# Coordination Sequence:
#
# PCOD8185599 Si02
#       8
#     8   8   8   8   8   8   8   8
#     4  11  26  45  69 103 136 184 236 282 350 427
#     4  11  25  43  72 101 140 185 235 286 351 419
#     4  11  23  48  70  99 143 186 232 286 358 420
#     4  12  27  43  69 107 139 180 235 300 349 416
#     4  12  26  44  70 105 138 180 233 294 348 414
#     4  12  24  45  74  99 139 185 235 284 352 429
#     4  12  23  43  71  98 133 187 231 279 345 426
#     4  11  23  44  74  97 133 190 233 283 348 423
#
# _framework density 20.836410000000001
#
# number of rings (size 3 to 8) (size 9 to 14) (size 15 to 20)
#    0.000    0.500    7.500    0.375    1.750    2.500 
#    4.500    0.000    0.000    0.000    0.000    0.000 
#    0.000    0.000    0.000    0.000    0.000    0.000 
#
# Total GULP energy -396828.903973 kJ/mol
# GULP energy per Si atom -12400.903249 kJ/mol
# Density = 2.078899 g / cm^3
# Si number density = 20.836410 Si / 1000 Ang^3
#
#
#
# Elastic Constant Matrix: (Units=GPa)
#
#
# Indices 1 2 3 4 5 6 
#
# 1 128.5893 63.7112 46.0469 0.0000 0.0000 0.0000
# 2 63.7112 111.1614 25.1508 0.0000 0.0000 0.0000
# 3 46.0469 25.1508 88.4424 0.0000 0.0000 0.0000
# 4 0.0000 0.0000 0.0000 21.2547 0.0000 0.0000
# 5 0.0000 0.0000 0.0000 0.0000 32.7683 0.0000
# 6 0.0000 0.0000 0.0000 0.0000 0.0000 40.3452
#
#
#
# Elastic Compliance Matrix: (Units=1/GPa)
#
#
# Indices 1 2 3 4 5 6 
#
# 1 0.012503 -0.006085 -0.004779 0.000000 0.000000 0.000000
# 2 -0.006085 0.012576 -0.000408 0.000000 0.000000 0.000000
# 3 -0.004779 -0.000408 0.013911 0.000000 0.000000 0.000000
# 4 0.000000 0.000000 0.000000 0.047048 0.000000 0.000000
# 5 0.000000 0.000000 0.000000 0.000000 0.030517 0.000000
# 6 0.000000 0.000000 0.000000 0.000000 0.000000 0.024786
#
#
# Mechanical properties :
#
#
# Convention : Reuss Voigt Hill
#
# Bulk Modulus (GPa) = 60.80706 66.44563 63.62634
# Shear Modulus (GPa) = 29.52168 31.75927 30.64047
#
# Velocity S-wave (km/s) = 3.76817 3.90836 3.83890
# Velocity P-wave (km/s) = 6.94108 7.23363 7.08886
#
# Compressibility (1/GPa) = 0.01644546
#
# Stress axis : x y z
#
# Youngs Moduli (GPa) = 79.98250 79.51908 71.88475
#
# Poissons Ratio (x) = 0.48384 0.34355
# Poissons Ratio (y) = 0.48666 0.02935
# Poissons Ratio (z) = 0.38225 0.03247
#
# Static dielectric constant tensor:
#      x y z
#    x 4.056460 0.000000 0.000000 
#    y 0.000000 3.566430 0.000000 
#    z 0.000000 0.000000 3.806300 
# 
# 
# High freq. dielectric constant tensor:
#      x y z
#    x 1.831510 0.000000 0.000000 
#    y 0.000000 1.805170 0.000000 
#    z 0.000000 0.000000 1.821360 
# 
# From -- ./inp_files/6039.got.cif
#   From: 2010.03.12/outbox.cif.g09.slc.cpg/sg41_4_cif.got.tgz:6039.got - 2010.04.14 01:55:53.
