data_PCOD8185958
_publ_section_title
;
Structure prediction by ZEFSAII (Michael W. Deem and Ramdas Pophale) SiO2 
 PCOD8185958
Probable space group: F M M 2
;
_chemical_formula_sum "Si O2"
_cell_formula_units_Z 112
_cell_length_a 15.039371
_cell_length_b 22.214718
_cell_length_c 16.777629
_cell_angle_alpha 90.000000
_cell_angle_beta 90.000000
_cell_angle_gamma 90.000000
_cell_volume 5605.328431
_symmetry_space_group_name_H-M "F M M 2"
_symmetry_group_IT_number 42
_symmetry_cell_setting 'orthorhombic'
loop_
_space_group_symop_operation_xyz
x,y,z
-x,-y,z
-x,y,z
x,-y,z
x,1/2+y,1/2+z
-x,1/2-y,1/2+z
-x,1/2+y,1/2+z
x,1/2-y,1/2+z
1/2+x,y,1/2+z
1/2-x,-y,1/2+z
1/2-x,y,1/2+z
1/2+x,-y,1/2+z
1/2+x,1/2+y,z
1/2-x,1/2-y,z
1/2-x,1/2+y,z
1/2+x,1/2-y,z
loop_
_atom_site_type_symbol
_atom_site_label
_atom_site_fract_x
_atom_site_fract_y
_atom_site_fract_z
Si Si1 0.345744 0.234729 0.174630
Si Si2 0.097439 0.864209 0.788448
Si Si3 0.233720 0.567797 0.187762
Si Si4 0.340698 0.311829 0.499781
Si Si5 0.099217 0.433884 0.042751
Si Si6 0.141955 0.683073 0.458497
Si Si7 0.401907 0.361345 0.126473
O O1 0.250000 0.250000 0.212947
O O2 0.401538 0.196097 0.236357
O O3 0.402761 0.293497 0.158187
O O4 0.325328 0.196313 0.094629
O O5 0.179624 0.906518 0.763448
O O6 0.103477 0.847187 0.880549
O O7 0.000000 0.894771 0.775605
O O8 0.259425 0.500000 0.208346
O O9 0.170509 0.572528 0.111900
O O10 0.326220 0.601480 0.172018
O O11 0.389934 0.376071 0.483877
O O12 0.247983 0.315162 0.454295
O O13 0.393579 0.252632 0.467806
O O14 0.112327 0.500000 0.000402
O O15 0.000000 0.430806 0.079264
O O16 0.112749 0.640470 0.531475
O O17 0.500000 0.389133 0.143764
#
# Coordination Sequence:
#
# PCOD8185958 Si02
#       7
#    16  16  16  16  16  16  16
#     4  11  18  36  59  86 118 159 202 250 304 350
#     4  12  24  37  59  92 126 160 197 247 315 377
#     4  11  23  41  62  85 117 160 208 253 299 359
#     4  10  18  36  59  85 121 165 205 248 293 353
#     4  10  19  33  59  89 114 148 200 253 293 339
#     4  10  21  36  56  90 127 163 194 244 314 379
#     4  11  21  38  62  89 120 155 205 258 308 364
#
# _framework density 19.980989000000001
#
# number of rings (size 3 to 8) (size 9 to 14) (size 15 to 20)
#    0.000    1.286    7.143    1.286    2.000    4.000 
#    0.000    1.429    0.000    2.571    0.000    0.000 
#    0.000    0.000    0.000    0.000    0.000    0.000 
#
# Total GULP energy -346999.942479 kJ/mol
# GULP energy per Si atom -12392.855089 kJ/mol
# Density = 1.993551 g / cm^3
# Si number density = 19.980989 Si / 1000 Ang^3
#
#
#
# Elastic Constant Matrix: (Units=GPa)
#
#
# Indices 1 2 3 4 5 6 
#
# 1 133.9900 42.0464 23.2539 0.0000 0.0000 0.0000
# 2 42.0464 142.8941 30.3900 0.0000 0.0000 0.0000
# 3 23.2539 30.3900 68.3695 0.0000 0.0000 0.0000
# 4 0.0000 0.0000 0.0000 19.4157 0.0000 0.0000
# 5 0.0000 0.0000 0.0000 0.0000 3.0607 0.0000
# 6 0.0000 0.0000 0.0000 0.0000 0.0000 18.8234
#
#
#
# Elastic Compliance Matrix: (Units=1/GPa)
#
#
# Indices 1 2 3 4 5 6 
#
# 1 0.008452 -0.002072 -0.001954 0.000000 0.000000 0.000000
# 2 -0.002072 0.008237 -0.002957 0.000000 0.000000 0.000000
# 3 -0.001954 -0.002957 0.016605 0.000000 0.000000 0.000000
# 4 0.000000 0.000000 0.000000 0.051505 0.000000 0.000000
# 5 0.000000 0.000000 0.000000 0.000000 0.326726 0.000000
# 6 0.000000 0.000000 0.000000 0.000000 0.000000 0.053125
#
#
# Mechanical properties :
#
#
# Convention : Reuss Voigt Hill
#
# Bulk Modulus (GPa) = 51.73341 59.62606 55.67973
# Shear Modulus (GPa) = 10.30806 24.89751 17.60279
#
# Velocity S-wave (km/s) = 2.27379 3.53379 2.97135
# Velocity P-wave (km/s) = 5.73071 6.82322 6.30069
#
# Compressibility (1/GPa) = 0.01932987
#
# Stress axis : x y z
#
# Youngs Moduli (GPa) = 118.30925 121.41054 60.22217
#
# Poissons Ratio (x) = 0.25151 0.11768
# Poissons Ratio (y) = 0.24508 0.17805
# Poissons Ratio (z) = 0.23118 0.35895
#
# Static dielectric constant tensor:
#      x y z
#    x 3.679510 0.000000 0.000000 
#    y 0.000000 4.004310 0.000000 
#    z 0.000000 0.000000 3.240210 
# 
# 
# High freq. dielectric constant tensor:
#      x y z
#    x 1.787460 0.000000 0.000000 
#    y 0.000000 1.777980 0.000000 
#    z 0.000000 0.000000 1.734370 
# 
# From -- ./inp_files/14275.got.cif
#   From: 2010.03.12/outbox.cif.g09.slc.cpg/sg42_8_cif.got.tgz:14275.got - 2010.04.14 02:04:31.
