data_PCOD8185983
_publ_section_title
;
Structure prediction by ZEFSAII (Michael W. Deem and Ramdas Pophale) SiO2 
 PCOD8185983
Probable space group: F M M 2
;
_chemical_formula_sum "Si O2"
_cell_formula_units_Z 96
_cell_length_a 31.110363
_cell_length_b 9.275848
_cell_length_c 18.645679
_cell_angle_alpha 90.000000
_cell_angle_beta 90.000000
_cell_angle_gamma 90.000000
_cell_volume 5380.676788
_symmetry_space_group_name_H-M "F M M 2"
_symmetry_group_IT_number 42
_symmetry_cell_setting 'orthorhombic'
loop_
_space_group_symop_operation_xyz
x,y,z
-x,-y,z
-x,y,z
x,-y,z
x,1/2+y,1/2+z
-x,1/2-y,1/2+z
-x,1/2+y,1/2+z
x,1/2-y,1/2+z
1/2+x,y,1/2+z
1/2-x,-y,1/2+z
1/2-x,y,1/2+z
1/2+x,-y,1/2+z
1/2+x,1/2+y,z
1/2-x,1/2-y,z
1/2-x,1/2+y,z
1/2+x,1/2-y,z
loop_
_atom_site_type_symbol
_atom_site_label
_atom_site_fract_x
_atom_site_fract_y
_atom_site_fract_z
Si Si1 0.707889 0.666767 0.841990
Si Si2 0.129854 0.167611 0.099052
Si Si3 0.546819 0.838413 0.929893
Si Si4 0.627495 0.665488 0.930112
Si Si5 0.952354 0.337725 0.100300
Si Si6 0.293360 0.830919 0.175101
O O1 0.715741 0.500000 0.858939
O O2 0.750000 0.750000 0.867661
O O3 0.668447 0.729346 0.888295
O O4 0.698062 0.693792 0.758858
O O5 0.084111 0.227747 0.128445
O O6 0.167439 0.260297 0.133442
O O7 0.133765 0.000000 0.120431
O O8 0.133729 0.190466 0.014210
O O9 0.500000 0.780988 0.903745
O O10 0.584872 0.740956 0.898904
O O11 0.553954 0.000000 0.901593
O O12 0.547847 0.835712 0.015132
O O13 0.621775 0.500000 0.910465
O O14 0.942033 0.500000 0.127419
O O15 0.000000 0.290098 0.127753
O O16 0.250000 0.750000 0.150856
O O17 0.289525 0.000000 0.156047
#
# Coordination Sequence:
#
# PCOD8185983 Si02
#       6
#    16  16  16  16  16  16
#     4   9  19  35  52  69  90 120 158 194 230 276
#     4  10  19  30  47  73 102 126 152 191 236 280
#     4   8  14  25  42  66  95 125 156 188 225 272
#     4   9  18  31  47  71  99 123 152 191 233 275
#     4   8  14  26  44  66  94 127 160 192 228 273
#     4  10  20  35  53  69  90 122 159 196 233 279
#
# _framework density 17.841621
#
# number of rings (size 3 to 8) (size 9 to 14) (size 15 to 20)
#    0.000    3.000    0.000    2.000    0.000    3.333 
#    0.000    5.000    0.000    1.000    0.000    2.333 
#    0.000    0.000    0.000    0.000    0.000    0.000 
#
# Total GULP energy -297504.503626 kJ/mol
# GULP energy per Si atom -12396.020984 kJ/mol
# Density = 1.780101 g / cm^3
# Si number density = 17.841621 Si / 1000 Ang^3
#
#
#
# Elastic Constant Matrix: (Units=GPa)
#
#
# Indices 1 2 3 4 5 6 
#
# 1 193.5225 91.7995 42.8485 0.0000 0.0000 0.0000
# 2 91.7995 103.6350 29.1992 0.0000 0.0000 0.0000
# 3 42.8485 29.1992 23.5123 0.0000 0.0000 0.0000
# 4 0.0000 0.0000 0.0000 17.1102 0.0000 0.0000
# 5 0.0000 0.0000 0.0000 0.0000 -3.0534 0.0000
# 6 0.0000 0.0000 0.0000 0.0000 0.0000 42.2117
#
#
#
# Elastic Compliance Matrix: (Units=1/GPa)
#
#
# Indices 1 2 3 4 5 6 
#
# 1 0.010714 -0.006136 -0.011905 0.000000 0.000000 0.000000
# 2 -0.006136 0.018357 -0.011614 0.000000 0.000000 0.000000
# 3 -0.011905 -0.011614 0.078650 0.000000 0.000000 0.000000
# 4 0.000000 0.000000 0.000000 0.058445 0.000000 0.000000
# 5 0.000000 0.000000 0.000000 0.000000 -0.327501 0.000000
# 6 0.000000 0.000000 0.000000 0.000000 0.000000 0.023690
#
#
# Mechanical properties :
#
#
# Convention : Reuss Voigt Hill
#
# Bulk Modulus (GPa) = 20.65694 72.04050 46.34872
# Shear Modulus (GPa) = -80.38908 21.70852 -29.34028
#
# Velocity S-wave (km/s) = -6.71974 3.49196 -4.05962
# Velocity P-wave (km/s) = 6.97161 7.53152 2.01499
#
# Compressibility (1/GPa) = 0.04840988
#
# Stress axis : x y z
#
# Youngs Moduli (GPa) = 93.33551 54.47463 12.71463
#
# Poissons Ratio (x) = 0.33427 0.15136
# Poissons Ratio (y) = 0.57274 0.14767
# Poissons Ratio (z) = 1.11112 0.63270
#
# Static dielectric constant tensor:
#      x y z
#    x 3.741720 0.000000 0.000000 
#    y 0.000000 3.417080 0.000000 
#    z 0.000000 0.000000 2.927550 
# 
# 
# High freq. dielectric constant tensor:
#      x y z
#    x 1.708960 0.000000 0.000000 
#    y 0.000000 1.692030 0.000000 
#    z 0.000000 0.000000 1.643420 
# 
# From -- ./inp_files/23686.got.cif
#   From: 2010.03.12/outbox.cif.g09.slc.cpg/sg42_12_cif.got.tgz:23686.got - 2010.04.14 02:04:31.
