data_PCOD8185962
_publ_section_title
;
Structure prediction by ZEFSAII (Michael W. Deem and Ramdas Pophale) SiO2 
 PCOD8185962
Probable space group: F M M 2
;
_chemical_formula_sum "Si O2"
_cell_formula_units_Z 96
_cell_length_a 8.715934
_cell_length_b 23.592342
_cell_length_c 25.491844
_cell_angle_alpha 90.000000
_cell_angle_beta 90.000000
_cell_angle_gamma 90.000000
_cell_volume 5241.869930
_symmetry_space_group_name_H-M "F M M 2"
_symmetry_group_IT_number 42
_symmetry_cell_setting 'orthorhombic'
loop_
_space_group_symop_operation_xyz
x,y,z
-x,-y,z
-x,y,z
x,-y,z
x,1/2+y,1/2+z
-x,1/2-y,1/2+z
-x,1/2+y,1/2+z
x,1/2-y,1/2+z
1/2+x,y,1/2+z
1/2-x,-y,1/2+z
1/2-x,y,1/2+z
1/2+x,-y,1/2+z
1/2+x,1/2+y,z
1/2-x,1/2-y,z
1/2-x,1/2+y,z
1/2+x,1/2-y,z
loop_
_atom_site_type_symbol
_atom_site_label
_atom_site_fract_x
_atom_site_fract_y
_atom_site_fract_z
Si Si1 0.817923 0.881260 0.740640
Si Si2 0.319377 0.810063 0.531599
Si Si3 0.682516 0.500000 0.781659
Si Si4 0.819074 0.188845 0.838620
Si Si5 0.820360 0.888336 0.934963
Si Si6 0.320706 0.500000 0.397120
Si Si7 0.817658 0.310733 0.142199
O O1 0.754836 0.944827 0.750596
O O2 0.753500 0.840188 0.786020
O O3 0.762912 0.857484 0.684540
O O4 0.000000 0.882117 0.743696
O O5 0.500000 0.801976 0.538518
O O6 0.250000 0.750000 0.513563
O O7 0.278471 0.857592 0.489204
O O8 0.246709 0.830517 0.586278
O O9 0.500000 0.500000 0.783561
O O10 0.736253 0.500000 0.841464
O O11 0.750000 0.250000 0.845658
O O12 0.766375 0.151474 0.887645
O O13 0.000000 0.194670 0.836397
O O14 0.726098 0.946118 0.931873
O O15 0.000000 0.902134 0.931013
O O16 0.500000 0.500000 0.386493
O O17 0.750000 0.250000 0.158689
O O18 0.000000 0.305691 0.139805
#
# Coordination Sequence:
#
# PCOD8185962 Si02
#       7
#    16  16   8  16  16   8  16
#     4   9  18  32  55  79 102 140 186 220 263 324
#     4  10  20  35  57  83 109 145 184 222 272 324
#     4  10  18  38  61  74 103 147 186 222 266 331
#     4  10  19  32  51  78 106 137 174 219 269 320
#     4  10  21  38  58  76 105 148 186 215 265 332
#     4  12  24  36  55  84 111 139 180 228 276 315
#     4  10  19  33  53  80 110 143 181 223 272 324
#
# _framework density 18.314074000000002
#
# number of rings (size 3 to 8) (size 9 to 14) (size 15 to 20)
#    0.000    2.000    1.667    3.750    0.000    2.000 
#    0.000    3.333    0.000    1.000    0.000    0.000 
#    0.000    0.000    0.000    0.000    0.000    0.000 
#
# Total GULP energy -297628.251211 kJ/mol
# GULP energy per Si atom -12401.177134 kJ/mol
# Density = 1.827239 g / cm^3
# Si number density = 18.314074 Si / 1000 Ang^3
#
#
#
# Elastic Constant Matrix: (Units=GPa)
#
#
# Indices 1 2 3 4 5 6 
#
# 1 53.1386 39.8428 37.3824 0.0000 0.0000 0.0000
# 2 39.8428 154.1027 81.5748 0.0000 0.0000 0.0000
# 3 37.3824 81.5748 135.5643 0.0000 0.0000 0.0000
# 4 0.0000 0.0000 0.0000 33.8032 0.0000 0.0000
# 5 0.0000 0.0000 0.0000 0.0000 18.2605 0.0000
# 6 0.0000 0.0000 0.0000 0.0000 0.0000 26.7490
#
#
#
# Elastic Compliance Matrix: (Units=1/GPa)
#
#
# Indices 1 2 3 4 5 6 
#
# 1 0.025022 -0.004134 -0.004413 0.000000 0.000000 0.000000
# 2 -0.004134 0.010205 -0.005001 0.000000 0.000000 0.000000
# 3 -0.004413 -0.005001 0.011603 0.000000 0.000000 0.000000
# 4 0.000000 0.000000 0.000000 0.029583 0.000000 0.000000
# 5 0.000000 0.000000 0.000000 0.000000 0.054763 0.000000
# 6 0.000000 0.000000 0.000000 0.000000 0.000000 0.037385
#
#
# Mechanical properties :
#
#
# Convention : Reuss Voigt Hill
#
# Bulk Modulus (GPa) = 50.66972 73.37840 62.02406
# Shear Modulus (GPa) = 24.72383 28.02958 26.37670
#
# Velocity S-wave (km/s) = 3.67821 3.91640 3.79917
# Velocity P-wave (km/s) = 6.76507 7.78489 7.29283
#
# Compressibility (1/GPa) = 0.01973565
#
# Stress axis : x y z
#
# Youngs Moduli (GPa) = 39.96438 97.98889 86.18658
#
# Poissons Ratio (x) = 0.40505 0.38031
# Poissons Ratio (y) = 0.16520 0.43103
# Poissons Ratio (z) = 0.17635 0.49005
#
# Static dielectric constant tensor:
#      x y z
#    x 3.205560 0.000000 0.000000 
#    y 0.000000 3.533590 0.000000 
#    z 0.000000 0.000000 3.522190 
# 
# 
# High freq. dielectric constant tensor:
#      x y z
#    x 1.695010 0.000000 0.000000 
#    y 0.000000 1.713500 0.000000 
#    z 0.000000 0.000000 1.714740 
# 
# From -- ./inp_files/31646.got.cif
#   From: 2010.03.12/outbox.cif.g09.slc.cpg/sg42_16_cif.got.tgz:31646.got - 2010.04.14 02:04:31.
