data_PCOD8185526
_publ_section_title
;
Structure prediction by ZEFSAII (Michael W. Deem and Ramdas Pophale) SiO2 
 PCOD8185526
Probable space group: A B A 2
;
_chemical_formula_sum "Si O2"
_cell_formula_units_Z 44
_cell_length_a 14.326139
_cell_length_b 27.472119
_cell_length_c 5.026356
_cell_angle_alpha 90.000000
_cell_angle_beta 90.000000
_cell_angle_gamma 90.000000
_cell_volume 1978.219892
_symmetry_space_group_name_H-M "A B A 2"
_symmetry_group_IT_number 41
_symmetry_cell_setting 'orthorhombic'
loop_
_space_group_symop_operation_xyz
x,y,z
-x,-y,z
1/2-x,y,1/2+z
1/2+x,-y,1/2+z
x,1/2+y,1/2+z
-x,1/2-y,1/2+z
1/2-x,1/2+y,z
1/2+x,1/2-y,z
loop_
_atom_site_type_symbol
_atom_site_label
_atom_site_fract_x
_atom_site_fract_y
_atom_site_fract_z
Si Si1 0.500000 0.000000 0.276631
Si Si2 0.477279 0.602378 0.988852
Si Si3 0.808937 0.832805 0.012639
Si Si4 0.415745 0.366607 0.495488
Si Si5 0.189229 0.959105 0.569112
Si Si6 0.937479 0.742476 0.063284
O O1 0.473098 0.044211 0.470740
O O2 0.589393 0.013516 0.093503
O O3 0.378667 0.623346 0.083389
O O4 0.499326 0.625163 0.700411
O O5 0.556053 0.617506 0.199053
O O6 0.778930 0.837672 0.706916
O O7 0.854462 0.780653 0.062343
O O8 0.328730 0.400654 0.582102
O O9 0.390560 0.309645 0.498493
O O10 0.238525 0.974624 0.297067
O O11 0.016357 0.757683 0.853354
#
# Coordination Sequence:
#
# PCOD8185526 Si02
#       6
#     4   8   8   8   8   8
#     4  10  26  46  74 102 138 192 236 294 366 414
#     4  11  23  43  67  95 132 182 229 281 350 425
#     4  12  25  40  63 102 137 173 224 289 344 415
#     4  11  22  42  69  95 132 180 229 281 346 413
#     4  11  25  43  69 103 141 178 238 293 346 424
#     4  12  22  41  69  96 133 187 232 271 345 428
#
# _framework density 22.242218999999999
#
# number of rings (size 3 to 8) (size 9 to 14) (size 15 to 20)
#    0.000    0.727    3.636    4.364    0.000    9.455 
#    0.000    0.000    0.000    0.000    0.000    0.000 
#    0.000    0.000    0.000    0.000    0.000    0.000 
#
# Total GULP energy -272906.407132 kJ/mol
# GULP energy per Si atom -12404.836688 kJ/mol
# Density = 2.219159 g / cm^3
# Si number density = 22.242219 Si / 1000 Ang^3
#
#
#
# Elastic Constant Matrix: (Units=GPa)
#
#
# Indices 1 2 3 4 5 6 
#
# 1 105.9812 43.0254 27.0076 0.0000 0.0000 0.0000
# 2 43.0254 165.6008 26.4624 0.0000 0.0000 0.0000
# 3 27.0076 26.4624 98.1635 0.0000 0.0000 0.0000
# 4 0.0000 0.0000 0.0000 30.3783 0.0000 0.0000
# 5 0.0000 0.0000 0.0000 0.0000 37.7678 0.0000
# 6 0.0000 0.0000 0.0000 0.0000 0.0000 23.3413
#
#
#
# Elastic Compliance Matrix: (Units=1/GPa)
#
#
# Indices 1 2 3 4 5 6 
#
# 1 0.011051 -0.002493 -0.002369 0.000000 0.000000 0.000000
# 2 -0.002493 0.006873 -0.001167 0.000000 0.000000 0.000000
# 3 -0.002369 -0.001167 0.011153 0.000000 0.000000 0.000000
# 4 0.000000 0.000000 0.000000 0.032918 0.000000 0.000000
# 5 0.000000 0.000000 0.000000 0.000000 0.026478 0.000000
# 6 0.000000 0.000000 0.000000 0.000000 0.000000 0.042842
#
#
# Mechanical properties :
#
#
# Convention : Reuss Voigt Hill
#
# Bulk Modulus (GPa) = 58.75131 62.52623 60.63877
# Shear Modulus (GPa) = 33.54682 36.51417 35.03050
#
# Velocity S-wave (km/s) = 3.88783 4.05614 3.97288
# Velocity P-wave (km/s) = 6.82827 7.07876 6.95465
#
# Compressibility (1/GPa) = 0.01702090
#
# Stress axis : x y z
#
# Youngs Moduli (GPa) = 90.48783 145.50234 89.65966
#
# Poissons Ratio (x) = 0.36271 0.21236
# Poissons Ratio (y) = 0.22557 0.10462
# Poissons Ratio (z) = 0.21432 0.16978
#
# Static dielectric constant tensor:
#      x y z
#    x 3.852180 0.000000 0.000000 
#    y 0.000000 4.243230 0.000000 
#    z 0.000000 0.000000 4.021910 
# 
# 
# High freq. dielectric constant tensor:
#      x y z
#    x 1.862900 0.000000 0.000000 
#    y 0.000000 1.883560 0.000000 
#    z 0.000000 0.000000 1.888890 
# 
# From -- ./inp_files/277.got.cif
#   From: 2010.03.12/outbox.cif.g09.slc.cpg/sg41_1_cif.got.tgz:277.got - 2010.04.14 01:55:53.
