data_PCOD8185104
_publ_section_title
;
Structure prediction by ZEFSAII (Michael W. Deem and Ramdas Pophale) SiO2 
 PCOD8185104
Probable space group: A B A 2
;
_chemical_formula_sum "Si O2"
_cell_formula_units_Z 56
_cell_length_a 5.291949
_cell_length_b 16.295848
_cell_length_c 25.804731
_cell_angle_alpha 90.000000
_cell_angle_beta 90.000000
_cell_angle_gamma 90.000000
_cell_volume 2225.317337
_symmetry_space_group_name_H-M "A B A 2"
_symmetry_group_IT_number 41
_symmetry_cell_setting 'orthorhombic'
loop_
_space_group_symop_operation_xyz
x,y,z
-x,-y,z
1/2-x,y,1/2+z
1/2+x,-y,1/2+z
x,1/2+y,1/2+z
-x,1/2-y,1/2+z
1/2-x,1/2+y,z
1/2+x,1/2-y,z
loop_
_atom_site_type_symbol
_atom_site_label
_atom_site_fract_x
_atom_site_fract_y
_atom_site_fract_z
Si Si1 0.248409 0.529341 0.920150
Si Si2 0.752005 0.444987 0.701187
Si Si3 0.328816 0.699566 0.279867
Si Si4 0.780606 0.724653 0.021968
Si Si5 0.747979 0.794118 0.132815
Si Si6 0.136313 0.204566 0.400064
Si Si7 0.748927 0.537830 0.534818
O O1 0.500000 0.500000 0.889353
O O2 0.229177 0.625490 0.932710
O O3 0.000000 0.500000 0.888268
O O4 0.251175 0.478493 0.973709
O O5 0.500000 0.500000 0.707503
O O6 0.789284 0.386231 0.750693
O O7 0.728612 0.388731 0.649651
O O8 0.000000 0.500000 0.694913
O O9 0.595973 0.740823 0.264759
O O10 0.325962 0.678783 0.340547
O O11 0.533091 0.752087 0.988457
O O12 0.757181 0.788164 0.070194
O O13 0.761197 0.634532 0.044497
O O14 0.503127 0.746517 0.155758
O O15 0.339004 0.277125 0.412222
O O16 0.500000 0.500000 0.561629
O O17 0.000000 0.500000 0.561228
#
# Coordination Sequence:
#
# PCOD8185104 Si02
#       7
#     8   8   8   8   8   8   8
#     4  10  21  38  58  85 121 156 191 247 304 346
#     4  12  24  38  60  93 123 154 198 248 300 349
#     4  10  21  39  62  86 121 163 201 239 287 354
#     4  10  21  40  63  86 113 155 201 241 296 360
#     4  10  21  41  62  84 116 159 198 240 295 355
#     4  10  21  38  61  89 118 159 205 241 287 353
#     4  10  21  40  60  87 118 150 194 248 305 351
#
# _framework density 25.164953000000001
#
# number of rings (size 3 to 8) (size 9 to 14) (size 15 to 20)
#    0.000    1.714    0.000    4.286    0.000    1.143 
#    0.000   34.286    0.000    0.000    0.000    0.000 
#    0.000    0.000    0.000    0.000    0.000    0.000 
#
# Total GULP energy -347076.648306 kJ/mol
# GULP energy per Si atom -12395.594582 kJ/mol
# Density = 2.510768 g / cm^3
# Si number density = 25.164953 Si / 1000 Ang^3
#
#
#
# Elastic Constant Matrix: (Units=GPa)
#
#
# Indices 1 2 3 4 5 6 
#
# 1 283.4760 87.2509 1.5142 0.0000 0.0000 0.0000
# 2 87.2509 145.7710 3.6755 0.0000 0.0000 0.0000
# 3 1.5142 3.6755 43.0013 0.0000 0.0000 0.0000
# 4 0.0000 0.0000 0.0000 27.4428 0.0000 0.0000
# 5 0.0000 0.0000 0.0000 0.0000 8.6111 0.0000
# 6 0.0000 0.0000 0.0000 0.0000 0.0000 58.7447
#
#
#
# Elastic Compliance Matrix: (Units=1/GPa)
#
#
# Indices 1 2 3 4 5 6 
#
# 1 0.004324 -0.002590 0.000069 0.000000 0.000000 0.000000
# 2 -0.002590 0.008426 -0.000629 0.000000 0.000000 0.000000
# 3 0.000069 -0.000629 0.023306 0.000000 0.000000 0.000000
# 4 0.000000 0.000000 0.000000 0.036439 0.000000 0.000000
# 5 0.000000 0.000000 0.000000 0.000000 0.116130 0.000000
# 6 0.000000 0.000000 0.000000 0.000000 0.000000 0.017023
#
#
# Mechanical properties :
#
#
# Convention : Reuss Voigt Hill
#
# Bulk Modulus (GPa) = 33.60544 73.01438 53.30991
# Shear Modulus (GPa) = 22.53590 44.28023 33.40806
#
# Velocity S-wave (km/s) = 2.99578 4.19931 3.64753
# Velocity P-wave (km/s) = 5.03481 7.25187 6.24255
#
# Compressibility (1/GPa) = 0.02975709
#
# Stress axis : x y z
#
# Youngs Moduli (GPa) = 231.24129 118.67657 42.90655
#
# Poissons Ratio (x) = 0.30739 -0.00297
# Poissons Ratio (y) = 0.59895 0.02699
# Poissons Ratio (z) = -0.01598 0.07465
#
# Static dielectric constant tensor:
#      x y z
#    x 7.136320 0.000000 0.000000 
#    y 0.000000 4.353500 0.000000 
#    z 0.000000 0.000000 4.302870 
# 
# 
# High freq. dielectric constant tensor:
#      x y z
#    x 2.047050 0.000000 0.000000 
#    y 0.000000 2.001350 0.000000 
#    z 0.000000 0.000000 1.984910 
# 
# From -- ./inp_files/12626.got.cif
#   From: 2010.03.12/outbox.cif.g09.slc.cpg/sg41_7_cif.got.tgz:12626.got - 2010.04.14 01:55:53.
