data_PCOD8185603
_publ_section_title
;
Structure prediction by ZEFSAII (Michael W. Deem and Ramdas Pophale) SiO2 
 PCOD8185603
Probable space group: A B A 2
;
_chemical_formula_sum "Si O2"
_cell_formula_units_Z 52
_cell_length_a 26.223030
_cell_length_b 7.440700
_cell_length_c 12.417177
_cell_angle_alpha 90.000000
_cell_angle_beta 90.000000
_cell_angle_gamma 90.000000
_cell_volume 2422.811008
_symmetry_space_group_name_H-M "A B A 2"
_symmetry_group_IT_number 41
_symmetry_cell_setting 'orthorhombic'
loop_
_space_group_symop_operation_xyz
x,y,z
-x,-y,z
1/2-x,y,1/2+z
1/2+x,-y,1/2+z
x,1/2+y,1/2+z
-x,1/2-y,1/2+z
1/2-x,1/2+y,z
1/2+x,1/2-y,z
loop_
_atom_site_type_symbol
_atom_site_label
_atom_site_fract_x
_atom_site_fract_y
_atom_site_fract_z
Si Si1 0.576072 0.174704 0.493510
Si Si2 0.155748 0.129001 0.991530
Si Si3 0.581785 0.767676 0.753298
Si Si4 0.688193 0.949023 0.715810
Si Si5 0.500000 0.000000 0.636243
Si Si6 0.871718 0.015849 0.595973
Si Si7 0.200820 0.645144 0.263537
O O1 0.562278 0.206825 0.369597
O O2 0.610119 0.335472 0.539382
O O3 0.604316 0.984580 0.507213
O O4 0.524039 0.156601 0.561351
O O5 0.180431 0.077846 0.878436
O O6 0.194146 0.072439 0.086993
O O7 0.142676 0.340716 0.002991
O O8 0.639013 0.845417 0.760286
O O9 0.543103 0.917472 0.712224
O O10 0.583688 0.596424 0.672687
O O11 0.738231 0.863024 0.769022
O O12 0.681490 0.154680 0.746404
O O13 0.821647 0.980157 0.669282
#
# Coordination Sequence:
#
# PCOD8185603 Si02
#       7
#     8   8   8   8   4   8   8
#     4  12  25  46  74  98 141 180 230 292 349 403
#     4  11  24  45  69 102 141 179 233 278 342 414
#     4  11  25  47  70 104 138 181 237 289 348 416
#     4  11  24  45  68 104 144 179 235 282 339 426
#     4  12  26  48  70 104 136 182 240 294 340 424
#     4  11  23  45  72 104 141 181 228 288 342 416
#     4  12  24  42  72 104 142 187 222 283 350 411
#
# _framework density 21.462672999999999
#
# number of rings (size 3 to 8) (size 9 to 14) (size 15 to 20)
#    0.000    0.615    6.154    2.769    0.000    6.769 
#    2.769    0.000    0.000    0.000    0.000    0.000 
#    0.000    0.000    0.000    0.000    0.000    0.000 
#
# Total GULP energy -322516.180406 kJ/mol
# GULP energy per Si atom -12404.468477 kJ/mol
# Density = 2.141382 g / cm^3
# Si number density = 21.462673 Si / 1000 Ang^3
#
#
#
# Elastic Constant Matrix: (Units=GPa)
#
#
# Indices 1 2 3 4 5 6 
#
# 1 101.2288 31.2393 36.3683 0.0000 0.0000 0.0000
# 2 31.2393 92.4353 30.9659 0.0000 0.0000 0.0000
# 3 36.3683 30.9659 106.0925 0.0000 0.0000 0.0000
# 4 0.0000 0.0000 0.0000 32.5376 0.0000 0.0000
# 5 0.0000 0.0000 0.0000 0.0000 26.5041 0.0000
# 6 0.0000 0.0000 0.0000 0.0000 0.0000 27.3738
#
#
#
# Elastic Compliance Matrix: (Units=1/GPa)
#
#
# Indices 1 2 3 4 5 6 
#
# 1 0.011953 -0.002956 -0.003235 0.000000 0.000000 0.000000
# 2 -0.002956 0.012722 -0.002700 0.000000 0.000000 0.000000
# 3 -0.003235 -0.002700 0.011323 0.000000 0.000000 0.000000
# 4 0.000000 0.000000 0.000000 0.030734 0.000000 0.000000
# 5 0.000000 0.000000 0.000000 0.000000 0.037730 0.000000
# 6 0.000000 0.000000 0.000000 0.000000 0.000000 0.036531
#
#
# Mechanical properties :
#
#
# Convention : Reuss Voigt Hill
#
# Bulk Modulus (GPa) = 54.89591 55.21153 55.05372
# Shear Modulus (GPa) = 30.33142 30.69531 30.51336
#
# Velocity S-wave (km/s) = 3.76336 3.78586 3.77463
# Velocity P-wave (km/s) = 6.67208 6.70005 6.68608
#
# Compressibility (1/GPa) = 0.01821629
#
# Stress axis : x y z
#
# Youngs Moduli (GPa) = 83.66139 78.60496 88.31884
#
# Poissons Ratio (x) = 0.23236 0.28568
# Poissons Ratio (y) = 0.24730 0.23845
# Poissons Ratio (z) = 0.27062 0.21223
#
# Static dielectric constant tensor:
#      x y z
#    x 3.718250 0.000000 0.000000 
#    y 0.000000 3.967750 0.000000 
#    z 0.000000 0.000000 4.029830 
# 
# 
# High freq. dielectric constant tensor:
#      x y z
#    x 1.830400 0.000000 0.000000 
#    y 0.000000 1.855130 0.000000 
#    z 0.000000 0.000000 1.852670 
# 
# From -- ./inp_files/6551.got.cif
#   From: 2010.03.12/outbox.cif.g09.slc.cpg/sg41_4_cif.got.tgz:6551.got - 2010.04.14 01:55:53.
