data_PCOD8185465
_publ_section_title
;
Structure prediction by ZEFSAII (Michael W. Deem and Ramdas Pophale) SiO2 
 PCOD8185465
Probable space group: A B A 2
;
_chemical_formula_sum "Si O2"
_cell_formula_units_Z 64
_cell_length_a 29.566398
_cell_length_b 8.365729
_cell_length_c 12.242282
_cell_angle_alpha 90.000000
_cell_angle_beta 90.000000
_cell_angle_gamma 90.000000
_cell_volume 3028.060792
_symmetry_space_group_name_H-M "A B A 2"
_symmetry_group_IT_number 41
_symmetry_cell_setting 'orthorhombic'
loop_
_space_group_symop_operation_xyz
x,y,z
-x,-y,z
1/2-x,y,1/2+z
1/2+x,-y,1/2+z
x,1/2+y,1/2+z
-x,1/2-y,1/2+z
1/2-x,1/2+y,z
1/2+x,1/2-y,z
loop_
_atom_site_type_symbol
_atom_site_label
_atom_site_fract_x
_atom_site_fract_y
_atom_site_fract_z
Si Si1 0.608516 0.737355 0.538900
Si Si2 0.431556 0.227205 0.761170
Si Si3 0.903167 0.928687 0.828453
Si Si4 0.951398 0.948684 0.466269
Si Si5 0.477624 0.173595 0.180765
Si Si6 0.697472 0.484442 0.772048
Si Si7 0.296682 0.429372 0.528387
Si Si8 0.268623 0.721719 0.399039
O O1 0.603961 0.803739 0.662883
O O2 0.598423 0.880270 0.455377
O O3 0.573154 0.593609 0.527787
O O4 0.658409 0.673994 0.518346
O O5 0.424925 0.398362 0.817070
O O6 0.422747 0.104404 0.860331
O O7 0.482503 0.203529 0.712922
O O8 0.935794 0.804429 0.764633
O O9 0.853630 0.920950 0.775328
O O10 0.958293 0.806721 0.556768
O O11 0.000000 0.000000 0.421555
O O12 0.500000 0.000000 0.185958
O O13 0.712685 0.506151 0.648339
O O14 0.730033 0.350825 0.821672
O O15 0.699866 0.655241 0.833176
O O16 0.299967 0.580665 0.446415
O O17 0.254715 0.316745 0.498017
#
# Coordination Sequence:
#
# PCOD8185465 Si02
#       8
#     8   8   8   8   8   8   8   8
#     4  12  23  41  62  93 129 164 211 259 310 373
#     4  11  23  42  65  89 126 169 205 261 316 366
#     4  11  22  41  64  89 129 167 203 261 309 371
#     4  11  21  42  65  89 126 165 212 258 309 377
#     4   9  18  39  64  87 119 169 201 249 318 356
#     4  11  21  42  64  92 126 161 206 256 314 372
#     4  11  22  41  65  91 126 162 206 261 310 372
#     4  10  24  40  65  94 119 168 209 251 323 371
#
# _framework density 21.135636999999999
#
# number of rings (size 3 to 8) (size 9 to 14) (size 15 to 20)
#    0.000    1.250    6.250    1.500    1.750    0.000 
#    4.500    0.000    0.000    0.000    0.000    0.000 
#    0.000    0.000    0.000    0.000    0.000    0.000 
#
# Total GULP energy -396794.746468 kJ/mol
# GULP energy per Si atom -12399.835827 kJ/mol
# Density = 2.108753 g / cm^3
# Si number density = 21.135637 Si / 1000 Ang^3
#
#
#
# Elastic Constant Matrix: (Units=GPa)
#
#
# Indices 1 2 3 4 5 6 
#
# 1 83.3068 6.7209 20.5530 0.0000 0.0000 0.0000
# 2 6.7209 36.5609 25.2389 0.0000 0.0000 0.0000
# 3 20.5530 25.2389 117.0328 0.0000 0.0000 0.0000
# 4 0.0000 0.0000 0.0000 23.9266 0.0000 0.0000
# 5 0.0000 0.0000 0.0000 0.0000 22.0236 0.0000
# 6 0.0000 0.0000 0.0000 0.0000 0.0000 17.7026
#
#
#
# Elastic Compliance Matrix: (Units=1/GPa)
#
#
# Indices 1 2 3 4 5 6 
#
# 1 0.012574 -0.000925 -0.002009 0.000000 0.000000 0.000000
# 2 -0.000925 0.032204 -0.006783 0.000000 0.000000 0.000000
# 3 -0.002009 -0.006783 0.010360 0.000000 0.000000 0.000000
# 4 0.000000 0.000000 0.000000 0.041795 0.000000 0.000000
# 5 0.000000 0.000000 0.000000 0.000000 0.045406 0.000000
# 6 0.000000 0.000000 0.000000 0.000000 0.000000 0.056489
#
#
# Mechanical properties :
#
#
# Convention : Reuss Voigt Hill
#
# Bulk Modulus (GPa) = 28.00673 37.99179 32.99926
# Shear Modulus (GPa) = 21.72391 25.02308 23.37349
#
# Velocity S-wave (km/s) = 3.20946 3.44456 3.32909
# Velocity P-wave (km/s) = 5.19749 5.81672 5.51580
#
# Compressibility (1/GPa) = 0.03570571
#
# Stress axis : x y z
#
# Youngs Moduli (GPa) = 79.52906 31.05229 96.52434
#
# Poissons Ratio (x) = 0.02872 0.19390
# Poissons Ratio (y) = 0.07354 0.65468
# Poissons Ratio (z) = 0.15976 0.21061
#
# Static dielectric constant tensor:
#      x y z
#    x 3.897780 0.000000 0.000000 
#    y 0.000000 3.602610 0.000000 
#    z 0.000000 0.000000 4.058820 
# 
# 
# High freq. dielectric constant tensor:
#      x y z
#    x 1.829710 0.000000 0.000000 
#    y 0.000000 1.800780 0.000000 
#    z 0.000000 0.000000 1.843050 
# 
# From -- ./inp_files/6662.got.cif
#   From: 2010.03.12/outbox.cif.g09.slc.cpg/sg41_4_cif.got.tgz:6662.got - 2010.04.14 01:55:53.
