data_PCOD8185916
_publ_section_title
;
Structure prediction by ZEFSAII (Michael W. Deem and Ramdas Pophale) SiO2 
 PCOD8185916
Probable space group: F M M 2
;
_chemical_formula_sum "Si O2"
_cell_formula_units_Z 92
_cell_length_a 25.027510
_cell_length_b 7.509632
_cell_length_c 26.932798
_cell_angle_alpha 90.000000
_cell_angle_beta 90.000000
_cell_angle_gamma 90.000000
_cell_volume 5061.949089
_symmetry_space_group_name_H-M "F M M 2"
_symmetry_group_IT_number 42
_symmetry_cell_setting 'orthorhombic'
loop_
_space_group_symop_operation_xyz
x,y,z
-x,-y,z
-x,y,z
x,-y,z
x,1/2+y,1/2+z
-x,1/2-y,1/2+z
-x,1/2+y,1/2+z
x,1/2-y,1/2+z
1/2+x,y,1/2+z
1/2-x,-y,1/2+z
1/2-x,y,1/2+z
1/2+x,-y,1/2+z
1/2+x,1/2+y,z
1/2-x,1/2-y,z
1/2-x,1/2+y,z
1/2+x,1/2-y,z
loop_
_atom_site_type_symbol
_atom_site_label
_atom_site_fract_x
_atom_site_fract_y
_atom_site_fract_z
Si Si1 0.390143 0.500000 0.921208
Si Si2 0.000000 0.500000 0.358771
Si Si3 0.000000 0.291376 0.775854
Si Si4 0.560399 0.302189 0.602593
Si Si5 0.807723 0.293143 0.771447
Si Si6 0.097903 0.790343 0.206799
Si Si7 0.936776 0.000000 0.028866
Si Si8 0.809962 0.789773 0.383612
O O1 0.445753 0.500000 0.891027
O O2 0.355031 0.677586 0.912147
O O3 0.403858 0.500000 0.978822
O O4 0.000000 0.320696 0.326301
O O5 0.050147 0.236218 0.742873
O O6 0.000000 0.500000 0.790412
O O7 0.500000 0.246103 0.616853
O O8 0.563132 0.500000 0.580146
O O9 0.594479 0.297183 0.652880
O O10 0.581874 0.171742 0.560211
O O11 0.819251 0.500000 0.774901
O O12 0.750000 0.250000 0.749069
O O13 0.849929 0.208772 0.733475
O O14 0.812975 0.216559 0.827029
O O15 0.099988 0.000000 0.198507
O O16 0.000000 0.000000 0.017800
O O17 0.750000 0.750000 0.404033
O O18 0.822767 0.000000 0.388705
#
# Coordination Sequence:
#
# PCOD8185916 Si02
#       8
#     8   4   8  16  16  16   8  16
#     4  12  24  40  64  89 119 163 200 247 315 358
#     4  12  26  38  52  92 134 166 196 232 304 378
#     4  10  22  36  53  81 127 163 192 232 286 349
#     4  10  20  34  57  85 111 145 198 243 281 344
#     4   9  19  32  50  80 117 154 191 228 279 341
#     4  10  18  32  54  82 114 156 191 231 286 340
#     4  10  22  42  60  79 120 153 189 244 298 356
#     4  10  20  39  63  91 119 155 208 254 289 351
#
# _framework density 18.174817999999998
#
# number of rings (size 3 to 8) (size 9 to 14) (size 15 to 20)
#    0.000    1.913    3.043    1.043    2.435    3.478 
#    0.000    0.000    0.000    1.043    0.000    0.000 
#    0.000    0.000    0.000    0.000    0.000    0.000 
#
# Total GULP energy -285159.123138 kJ/mol
# GULP energy per Si atom -12398.222745 kJ/mol
# Density = 1.813345 g / cm^3
# Si number density = 18.174818 Si / 1000 Ang^3
#
#
#
# Elastic Constant Matrix: (Units=GPa)
#
#
# Indices 1 2 3 4 5 6 
#
# 1 131.1240 42.2747 72.1160 -0.0001 0.0003 -0.0008
# 2 42.2747 99.9392 50.4788 -0.0001 0.0006 -0.0016
# 3 72.1160 50.4788 131.1576 0.0000 -0.0001 0.0000
# 4 -0.0001 -0.0001 0.0000 13.9232 0.0000 0.0001
# 5 0.0003 0.0006 -0.0001 0.0000 10.1819 -0.0004
# 6 -0.0008 -0.0016 0.0000 0.0001 -0.0004 24.7570
#
#
#
# Elastic Compliance Matrix: (Units=1/GPa)
#
#
# Indices 1 2 3 4 5 6 
#
# 1 0.011255 -0.002030 -0.005407 0.000000 0.000000 0.000000
# 2 -0.002030 0.012787 -0.003805 0.000000 -0.000001 0.000001
# 3 -0.005407 -0.003805 0.012062 0.000000 0.000000 0.000000
# 4 0.000000 0.000000 0.000000 0.071823 0.000000 0.000000
# 5 0.000000 -0.000001 0.000000 0.000000 0.098214 0.000001
# 6 0.000000 0.000001 0.000000 0.000000 0.000001 0.040393
#
#
# Mechanical properties :
#
#
# Convention : Reuss Voigt Hill
#
# Bulk Modulus (GPa) = 73.42538 76.88445 75.15491
# Shear Modulus (GPa) = 18.27780 22.92916 20.60348
#
# Velocity S-wave (km/s) = 3.17466 3.55574 3.37059
# Velocity P-wave (km/s) = 7.34338 7.69755 7.52255
#
# Compressibility (1/GPa) = 0.01361927
#
# Stress axis : x y z
#
# Youngs Moduli (GPa) = 88.85315 78.20663 82.90515
#
# Poissons Ratio (x) = 0.15873 0.44827
# Poissons Ratio (y) = 0.18034 0.31547
# Poissons Ratio (z) = 0.48044 0.29759
#
# Static dielectric constant tensor:
#      x y z
#    x 3.425910 0.000000 0.000000 
#    y 0.000000 3.385100 0.000000 
#    z 0.000000 0.000000 3.185650 
# 
# 
# High freq. dielectric constant tensor:
#      x y z
#    x 1.697090 0.000000 0.000000 
#    y 0.000000 1.715290 0.000000 
#    z 0.000000 0.000000 1.681540 
# 
# From -- ./inp_files/28137.got.cif
#   From: 2010.03.12/outbox.cif.g09.slc.cpg/sg42_15_cif.got.tgz:28137.got - 2010.04.14 02:04:31.
