data_PCOD8185479
_publ_section_title
;
Structure prediction by ZEFSAII (Michael W. Deem and Ramdas Pophale) SiO2 
 PCOD8185479
Probable space group: A B A 2
;
_chemical_formula_sum "Si O2"
_cell_formula_units_Z 56
_cell_length_a 28.473821
_cell_length_b 14.217957
_cell_length_c 5.614055
_cell_angle_alpha 90.000000
_cell_angle_beta 90.000000
_cell_angle_gamma 90.000000
_cell_volume 2272.791571
_symmetry_space_group_name_H-M "A B A 2"
_symmetry_group_IT_number 41
_symmetry_cell_setting 'orthorhombic'
loop_
_space_group_symop_operation_xyz
x,y,z
-x,-y,z
1/2-x,y,1/2+z
1/2+x,-y,1/2+z
x,1/2+y,1/2+z
-x,1/2-y,1/2+z
1/2-x,1/2+y,z
1/2+x,1/2-y,z
loop_
_atom_site_type_symbol
_atom_site_label
_atom_site_fract_x
_atom_site_fract_y
_atom_site_fract_z
Si Si1 0.040359 0.637606 0.731970
Si Si2 0.728025 0.322132 0.482297
Si Si3 0.454355 0.341778 0.546057
Si Si4 0.135181 0.900694 0.288344
Si Si5 0.579128 0.019845 0.405349
Si Si6 0.371992 0.095300 0.012923
Si Si7 0.737817 0.618241 0.385304
O O1 0.033492 0.733150 0.584957
O O2 0.049159 0.543429 0.583867
O O3 0.083806 0.654307 0.912117
O O4 0.991387 0.617007 0.860634
O O5 0.754951 0.362938 0.721947
O O6 0.672959 0.337897 0.532027
O O7 0.733482 0.210396 0.461251
O O8 0.400941 0.347501 0.458280
O O9 0.458182 0.414676 0.765694
O O10 0.184904 0.850756 0.322459
O O11 0.142704 0.010558 0.342838
O O12 0.114178 0.902926 0.023202
O O13 0.611720 0.947609 0.262244
O O14 0.740734 0.563577 0.647196
#
# Coordination Sequence:
#
# PCOD8185479 Si02
#       7
#     8   8   8   8   8   8   8
#     4  11  28  48  75 114 147 201 255 318 393 475
#     4  10  24  42  70 105 143 197 251 316 386 459
#     4  11  28  48  75 114 147 201 255 318 393 475
#     4  10  25  46  74 105 145 200 253 319 388 467
#     4  10  26  51  76 102 156 194 258 322 391 468
#     4  10  25  46  74 105 145 200 253 319 388 467
#     4  10  24  42  70 105 143 197 251 316 386 459
#
# _framework density 24.639299999999999
#
# number of rings (size 3 to 8) (size 9 to 14) (size 15 to 20)
#    0.000    1.714    0.000    0.000   16.000    9.714 
#    0.000    0.000    0.000    0.000    0.000    0.000 
#    0.000    0.000    0.000    0.000    0.000    0.000 
#
# Total GULP energy -346917.491508 kJ/mol
# GULP energy per Si atom -12389.910411 kJ/mol
# Density = 2.458322 g / cm^3
# Si number density = 24.639300 Si / 1000 Ang^3
#
#
#
# Elastic Constant Matrix: (Units=GPa)
#
#
# Indices 1 2 3 4 5 6 
#
# 1 121.1989 13.8061 27.7486 0.0000 0.0000 0.0000
# 2 13.8061 55.6739 13.9020 0.0000 0.0000 0.0000
# 3 27.7486 13.9020 146.0792 0.0000 0.0000 0.0000
# 4 0.0000 0.0000 0.0000 20.7205 0.0000 0.0000
# 5 0.0000 0.0000 0.0000 0.0000 27.1129 0.0000
# 6 0.0000 0.0000 0.0000 0.0000 0.0000 23.5160
#
#
#
# Elastic Compliance Matrix: (Units=1/GPa)
#
#
# Indices 1 2 3 4 5 6 
#
# 1 0.008800 -0.001808 -0.001500 0.000000 0.000000 0.000000
# 2 -0.001808 0.018770 -0.001443 0.000000 0.000000 0.000000
# 3 -0.001500 -0.001443 0.007268 0.000000 0.000000 0.000000
# 4 0.000000 0.000000 0.000000 0.048261 0.000000 0.000000
# 5 0.000000 0.000000 0.000000 0.000000 0.036883 0.000000
# 6 0.000000 0.000000 0.000000 0.000000 0.000000 0.042524
#
#
# Mechanical properties :
#
#
# Convention : Reuss Voigt Hill
#
# Bulk Modulus (GPa) = 39.46701 48.20727 43.83714
# Shear Modulus (GPa) = 27.70800 32.10289 29.90544
#
# Velocity S-wave (km/s) = 3.35706 3.61351 3.48764
# Velocity P-wave (km/s) = 5.57487 6.08421 5.83510
#
# Compressibility (1/GPa) = 0.02533761
#
# Stress axis : x y z
#
# Youngs Moduli (GPa) = 113.63421 53.27549 137.59358
#
# Poissons Ratio (x) = 0.09631 0.20634
# Poissons Ratio (y) = 0.20543 0.19854
# Poissons Ratio (z) = 0.17041 0.07687
#
# Static dielectric constant tensor:
#      x y z
#    x 4.475810 0.000000 0.000000 
#    y 0.000000 4.049840 0.000000 
#    z 0.000000 0.000000 5.413020 
# 
# 
# High freq. dielectric constant tensor:
#      x y z
#    x 1.988250 0.000000 0.000000 
#    y 0.000000 1.963850 0.000000 
#    z 0.000000 0.000000 1.997260 
# 
# From -- ./inp_files/1325.got.cif
#   From: 2010.03.12/outbox.cif.g09.slc.cpg/sg41_1_cif.got.tgz:1325.got - 2010.04.14 01:55:53.
