data_PCOD8185098
_publ_section_title
;
Structure prediction by ZEFSAII (Michael W. Deem and Ramdas Pophale) SiO2 
 PCOD8185098
Probable space group: A B A 2
;
_chemical_formula_sum "Si O2"
_cell_formula_units_Z 60
_cell_length_a 15.334503
_cell_length_b 17.040245
_cell_length_c 8.574033
_cell_angle_alpha 90.000000
_cell_angle_beta 90.000000
_cell_angle_gamma 90.000000
_cell_volume 2240.426445
_symmetry_space_group_name_H-M "A B A 2"
_symmetry_group_IT_number 41
_symmetry_cell_setting 'orthorhombic'
loop_
_space_group_symop_operation_xyz
x,y,z
-x,-y,z
1/2-x,y,1/2+z
1/2+x,-y,1/2+z
x,1/2+y,1/2+z
-x,1/2-y,1/2+z
1/2-x,1/2+y,z
1/2+x,1/2-y,z
loop_
_atom_site_type_symbol
_atom_site_label
_atom_site_fract_x
_atom_site_fract_y
_atom_site_fract_z
Si Si1 0.000000 0.500000 0.903610
Si Si2 0.597930 0.389843 0.172581
Si Si3 0.157302 0.489557 0.454906
Si Si4 0.462204 0.862927 0.428393
Si Si5 0.234208 0.402980 0.735001
Si Si6 0.169175 0.301705 0.005869
Si Si7 0.663358 0.777906 0.918518
Si Si8 0.006676 0.652273 0.089791
O O1 0.924724 0.461702 0.792039
O O2 0.968949 0.569969 0.019051
O O3 0.654230 0.318894 0.247687
O O4 0.653437 0.423503 0.025314
O O5 0.511535 0.353226 0.093933
O O6 0.064370 0.454440 0.402526
O O7 0.179005 0.426596 0.588254
O O8 0.224698 0.482508 0.311561
O O9 0.375444 0.809378 0.428818
O O10 0.519752 0.844120 0.275582
O O11 0.173662 0.360745 0.860372
O O12 0.307529 0.341852 0.672811
O O13 0.234794 0.227980 0.971560
O O14 0.065038 0.282333 0.027154
O O15 0.604014 0.832302 0.029313
#
# Coordination Sequence:
#
# PCOD8185098 Si02
#       8
#     4   8   8   8   8   8   8   8
#     4  10  22  40  66 114 144 186 254 328 392 466
#     4  11  24  43  72 105 152 193 252 334 392 463
#     4  11  21  42  69 108 135 195 257 319 388 464
#     4  12  22  42  72 103 145 199 258 309 395 479
#     4  10  21  37  71  98 138 193 261 304 375 478
#     4  11  21  42  67 103 145 201 256 312 377 485
#     4  11  25  45  68 108 152 199 261 313 393 474
#     4  11  25  40  73 112 148 199 256 324 399 467
#
# _framework density 26.780614
#
# number of rings (size 3 to 8) (size 9 to 14) (size 15 to 20)
#    0.000    1.067    5.333    1.600    3.733    1.067 
#    0.000    5.333    0.000    0.000    0.000    0.000 
#    0.000    0.000    0.000    0.000    0.000    0.000 
#
# Total GULP energy -371676.573236 kJ/mol
# GULP energy per Si atom -12389.219108 kJ/mol
# Density = 2.671966 g / cm^3
# Si number density = 26.780614 Si / 1000 Ang^3
#
#
#
# Elastic Constant Matrix: (Units=GPa)
#
#
# Indices 1 2 3 4 5 6 
#
# 1 62.9603 33.5675 8.1130 0.0000 0.0000 0.0000
# 2 33.5675 97.2144 23.7831 0.0000 0.0000 0.0000
# 3 8.1130 23.7831 112.4084 0.0000 0.0000 0.0000
# 4 0.0000 0.0000 0.0000 37.2414 0.0000 0.0000
# 5 0.0000 0.0000 0.0000 0.0000 24.9868 0.0000
# 6 0.0000 0.0000 0.0000 0.0000 0.0000 23.3236
#
#
#
# Elastic Compliance Matrix: (Units=1/GPa)
#
#
# Indices 1 2 3 4 5 6 
#
# 1 0.019467 -0.006726 0.000018 0.000000 0.000000 0.000000
# 2 -0.006726 0.013172 -0.002301 0.000000 0.000000 0.000000
# 3 0.000018 -0.002301 0.009382 0.000000 0.000000 0.000000
# 4 0.000000 0.000000 0.000000 0.026852 0.000000 0.000000
# 5 0.000000 0.000000 0.000000 0.000000 0.040021 0.000000
# 6 0.000000 0.000000 0.000000 0.000000 0.000000 0.042875
#
#
# Mechanical properties :
#
#
# Convention : Reuss Voigt Hill
#
# Bulk Modulus (GPa) = 41.66395 44.83448 43.24921
# Shear Modulus (GPa) = 28.12336 30.91834 29.52085
#
# Velocity S-wave (km/s) = 3.24410 3.40149 3.32372
# Velocity P-wave (km/s) = 5.44275 5.67491 5.56004
#
# Compressibility (1/GPa) = 0.02400156
#
# Stress axis : x y z
#
# Youngs Moduli (GPa) = 51.36954 75.91805 106.58982
#
# Poissons Ratio (x) = 0.51064 -0.00193
# Poissons Ratio (y) = 0.34552 0.24531
# Poissons Ratio (z) = -0.00093 0.17472
#
# Static dielectric constant tensor:
#      x y z
#    x 4.553740 0.000000 0.000000 
#    y 0.000000 4.825270 0.000000 
#    z 0.000000 0.000000 5.037660 
# 
# 
# High freq. dielectric constant tensor:
#      x y z
#    x 2.054720 0.000000 0.000000 
#    y 0.000000 2.066660 0.000000 
#    z 0.000000 0.000000 2.096330 
# 
# From -- ./inp_files/3155.got.cif
#   From: 2010.03.12/outbox.cif.g09.slc.cpg/sg41_2_cif.got.tgz:3155.got - 2010.04.14 01:55:53.
