data_PCOD8185166
_publ_section_title
;
Structure prediction by ZEFSAII (Michael W. Deem and Ramdas Pophale) SiO2 
 PCOD8185166
Probable space group: A B A 2
;
_chemical_formula_sum "Si O2"
_cell_formula_units_Z 64
_cell_length_a 11.366676
_cell_length_b 28.558418
_cell_length_c 9.390530
_cell_angle_alpha 90.000000
_cell_angle_beta 90.000000
_cell_angle_gamma 90.000000
_cell_volume 3048.300177
_symmetry_space_group_name_H-M "A B A 2"
_symmetry_group_IT_number 41
_symmetry_cell_setting 'orthorhombic'
loop_
_space_group_symop_operation_xyz
x,y,z
-x,-y,z
1/2-x,y,1/2+z
1/2+x,-y,1/2+z
x,1/2+y,1/2+z
-x,1/2-y,1/2+z
1/2-x,1/2+y,z
1/2+x,1/2-y,z
loop_
_atom_site_type_symbol
_atom_site_label
_atom_site_fract_x
_atom_site_fract_y
_atom_site_fract_z
Si Si1 0.560800 0.450302 0.907220
Si Si2 0.331390 0.878556 0.618622
Si Si3 0.794420 0.908319 0.419948
Si Si4 0.887780 0.621694 0.305440
Si Si5 0.728687 0.846286 0.181147
Si Si6 0.969659 0.286239 0.294572
Si Si7 0.993894 0.445004 0.725973
Si Si8 0.970860 0.300314 0.611642
O O1 0.500000 0.500000 0.884154
O O2 0.702943 0.451695 0.892803
O O3 0.497745 0.414726 0.795539
O O4 0.553041 0.431831 0.069163
O O5 0.197665 0.876446 0.670591
O O6 0.321942 0.892054 0.452353
O O7 0.380220 0.919636 0.723057
O O8 0.409841 0.831169 0.628627
O O9 0.733382 0.864747 0.341803
O O10 0.815864 0.889088 0.579575
O O11 0.917419 0.923064 0.352033
O O12 0.933869 0.673879 0.304952
O O13 0.639489 0.802321 0.193064
O O14 0.859841 0.833055 0.138316
O O15 0.943543 0.275598 0.460151
O O16 0.024814 0.239770 0.229552
O O17 0.000000 0.500000 0.752034
#
# Coordination Sequence:
#
# PCOD8185166 Si02
#       8
#     8   8   8   8   8   8   8   8
#     4  10  21  40  65  92 130 172 209 266 326 378
#     4  10  22  42  61  86 128 168 201 257 316 379
#     4  12  21  42  70  95 125 175 220 270 324 387
#     4  10  22  42  60  88 128 165 206 252 320 374
#     4  12  23  44  69  93 130 169 222 271 321 389
#     4  11  26  43  66  95 128 168 213 268 324 385
#     4  10  22  40  65  95 130 168 213 266 326 379
#     4  11  25  43  64  96 127 167 216 264 327 381
#
# _framework density 20.995307
#
# number of rings (size 3 to 8) (size 9 to 14) (size 15 to 20)
#    0.000    1.250    5.000    0.750    5.250    2.000 
#    0.000    0.625    0.000    0.000    0.000    0.000 
#    0.000    0.000    0.000    0.000    0.000    0.000 
#
# Total GULP energy -396491.110876 kJ/mol
# GULP energy per Si atom -12390.347215 kJ/mol
# Density = 2.094752 g / cm^3
# Si number density = 20.995307 Si / 1000 Ang^3
#
#
#
# Elastic Constant Matrix: (Units=GPa)
#
#
# Indices 1 2 3 4 5 6 
#
# 1 55.5848 -6.6213 20.6312 0.0000 0.0000 0.0000
# 2 -6.6213 82.2225 17.6551 0.0000 0.0000 0.0000
# 3 20.6312 17.6551 69.5042 0.0000 0.0000 0.0000
# 4 0.0000 0.0000 0.0000 30.6499 0.0000 0.0000
# 5 0.0000 0.0000 0.0000 0.0000 30.9267 0.0000
# 6 0.0000 0.0000 0.0000 0.0000 0.0000 25.3302
#
#
#
# Elastic Compliance Matrix: (Units=1/GPa)
#
#
# Indices 1 2 3 4 5 6 
#
# 1 0.020986 0.003202 -0.007043 0.000000 0.000000 0.000000
# 2 0.003202 0.013352 -0.004342 0.000000 0.000000 0.000000
# 3 -0.007043 -0.004342 0.017581 0.000000 0.000000 0.000000
# 4 0.000000 0.000000 0.000000 0.032627 0.000000 0.000000
# 5 0.000000 0.000000 0.000000 0.000000 0.032335 0.000000
# 6 0.000000 0.000000 0.000000 0.000000 0.000000 0.039479
#
#
# Mechanical properties :
#
#
# Convention : Reuss Voigt Hill
#
# Bulk Modulus (GPa) = 28.12624 30.07129 29.09876
# Shear Modulus (GPa) = 27.08910 29.09113 28.09012
#
# Velocity S-wave (km/s) = 3.59590 3.72641 3.66173
# Velocity P-wave (km/s) = 5.53770 5.73313 5.63626
#
# Compressibility (1/GPa) = 0.03555399
#
# Stress axis : x y z
#
# Youngs Moduli (GPa) = 47.65071 74.89305 56.87911
#
# Poissons Ratio (x) = -0.23983 0.40059
# Poissons Ratio (y) = -0.15259 0.24698
# Poissons Ratio (z) = 0.33559 0.32520
#
# Static dielectric constant tensor:
#      x y z
#    x 3.722980 0.000000 0.000000 
#    y 0.000000 3.693550 0.000000 
#    z 0.000000 0.000000 3.864390 
# 
# 
# High freq. dielectric constant tensor:
#      x y z
#    x 1.821320 0.000000 0.000000 
#    y 0.000000 1.815520 0.000000 
#    z 0.000000 0.000000 1.822860 
# 
# From -- ./inp_files/2210.got.cif
#   From: 2010.03.12/outbox.cif.g09.slc.cpg/sg41_2_cif.got.tgz:2210.got - 2010.04.14 01:55:53.
