data_PCOD8185961
_publ_section_title
;
Structure prediction by ZEFSAII (Michael W. Deem and Ramdas Pophale) SiO2 
 PCOD8185961
Probable space group: F M M 2
;
_chemical_formula_sum "Si O2"
_cell_formula_units_Z 80
_cell_length_a 20.440902
_cell_length_b 8.045597
_cell_length_c 25.766336
_cell_angle_alpha 90.000000
_cell_angle_beta 90.000000
_cell_angle_gamma 90.000000
_cell_volume 4237.512547
_symmetry_space_group_name_H-M "F M M 2"
_symmetry_group_IT_number 42
_symmetry_cell_setting 'orthorhombic'
loop_
_space_group_symop_operation_xyz
x,y,z
-x,-y,z
-x,y,z
x,-y,z
x,1/2+y,1/2+z
-x,1/2-y,1/2+z
-x,1/2+y,1/2+z
x,1/2-y,1/2+z
1/2+x,y,1/2+z
1/2-x,-y,1/2+z
1/2-x,y,1/2+z
1/2+x,-y,1/2+z
1/2+x,1/2+y,z
1/2-x,1/2-y,z
1/2-x,1/2+y,z
1/2+x,1/2-y,z
loop_
_atom_site_type_symbol
_atom_site_label
_atom_site_fract_x
_atom_site_fract_y
_atom_site_fract_z
Si Si1 0.575802 0.000000 0.799480
Si Si2 0.319418 0.689482 0.952594
Si Si3 0.250000 0.250000 0.752685
Si Si4 0.424277 0.000000 0.598569
Si Si5 0.074242 0.812787 0.525988
Si Si6 0.343566 0.000000 0.701896
Si Si7 0.850867 0.321558 0.336025
O O1 0.593467 0.000000 0.739099
O O2 0.602641 0.167056 0.825263
O O3 0.500000 0.000000 0.807935
O O4 0.330898 0.500000 0.969015
O O5 0.250000 0.750000 0.975348
O O6 0.317359 0.714886 0.890988
O O7 0.377991 0.797050 0.976913
O O8 0.203166 0.345930 0.713405
O O9 0.203712 0.148288 0.791771
O O10 0.409240 0.169848 0.567648
O O11 0.500000 0.000000 0.617454
O O12 0.371926 0.000000 0.644576
O O13 0.000000 0.787693 0.506007
O O14 0.082430 0.000000 0.549766
O O15 0.889213 0.500000 0.338809
#
# Coordination Sequence:
#
# PCOD8185961 Si02
#       7
#     8  16   8   8  16   8  16
#     4  10  23  38  57  89 118 156 204 249 297 353
#     4  11  22  35  59  91 122 163 203 245 299 359
#     4  10  18  38  60  88 120 154 198 238 306 364
#     4  10  21  44  64  83 115 157 204 254 309 362
#     4  10  22  42  64  86 120 163 205 251 305 364
#     4  10  21  38  65  86 116 155 196 255 304 359
#     4  10  21  36  59  84 123 163 194 240 297 361
#
# _framework density 18.879000000000001
#
# number of rings (size 3 to 8) (size 9 to 14) (size 15 to 20)
#    0.000    1.800    3.000    0.900    2.800    1.200 
#    3.600    2.000    0.000    2.400    0.000    0.000 
#    0.000    0.000    0.000    0.000    0.000    0.000 
#
# Total GULP energy -247817.635855 kJ/mol
# GULP energy per Si atom -12390.881793 kJ/mol
# Density = 1.883603 g / cm^3
# Si number density = 18.879000 Si / 1000 Ang^3
#
#
#
# Elastic Constant Matrix: (Units=GPa)
#
#
# Indices 1 2 3 4 5 6 
#
# 1 123.6486 60.7493 57.8293 0.0000 0.0000 -0.0001
# 2 60.7493 154.5023 55.3247 0.0000 0.0000 -0.0001
# 3 57.8293 55.3247 98.4278 0.0000 0.0000 0.0000
# 4 0.0000 0.0000 0.0000 23.8162 0.0000 0.0000
# 5 0.0000 0.0000 0.0000 0.0000 24.2688 0.0000
# 6 -0.0001 -0.0001 0.0000 0.0000 0.0000 30.7811
#
#
#
# Elastic Compliance Matrix: (Units=1/GPa)
#
#
# Indices 1 2 3 4 5 6 
#
# 1 0.012018 -0.002751 -0.005515 0.000000 0.000000 0.000000
# 2 -0.002751 0.008733 -0.003293 0.000000 0.000000 0.000000
# 3 -0.005515 -0.003293 0.015251 0.000000 0.000000 0.000000
# 4 0.000000 0.000000 0.000000 0.041988 0.000000 0.000000
# 5 0.000000 0.000000 0.000000 0.000000 0.041205 0.000000
# 6 0.000000 0.000000 0.000000 0.000000 0.000000 0.032487
#
#
# Mechanical properties :
#
#
# Convention : Reuss Voigt Hill
#
# Bulk Modulus (GPa) = 77.60705 80.48725 79.04715
# Shear Modulus (GPa) = 27.91831 29.28491 28.60161
#
# Velocity S-wave (km/s) = 3.84969 3.94279 3.89652
# Velocity P-wave (km/s) = 7.80750 7.96575 7.88702
#
# Compressibility (1/GPa) = 0.01288543
#
# Stress axis : x y z
#
# Youngs Moduli (GPa) = 83.20776 114.50892 65.57116
#
# Poissons Ratio (x) = 0.31497 0.36162
# Poissons Ratio (y) = 0.22887 0.21590
# Poissons Ratio (z) = 0.45888 0.37703
#
# Static dielectric constant tensor:
#      x y z
#    x 3.372110 0.000000 0.000000 
#    y 0.000000 3.666430 0.000000 
#    z 0.000000 0.000000 3.166190 
# 
# 
# High freq. dielectric constant tensor:
#      x y z
#    x 1.729910 0.000000 0.000000 
#    y 0.000000 1.754480 0.000000 
#    z 0.000000 0.000000 1.710590 
# 
# From -- ./inp_files/27847.got.cif
#   From: 2010.03.12/outbox.cif.g09.slc.cpg/sg42_14_cif.got.tgz:27847.got - 2010.04.14 02:04:31.
