data_PCOD8185261
_publ_section_title
;
Structure prediction by ZEFSAII (Michael W. Deem and Ramdas Pophale) SiO2 
 PCOD8185261
Probable space group: A B A 2
;
_chemical_formula_sum "Si O2"
_cell_formula_units_Z 48
_cell_length_a 17.097852
_cell_length_b 9.795791
_cell_length_c 12.459063
_cell_angle_alpha 90.000000
_cell_angle_beta 90.000000
_cell_angle_gamma 90.000000
_cell_volume 2086.730895
_symmetry_space_group_name_H-M "A B A 2"
_symmetry_group_IT_number 41
_symmetry_cell_setting 'orthorhombic'
loop_
_space_group_symop_operation_xyz
x,y,z
-x,-y,z
1/2-x,y,1/2+z
1/2+x,-y,1/2+z
x,1/2+y,1/2+z
-x,1/2-y,1/2+z
1/2-x,1/2+y,z
1/2+x,1/2-y,z
loop_
_atom_site_type_symbol
_atom_site_label
_atom_site_fract_x
_atom_site_fract_y
_atom_site_fract_z
Si Si1 0.590794 0.358798 0.522700
Si Si2 0.000000 0.000000 0.711133
Si Si3 0.500000 0.500000 0.187838
Si Si4 0.733848 0.990285 0.934562
Si Si5 0.161494 0.900895 0.106161
Si Si6 0.308442 0.754676 0.822579
Si Si7 0.991099 0.746071 0.839437
O O1 0.565287 0.428925 0.635068
O O2 0.641572 0.463771 0.453143
O O3 0.649146 0.234010 0.537077
O O4 0.516218 0.301232 0.458281
O O5 0.967177 0.117010 0.792005
O O6 0.422438 0.474180 0.118793
O O7 0.481644 0.630049 0.259107
O O8 0.766642 0.892616 0.838768
O O9 0.736038 0.148984 0.905601
O O10 0.784441 0.986995 0.045119
O O11 0.202043 0.840453 0.212746
O O12 0.399163 0.729059 0.844832
#
# Coordination Sequence:
#
# PCOD8185261 Si02
#       7
#     8   4   4   8   8   8   8
#     4  12  25  46  71 111 139 184 247 292 366 430
#     4  12  25  47  80 106 144 188 247 307 362 436
#     4  10  21  49  68  98 146 182 233 307 356 426
#     4  12  27  45  73 102 149 194 230 306 362 446
#     4  11  26  44  70 106 140 188 243 290 367 434
#     4  11  26  48  69 106 145 188 243 293 371 433
#     4  11  26  46  75 106 142 191 244 307 355 431
#
# _framework density 23.002486000000001
#
# number of rings (size 3 to 8) (size 9 to 14) (size 15 to 20)
#    0.000    0.667    5.000    3.500    7.000    2.667 
#    0.000    0.000    0.000    0.000    0.000    0.000 
#    0.000    0.000    0.000    0.000    0.000    0.000 
#
# Total GULP energy -297399.544781 kJ/mol
# GULP energy per Si atom -12391.647699 kJ/mol
# Density = 2.295013 g / cm^3
# Si number density = 23.002486 Si / 1000 Ang^3
#
#
#
# Elastic Constant Matrix: (Units=GPa)
#
#
# Indices 1 2 3 4 5 6 
#
# 1 68.2060 28.9985 39.0721 0.0000 0.0000 0.0000
# 2 28.9985 129.8152 27.0926 0.0000 0.0000 0.0000
# 3 39.0721 27.0926 83.6028 0.0000 0.0000 0.0000
# 4 0.0000 0.0000 0.0000 38.1478 0.0000 0.0000
# 5 0.0000 0.0000 0.0000 0.0000 34.4482 0.0000
# 6 0.0000 0.0000 0.0000 0.0000 0.0000 30.7506
#
#
#
# Elastic Compliance Matrix: (Units=1/GPa)
#
#
# Indices 1 2 3 4 5 6 
#
# 1 0.020947 -0.002827 -0.008873 0.000000 0.000000 0.000000
# 2 -0.002827 0.008644 -0.001480 0.000000 0.000000 0.000000
# 3 -0.008873 -0.001480 0.016588 0.000000 0.000000 0.000000
# 4 0.000000 0.000000 0.000000 0.026214 0.000000 0.000000
# 5 0.000000 0.000000 0.000000 0.000000 0.029029 0.000000
# 6 0.000000 0.000000 0.000000 0.000000 0.000000 0.032520
#
#
# Mechanical properties :
#
#
# Convention : Reuss Voigt Hill
#
# Bulk Modulus (GPa) = 50.46045 52.43893 51.44969
# Shear Modulus (GPa) = 29.95678 33.10003 31.52841
#
# Velocity S-wave (km/s) = 3.61269 3.79750 3.70625
# Velocity P-wave (km/s) = 6.27588 6.48649 6.38205
#
# Compressibility (1/GPa) = 0.01981750
#
# Stress axis : x y z
#
# Youngs Moduli (GPa) = 47.74044 115.69198 60.28524
#
# Poissons Ratio (x) = 0.32709 0.53493
# Poissons Ratio (y) = 0.13497 0.08921
# Poissons Ratio (z) = 0.42361 0.17120
#
# Static dielectric constant tensor:
#      x y z
#    x 3.607920 0.000000 0.000000 
#    y 0.000000 4.389310 0.000000 
#    z 0.000000 0.000000 4.216660 
# 
# 
# High freq. dielectric constant tensor:
#      x y z
#    x 1.899100 0.000000 0.000000 
#    y 0.000000 1.927700 0.000000 
#    z 0.000000 0.000000 1.907870 
# 
# From -- ./inp_files/8722.got.cif
#   From: 2010.03.12/outbox.cif.g09.slc.cpg/sg41_5_cif.got.tgz:8722.got - 2010.04.14 01:55:53.
