data_PCOD8185557
_publ_section_title
;
Structure prediction by ZEFSAII (Michael W. Deem and Ramdas Pophale) SiO2 
 PCOD8185557
Probable space group: A B A 2
;
_chemical_formula_sum "Si O2"
_cell_formula_units_Z 48
_cell_length_a 14.329564
_cell_length_b 8.426403
_cell_length_c 17.499199
_cell_angle_alpha 90.000000
_cell_angle_beta 90.000000
_cell_angle_gamma 90.000000
_cell_volume 2112.970201
_symmetry_space_group_name_H-M "A B A 2"
_symmetry_group_IT_number 41
_symmetry_cell_setting 'orthorhombic'
loop_
_space_group_symop_operation_xyz
x,y,z
-x,-y,z
1/2-x,y,1/2+z
1/2+x,-y,1/2+z
x,1/2+y,1/2+z
-x,1/2-y,1/2+z
1/2-x,1/2+y,z
1/2+x,1/2-y,z
loop_
_atom_site_type_symbol
_atom_site_label
_atom_site_fract_x
_atom_site_fract_y
_atom_site_fract_z
Si Si1 0.793047 0.863921 0.654230
Si Si2 0.533317 0.320598 0.992561
Si Si3 0.359490 0.761611 0.409443
Si Si4 0.226674 0.056465 0.986294
Si Si5 0.362246 0.827561 0.235187
Si Si6 0.522884 0.684888 0.154682
O O1 0.769677 0.933631 0.570939
O O2 0.698452 0.806433 0.693296
O O3 0.865869 0.716267 0.654549
O O4 0.839536 0.999179 0.705140
O O5 0.500000 0.500000 0.998582
O O6 0.517099 0.242986 0.075399
O O7 0.469667 0.235912 0.927861
O O8 0.643083 0.314666 0.973404
O O9 0.306638 0.595400 0.423802
O O10 0.343886 0.826814 0.325306
O O11 0.313223 0.881189 0.471622
O O12 0.470648 0.783642 0.221047
O O13 0.500000 0.500000 0.165487
#
# Coordination Sequence:
#
# PCOD8185557 Si02
#       6
#     8   8   8   8   8   8
#     4  12  24  42  70  99 134 182 227 276 329 411
#     4   9  20  39  66  89 124 171 217 263 327 392
#     4  11  24  43  65  98 133 173 217 282 338 392
#     4  11  22  41  68  92 128 177 225 265 328 407
#     4  12  26  42  67 103 140 172 225 282 343 392
#     4  11  23  43  70  99 133 177 227 281 336 401
#
# _framework density 22.716836000000001
#
# number of rings (size 3 to 8) (size 9 to 14) (size 15 to 20)
#    0.000    1.000    3.333    3.500    2.333    5.333 
#    0.000    0.833    0.000    0.000    0.000    0.000 
#    0.000    0.000    0.000    0.000    0.000    0.000 
#
# Total GULP energy -297621.192343 kJ/mol
# GULP energy per Si atom -12400.883014 kJ/mol
# Density = 2.266513 g / cm^3
# Si number density = 22.716836 Si / 1000 Ang^3
#
#
#
# Elastic Constant Matrix: (Units=GPa)
#
#
# Indices 1 2 3 4 5 6 
#
# 1 83.9540 -5.8525 19.7941 0.0000 0.0000 0.0000
# 2 -5.8525 43.1752 13.2336 0.0000 0.0000 0.0000
# 3 19.7941 13.2336 114.6786 0.0000 0.0000 0.0000
# 4 0.0000 0.0000 0.0000 23.3236 0.0000 0.0000
# 5 0.0000 0.0000 0.0000 0.0000 30.3019 0.0000
# 6 0.0000 0.0000 0.0000 0.0000 0.0000 36.2862
#
#
#
# Elastic Compliance Matrix: (Units=1/GPa)
#
#
# Indices 1 2 3 4 5 6 
#
# 1 0.012667 0.002475 -0.002472 0.000000 0.000000 0.000000
# 2 0.002475 0.024494 -0.003254 0.000000 0.000000 0.000000
# 3 -0.002472 -0.003254 0.009522 0.000000 0.000000 0.000000
# 4 0.000000 0.000000 0.000000 0.042875 0.000000 0.000000
# 5 0.000000 0.000000 0.000000 0.000000 0.033001 0.000000
# 6 0.000000 0.000000 0.000000 0.000000 0.000000 0.027559
#
#
# Mechanical properties :
#
#
# Convention : Reuss Voigt Hill
#
# Bulk Modulus (GPa) = 24.88736 32.90647 28.89691
# Shear Modulus (GPa) = 29.40943 32.29117 30.85030
#
# Velocity S-wave (km/s) = 3.60197 3.77432 3.68915
# Velocity P-wave (km/s) = 5.31772 5.78886 5.55829
#
# Compressibility (1/GPa) = 0.04018104
#
# Stress axis : x y z
#
# Youngs Moduli (GPa) = 78.94785 40.82601 105.01829
#
# Poissons Ratio (x) = -0.10103 0.25959
# Poissons Ratio (y) = -0.19537 0.34170
# Poissons Ratio (z) = 0.19515 0.13284
#
# Static dielectric constant tensor:
#      x y z
#    x 4.538280 0.000000 0.000000 
#    y 0.000000 3.760990 0.000000 
#    z 0.000000 0.000000 3.946530 
# 
# 
# High freq. dielectric constant tensor:
#      x y z
#    x 1.914760 0.000000 0.000000 
#    y 0.000000 1.877720 0.000000 
#    z 0.000000 0.000000 1.885110 
# 
# From -- ./inp_files/10288.got.cif
#   From: 2010.03.12/outbox.cif.g09.slc.cpg/sg41_6_cif.got.tgz:10288.got - 2010.04.14 01:55:53.
