data_PCOD8185500
_publ_section_title
;
Structure prediction by ZEFSAII (Michael W. Deem and Ramdas Pophale) SiO2 
 PCOD8185500
Probable space group: A B A 2
;
_chemical_formula_sum "Si O2"
_cell_formula_units_Z 64
_cell_length_a 9.550510
_cell_length_b 21.952246
_cell_length_c 14.071934
_cell_angle_alpha 90.000000
_cell_angle_beta 90.000000
_cell_angle_gamma 90.000000
_cell_volume 2950.253362
_symmetry_space_group_name_H-M "A B A 2"
_symmetry_group_IT_number 41
_symmetry_cell_setting 'orthorhombic'
loop_
_space_group_symop_operation_xyz
x,y,z
-x,-y,z
1/2-x,y,1/2+z
1/2+x,-y,1/2+z
x,1/2+y,1/2+z
-x,1/2-y,1/2+z
1/2-x,1/2+y,z
1/2+x,1/2-y,z
loop_
_atom_site_type_symbol
_atom_site_label
_atom_site_fract_x
_atom_site_fract_y
_atom_site_fract_z
Si Si1 0.330107 0.752317 0.697260
Si Si2 0.072523 0.167917 0.523944
Si Si3 0.687880 0.424046 0.973907
Si Si4 0.734182 0.641544 0.574372
Si Si5 0.662168 0.013308 0.316610
Si Si6 0.909741 0.137160 0.899950
Si Si7 0.918517 0.264495 0.822891
Si Si8 0.649416 0.513824 0.143317
O O1 0.383478 0.708683 0.613594
O O2 0.239417 0.807107 0.654411
O O3 0.229059 0.716938 0.772892
O O4 0.456961 0.784917 0.753063
O O5 0.186191 0.116436 0.509315
O O6 0.061707 0.206765 0.427038
O O7 0.928673 0.132487 0.547820
O O8 0.738955 0.467999 0.889384
O O9 0.558386 0.383142 0.941292
O O10 0.639228 0.467133 0.057644
O O11 0.814207 0.666224 0.481987
O O12 0.818203 0.581134 0.604810
O O13 0.678217 0.083365 0.348752
O O14 0.727525 0.998689 0.215457
O O15 0.500000 0.000000 0.309961
O O16 0.933335 0.191229 0.825836
O O17 0.500000 0.500000 0.194874
#
# Coordination Sequence:
#
# PCOD8185500 Si02
#       8
#     8   8   8   8   8   8   8   8
#     4  12  27  46  72 112 145 188 246 301 367 440
#     4  12  29  45  73 108 146 192 242 305 365 438
#     4  11  25  46  71 102 142 189 237 293 357 429
#     4  12  25  47  73 103 143 190 239 299 362 428
#     4  10  24  44  71 105 141 183 237 294 357 428
#     4  11  22  47  75 100 144 189 235 294 361 432
#     4  12  26  46  74 106 147 193 240 298 374 439
#     4  12  25  46  74 104 138 192 237 295 359 423
#
# _framework density 21.693052000000002
#
# number of rings (size 3 to 8) (size 9 to 14) (size 15 to 20)
#    0.000    0.500    5.000    2.625    5.250    4.000 
#    0.000    0.000    0.000    0.000    0.000    0.000 
#    0.000    0.000    0.000    0.000    0.000    0.000 
#
# Total GULP energy -396798.395415 kJ/mol
# GULP energy per Si atom -12399.949857 kJ/mol
# Density = 2.164368 g / cm^3
# Si number density = 21.693052 Si / 1000 Ang^3
#
#
#
# Elastic Constant Matrix: (Units=GPa)
#
#
# Indices 1 2 3 4 5 6 
#
# 1 105.6763 26.9705 26.4198 0.0000 0.0000 0.0000
# 2 26.9705 76.4304 17.9990 0.0000 0.0000 0.0000
# 3 26.4198 17.9990 101.6709 0.0000 0.0000 0.0000
# 4 0.0000 0.0000 0.0000 38.5778 0.0000 0.0000
# 5 0.0000 0.0000 0.0000 0.0000 45.9493 0.0000
# 6 0.0000 0.0000 0.0000 0.0000 0.0000 54.3877
#
#
#
# Elastic Compliance Matrix: (Units=1/GPa)
#
#
# Indices 1 2 3 4 5 6 
#
# 1 0.010867 -0.003307 -0.002238 0.000000 0.000000 0.000000
# 2 -0.003307 0.014660 -0.001736 0.000000 0.000000 0.000000
# 3 -0.002238 -0.001736 0.010725 0.000000 0.000000 0.000000
# 4 0.000000 0.000000 0.000000 0.025922 0.000000 0.000000
# 5 0.000000 0.000000 0.000000 0.000000 0.021763 0.000000
# 6 0.000000 0.000000 0.000000 0.000000 0.000000 0.018387
#
#
# Mechanical properties :
#
#
# Convention : Reuss Voigt Hill
#
# Bulk Modulus (GPa) = 46.10866 47.39514 46.75190
# Shear Modulus (GPa) = 40.28545 41.94217 41.11381
#
# Velocity S-wave (km/s) = 4.31405 4.40186 4.35817
# Velocity P-wave (km/s) = 6.79086 6.90874 6.85005
#
# Compressibility (1/GPa) = 0.02168790
#
# Stress axis : x y z
#
# Youngs Moduli (GPa) = 92.02551 68.21428 93.24396
#
# Poissons Ratio (x) = 0.22562 0.20870
# Poissons Ratio (y) = 0.30437 0.16185
# Poissons Ratio (z) = 0.20597 0.11840
#
# Static dielectric constant tensor:
#      x y z
#    x 3.948530 0.000000 0.000000 
#    y 0.000000 2.771710 0.000000 
#    z 0.000000 0.000000 4.161990 
# 
# 
# High freq. dielectric constant tensor:
#      x y z
#    x 1.859980 0.000000 0.000000 
#    y 0.000000 1.848080 0.000000 
#    z 0.000000 0.000000 1.870340 
# 
# From -- ./inp_files/7568.got.cif
#   From: 2010.03.12/outbox.cif.g09.slc.cpg/sg41_4_cif.got.tgz:7568.got - 2010.04.14 01:55:53.
