data_PCOD8185540
_publ_section_title
;
Structure prediction by ZEFSAII (Michael W. Deem and Ramdas Pophale) SiO2 
 PCOD8185540
Probable space group: A B A 2
;
_chemical_formula_sum "Si O2"
_cell_formula_units_Z 56
_cell_length_a 12.098047
_cell_length_b 11.096066
_cell_length_c 18.099104
_cell_angle_alpha 90.000000
_cell_angle_beta 90.000000
_cell_angle_gamma 90.000000
_cell_volume 2429.636897
_symmetry_space_group_name_H-M "A B A 2"
_symmetry_group_IT_number 41
_symmetry_cell_setting 'orthorhombic'
loop_
_space_group_symop_operation_xyz
x,y,z
-x,-y,z
1/2-x,y,1/2+z
1/2+x,-y,1/2+z
x,1/2+y,1/2+z
-x,1/2-y,1/2+z
1/2-x,1/2+y,z
1/2+x,1/2-y,z
loop_
_atom_site_type_symbol
_atom_site_label
_atom_site_fract_x
_atom_site_fract_y
_atom_site_fract_z
Si Si1 0.855657 0.897967 0.954070
Si Si2 0.665188 0.046384 0.662373
Si Si3 0.413417 0.898772 0.816008
Si Si4 0.770433 0.656884 0.427285
Si Si5 0.968343 0.335501 0.599342
Si Si6 0.911421 0.087212 0.666084
Si Si7 0.023315 0.343141 0.326772
O O1 0.765369 0.787596 0.963233
O O2 0.922247 0.907082 0.874439
O O3 0.802455 0.031449 0.971976
O O4 0.950269 0.869303 0.013958
O O5 0.666646 0.070142 0.749191
O O6 0.599290 0.149983 0.616534
O O7 0.792440 0.038394 0.641101
O O8 0.603268 0.921477 0.651458
O O9 0.340242 0.881989 0.887264
O O10 0.476992 0.778833 0.792643
O O11 0.500000 0.000000 0.836130
O O12 0.873431 0.691336 0.377073
O O13 0.924654 0.207355 0.620601
O O14 0.932682 0.085983 0.754755
O O15 0.000000 0.000000 0.629122
#
# Coordination Sequence:
#
# PCOD8185540 Si02
#       7
#     8   8   8   8   8   8   8
#     4  11  27  45  73 105 148 193 243 290 374 440
#     4  11  24  44  72  99 145 189 239 300 371 434
#     4  11  20  41  67 104 140 180 237 299 361 425
#     4  11  24  44  71 105 142 192 237 306 354 436
#     4  11  27  47  70 104 148 199 239 297 380 452
#     4  12  26  45  73 110 140 189 252 312 362 439
#     4  11  23  42  70 106 144 183 246 301 359 433
#
# _framework density 23.048712999999999
#
# number of rings (size 3 to 8) (size 9 to 14) (size 15 to 20)
#    0.000    0.857    4.286    2.143    8.000    0.000 
#    0.000    2.857    0.000    0.000    0.000    0.000 
#    0.000    0.000    0.000    0.000    0.000    0.000 
#
# Total GULP energy -346873.944749 kJ/mol
# GULP energy per Si atom -12388.355170 kJ/mol
# Density = 2.299625 g / cm^3
# Si number density = 23.048713 Si / 1000 Ang^3
#
#
#
# Elastic Constant Matrix: (Units=GPa)
#
#
# Indices 1 2 3 4 5 6 
#
# 1 148.9434 39.7186 7.9905 0.0000 0.0000 0.0000
# 2 39.7186 98.1125 12.7245 0.0000 0.0000 0.0000
# 3 7.9905 12.7245 65.1453 0.0000 0.0000 0.0000
# 4 0.0000 0.0000 0.0000 24.1264 0.0000 0.0000
# 5 0.0000 0.0000 0.0000 0.0000 -14.8163 0.0000
# 6 0.0000 0.0000 0.0000 0.0000 0.0000 25.1377
#
#
#
# Elastic Compliance Matrix: (Units=1/GPa)
#
#
# Indices 1 2 3 4 5 6 
#
# 1 0.007534 -0.003006 -0.000337 0.000000 0.000000 0.000000
# 2 -0.003006 0.011657 -0.001908 0.000000 0.000000 0.000000
# 3 -0.000337 -0.001908 0.015764 0.000000 0.000000 0.000000
# 4 0.000000 0.000000 0.000000 0.041448 0.000000 0.000000
# 5 0.000000 0.000000 0.000000 0.000000 -0.067493 0.000000
# 6 0.000000 0.000000 0.000000 0.000000 0.000000 0.039781
#
#
# Mechanical properties :
#
#
# Convention : Reuss Voigt Hill
#
# Bulk Modulus (GPa) = 40.89562 48.11871 44.50716
# Shear Modulus (GPa) = 74.24571 23.67408 48.95990
#
# Velocity S-wave (km/s) = 5.68176 3.20837 4.61390
# Velocity P-wave (km/s) = 7.79903 5.88618 6.90913
#
# Compressibility (1/GPa) = 0.02445250
#
# Stress axis : x y z
#
# Youngs Moduli (GPa) = 132.73730 85.78667 63.43438
#
# Poissons Ratio (x) = 0.25789 0.02137
# Poissons Ratio (y) = 0.39903 0.12104
# Poissons Ratio (z) = 0.04472 0.16369
#
# Static dielectric constant tensor:
#      x y z
#    x 4.426960 0.000000 0.000000 
#    y 0.000000 4.468760 0.000000 
#    z 0.000000 0.000000 4.002360 
# 
# 
# High freq. dielectric constant tensor:
#      x y z
#    x 1.921000 0.000000 0.000000 
#    y 0.000000 1.923100 0.000000 
#    z 0.000000 0.000000 1.896480 
# 
# From -- ./inp_files/11394.got.cif
#   From: 2010.03.12/outbox.cif.g09.slc.cpg/sg41_6_cif.got.tgz:11394.got - 2010.04.14 01:55:53.
