data_PCOD8185031
_publ_section_title
;
Structure prediction by ZEFSAII (Michael W. Deem and Ramdas Pophale) SiO2 
 PCOD8185031
Probable space group: A B A 2
;
_chemical_formula_sum "Si O2"
_cell_formula_units_Z 36
_cell_length_a 19.405463
_cell_length_b 12.644300
_cell_length_c 5.161573
_cell_angle_alpha 90.000000
_cell_angle_beta 90.000000
_cell_angle_gamma 90.000000
_cell_volume 1266.487403
_symmetry_space_group_name_H-M "A B A 2"
_symmetry_group_IT_number 41
_symmetry_cell_setting 'orthorhombic'
loop_
_space_group_symop_operation_xyz
x,y,z
-x,-y,z
1/2-x,y,1/2+z
1/2+x,-y,1/2+z
x,1/2+y,1/2+z
-x,1/2-y,1/2+z
1/2-x,1/2+y,z
1/2+x,1/2-y,z
loop_
_atom_site_type_symbol
_atom_site_label
_atom_site_fract_x
_atom_site_fract_y
_atom_site_fract_z
Si Si1 0.597936 0.349885 0.020040
Si Si2 0.309280 0.465295 0.165725
Si Si3 0.871275 0.122033 0.655844
Si Si4 0.000000 0.000000 0.793843
Si Si5 0.715304 0.348142 0.654568
O O1 0.641794 0.431397 0.196133
O O2 0.593526 0.237946 0.161832
O O3 0.522603 0.400071 0.973450
O O4 0.636119 0.338319 0.738082
O O5 0.319995 0.386956 0.409040
O O6 0.232917 0.522810 0.137392
O O7 0.328264 0.393551 0.919314
O O8 0.934360 0.038346 0.627965
O O9 0.736432 0.294829 0.382069
#
# Coordination Sequence:
#
# PCOD8185031 Si02
#       5
#     8   8   8   4   8
#     4  10  24  45  69 100 136 180 228 281 341 405
#     4  10  23  45  67  98 135 172 223 285 336 406
#     4  11  25  44  72 100 134 184 229 275 345 407
#     4  10  24  44  66  96 136 176 230 288 330 400
#     4  10  20  41  67  95 137 172 213 279 339 399
#
# _framework density 28.425072
#
# number of rings (size 3 to 8) (size 9 to 14) (size 15 to 20)
#    0.000    1.778    0.000    4.000    0.000   16.000 
#    0.000   35.556    0.000    0.000    0.000    0.000 
#    0.000    0.000    0.000    0.000    0.000    0.000 
#
# Total GULP energy -223033.038870 kJ/mol
# GULP energy per Si atom -12390.724382 kJ/mol
# Density = 2.836038 g / cm^3
# Si number density = 28.425072 Si / 1000 Ang^3
#
#
#
# Elastic Constant Matrix: (Units=GPa)
#
#
# Indices 1 2 3 4 5 6 
#
# 1 93.7000 11.4078 -2.6338 0.0000 0.0000 0.0000
# 2 11.4078 155.4851 18.5608 0.0000 0.0000 0.0000
# 3 -2.6338 18.5608 138.3411 0.0000 0.0000 0.0000
# 4 0.0000 0.0000 0.0000 16.2263 0.0000 0.0000
# 5 0.0000 0.0000 0.0000 0.0000 34.1879 0.0000
# 6 0.0000 0.0000 0.0000 0.0000 0.0000 44.0336
#
#
#
# Elastic Compliance Matrix: (Units=1/GPa)
#
#
# Indices 1 2 3 4 5 6 
#
# 1 0.010782 -0.000829 0.000316 0.000000 0.000000 0.000000
# 2 -0.000829 0.006600 -0.000901 0.000000 0.000000 0.000000
# 3 0.000316 -0.000901 0.007355 0.000000 0.000000 0.000000
# 4 0.000000 0.000000 0.000000 0.061628 0.000000 0.000000
# 5 0.000000 0.000000 0.000000 0.000000 0.029250 0.000000
# 6 0.000000 0.000000 0.000000 0.000000 0.000000 0.022710
#
#
# Mechanical properties :
#
#
# Convention : Reuss Voigt Hill
#
# Bulk Modulus (GPa) = 45.64080 49.13287 47.38683
# Shear Modulus (GPa) = 33.67991 42.90233 38.29112
#
# Velocity S-wave (km/s) = 3.44592 3.88920 3.67425
# Velocity P-wave (km/s) = 5.65012 6.12294 5.89128
#
# Compressibility (1/GPa) = 0.02191022
#
# Stress axis : x y z
#
# Youngs Moduli (GPa) = 92.74577 151.51782 135.95346
#
# Poissons Ratio (x) = 0.12559 -0.04303
# Poissons Ratio (y) = 0.07687 0.12253
# Poissons Ratio (z) = -0.02935 0.13656
#
# Static dielectric constant tensor:
#      x y z
#    x 5.196240 0.000000 0.000000 
#    y 0.000000 5.294200 0.000000 
#    z 0.000000 0.000000 5.693710 
# 
# 
# High freq. dielectric constant tensor:
#      x y z
#    x 2.131690 0.000000 0.000000 
#    y 0.000000 2.163770 0.000000 
#    z 0.000000 0.000000 2.153110 
# 
# From -- ./inp_files/636.got.cif
#   From: 2010.03.12/outbox.cif.g09.slc.cpg/sg41_1_cif.got.tgz:636.got - 2010.04.14 01:55:53.
