data_PCOD8185452
_publ_section_title
;
Structure prediction by ZEFSAII (Michael W. Deem and Ramdas Pophale) SiO2 
 PCOD8185452
Probable space group: A B A 2
;
_chemical_formula_sum "Si O2"
_cell_formula_units_Z 48
_cell_length_a 11.406829
_cell_length_b 16.692759
_cell_length_c 11.764207
_cell_angle_alpha 90.000000
_cell_angle_beta 90.000000
_cell_angle_gamma 90.000000
_cell_volume 2240.039683
_symmetry_space_group_name_H-M "A B A 2"
_symmetry_group_IT_number 41
_symmetry_cell_setting 'orthorhombic'
loop_
_space_group_symop_operation_xyz
x,y,z
-x,-y,z
1/2-x,y,1/2+z
1/2+x,-y,1/2+z
x,1/2+y,1/2+z
-x,1/2-y,1/2+z
1/2-x,1/2+y,z
1/2+x,1/2-y,z
loop_
_atom_site_type_symbol
_atom_site_label
_atom_site_fract_x
_atom_site_fract_y
_atom_site_fract_z
Si Si1 0.494383 0.594514 0.189760
Si Si2 0.592722 0.834856 0.458288
Si Si3 0.946658 0.153799 0.514869
Si Si4 0.834914 0.894338 0.384930
Si Si5 0.705456 0.577392 0.341799
Si Si6 0.539926 0.590282 0.757931
O O1 0.500000 0.500000 0.205833
O O2 0.390868 0.637094 0.264880
O O3 0.622447 0.617025 0.242548
O O4 0.467756 0.614375 0.059272
O O5 0.548519 0.745516 0.476315
O O6 0.734064 0.841256 0.446036
O O7 0.555491 0.870036 0.337996
O O8 0.829952 0.114260 0.463281
O O9 0.946868 0.146458 0.649139
O O10 0.058872 0.104017 0.473360
O O11 0.792453 0.982550 0.356343
O O12 0.838032 0.599594 0.321017
O O13 0.500000 0.500000 0.726935
#
# Coordination Sequence:
#
# PCOD8185452 Si02
#       6
#     8   8   8   8   8   8
#     4   9  22  42  68  99 133 184 229 284 350 405
#     4  12  27  41  71 107 139 182 231 294 352 423
#     4  11  28  43  70 103 146 183 224 297 364 402
#     4  10  23  47  69  97 139 183 233 283 354 416
#     4  10  23  46  73  96 138 185 236 287 341 425
#     4  12  26  46  73 107 136 186 248 283 342 427
#
# _framework density 21.428191999999999
#
# number of rings (size 3 to 8) (size 9 to 14) (size 15 to 20)
#    0.000    1.333    1.667    3.000   11.667    1.333 
#    0.000    0.000    0.000    0.000    0.000    0.000 
#    0.000    0.000    0.000    0.000    0.000    0.000 
#
# Total GULP energy -297423.909950 kJ/mol
# GULP energy per Si atom -12392.662915 kJ/mol
# Density = 2.137942 g / cm^3
# Si number density = 21.428192 Si / 1000 Ang^3
#
#
#
# Elastic Constant Matrix: (Units=GPa)
#
#
# Indices 1 2 3 4 5 6 
#
# 1 87.3330 10.5203 25.8360 0.0000 0.0000 0.0000
# 2 10.5203 37.9956 16.7127 0.0000 0.0000 0.0000
# 3 25.8360 16.7127 115.5545 0.0000 0.0000 0.0000
# 4 0.0000 0.0000 0.0000 15.8903 0.0000 0.0000
# 5 0.0000 0.0000 0.0000 0.0000 23.2350 0.0000
# 6 0.0000 0.0000 0.0000 0.0000 0.0000 22.1867
#
#
#
# Elastic Compliance Matrix: (Units=1/GPa)
#
#
# Indices 1 2 3 4 5 6 
#
# 1 0.012459 -0.002376 -0.002442 0.000000 0.000000 0.000000
# 2 -0.002376 0.028560 -0.003599 0.000000 0.000000 0.000000
# 3 -0.002442 -0.003599 0.009721 0.000000 0.000000 0.000000
# 4 0.000000 0.000000 0.000000 0.062931 0.000000 0.000000
# 5 0.000000 0.000000 0.000000 0.000000 0.043038 0.000000
# 6 0.000000 0.000000 0.000000 0.000000 0.000000 0.045072
#
#
# Mechanical properties :
#
#
# Convention : Reuss Voigt Hill
#
# Bulk Modulus (GPa) = 29.49394 38.55790 34.02592
# Shear Modulus (GPa) = 21.74695 24.78334 23.26514
#
# Velocity S-wave (km/s) = 3.18917 3.40454 3.29861
# Velocity P-wave (km/s) = 5.23020 5.78684 5.51555
#
# Compressibility (1/GPa) = 0.03390527
#
# Stress axis : x y z
#
# Youngs Moduli (GPa) = 80.26313 35.01421 102.87509
#
# Poissons Ratio (x) = 0.08318 0.25123
# Poissons Ratio (y) = 0.19067 0.37030
# Poissons Ratio (z) = 0.19601 0.12603
#
# Static dielectric constant tensor:
#      x y z
#    x 4.027230 0.000000 0.000000 
#    y 0.000000 3.677140 0.000000 
#    z 0.000000 0.000000 4.215740 
# 
# 
# High freq. dielectric constant tensor:
#      x y z
#    x 1.851400 0.000000 0.000000 
#    y 0.000000 1.828630 0.000000 
#    z 0.000000 0.000000 1.846360 
# 
# From -- ./inp_files/4985.got.cif
#   From: 2010.03.12/outbox.cif.g09.slc.cpg/sg41_3_cif.got.tgz:4985.got - 2010.04.14 01:55:53.
