data_PCOD8185509
_publ_section_title
;
Structure prediction by ZEFSAII (Michael W. Deem and Ramdas Pophale) SiO2 
 PCOD8185509
Probable space group: A B A 2
;
_chemical_formula_sum "Si O2"
_cell_formula_units_Z 48
_cell_length_a 17.352072
_cell_length_b 12.813603
_cell_length_c 9.706950
_cell_angle_alpha 90.000000
_cell_angle_beta 90.000000
_cell_angle_gamma 90.000000
_cell_volume 2158.268131
_symmetry_space_group_name_H-M "A B A 2"
_symmetry_group_IT_number 41
_symmetry_cell_setting 'orthorhombic'
loop_
_space_group_symop_operation_xyz
x,y,z
-x,-y,z
1/2-x,y,1/2+z
1/2+x,-y,1/2+z
x,1/2+y,1/2+z
-x,1/2-y,1/2+z
1/2-x,1/2+y,z
1/2+x,1/2-y,z
loop_
_atom_site_type_symbol
_atom_site_label
_atom_site_fract_x
_atom_site_fract_y
_atom_site_fract_z
Si Si1 0.000000 0.000000 0.026721
Si Si2 0.500000 0.000000 0.070013
Si Si3 0.660909 0.463487 0.448504
Si Si4 0.761313 0.289972 0.098005
Si Si5 0.743256 0.654513 0.847948
Si Si6 0.108910 0.148366 0.198426
Si Si7 0.425070 0.364129 0.793928
O O1 0.057337 0.062097 0.125627
O O2 0.957304 0.087392 0.935455
O O3 0.527202 0.094409 0.165067
O O4 0.430355 0.031213 0.971433
O O5 0.699925 0.404589 0.579256
O O6 0.699767 0.574822 0.422432
O O7 0.669634 0.403539 0.304212
O O8 0.787547 0.227402 0.235989
O O9 0.667930 0.299660 0.088693
O O10 0.791684 0.225663 0.968141
O O11 0.665828 0.603994 0.780226
O O12 0.062080 0.238794 0.280688
#
# Coordination Sequence:
#
# PCOD8185509 Si02
#       7
#     4   4   8   8   8   8   8
#     4  11  25  44  72  96 149 191 224 306 364 430
#     4  11  27  46  68 104 147 185 232 302 362 438
#     4  12  25  44  71 103 140 185 242 290 367 427
#     4  11  24  45  68 104 137 188 237 305 351 435
#     4  11  25  44  75 101 141 183 242 298 357 432
#     4  11  25  43  68 105 136 183 245 285 364 432
#     4  10  24  47  68 103 141 188 235 295 368 430
#
# _framework density 22.240055999999999
#
# number of rings (size 3 to 8) (size 9 to 14) (size 15 to 20)
#    0.000    1.000    3.333    3.500    9.333    2.667 
#    6.000    0.000    0.000    0.000    0.000    0.000 
#    0.000    0.000    0.000    0.000    0.000    0.000 
#
# Total GULP energy -297491.008662 kJ/mol
# GULP energy per Si atom -12395.458694 kJ/mol
# Density = 2.218944 g / cm^3
# Si number density = 22.240056 Si / 1000 Ang^3
#
#
#
# Elastic Constant Matrix: (Units=GPa)
#
#
# Indices 1 2 3 4 5 6 
#
# 1 110.7437 46.1008 29.1946 0.0000 0.0000 0.0000
# 2 46.1008 128.4461 50.1712 0.0000 0.0000 0.0000
# 3 29.1946 50.1712 98.7793 0.0000 0.0000 0.0000
# 4 0.0000 0.0000 0.0000 39.0293 0.0000 0.0000
# 5 0.0000 0.0000 0.0000 0.0000 27.1286 0.0000
# 6 0.0000 0.0000 0.0000 0.0000 0.0000 32.3704
#
#
#
# Elastic Compliance Matrix: (Units=1/GPa)
#
#
# Indices 1 2 3 4 5 6 
#
# 1 0.010797 -0.003279 -0.001526 0.000000 0.000000 0.000000
# 2 -0.003279 0.010708 -0.004470 0.000000 0.000000 0.000000
# 3 -0.001526 -0.004470 0.012845 0.000000 0.000000 0.000000
# 4 0.000000 0.000000 0.000000 0.025622 0.000000 0.000000
# 5 0.000000 0.000000 0.000000 0.000000 0.036861 0.000000
# 6 0.000000 0.000000 0.000000 0.000000 0.000000 0.030892
#
#
# Mechanical properties :
#
#
# Convention : Reuss Voigt Hill
#
# Bulk Modulus (GPa) = 63.28701 65.43359 64.36030
# Shear Modulus (GPa) = 32.99427 33.87251 33.43339
#
# Velocity S-wave (km/s) = 3.85587 3.90685 3.88144
# Velocity P-wave (km/s) = 6.95282 7.05951 7.00637
#
# Compressibility (1/GPa) = 0.01580103
#
# Stress axis : x y z
#
# Youngs Moduli (GPa) = 92.61688 93.38643 77.85361
#
# Poissons Ratio (x) = 0.30625 0.11877
# Poissons Ratio (y) = 0.30372 0.34797
# Poissons Ratio (z) = 0.14129 0.41740
#
# Static dielectric constant tensor:
#      x y z
#    x 3.855910 0.000000 0.000000 
#    y 0.000000 4.182570 0.000000 
#    z 0.000000 0.000000 4.111740 
# 
# 
# High freq. dielectric constant tensor:
#      x y z
#    x 1.863160 0.000000 0.000000 
#    y 0.000000 1.886800 0.000000 
#    z 0.000000 0.000000 1.885350 
# 
# From -- ./inp_files/3055.got.cif
#   From: 2010.03.12/outbox.cif.g09.slc.cpg/sg41_2_cif.got.tgz:3055.got - 2010.04.14 01:55:53.
