data_PCOD8185299
_publ_section_title
;
Structure prediction by ZEFSAII (Michael W. Deem and Ramdas Pophale) SiO2 
 PCOD8185299
Probable space group: A B A 2
;
_chemical_formula_sum "Si O2"
_cell_formula_units_Z 60
_cell_length_a 10.896965
_cell_length_b 8.581775
_cell_length_c 28.901558
_cell_angle_alpha 90.000000
_cell_angle_beta 90.000000
_cell_angle_gamma 90.000000
_cell_volume 2702.737919
_symmetry_space_group_name_H-M "A B A 2"
_symmetry_group_IT_number 41
_symmetry_cell_setting 'orthorhombic'
loop_
_space_group_symop_operation_xyz
x,y,z
-x,-y,z
1/2-x,y,1/2+z
1/2+x,-y,1/2+z
x,1/2+y,1/2+z
-x,1/2-y,1/2+z
1/2-x,1/2+y,z
1/2+x,1/2-y,z
loop_
_atom_site_type_symbol
_atom_site_label
_atom_site_fract_x
_atom_site_fract_y
_atom_site_fract_z
Si Si1 0.859949 0.498890 0.024190
Si Si2 0.376433 0.594289 0.161656
Si Si3 0.887270 0.893576 0.268191
Si Si4 0.500000 0.000000 0.439855
Si Si5 0.665833 0.836376 0.381079
Si Si6 0.861448 0.566636 0.125481
Si Si7 0.290661 0.789649 0.467409
Si Si8 0.277588 0.886717 0.318136
O O1 0.803728 0.532046 0.074826
O O2 0.000000 0.500000 0.035073
O O3 0.824091 0.329690 0.007005
O O4 0.833529 0.628874 0.985197
O O5 0.500000 0.500000 0.146864
O O6 0.394069 0.648996 0.214706
O O7 0.247054 0.500363 0.158773
O O8 0.369417 0.747950 0.130802
O O9 0.880437 0.732754 0.298159
O O10 0.767160 0.999811 0.277464
O O11 0.000000 0.000000 0.284985
O O12 0.459626 0.152439 0.409839
O O13 0.612336 0.066483 0.469495
O O14 0.774927 0.790177 0.417099
O O15 0.664066 0.715746 0.338689
O O16 0.678003 0.012582 0.361790
O O17 0.000000 0.500000 0.135580
#
# Coordination Sequence:
#
# PCOD8185299 Si02
#       8
#     8   8   8   4   8   8   8   8
#     4  11  25  43  66  95 134 168 221 276 333 392
#     4  11  23  44  71 101 139 177 222 278 351 417
#     4  10  23  41  64  95 131 172 214 275 335 396
#     4  12  24  38  68  92 128 176 220 268 336 386
#     4  11  22  39  61  93 130 173 218 268 321 386
#     4  11  24  44  70 101 135 176 226 281 343 414
#     4  12  23  44  64  97 130 174 220 270 335 397
#     4  10  22  40  61  93 129 168 222 266 321 388
#
# _framework density 22.199712000000002
#
# number of rings (size 3 to 8) (size 9 to 14) (size 15 to 20)
#    0.000    1.067    2.667    3.200    1.867    2.133 
#    1.200    1.333    0.000    0.000    0.000    0.000 
#    0.000    0.000    0.000    0.000    0.000    0.000 
#
# Total GULP energy -371710.391115 kJ/mol
# GULP energy per Si atom -12390.346371 kJ/mol
# Density = 2.214918 g / cm^3
# Si number density = 22.199712 Si / 1000 Ang^3
#
#
#
# Elastic Constant Matrix: (Units=GPa)
#
#
# Indices 1 2 3 4 5 6 
#
# 1 83.1455 23.0059 14.9970 0.0000 0.0000 0.0000
# 2 23.0059 105.9098 36.9095 0.0000 0.0000 0.0000
# 3 14.9970 36.9095 92.6254 0.0000 0.0000 0.0000
# 4 0.0000 0.0000 0.0000 31.6633 0.0000 0.0000
# 5 0.0000 0.0000 0.0000 0.0000 30.8261 0.0000
# 6 0.0000 0.0000 0.0000 0.0000 0.0000 36.3338
#
#
#
# Elastic Compliance Matrix: (Units=1/GPa)
#
#
# Indices 1 2 3 4 5 6 
#
# 1 0.012897 -0.002408 -0.001129 0.000000 0.000000 0.000000
# 2 -0.002408 0.011414 -0.004158 0.000000 0.000000 0.000000
# 3 -0.001129 -0.004158 0.012636 0.000000 0.000000 0.000000
# 4 0.000000 0.000000 0.000000 0.031582 0.000000 0.000000
# 5 0.000000 0.000000 0.000000 0.000000 0.032440 0.000000
# 6 0.000000 0.000000 0.000000 0.000000 0.000000 0.027523
#
#
# Mechanical properties :
#
#
# Convention : Reuss Voigt Hill
#
# Bulk Modulus (GPa) = 46.38898 47.94507 47.16703
# Shear Modulus (GPa) = 33.09761 33.54920 33.32341
#
# Velocity S-wave (km/s) = 3.86541 3.89169 3.87857
# Velocity P-wave (km/s) = 6.39245 6.46821 6.43044
#
# Compressibility (1/GPa) = 0.02155685
#
# Stress axis : x y z
#
# Youngs Moduli (GPa) = 77.53743 87.60899 79.13909
#
# Poissons Ratio (x) = 0.21098 0.08931
# Poissons Ratio (y) = 0.18673 0.32910
# Poissons Ratio (z) = 0.08750 0.36432
#
# Static dielectric constant tensor:
#      x y z
#    x 3.933650 0.000000 0.000000 
#    y 0.000000 4.023100 0.000000 
#    z 0.000000 0.000000 3.875610 
# 
# 
# High freq. dielectric constant tensor:
#      x y z
#    x 1.862960 0.000000 0.000000 
#    y 0.000000 1.887330 0.000000 
#    z 0.000000 0.000000 1.875790 
# 
# From -- ./inp_files/12514.got.cif
#   From: 2010.03.12/outbox.cif.g09.slc.cpg/sg41_7_cif.got.tgz:12514.got - 2010.04.14 01:55:53.
