data_PCOD8185195
_publ_section_title
;
Structure prediction by ZEFSAII (Michael W. Deem and Ramdas Pophale) SiO2 
 PCOD8185195
Probable space group: A B A 2
;
_chemical_formula_sum "Si O2"
_cell_formula_units_Z 52
_cell_length_a 14.238831
_cell_length_b 17.982887
_cell_length_c 9.172615
_cell_angle_alpha 90.000000
_cell_angle_beta 90.000000
_cell_angle_gamma 90.000000
_cell_volume 2348.696584
_symmetry_space_group_name_H-M "A B A 2"
_symmetry_group_IT_number 41
_symmetry_cell_setting 'orthorhombic'
loop_
_space_group_symop_operation_xyz
x,y,z
-x,-y,z
1/2-x,y,1/2+z
1/2+x,-y,1/2+z
x,1/2+y,1/2+z
-x,1/2-y,1/2+z
1/2-x,1/2+y,z
1/2+x,1/2-y,z
loop_
_atom_site_type_symbol
_atom_site_label
_atom_site_fract_x
_atom_site_fract_y
_atom_site_fract_z
Si Si1 0.500000 0.000000 0.793051
Si Si2 0.825650 0.930738 0.404734
Si Si3 0.770523 0.094818 0.444828
Si Si4 0.109986 0.286721 0.095355
Si Si5 0.872709 0.620859 0.666434
Si Si6 0.943984 0.765772 0.790643
Si Si7 0.763388 0.836663 0.667860
O O1 0.562269 0.945634 0.894857
O O2 0.431531 0.953779 0.689582
O O3 0.804046 0.864063 0.514249
O O4 0.790722 0.904258 0.245830
O O5 0.775529 0.005952 0.457832
O O6 0.852316 0.133695 0.540333
O O7 0.783431 0.121024 0.278063
O O8 0.668801 0.121042 0.502956
O O9 0.196443 0.234137 0.143241
O O10 0.040573 0.302373 0.232078
O O11 0.050385 0.249510 0.963032
O O12 0.937525 0.691222 0.693439
O O13 0.852296 0.815780 0.766805
#
# Coordination Sequence:
#
# PCOD8185195 Si02
#       7
#     4   8   8   8   8   8   8
#     4  10  22  40  68  92 128 176 230 274 358 404
#     4  11  24  41  67  94 136 179 225 285 345 422
#     4  10  22  41  66  89 128 174 224 266 346 405
#     4  11  25  44  67 103 135 179 230 287 347 417
#     4  10  21  41  65  94 126 175 219 281 337 414
#     4  11  25  40  69  99 135 176 229 286 349 413
#     4  12  24  44  66  99 141 178 229 286 351 412
#
# _framework density 22.139938999999998
#
# number of rings (size 3 to 8) (size 9 to 14) (size 15 to 20)
#    0.000    1.231    3.077    2.769    8.615    1.231 
#    0.000    0.000    0.000    0.923    0.000    0.000 
#    0.000    0.000    0.000    0.000    0.000    0.000 
#
# Total GULP energy -322414.168152 kJ/mol
# GULP energy per Si atom -12400.544929 kJ/mol
# Density = 2.208955 g / cm^3
# Si number density = 22.139939 Si / 1000 Ang^3
#
#
#
# Elastic Constant Matrix: (Units=GPa)
#
#
# Indices 1 2 3 4 5 6 
#
# 1 91.9501 12.5764 31.1101 0.0000 0.0000 0.0000
# 2 12.5764 81.7705 12.9451 0.0000 0.0000 0.0000
# 3 31.1101 12.9451 66.2247 0.0000 0.0000 0.0000
# 4 0.0000 0.0000 0.0000 33.4317 0.0000 0.0000
# 5 0.0000 0.0000 0.0000 0.0000 40.4980 0.0000
# 6 0.0000 0.0000 0.0000 0.0000 0.0000 37.6874
#
#
#
# Elastic Compliance Matrix: (Units=1/GPa)
#
#
# Indices 1 2 3 4 5 6 
#
# 1 0.013020 -0.001067 -0.005908 0.000000 0.000000 0.000000
# 2 -0.001067 0.012707 -0.001983 0.000000 0.000000 0.000000
# 3 -0.005908 -0.001983 0.018263 0.000000 0.000000 0.000000
# 4 0.000000 0.000000 0.000000 0.029912 0.000000 0.000000
# 5 0.000000 0.000000 0.000000 0.000000 0.024693 0.000000
# 6 0.000000 0.000000 0.000000 0.000000 0.000000 0.026534
#
#
# Mechanical properties :
#
#
# Convention : Reuss Voigt Hill
#
# Bulk Modulus (GPa) = 38.35061 39.24538 38.79800
# Shear Modulus (GPa) = 32.95192 34.54431 33.74811
#
# Velocity S-wave (km/s) = 3.86210 3.95431 3.90848
# Velocity P-wave (km/s) = 6.10305 6.21396 6.15876
#
# Compressibility (1/GPa) = 0.02607520
#
# Stress axis : x y z
#
# Youngs Moduli (GPa) = 76.80318 78.69455 54.75558
#
# Poissons Ratio (x) = 0.08399 0.32349
# Poissons Ratio (y) = 0.08197 0.10856
# Poissons Ratio (z) = 0.45374 0.15602
#
# Static dielectric constant tensor:
#      x y z
#    x 3.907510 0.000000 0.000000 
#    y 0.000000 3.927600 0.000000 
#    z 0.000000 0.000000 3.938200 
# 
# 
# High freq. dielectric constant tensor:
#      x y z
#    x 1.869690 0.000000 0.000000 
#    y 0.000000 1.872810 0.000000 
#    z 0.000000 0.000000 1.866240 
# 
# From -- ./inp_files/2624.got.cif
#   From: 2010.03.12/outbox.cif.g09.slc.cpg/sg41_2_cif.got.tgz:2624.got - 2010.04.14 01:55:53.
