data_PCOD8185055
_publ_section_title
;
Structure prediction by ZEFSAII (Michael W. Deem and Ramdas Pophale) SiO2 
 PCOD8185055
Probable space group: A B A 2
;
_chemical_formula_sum "Si O2"
_cell_formula_units_Z 60
_cell_length_a 18.488274
_cell_length_b 14.154559
_cell_length_c 10.899699
_cell_angle_alpha 90.000000
_cell_angle_beta 90.000000
_cell_angle_gamma 90.000000
_cell_volume 2852.378910
_symmetry_space_group_name_H-M "A B A 2"
_symmetry_group_IT_number 41
_symmetry_cell_setting 'orthorhombic'
loop_
_space_group_symop_operation_xyz
x,y,z
-x,-y,z
1/2-x,y,1/2+z
1/2+x,-y,1/2+z
x,1/2+y,1/2+z
-x,1/2-y,1/2+z
1/2-x,1/2+y,z
1/2+x,1/2-y,z
loop_
_atom_site_type_symbol
_atom_site_label
_atom_site_fract_x
_atom_site_fract_y
_atom_site_fract_z
Si Si1 0.727370 0.250987 0.303660
Si Si2 0.204684 0.934608 0.653446
Si Si3 0.892795 0.767672 0.478170
Si Si4 0.652793 0.166496 0.935107
Si Si5 0.542056 0.314226 0.924681
Si Si6 0.142925 0.627164 0.206988
Si Si7 0.500000 0.000000 0.570234
Si Si8 0.635054 0.096406 0.661188
O O1 0.698349 0.164653 0.222368
O O2 0.657421 0.299209 0.363585
O O3 0.768863 0.214383 0.424735
O O4 0.780854 0.317839 0.226034
O O5 0.163375 0.923673 0.522957
O O6 0.289818 0.960628 0.641012
O O7 0.162190 0.016857 0.725477
O O8 0.889614 0.855808 0.571453
O O9 0.868997 0.675745 0.556058
O O10 0.969610 0.748020 0.413798
O O11 0.597880 0.243660 0.993773
O O12 0.629185 0.140811 0.796427
O O13 0.578509 0.341165 0.795730
O O14 0.526051 0.411538 0.991490
O O15 0.431735 0.974844 0.653885
#
# Coordination Sequence:
#
# PCOD8185055 Si02
#       8
#     8   8   8   8   8   8   4   8
#     4  10  21  41  67  90 133 171 218 276 342 398
#     4  11  23  39  70  99 129 171 230 283 330 397
#     4  11  21  43  66  91 132 182 215 271 350 397
#     4  10  20  44  63  89 132 174 213 279 330 389
#     4  10  24  42  64  90 136 179 217 277 331 409
#     4  11  24  44  63 105 132 171 235 280 331 414
#     4  10  24  40  66  94 128 180 226 262 346 404
#     4  10  21  42  64  91 132 174 214 277 332 406
#
# _framework density 21.035074000000002
#
# number of rings (size 3 to 8) (size 9 to 14) (size 15 to 20)
#    0.000    1.600    5.333    0.000    3.733    6.400 
#    4.800    0.000    0.000    0.000    0.000    0.000 
#    0.000    0.000    0.000    0.000    0.000    0.000 
#
# Total GULP energy -371706.178965 kJ/mol
# GULP energy per Si atom -12390.205966 kJ/mol
# Density = 2.098720 g / cm^3
# Si number density = 21.035074 Si / 1000 Ang^3
#
#
#
# Elastic Constant Matrix: (Units=GPa)
#
#
# Indices 1 2 3 4 5 6 
#
# 1 124.8066 41.7160 63.9204 0.0000 0.0000 0.0000
# 2 41.7160 88.2233 40.0068 0.0000 0.0000 0.0000
# 3 63.9204 40.0068 77.0123 0.0000 0.0000 0.0000
# 4 0.0000 0.0000 0.0000 24.6522 0.0000 0.0000
# 5 0.0000 0.0000 0.0000 0.0000 34.2383 0.0000
# 6 0.0000 0.0000 0.0000 0.0000 0.0000 33.8916
#
#
#
# Elastic Compliance Matrix: (Units=1/GPa)
#
#
# Indices 1 2 3 4 5 6 
#
# 1 0.014149 -0.001785 -0.010816 0.000000 0.000000 0.000000
# 2 -0.001785 0.015053 -0.006338 0.000000 0.000000 0.000000
# 3 -0.010816 -0.006338 0.025255 0.000000 0.000000 0.000000
# 4 0.000000 0.000000 0.000000 0.040564 0.000000 0.000000
# 5 0.000000 0.000000 0.000000 0.000000 0.029207 0.000000
# 6 0.000000 0.000000 0.000000 0.000000 0.000000 0.029506
#
#
# Mechanical properties :
#
#
# Convention : Reuss Voigt Hill
#
# Bulk Modulus (GPa) = 60.32154 64.59208 62.45681
# Shear Modulus (GPa) = 25.36291 28.18302 26.77297
#
# Velocity S-wave (km/s) = 3.47615 3.66431 3.57147
# Velocity P-wave (km/s) = 6.69704 6.97685 6.83838
#
# Compressibility (1/GPa) = 0.01657783
#
# Stress axis : x y z
#
# Youngs Moduli (GPa) = 70.67859 66.43094 39.59665
#
# Poissons Ratio (x) = 0.11861 0.42827
# Poissons Ratio (y) = 0.12619 0.25097
# Poissons Ratio (z) = 0.76445 0.42104
#
# Static dielectric constant tensor:
#      x y z
#    x 4.089540 0.000000 0.000000 
#    y 0.000000 3.733730 0.000000 
#    z 0.000000 0.000000 3.649970 
# 
# 
# High freq. dielectric constant tensor:
#      x y z
#    x 1.833970 0.000000 0.000000 
#    y 0.000000 1.810620 0.000000 
#    z 0.000000 0.000000 1.814910 
# 
# From -- ./inp_files/6311.got.cif
#   From: 2010.03.12/outbox.cif.g09.slc.cpg/sg41_4_cif.got.tgz:6311.got - 2010.04.14 01:55:53.
