data_PCOD8185379
_publ_section_title
;
Structure prediction by ZEFSAII (Michael W. Deem and Ramdas Pophale) SiO2 
 PCOD8185379
Probable space group: A B A 2
;
_chemical_formula_sum "Si O2"
_cell_formula_units_Z 60
_cell_length_a 16.742264
_cell_length_b 12.948215
_cell_length_c 13.468930
_cell_angle_alpha 90.000000
_cell_angle_beta 90.000000
_cell_angle_gamma 90.000000
_cell_volume 2919.827427
_symmetry_space_group_name_H-M "A B A 2"
_symmetry_group_IT_number 41
_symmetry_cell_setting 'orthorhombic'
loop_
_space_group_symop_operation_xyz
x,y,z
-x,-y,z
1/2-x,y,1/2+z
1/2+x,-y,1/2+z
x,1/2+y,1/2+z
-x,1/2-y,1/2+z
1/2-x,1/2+y,z
1/2+x,1/2-y,z
loop_
_atom_site_type_symbol
_atom_site_label
_atom_site_fract_x
_atom_site_fract_y
_atom_site_fract_z
Si Si1 0.982712 0.805283 0.167970
Si Si2 0.564965 0.084599 0.825731
Si Si3 0.000000 0.500000 0.535513
Si Si4 0.046615 0.895202 0.549686
Si Si5 0.731175 0.971507 0.805341
Si Si6 0.172672 0.746675 0.786968
Si Si7 0.158842 0.413331 0.449148
Si Si8 0.224291 0.403610 0.129798
O O1 0.995881 0.700123 0.105965
O O2 0.906439 0.795191 0.236931
O O3 0.058695 0.826063 0.241011
O O4 0.967108 0.903906 0.098663
O O5 0.500000 0.000000 0.793563
O O6 0.652066 0.036568 0.828432
O O7 0.542571 0.130311 0.933162
O O8 0.928495 0.542008 0.468393
O O9 0.138395 0.910016 0.578986
O O10 0.000000 0.000000 0.576572
O O11 0.723216 0.850497 0.822331
O O12 0.796289 0.000385 0.886561
O O13 0.759579 0.991958 0.692232
O O14 0.150164 0.809832 0.885153
O O15 0.226264 0.811366 0.710000
O O16 0.205653 0.386618 0.550418
#
# Coordination Sequence:
#
# PCOD8185379 Si02
#       8
#     8   8   4   8   8   8   8   8
#     4  11  22  42  68  97 135 174 218 277 330 403
#     4  11  20  40  69  95 127 173 227 266 330 409
#     4  12  26  46  68 100 132 178 228 280 338 404
#     4  10  24  43  65 100 134 176 225 274 332 404
#     4  11  22  44  67  96 135 179 220 280 334 403
#     4  10  23  42  67 103 133 173 220 274 337 403
#     4  11  25  44  66  99 133 173 228 279 333 401
#     4  10  22  45  63  94 139 168 224 274 332 398
#
# _framework density 20.549160000000001
#
# number of rings (size 3 to 8) (size 9 to 14) (size 15 to 20)
#    0.000    1.333    3.333    1.600    1.867    3.200 
#   18.000    0.000    0.000    0.000    0.000    0.000 
#    0.000    0.000    0.000    0.000    0.000    0.000 
#
# Total GULP energy -372038.897092 kJ/mol
# GULP energy per Si atom -12401.296570 kJ/mol
# Density = 2.050239 g / cm^3
# Si number density = 20.549160 Si / 1000 Ang^3
#
#
#
# Elastic Constant Matrix: (Units=GPa)
#
#
# Indices 1 2 3 4 5 6 
#
# 1 114.1584 55.7035 60.1466 0.0000 0.0000 0.0000
# 2 55.7035 159.1667 79.4066 0.0000 0.0000 0.0000
# 3 60.1466 79.4066 148.7457 0.0000 0.0000 0.0000
# 4 0.0000 0.0000 0.0000 29.4162 0.0000 0.0000
# 5 0.0000 0.0000 0.0000 0.0000 20.6851 0.0000
# 6 0.0000 0.0000 0.0000 0.0000 0.0000 27.6238
#
#
#
# Elastic Compliance Matrix: (Units=1/GPa)
#
#
# Indices 1 2 3 4 5 6 
#
# 1 0.011755 -0.002375 -0.003485 0.000000 0.000000 0.000000
# 2 -0.002375 0.009043 -0.003867 0.000000 0.000000 0.000000
# 3 -0.003485 -0.003867 0.010197 0.000000 0.000000 0.000000
# 4 0.000000 0.000000 0.000000 0.033995 0.000000 0.000000
# 5 0.000000 0.000000 0.000000 0.000000 0.048344 0.000000
# 6 0.000000 0.000000 0.000000 0.000000 0.000000 0.036201
#
#
# Mechanical properties :
#
#
# Convention : Reuss Voigt Hill
#
# Bulk Modulus (GPa) = 86.65809 90.28711 88.47260
# Shear Modulus (GPa) = 28.92907 30.66595 29.79751
#
# Velocity S-wave (km/s) = 3.75613 3.86725 3.81210
# Velocity P-wave (km/s) = 7.81499 7.99833 7.90719
#
# Compressibility (1/GPa) = 0.01153960
#
# Stress axis : x y z
#
# Youngs Moduli (GPa) = 85.07021 110.57930 98.07085
#
# Poissons Ratio (x) = 0.26264 0.34181
# Poissons Ratio (y) = 0.20205 0.37927
# Poissons Ratio (z) = 0.29650 0.42764
#
# Static dielectric constant tensor:
#      x y z
#    x 3.740740 0.000000 0.000000 
#    y 0.000000 3.819830 0.000000 
#    z 0.000000 0.000000 3.953170 
# 
# 
# High freq. dielectric constant tensor:
#      x y z
#    x 1.804690 0.000000 0.000000 
#    y 0.000000 1.801550 0.000000 
#    z 0.000000 0.000000 1.821360 
# 
# From -- ./inp_files/8810.got.cif
#   From: 2010.03.12/outbox.cif.g09.slc.cpg/sg41_5_cif.got.tgz:8810.got - 2010.04.14 01:55:53.
