data_PCOD8185959
_publ_section_title
;
Structure prediction by ZEFSAII (Michael W. Deem and Ramdas Pophale) SiO2 
 PCOD8185959
Probable space group: F M M 2
;
_chemical_formula_sum "Si O2"
_cell_formula_units_Z 72
_cell_length_a 14.048469
_cell_length_b 15.496422
_cell_length_c 18.201030
_cell_angle_alpha 90.000000
_cell_angle_beta 90.000000
_cell_angle_gamma 90.000000
_cell_volume 3962.382506
_symmetry_space_group_name_H-M "F M M 2"
_symmetry_group_IT_number 42
_symmetry_cell_setting 'orthorhombic'
loop_
_space_group_symop_operation_xyz
x,y,z
-x,-y,z
-x,y,z
x,-y,z
x,1/2+y,1/2+z
-x,1/2-y,1/2+z
-x,1/2+y,1/2+z
x,1/2-y,1/2+z
1/2+x,y,1/2+z
1/2-x,-y,1/2+z
1/2-x,y,1/2+z
1/2+x,-y,1/2+z
1/2+x,1/2+y,z
1/2-x,1/2-y,z
1/2-x,1/2+y,z
1/2+x,1/2-y,z
loop_
_atom_site_type_symbol
_atom_site_label
_atom_site_fract_x
_atom_site_fract_y
_atom_site_fract_z
Si Si1 0.196398 0.404273 0.296350
Si Si2 0.708783 0.159519 0.939204
Si Si3 0.809641 0.000000 0.189525
Si Si4 0.000000 0.000000 0.936649
Si Si5 0.302543 0.000000 0.516169
Si Si6 0.000000 0.845754 0.823446
Si Si7 0.000000 0.840929 0.390035
Si Si8 0.500000 0.500000 0.279108
O O1 0.178707 0.500000 0.331989
O O2 0.254644 0.349242 0.355431
O O3 0.255323 0.414316 0.220671
O O4 0.095197 0.361450 0.276027
O O5 0.750000 0.250000 0.969658
O O6 0.593976 0.155044 0.940938
O O7 0.746367 0.084605 0.991338
O O8 0.912985 0.000000 0.224006
O O9 0.808785 0.000000 0.103408
O O10 0.090821 0.000000 0.988390
O O11 0.000000 0.088949 0.891756
O O12 0.000000 0.748393 0.848039
O O13 0.000000 0.917210 0.331178
#
# Coordination Sequence:
#
# PCOD8185959 Si02
#       8
#    16  16   8   4   8   8   8   4
#     4  10  18  37  59  86 114 147 199 245 285 337
#     4  12  21  38  61  91 119 152 197 245 295 344
#     4  10  23  38  61  83 121 166 191 230 303 354
#     4  12  17  36  62  90 115 142 212 244 277 354
#     4  12  23  40  59  85 125 162 187 242 295 356
#     4  12  18  33  65  93 109 143 200 256 290 326
#     4  12  22  33  63  91 117 147 196 250 296 342
#     4  12  21  40  54  86 119 150 204 240 285 358
#
# _framework density 18.170884999999998
#
# number of rings (size 3 to 8) (size 9 to 14) (size 15 to 20)
#    0.667    0.000    8.889    1.000    0.000    0.000 
#    0.000    5.556    0.000    0.000    0.000    0.000 
#    0.000    0.000    0.000    0.000    0.000    0.000 
#
# Total GULP energy -223140.709263 kJ/mol
# GULP energy per Si atom -12396.706070 kJ/mol
# Density = 1.812953 g / cm^3
# Si number density = 18.170885 Si / 1000 Ang^3
#
#
#
# Elastic Constant Matrix: (Units=GPa)
#
#
# Indices 1 2 3 4 5 6 
#
# 1 189.6017 52.5619 54.3691 0.0000 0.0000 0.0000
# 2 52.5619 142.6377 46.6220 0.0000 0.0000 0.0000
# 3 54.3691 46.6220 99.0736 0.0000 0.0000 0.0000
# 4 0.0000 0.0000 0.0000 6.1411 0.0000 0.0000
# 5 0.0000 0.0000 0.0000 0.0000 -6.0243 0.0000
# 6 0.0000 0.0000 0.0000 0.0000 0.0000 49.0927
#
#
#
# Elastic Compliance Matrix: (Units=1/GPa)
#
#
# Indices 1 2 3 4 5 6 
#
# 1 0.006505 -0.001454 -0.002885 0.000000 0.000000 0.000000
# 2 -0.001454 0.008610 -0.003254 0.000000 0.000000 0.000000
# 3 -0.002885 -0.003254 0.013208 0.000000 0.000000 0.000000
# 4 0.000000 0.000000 0.000000 0.162838 0.000000 0.000000
# 5 0.000000 0.000000 0.000000 0.000000 -0.165995 0.000000
# 6 0.000000 0.000000 0.000000 0.000000 0.000000 0.020370
#
#
# Mechanical properties :
#
#
# Convention : Reuss Voigt Hill
#
# Bulk Modulus (GPa) = 76.12343 82.04654 79.08499
# Shear Modulus (GPa) = 76.80361 28.35923 52.58142
#
# Velocity S-wave (km/s) = 6.50839 3.95485 5.38516
# Velocity P-wave (km/s) = 9.92285 8.13051 9.07106
#
# Compressibility (1/GPa) = 0.01313656
#
# Stress axis : x y z
#
# Youngs Moduli (GPa) = 153.73577 116.14324 75.71061
#
# Poissons Ratio (x) = 0.16885 0.21846
# Poissons Ratio (y) = 0.22351 0.24635
# Poissons Ratio (z) = 0.44360 0.37792
#
# Static dielectric constant tensor:
#      x y z
#    x 3.950910 0.000000 0.000000 
#    y 0.000000 3.446550 0.000000 
#    z 0.000000 0.000000 2.904700 
# 
# 
# High freq. dielectric constant tensor:
#      x y z
#    x 1.734330 0.000000 0.000000 
#    y 0.000000 1.712100 0.000000 
#    z 0.000000 0.000000 1.653700 
# 
# From -- ./inp_files/19772.got.cif
#   From: 2010.03.12/outbox.cif.g09.slc.cpg/sg42_10_cif.got.tgz:19772.got - 2010.04.14 02:04:31.
