data_PCOD8185750
_publ_section_title
;
Structure prediction by ZEFSAII (Michael W. Deem and Ramdas Pophale) SiO2 
 PCOD8185750
Probable space group: F M M 2
;
_chemical_formula_sum "Si O2"
_cell_formula_units_Z 64
_cell_length_a 14.837025
_cell_length_b 5.283341
_cell_length_c 37.226939
_cell_angle_alpha 90.000000
_cell_angle_beta 90.000000
_cell_angle_gamma 90.000000
_cell_volume 2918.184848
_symmetry_space_group_name_H-M "F M M 2"
_symmetry_group_IT_number 42
_symmetry_cell_setting 'orthorhombic'
loop_
_space_group_symop_operation_xyz
x,y,z
-x,-y,z
-x,y,z
x,-y,z
x,1/2+y,1/2+z
-x,1/2-y,1/2+z
-x,1/2+y,1/2+z
x,1/2-y,1/2+z
1/2+x,y,1/2+z
1/2-x,-y,1/2+z
1/2-x,y,1/2+z
1/2+x,-y,1/2+z
1/2+x,1/2+y,z
1/2-x,1/2-y,z
1/2-x,1/2+y,z
1/2+x,1/2-y,z
loop_
_atom_site_type_symbol
_atom_site_label
_atom_site_fract_x
_atom_site_fract_y
_atom_site_fract_z
Si Si1 0.892025 0.500000 0.563038
Si Si2 0.395739 0.000000 0.025213
Si Si3 0.606686 0.000000 0.644068
Si Si4 0.190716 0.000000 0.451487
Si Si5 0.191282 0.000000 0.372821
Si Si6 0.846788 0.500000 0.265898
Si Si7 0.856089 0.000000 0.295915
Si Si8 0.892600 0.000000 0.685766
O O1 0.852637 0.748084 0.542866
O O2 0.855091 0.500000 0.603662
O O3 0.000000 0.500000 0.561799
O O4 0.384222 0.000000 0.982279
O O5 0.500000 0.000000 0.034464
O O6 0.640037 0.252421 0.664188
O O7 0.500000 0.000000 0.642460
O O8 0.250000 0.250000 0.455784
O O9 0.142756 0.000000 0.411988
O O10 0.250000 0.250000 0.369335
O O11 0.124423 0.000000 0.338781
O O12 0.901167 0.749708 0.278780
O O13 0.749651 0.500000 0.285186
O O14 0.838874 0.500000 0.223068
O O15 0.000000 0.000000 0.692449
#
# Coordination Sequence:
#
# PCOD8185750 Si02
#       8
#     8   8   8   8   8   8   8   8
#     4   9  17  30  52  77 100 129 170 217 254 295
#     4  10  19  33  53  81 108 133 170 221 264 301
#     4   9  17  30  47  71  97 125 168 207 240 287
#     4  10  21  33  53  81 105 139 172 214 253 316
#     4  10  16  30  49  74  96 116 163 211 248 272
#     4  10  18  28  47  70  92 120 154 202 252 274
#     4  10  17  30  48  72  87 119 162 210 231 273
#     4  10  19  30  45  70 102 129 156 200 254 302
#
# _framework density 21.931439999999998
#
# number of rings (size 3 to 8) (size 9 to 14) (size 15 to 20)
#    0.000    2.250    2.500    2.250    0.000    3.000 
#    0.000    0.000    0.000    1.500   65.000    0.000 
#    0.000    0.000    0.000    0.000    0.000    0.000 
#
# Total GULP energy -198294.558959 kJ/mol
# GULP energy per Si atom -12393.409935 kJ/mol
# Density = 2.188152 g / cm^3
# Si number density = 21.931440 Si / 1000 Ang^3
#
#
#
# Elastic Constant Matrix: (Units=GPa)
#
#
# Indices 1 2 3 4 5 6 
#
# 1 13.8173 0.5762 6.5944 0.0000 0.0000 0.0000
# 2 0.5762 245.0799 91.3296 0.0000 0.0000 0.0000
# 3 6.5944 91.3296 228.4726 0.0000 0.0000 0.0000
# 4 0.0000 0.0000 0.0000 44.9823 0.0000 0.0000
# 5 0.0000 0.0000 0.0000 0.0000 12.5901 0.0000
# 6 0.0000 0.0000 0.0000 0.0000 0.0000 -1.3344
#
#
#
# Elastic Compliance Matrix: (Units=1/GPa)
#
#
# Indices 1 2 3 4 5 6 
#
# 1 0.073494 0.000726 -0.002411 0.000000 0.000000 0.000000
# 2 0.000726 0.004802 -0.001940 0.000000 0.000000 0.000000
# 3 -0.002411 -0.001940 0.005222 0.000000 0.000000 0.000000
# 4 0.000000 0.000000 0.000000 0.022231 0.000000 0.000000
# 5 0.000000 0.000000 0.000000 0.000000 0.079428 0.000000
# 6 0.000000 0.000000 0.000000 0.000000 0.000000 -0.749426
#
#
# Mechanical properties :
#
#
# Convention : Reuss Voigt Hill
#
# Bulk Modulus (GPa) = 13.11205 76.04113 44.57659
# Shear Modulus (GPa) = -9.40599 37.17224 13.88312
#
# Velocity S-wave (km/s) = -2.07319 4.12142 2.51873
# Velocity P-wave (km/s) = 0.51068 7.57599 5.36919
#
# Compressibility (1/GPa) = 0.07626574
#
# Stress axis : x y z
#
# Youngs Moduli (GPa) = 13.60659 208.26049 191.49248
#
# Poissons Ratio (x) = -0.15116 0.46177
# Poissons Ratio (y) = -0.00988 0.37157
# Poissons Ratio (z) = 0.03281 0.40410
#
# Static dielectric constant tensor:
#      x y z
#    x 3.084500 0.000000 0.000000 
#    y 0.000000 5.294740 0.000000 
#    z 0.000000 0.000000 4.276630 
# 
# 
# High freq. dielectric constant tensor:
#      x y z
#    x 1.788990 0.000000 0.000000 
#    y 0.000000 1.898500 0.000000 
#    z 0.000000 0.000000 1.880580 
# 
# From -- ./inp_files/34406.got.cif
#   From: 2010.03.12/outbox.cif.g09.slc.cpg/sg42_18_cif.got.tgz:34406.got - 2010.04.14 02:04:31.
