data_PCOD8185597
_publ_section_title
;
Structure prediction by ZEFSAII (Michael W. Deem and Ramdas Pophale) SiO2 
 PCOD8185597
Probable space group: A B A 2
;
_chemical_formula_sum "Si O2"
_cell_formula_units_Z 64
_cell_length_a 30.827390
_cell_length_b 8.208205
_cell_length_c 11.003475
_cell_angle_alpha 90.000000
_cell_angle_beta 90.000000
_cell_angle_gamma 90.000000
_cell_volume 2784.292210
_symmetry_space_group_name_H-M "A B A 2"
_symmetry_group_IT_number 41
_symmetry_cell_setting 'orthorhombic'
loop_
_space_group_symop_operation_xyz
x,y,z
-x,-y,z
1/2-x,y,1/2+z
1/2+x,-y,1/2+z
x,1/2+y,1/2+z
-x,1/2-y,1/2+z
1/2-x,1/2+y,z
1/2+x,1/2-y,z
loop_
_atom_site_type_symbol
_atom_site_label
_atom_site_fract_x
_atom_site_fract_y
_atom_site_fract_z
Si Si1 0.517715 0.816921 0.696690
Si Si2 0.768852 0.091125 0.657680
Si Si3 0.183618 0.253723 0.690705
Si Si4 0.672539 0.622687 0.448896
Si Si5 0.518903 0.681001 0.954085
Si Si6 0.116471 0.360112 0.495987
Si Si7 0.887820 0.806408 0.108855
Si Si8 0.174560 0.707372 0.816098
O O1 0.501203 0.748576 0.825669
O O2 0.499407 0.727184 0.575128
O O3 0.569091 0.785072 0.687968
O O4 0.500000 0.000000 0.693595
O O5 0.790105 0.913117 0.668649
O O6 0.716368 0.094131 0.658510
O O7 0.786324 0.171530 0.532585
O O8 0.781210 0.206973 0.772626
O O9 0.169901 0.262564 0.831397
O O10 0.140261 0.269788 0.609590
O O11 0.628679 0.648415 0.531101
O O12 0.680315 0.434521 0.414449
O O13 0.500000 0.500000 0.959981
O O14 0.569981 0.715876 0.965385
O O15 0.106039 0.548443 0.514957
O O16 0.146244 0.349800 0.377246
O O17 0.850689 0.864718 0.201117
#
# Coordination Sequence:
#
# PCOD8185597 Si02
#       8
#     8   8   8   8   8   8   8   8
#     4  11  24  47  71 105 145 188 234 299 360 432
#     4  11  27  45  67 104 141 185 240 290 361 428
#     4  12  26  44  72 103 138 192 235 297 363 425
#     4  11  25  44  70 101 139 185 233 295 349 426
#     4  11  25  47  70 104 144 190 244 298 364 436
#     4  12  23  45  72  99 143 186 235 298 358 426
#     4  11  23  44  72  98 137 186 233 288 358 421
#     4  11  23  46  68  99 140 178 238 293 348 431
#
# _framework density 22.986091999999999
#
# number of rings (size 3 to 8) (size 9 to 14) (size 15 to 20)
#    0.000    0.750    6.250    1.500    3.500    3.500 
#    4.500    0.000    0.000    0.000    0.000    0.000 
#    0.000    0.000    0.000    0.000    0.000    0.000 
#
# Total GULP energy -396518.157523 kJ/mol
# GULP energy per Si atom -12391.192423 kJ/mol
# Density = 2.293377 g / cm^3
# Si number density = 22.986092 Si / 1000 Ang^3
#
#
#
# Elastic Constant Matrix: (Units=GPa)
#
#
# Indices 1 2 3 4 5 6 
#
# 1 101.8510 7.0719 48.5558 0.0000 0.0000 0.0000
# 2 7.0719 64.0822 30.1683 0.0000 0.0000 0.0000
# 3 48.5558 30.1683 166.5663 0.0000 0.0000 0.0000
# 4 0.0000 0.0000 0.0000 45.2100 0.0000 0.0000
# 5 0.0000 0.0000 0.0000 0.0000 237.7982 0.0000
# 6 0.0000 0.0000 0.0000 0.0000 0.0000 27.3319
#
#
#
# Elastic Compliance Matrix: (Units=1/GPa)
#
#
# Indices 1 2 3 4 5 6 
#
# 1 0.011410 0.000335 -0.003387 0.000000 0.000000 0.000000
# 2 0.000335 0.017069 -0.003189 0.000000 0.000000 0.000000
# 3 -0.003387 -0.003189 0.007569 0.000000 0.000000 0.000000
# 4 0.000000 0.000000 0.000000 0.022119 0.000000 0.000000
# 5 0.000000 0.000000 0.000000 0.000000 0.004205 0.000000
# 6 0.000000 0.000000 0.000000 0.000000 0.000000 0.036587
#
#
# Mechanical properties :
#
#
# Convention : Reuss Voigt Hill
#
# Bulk Modulus (GPa) = 42.43416 56.01018 49.22217
# Shear Modulus (GPa) = 41.91258 78.51491 60.21374
#
# Velocity S-wave (km/s) = 4.27475 5.85079 5.12373
# Velocity P-wave (km/s) = 6.54718 8.37032 7.51424
#
# Compressibility (1/GPa) = 0.02356592
#
# Stress axis : x y z
#
# Youngs Moduli (GPa) = 87.64579 58.58428 132.12598
#
# Poissons Ratio (x) = -0.01964 0.44748
# Poissons Ratio (y) = -0.02938 0.42139
# Poissons Ratio (z) = 0.29683 0.18684
#
# Static dielectric constant tensor:
#      x y z
#    x 4.086420 0.000000 0.000000 
#    y 0.000000 3.818570 0.000000 
#    z 0.000000 0.000000 4.741340 
# 
# 
# High freq. dielectric constant tensor:
#      x y z
#    x 1.903310 0.000000 0.000000 
#    y 0.000000 1.885170 0.000000 
#    z 0.000000 0.000000 1.934550 
# 
# From -- ./inp_files/6684.got.cif
#   From: 2010.03.12/outbox.cif.g09.slc.cpg/sg41_4_cif.got.tgz:6684.got - 2010.04.14 01:55:53.
