data_PCOD8185150
_publ_section_title
;
Structure prediction by ZEFSAII (Michael W. Deem and Ramdas Pophale) SiO2 
 PCOD8185150
Probable space group: A B A 2
;
_chemical_formula_sum "Si O2"
_cell_formula_units_Z 56
_cell_length_a 8.581904
_cell_length_b 15.349519
_cell_length_c 19.629400
_cell_angle_alpha 90.000000
_cell_angle_beta 90.000000
_cell_angle_gamma 90.000000
_cell_volume 2585.743537
_symmetry_space_group_name_H-M "A B A 2"
_symmetry_group_IT_number 41
_symmetry_cell_setting 'orthorhombic'
loop_
_space_group_symop_operation_xyz
x,y,z
-x,-y,z
1/2-x,y,1/2+z
1/2+x,-y,1/2+z
x,1/2+y,1/2+z
-x,1/2-y,1/2+z
1/2-x,1/2+y,z
1/2+x,1/2-y,z
loop_
_atom_site_type_symbol
_atom_site_label
_atom_site_fract_x
_atom_site_fract_y
_atom_site_fract_z
Si Si1 0.683838 0.014117 0.930930
Si Si2 0.187009 0.336338 0.157558
Si Si3 0.179826 0.979975 0.067855
Si Si4 0.786224 0.636258 0.311999
Si Si5 0.278553 0.672891 0.455789
Si Si6 0.164019 0.163073 0.606124
Si Si7 0.534274 0.747443 0.371387
O O1 0.740257 0.054200 0.859356
O O2 0.500000 0.000000 0.929565
O O3 0.778184 0.925630 0.947456
O O4 0.734163 0.062611 0.000670
O O5 0.306847 0.398725 0.118675
O O6 0.192812 0.379261 0.232687
O O7 0.240989 0.234401 0.151967
O O8 0.010145 0.346300 0.133182
O O9 0.257808 0.066891 0.101806
O O10 0.000000 0.000000 0.053294
O O11 0.647459 0.706731 0.315302
O O12 0.951911 0.668756 0.339971
O O13 0.341759 0.700295 0.529343
O O14 0.408782 0.678437 0.396940
O O15 0.131974 0.732865 0.439403
#
# Coordination Sequence:
#
# PCOD8185150 Si02
#       7
#     8   8   8   8   8   8   8
#     4  11  23  43  66  97 137 177 227 289 341 401
#     4  12  25  46  69 101 142 187 226 283 360 424
#     4  11  26  45  69 104 137 179 241 292 349 411
#     4  11  25  42  66  98 138 179 221 276 346 418
#     4  10  21  39  67  98 127 170 225 286 336 389
#     4  11  24  43  72 101 137 183 229 291 345 414
#     4  10  22  40  63  99 128 169 225 277 331 405
#
# _framework density 21.657214
#
# number of rings (size 3 to 8) (size 9 to 14) (size 15 to 20)
#    0.000    1.143    1.429    4.714    8.000    0.571 
#   10.286    0.000    0.000    0.000    0.000    0.000 
#    0.000    0.000    0.000    0.000    0.000    0.000 
#
# Total GULP energy -346911.778724 kJ/mol
# GULP energy per Si atom -12389.706383 kJ/mol
# Density = 2.160792 g / cm^3
# Si number density = 21.657214 Si / 1000 Ang^3
#
#
#
# Elastic Constant Matrix: (Units=GPa)
#
#
# Indices 1 2 3 4 5 6 
#
# 1 109.8375 19.3248 38.8845 0.0000 0.0000 0.0000
# 2 19.3248 71.5786 34.1388 0.0000 0.0000 0.0000
# 3 38.8845 34.1388 161.0255 0.0000 0.0000 0.0000
# 4 0.0000 0.0000 0.0000 35.2838 0.0000 0.0000
# 5 0.0000 0.0000 0.0000 0.0000 25.9929 0.0000
# 6 0.0000 0.0000 0.0000 0.0000 0.0000 21.3152
#
#
#
# Elastic Compliance Matrix: (Units=1/GPa)
#
#
# Indices 1 2 3 4 5 6 
#
# 1 0.010148 -0.001748 -0.002080 0.000000 0.000000 0.000000
# 2 -0.001748 0.015843 -0.002937 0.000000 0.000000 0.000000
# 3 -0.002080 -0.002937 0.007335 0.000000 0.000000 0.000000
# 4 0.000000 0.000000 0.000000 0.028342 0.000000 0.000000
# 5 0.000000 0.000000 0.000000 0.000000 0.038472 0.000000
# 6 0.000000 0.000000 0.000000 0.000000 0.000000 0.046915
#
#
# Mechanical properties :
#
#
# Convention : Reuss Voigt Hill
#
# Bulk Modulus (GPa) = 50.51204 58.57085 54.54145
# Shear Modulus (GPa) = 29.90725 33.19128 31.54927
#
# Velocity S-wave (km/s) = 3.72013 3.91906 3.82089
# Velocity P-wave (km/s) = 6.46734 6.89796 6.68612
#
# Compressibility (1/GPa) = 0.01979726
#
# Stress axis : x y z
#
# Youngs Moduli (GPa) = 98.53926 63.11849 136.33026
#
# Poissons Ratio (x) = 0.11032 0.28358
# Poissons Ratio (y) = 0.17222 0.40038
# Poissons Ratio (z) = 0.20497 0.18537
#
# Static dielectric constant tensor:
#      x y z
#    x 4.016000 0.000000 0.000000 
#    y 0.000000 4.019280 0.000000 
#    z 0.000000 0.000000 3.918250 
# 
# 
# High freq. dielectric constant tensor:
#      x y z
#    x 1.864300 0.000000 0.000000 
#    y 0.000000 1.849390 0.000000 
#    z 0.000000 0.000000 1.846350 
# 
# From -- ./inp_files/11208.got.cif
#   From: 2010.03.12/outbox.cif.g09.slc.cpg/sg41_6_cif.got.tgz:11208.got - 2010.04.14 01:55:53.
