data_PCOD8185029
_publ_section_title
;
Structure prediction by ZEFSAII (Michael W. Deem and Ramdas Pophale) SiO2 
 PCOD8185029
Probable space group: A B A 2
;
_chemical_formula_sum "Si O2"
_cell_formula_units_Z 48
_cell_length_a 19.288211
_cell_length_b 12.529065
_cell_length_c 8.921786
_cell_angle_alpha 90.000000
_cell_angle_beta 90.000000
_cell_angle_gamma 90.000000
_cell_volume 2156.067795
_symmetry_space_group_name_H-M "A B A 2"
_symmetry_group_IT_number 41
_symmetry_cell_setting 'orthorhombic'
loop_
_space_group_symop_operation_xyz
x,y,z
-x,-y,z
1/2-x,y,1/2+z
1/2+x,-y,1/2+z
x,1/2+y,1/2+z
-x,1/2-y,1/2+z
1/2-x,1/2+y,z
1/2+x,1/2-y,z
loop_
_atom_site_type_symbol
_atom_site_label
_atom_site_fract_x
_atom_site_fract_y
_atom_site_fract_z
Si Si1 0.220068 0.750732 0.892480
Si Si2 0.567493 0.057332 0.469439
Si Si3 0.095500 0.234093 0.595856
Si Si4 0.190373 0.883013 0.609360
Si Si5 0.173721 0.583328 0.307929
Si Si6 0.536028 0.611721 0.637017
O O1 0.204796 0.789038 0.726487
O O2 0.264585 0.642918 0.891101
O O3 0.148442 0.708821 0.961781
O O4 0.257171 0.852480 0.975029
O O5 0.593232 0.136753 0.600940
O O6 0.548791 0.121635 0.316227
O O7 0.500000 0.000000 0.533949
O O8 0.629955 0.977104 0.434505
O O9 0.123857 0.176051 0.742938
O O10 0.015834 0.199615 0.569625
O O11 0.110192 0.877445 0.553981
O O12 0.201939 0.001034 0.680872
O O13 0.500000 0.500000 0.600563
#
# Coordination Sequence:
#
# PCOD8185029 Si02
#       6
#     8   8   8   8   8   8
#     4  12  26  43  70 105 135 182 230 281 345 417
#     4  10  21  42  68  97 135 179 221 282 344 406
#     4  12  22  41  73  98 131 181 231 273 346 411
#     4  11  25  45  68 102 137 179 232 279 345 409
#     4  11  24  44  68  96 143 177 220 287 345 397
#     4  10  20  41  66  93 133 177 219 278 337 397
#
# _framework density 22.262751000000002
#
# number of rings (size 3 to 8) (size 9 to 14) (size 15 to 20)
#    0.000    1.000   10.000    0.000    4.667    0.000 
#    0.000    0.000    3.667    0.000    0.000    0.000 
#    0.000    0.000    0.000    0.000    0.000    0.000 
#
# Total GULP energy -297423.000284 kJ/mol
# GULP energy per Si atom -12392.625012 kJ/mol
# Density = 2.221208 g / cm^3
# Si number density = 22.262751 Si / 1000 Ang^3
#
#
#
# Elastic Constant Matrix: (Units=GPa)
#
#
# Indices 1 2 3 4 5 6 
#
# 1 124.0583 49.0951 18.8815 0.0000 0.0000 0.0000
# 2 49.0951 135.6566 26.5600 0.0000 0.0000 0.0000
# 3 18.8815 26.5600 24.8118 0.0000 0.0000 0.0000
# 4 0.0000 0.0000 0.0000 31.7747 0.0000 0.0000
# 5 0.0000 0.0000 0.0000 0.0000 16.1055 0.0000
# 6 0.0000 0.0000 0.0000 0.0000 0.0000 53.8191
#
#
#
# Elastic Compliance Matrix: (Units=1/GPa)
#
#
# Indices 1 2 3 4 5 6 
#
# 1 0.009813 -0.002643 -0.004638 0.000000 0.000000 0.000000
# 2 -0.002643 0.010038 -0.008734 0.000000 0.000000 0.000000
# 3 -0.004638 -0.008734 0.053182 0.000000 0.000000 0.000000
# 4 0.000000 0.000000 0.000000 0.031472 0.000000 0.000000
# 5 0.000000 0.000000 0.000000 0.000000 0.062091 0.000000
# 6 0.000000 0.000000 0.000000 0.000000 0.000000 0.018581
#
#
# Mechanical properties :
#
#
# Convention : Reuss Voigt Hill
#
# Bulk Modulus (GPa) = 24.38858 52.62222 38.50540
# Shear Modulus (GPa) = 21.65689 33.00587 27.33138
#
# Velocity S-wave (km/s) = 3.12234 3.85458 3.50762
# Velocity P-wave (km/s) = 4.89666 6.59535 5.80844
#
# Compressibility (1/GPa) = 0.04100279
#
# Stress axis : x y z
#
# Youngs Moduli (GPa) = 101.90936 99.61982 18.80334
#
# Poissons Ratio (x) = 0.26332 0.08721
# Poissons Ratio (y) = 0.26937 0.16423
# Poissons Ratio (z) = 0.47264 0.87007
#
# Static dielectric constant tensor:
#      x y z
#    x 4.648940 0.000000 0.000000 
#    y 0.000000 4.307600 0.000000 
#    z 0.000000 0.000000 3.575650 
# 
# 
# High freq. dielectric constant tensor:
#      x y z
#    x 1.901730 0.000000 0.000000 
#    y 0.000000 1.880110 0.000000 
#    z 0.000000 0.000000 1.828540 
# 
# From -- ./inp_files/6189.got.cif
#   From: 2010.03.12/outbox.cif.g09.slc.cpg/sg41_4_cif.got.tgz:6189.got - 2010.04.14 01:55:53.
