data_PCOD8185700
_publ_section_title
;
Structure prediction by ZEFSAII (Michael W. Deem and Ramdas Pophale) SiO2 
 PCOD8185700
Probable space group: A B A 2
;
_chemical_formula_sum "Si O2"
_cell_formula_units_Z 40
_cell_length_a 13.364836
_cell_length_b 17.717371
_cell_length_c 7.394627
_cell_angle_alpha 90.000000
_cell_angle_beta 90.000000
_cell_angle_gamma 90.000000
_cell_volume 1750.971936
_symmetry_space_group_name_H-M "A B A 2"
_symmetry_group_IT_number 41
_symmetry_cell_setting 'orthorhombic'
loop_
_space_group_symop_operation_xyz
x,y,z
-x,-y,z
1/2-x,y,1/2+z
1/2+x,-y,1/2+z
x,1/2+y,1/2+z
-x,1/2-y,1/2+z
1/2-x,1/2+y,z
1/2+x,1/2-y,z
loop_
_atom_site_type_symbol
_atom_site_label
_atom_site_fract_x
_atom_site_fract_y
_atom_site_fract_z
Si Si1 0.462186 0.665672 0.399140
Si Si2 0.408004 0.821873 0.250799
Si Si3 0.740365 0.063978 0.744005
Si Si4 0.615100 0.480018 0.536498
Si Si5 0.048829 0.919196 0.059869
O O1 0.402613 0.740757 0.346274
O O2 0.544813 0.682829 0.552071
O O3 0.377936 0.606077 0.468846
O O4 0.517219 0.634136 0.224055
O O5 0.295454 0.854904 0.252911
O O6 0.478347 0.878213 0.371064
O O7 0.669923 0.070229 0.563503
O O8 0.661222 0.042212 0.899584
O O9 0.821831 0.995592 0.719576
O O10 0.500000 0.500000 0.568606
O O11 0.000000 0.000000 0.080245
#
# Coordination Sequence:
#
# PCOD8185700 Si02
#       5
#     8   8   8   8   8
#     4  12  25  50  69 109 151 194 242 318 367 437
#     4  12  27  44  75 106 147 197 247 300 382 433
#     4  12  23  45  74 106 143 197 249 302 371 442
#     4  12  24  45  76 108 148 189 257 310 357 454
#     4  12  25  46  77 107 149 197 247 309 372 444
#
# _framework density 22.844455
#
# number of rings (size 3 to 8) (size 9 to 14) (size 15 to 20)
#    0.000    0.000   10.000    0.000    2.800    0.000 
#    3.600    2.000    0.000    0.000    0.000    0.000 
#    0.000    0.000    0.000    0.000    0.000    0.000 
#
# Total GULP energy -247943.924074 kJ/mol
# GULP energy per Si atom -12397.196204 kJ/mol
# Density = 2.279246 g / cm^3
# Si number density = 22.844455 Si / 1000 Ang^3
#
#
#
# Elastic Constant Matrix: (Units=GPa)
#
#
# Indices 1 2 3 4 5 6 
#
# 1 118.6673 57.1160 17.9023 0.0000 0.0000 0.0000
# 2 57.1160 170.5748 28.4199 0.0000 0.0000 0.0000
# 3 17.9023 28.4199 74.1573 0.0000 0.0000 0.0000
# 4 0.0000 0.0000 0.0000 47.3374 0.0000 0.0000
# 5 0.0000 0.0000 0.0000 0.0000 29.8196 0.0000
# 6 0.0000 0.0000 0.0000 0.0000 0.0000 41.4798
#
#
#
# Elastic Compliance Matrix: (Units=1/GPa)
#
#
# Indices 1 2 3 4 5 6 
#
# 1 0.010149 -0.003194 -0.001226 0.000000 0.000000 0.000000
# 2 -0.003194 0.007268 -0.002014 0.000000 0.000000 0.000000
# 3 -0.001226 -0.002014 0.014553 0.000000 0.000000 0.000000
# 4 0.000000 0.000000 0.000000 0.021125 0.000000 0.000000
# 5 0.000000 0.000000 0.000000 0.000000 0.033535 0.000000
# 6 0.000000 0.000000 0.000000 0.000000 0.000000 0.024108
#
#
# Mechanical properties :
#
#
# Convention : Reuss Voigt Hill
#
# Bulk Modulus (GPa) = 52.35323 63.36398 57.85861
# Shear Modulus (GPa) = 38.46944 41.05810 39.76377
#
# Velocity S-wave (km/s) = 4.10808 4.24404 4.17661
# Velocity P-wave (km/s) = 6.74305 7.19814 6.97431
#
# Compressibility (1/GPa) = 0.01910102
#
# Stress axis : x y z
#
# Youngs Moduli (GPa) = 98.52933 137.59594 68.71570
#
# Poissons Ratio (x) = 0.43950 0.08425
# Poissons Ratio (y) = 0.31472 0.13840
# Poissons Ratio (z) = 0.12080 0.27714
#
# Static dielectric constant tensor:
#      x y z
#    x 4.180810 0.000000 0.000000 
#    y 0.000000 4.370180 0.000000 
#    z 0.000000 0.000000 4.558070 
# 
# 
# High freq. dielectric constant tensor:
#      x y z
#    x 1.890170 0.000000 0.000000 
#    y 0.000000 1.896710 0.000000 
#    z 0.000000 0.000000 1.931740 
# 
# From -- ./inp_files/2008.got.cif
#   From: 2010.03.12/outbox.cif.g09.slc.cpg/sg41_2_cif.got.tgz:2008.got - 2010.04.14 01:55:53.
