data_PCOD8185707
_publ_section_title
;
Structure prediction by ZEFSAII (Michael W. Deem and Ramdas Pophale) SiO2 
 PCOD8185707
Probable space group: A B A 2
;
_chemical_formula_sum "Si O2"
_cell_formula_units_Z 32
_cell_length_a 14.116102
_cell_length_b 19.186554
_cell_length_c 4.750623
_cell_angle_alpha 90.000000
_cell_angle_beta 90.000000
_cell_angle_gamma 90.000000
_cell_volume 1286.655661
_symmetry_space_group_name_H-M "A B A 2"
_symmetry_group_IT_number 41
_symmetry_cell_setting 'orthorhombic'
loop_
_space_group_symop_operation_xyz
x,y,z
-x,-y,z
1/2-x,y,1/2+z
1/2+x,-y,1/2+z
x,1/2+y,1/2+z
-x,1/2-y,1/2+z
1/2-x,1/2+y,z
1/2+x,1/2-y,z
loop_
_atom_site_type_symbol
_atom_site_label
_atom_site_fract_x
_atom_site_fract_y
_atom_site_fract_z
Si Si1 0.811506 0.744284 0.306810
Si Si2 0.436713 0.129779 0.850482
Si Si3 0.183198 0.000445 0.179967
Si Si4 0.065213 0.884931 0.878303
O O1 0.714571 0.754469 0.481221
O O2 0.883702 0.799967 0.439792
O O3 0.847602 0.664883 0.310041
O O4 0.362148 0.076926 0.704078
O O5 0.502884 0.156975 0.601183
O O6 0.499863 0.096761 0.105004
O O7 0.220599 0.988578 0.497835
O O8 0.100671 0.952745 0.051262
#
# Coordination Sequence:
#
# PCOD8185707 Si02
#       4
#     8   8   8   8
#     4  12  24  44  70 102 138 182 232 290 354 424
#     4  12  25  44  69 101 139 183 232 291 354 422
#     4  12  25  44  67  98 136 182 232 286 347 420
#     4  12  25  44  69 101 139 183 232 291 354 422
#
# _framework density 24.87068
#
# number of rings (size 3 to 8) (size 9 to 14) (size 15 to 20)
#    0.000    0.000    0.000   11.250    0.000    2.000 
#    0.000    0.000    0.000    0.000    0.000    0.000 
#    0.000    0.000    0.000    0.000    0.000    0.000 
#
# Total GULP energy -198253.115055 kJ/mol
# GULP energy per Si atom -12390.819691 kJ/mol
# Density = 2.481407 g / cm^3
# Si number density = 24.870680 Si / 1000 Ang^3
#
#
#
# Elastic Constant Matrix: (Units=GPa)
#
#
# Indices 1 2 3 4 5 6 
#
# 1 85.4713 22.9029 39.8999 0.0000 0.0000 0.0000
# 2 22.9029 103.8691 24.8141 0.0000 0.0000 0.0000
# 3 39.8999 24.8141 128.0240 0.0000 0.0000 0.0000
# 4 0.0000 0.0000 0.0000 34.4371 0.0000 0.0000
# 5 0.0000 0.0000 0.0000 0.0000 68.0457 0.0000
# 6 0.0000 0.0000 0.0000 0.0000 0.0000 24.6453
#
#
#
# Elastic Compliance Matrix: (Units=1/GPa)
#
#
# Indices 1 2 3 4 5 6 
#
# 1 0.014142 -0.002166 -0.003988 0.000000 0.000000 0.000000
# 2 -0.002166 0.010427 -0.001346 0.000000 0.000000 0.000000
# 3 -0.003988 -0.001346 0.009315 0.000000 0.000000 0.000000
# 4 0.000000 0.000000 0.000000 0.029038 0.000000 0.000000
# 5 0.000000 0.000000 0.000000 0.000000 0.014696 0.000000
# 6 0.000000 0.000000 0.000000 0.000000 0.000000 0.040576
#
#
# Mechanical properties :
#
#
# Convention : Reuss Voigt Hill
#
# Bulk Modulus (GPa) = 52.95345 54.73312 53.84329
# Shear Modulus (GPa) = 35.84580 40.74211 38.29395
#
# Velocity S-wave (km/s) = 3.80055 4.05181 3.92819
# Velocity P-wave (km/s) = 6.37155 6.62906 6.50158
#
# Compressibility (1/GPa) = 0.01888451
#
# Stress axis : x y z
#
# Youngs Moduli (GPa) = 70.71319 95.90886 107.35714
#
# Poissons Ratio (x) = 0.20770 0.42810
# Poissons Ratio (y) = 0.15313 0.14450
# Poissons Ratio (z) = 0.28198 0.12909
#
# Static dielectric constant tensor:
#      x y z
#    x 4.808700 0.000000 0.000000 
#    y 0.000000 4.090270 0.000000 
#    z 0.000000 0.000000 4.627150 
# 
# 
# High freq. dielectric constant tensor:
#      x y z
#    x 2.004770 0.000000 0.000000 
#    y 0.000000 1.980610 0.000000 
#    z 0.000000 0.000000 2.009790 
# 
# From -- ./inp_files/87.got.cif
#   From: 2010.03.12/outbox.cif.g09.slc.cpg/sg41_1_cif.got.tgz:87.got - 2010.04.14 01:55:53.
