data_PCOD8185262
_publ_section_title
;
Structure prediction by ZEFSAII (Michael W. Deem and Ramdas Pophale) SiO2 
 PCOD8185262
Probable space group: A B A 2
;
_chemical_formula_sum "Si O2"
_cell_formula_units_Z 44
_cell_length_a 21.614975
_cell_length_b 5.055381
_cell_length_c 19.196735
_cell_angle_alpha 90.000000
_cell_angle_beta 90.000000
_cell_angle_gamma 90.000000
_cell_volume 2097.664359
_symmetry_space_group_name_H-M "A B A 2"
_symmetry_group_IT_number 41
_symmetry_cell_setting 'orthorhombic'
loop_
_space_group_symop_operation_xyz
x,y,z
-x,-y,z
1/2-x,y,1/2+z
1/2+x,-y,1/2+z
x,1/2+y,1/2+z
-x,1/2-y,1/2+z
1/2-x,1/2+y,z
1/2+x,1/2-y,z
loop_
_atom_site_type_symbol
_atom_site_label
_atom_site_fract_x
_atom_site_fract_y
_atom_site_fract_z
Si Si1 0.206968 0.985388 0.507270
Si Si2 0.072576 0.990602 0.795337
Si Si3 0.390235 0.700036 0.937800
Si Si4 0.892524 0.688615 0.563521
Si Si5 0.000000 0.500000 0.000802
Si Si6 0.427556 0.487270 0.207077
O O1 0.241004 0.706022 0.510230
O O2 0.161689 0.936490 0.439471
O O3 0.157882 0.070986 0.568092
O O4 0.093670 0.718247 0.759368
O O5 0.110598 0.036399 0.866305
O O6 0.091853 0.214338 0.741624
O O7 0.000000 0.000000 0.812266
O O8 0.457822 0.826711 0.949208
O O9 0.373262 0.499012 0.999794
O O10 0.960438 0.812945 0.551749
O O11 0.892590 0.508735 0.632887
O O12 0.500000 0.500000 0.192881
#
# Coordination Sequence:
#
# PCOD8185262 Si02
#       6
#     8   8   8   8   4   8
#     4  11  24  43  66  95 122 167 226 278 324 369
#     4  10  23  37  58  91 135 170 202 245 319 399
#     4  11  23  39  67  94 130 167 213 273 315 392
#     4  11  23  39  67  94 130 167 213 273 315 392
#     4  10  22  32  64 102 132 156 218 260 336 376
#     4  10  23  37  58  91 135 170 202 245 319 399
#
# _framework density 20.975709999999999
#
# number of rings (size 3 to 8) (size 9 to 14) (size 15 to 20)
#    0.000    1.455    1.818    2.727   17.818    0.000 
#    0.000    0.000    0.000    6.545    0.000    0.000 
#    0.000    0.000    0.000    0.000    0.000    0.000 
#
# Total GULP energy -272563.681560 kJ/mol
# GULP energy per Si atom -12389.258253 kJ/mol
# Density = 2.092797 g / cm^3
# Si number density = 20.975710 Si / 1000 Ang^3
#
#
#
# Elastic Constant Matrix: (Units=GPa)
#
#
# Indices 1 2 3 4 5 6 
#
# 1 86.4738 29.2193 31.4708 0.0000 0.0000 0.0000
# 2 29.2193 83.8769 25.2030 0.0000 0.0000 0.0000
# 3 31.4708 25.2030 127.5988 0.0000 0.0000 0.0000
# 4 0.0000 0.0000 0.0000 40.4992 0.0000 0.0000
# 5 0.0000 0.0000 0.0000 0.0000 5.9716 0.0000
# 6 0.0000 0.0000 0.0000 0.0000 0.0000 40.9226
#
#
#
# Elastic Compliance Matrix: (Units=1/GPa)
#
#
# Indices 1 2 3 4 5 6 
#
# 1 0.013888 -0.004049 -0.002626 0.000000 0.000000 0.000000
# 2 -0.004049 0.013855 -0.001738 0.000000 0.000000 0.000000
# 3 -0.002626 -0.001738 0.008828 0.000000 0.000000 0.000000
# 4 0.000000 0.000000 0.000000 0.024692 0.000000 0.000000
# 5 0.000000 0.000000 0.000000 0.000000 0.167459 0.000000
# 6 0.000000 0.000000 0.000000 0.000000 0.000000 0.024436
#
#
# Mechanical properties :
#
#
# Convention : Reuss Voigt Hill
#
# Bulk Modulus (GPa) = 50.64398 52.19284 51.41841
# Shear Modulus (GPa) = 18.07894 31.61578 24.84736
#
# Velocity S-wave (km/s) = 2.93900 3.88655 3.44550
# Velocity P-wave (km/s) = 5.97607 6.71393 6.35572
#
# Compressibility (1/GPa) = 0.01974568
#
# Stress axis : x y z
#
# Youngs Moduli (GPa) = 72.00527 72.17630 113.27726
#
# Poissons Ratio (x) = 0.29225 0.29741
# Poissons Ratio (y) = 0.29155 0.19687
# Poissons Ratio (z) = 0.18905 0.12544
#
# Static dielectric constant tensor:
#      x y z
#    x 3.924360 0.000000 0.000000 
#    y 0.000000 4.327170 0.000000 
#    z 0.000000 0.000000 3.557600 
# 
# 
# High freq. dielectric constant tensor:
#      x y z
#    x 1.801570 0.000000 0.000000 
#    y 0.000000 1.846740 0.000000 
#    z 0.000000 0.000000 1.793860 
# 
# From -- ./inp_files/10727.got.cif
#   From: 2010.03.12/outbox.cif.g09.slc.cpg/sg41_6_cif.got.tgz:10727.got - 2010.04.14 01:55:53.
