data_PCOD8185352
_publ_section_title
;
Structure prediction by ZEFSAII (Michael W. Deem and Ramdas Pophale) SiO2 
 PCOD8185352
Probable space group: A B A 2
;
_chemical_formula_sum "Si O2"
_cell_formula_units_Z 44
_cell_length_a 25.170881
_cell_length_b 13.826354
_cell_length_c 4.768547
_cell_angle_alpha 90.000000
_cell_angle_beta 90.000000
_cell_angle_gamma 90.000000
_cell_volume 1659.556933
_symmetry_space_group_name_H-M "A B A 2"
_symmetry_group_IT_number 41
_symmetry_cell_setting 'orthorhombic'
loop_
_space_group_symop_operation_xyz
x,y,z
-x,-y,z
1/2-x,y,1/2+z
1/2+x,-y,1/2+z
x,1/2+y,1/2+z
-x,1/2-y,1/2+z
1/2-x,1/2+y,z
1/2+x,1/2-y,z
loop_
_atom_site_type_symbol
_atom_site_label
_atom_site_fract_x
_atom_site_fract_y
_atom_site_fract_z
Si Si1 0.084325 0.372957 0.806910
Si Si2 0.500000 0.000000 0.101499
Si Si3 0.344028 0.362588 0.819780
Si Si4 0.570488 0.344272 0.858803
Si Si5 0.639605 0.350541 0.356380
Si Si6 0.217537 0.038128 0.969341
O O1 0.104353 0.398454 0.495326
O O2 0.056911 0.267187 0.782932
O O3 0.044949 0.457047 0.899589
O O4 0.138026 0.373556 0.997324
O O5 0.479236 0.086422 0.301338
O O6 0.329231 0.250909 0.878576
O O7 0.292505 0.423744 0.916336
O O8 0.622154 0.382342 0.671032
O O9 0.583679 0.341030 0.188674
O O10 0.669694 0.424655 0.155447
O O11 0.228784 0.070452 0.646348
#
# Coordination Sequence:
#
# PCOD8185352 Si02
#       6
#     8   4   8   8   8   8
#     4  10  23  40  63  91 124 169 214 255 312 385
#     4  12  24  40  68  96 132 166 212 280 324 356
#     4  10  22  43  62  84 125 168 204 252 318 383
#     4  10  23  40  63  91 124 169 214 255 312 385
#     4  10  22  43  62  84 125 168 204 252 318 383
#     4  12  24  37  62  95 120 151 208 265 314 380
#
# _framework density 26.513099
#
# number of rings (size 3 to 8) (size 9 to 14) (size 15 to 20)
#    0.000    1.455    0.000    4.364    0.000    8.727 
#    0.000    0.000    0.000    0.000    0.000    0.000 
#    0.000    0.000    0.000    0.000    0.000    0.000 
#
# Total GULP energy -272589.712333 kJ/mol
# GULP energy per Si atom -12390.441470 kJ/mol
# Density = 2.645275 g / cm^3
# Si number density = 26.513099 Si / 1000 Ang^3
#
#
#
# Elastic Constant Matrix: (Units=GPa)
#
#
# Indices 1 2 3 4 5 6 
#
# 1 10.0583 2.9477 -9.4579 0.0000 0.0000 0.0000
# 2 2.9477 97.8462 15.2688 0.0000 0.0000 0.0000
# 3 -9.4579 15.2688 118.7149 0.0000 0.0000 0.0000
# 4 0.0000 0.0000 0.0000 6.3019 0.0000 0.0000
# 5 0.0000 0.0000 0.0000 0.0000 7.1642 0.0000
# 6 0.0000 0.0000 0.0000 0.0000 0.0000 22.6697
#
#
#
# Elastic Compliance Matrix: (Units=1/GPa)
#
#
# Indices 1 2 3 4 5 6 
#
# 1 0.109602 -0.004760 0.009344 0.000000 0.000000 0.000000
# 2 -0.004760 0.010636 -0.001747 0.000000 0.000000 0.000000
# 3 0.009344 -0.001747 0.009393 0.000000 0.000000 0.000000
# 4 0.000000 0.000000 0.000000 0.158682 0.000000 0.000000
# 5 0.000000 0.000000 0.000000 0.000000 0.139584 0.000000
# 6 0.000000 0.000000 0.000000 0.000000 0.000000 0.044112
#
#
# Mechanical properties :
#
#
# Convention : Reuss Voigt Hill
#
# Bulk Modulus (GPa) = 7.39072 27.12628 17.25850
# Shear Modulus (GPa) = 9.77639 21.75121 15.76380
#
# Velocity S-wave (km/s) = 1.92234 2.86736 2.44102
# Velocity P-wave (km/s) = 2.77863 4.60606 3.80372
#
# Compressibility (1/GPa) = 0.13530473
#
# Stress axis : x y z
#
# Youngs Moduli (GPa) = 9.12392 94.01878 106.46572
#
# Poissons Ratio (x) = 0.44753 -0.99482
# Poissons Ratio (y) = 0.04343 0.18602
# Poissons Ratio (z) = -0.08525 0.16427
#
# Static dielectric constant tensor:
#      x y z
#    x 4.440040 0.000000 0.000000 
#    y 0.000000 4.816580 0.000000 
#    z 0.000000 0.000000 5.101110 
# 
# 
# High freq. dielectric constant tensor:
#      x y z
#    x 2.030950 0.000000 0.000000 
#    y 0.000000 2.064910 0.000000 
#    z 0.000000 0.000000 2.090760 
# 
# From -- ./inp_files/1305.got.cif
#   From: 2010.03.12/outbox.cif.g09.slc.cpg/sg41_1_cif.got.tgz:1305.got - 2010.04.14 01:55:53.
