data_PCOD8185365
_publ_section_title
;
Structure prediction by ZEFSAII (Michael W. Deem and Ramdas Pophale) SiO2 
 PCOD8185365
Probable space group: A B A 2
;
_chemical_formula_sum "Si O2"
_cell_formula_units_Z 48
_cell_length_a 14.461860
_cell_length_b 8.484553
_cell_length_c 16.699564
_cell_angle_alpha 90.000000
_cell_angle_beta 90.000000
_cell_angle_gamma 90.000000
_cell_volume 2049.076876
_symmetry_space_group_name_H-M "A B A 2"
_symmetry_group_IT_number 41
_symmetry_cell_setting 'orthorhombic'
loop_
_space_group_symop_operation_xyz
x,y,z
-x,-y,z
1/2-x,y,1/2+z
1/2+x,-y,1/2+z
x,1/2+y,1/2+z
-x,1/2-y,1/2+z
1/2-x,1/2+y,z
1/2+x,1/2-y,z
loop_
_atom_site_type_symbol
_atom_site_label
_atom_site_fract_x
_atom_site_fract_y
_atom_site_fract_z
Si Si1 0.460062 0.167056 0.736910
Si Si2 0.290102 0.331823 0.805521
Si Si3 0.639399 0.355641 0.553110
Si Si4 0.039938 0.667056 0.549926
Si Si5 0.790102 0.168177 0.481315
Si Si6 0.139398 0.644358 0.233727
O O1 0.371250 0.204653 0.790899
O O2 0.432114 0.161288 0.643418
O O3 0.535146 0.303438 0.752841
O O4 0.500000 0.000000 0.765414
O O5 0.250000 0.311685 0.893418
O O6 0.328902 0.506699 0.793098
O O7 0.206573 0.295107 0.744188
O O8 0.535146 0.303438 0.533995
O O9 0.706573 0.204893 0.542650
O O10 0.671099 0.493300 0.493738
O O11 0.645393 0.419648 0.643418
O O12 0.128750 0.704654 0.495938
O O13 0.000000 0.500000 0.521422
#
# Coordination Sequence:
#
# PCOD8185365 Si02
#       6
#     8   8   8   8   8   8
#     4  10  22  43  73 104 134 177 234 288 336 399
#     4  12  25  42  65 100 141 177 218 277 346 406
#     4  11  23  42  70  98 131 179 230 278 330 401
#     4  10  22  43  73 104 134 177 234 288 336 399
#     4  12  25  42  65 100 141 177 218 277 346 406
#     4  11  23  42  70  98 131 179 230 278 330 401
#
# _framework density 23.425183000000001
#
# number of rings (size 3 to 8) (size 9 to 14) (size 15 to 20)
#    0.000    1.000    0.000    7.000    0.000    6.667 
#    0.000    5.000    0.000    0.000    0.000    0.000 
#    0.000    0.000    0.000    0.000    0.000    0.000 
#
# Total GULP energy -297746.474017 kJ/mol
# GULP energy per Si atom -12406.103084 kJ/mol
# Density = 2.337187 g / cm^3
# Si number density = 23.425183 Si / 1000 Ang^3
#
#
#
# Elastic Constant Matrix: (Units=GPa)
#
#
# Indices 1 2 3 4 5 6 
#
# 1 119.7036 16.8738 85.2077 0.0000 0.0000 0.0000
# 2 16.8738 97.0302 56.6547 0.0000 0.0000 0.0000
# 3 85.2077 56.6547 114.0266 0.0000 0.0000 0.0000
# 4 0.0000 0.0000 0.0000 26.0006 0.0000 0.0000
# 5 0.0000 0.0000 0.0000 0.0000 48.5980 0.0000
# 6 0.0000 0.0000 0.0000 0.0000 0.0000 44.2752
#
#
#
# Elastic Compliance Matrix: (Units=1/GPa)
#
#
# Indices 1 2 3 4 5 6 
#
# 1 0.021450 0.007929 -0.019969 0.000000 0.000000 0.000000
# 2 0.007929 0.017449 -0.014595 0.000000 0.000000 0.000000
# 3 -0.019969 -0.014595 0.030943 0.000000 0.000000 0.000000
# 4 0.000000 0.000000 0.000000 0.038461 0.000000 0.000000
# 5 0.000000 0.000000 0.000000 0.000000 0.020577 0.000000
# 6 0.000000 0.000000 0.000000 0.000000 0.000000 0.022586
#
#
# Mechanical properties :
#
#
# Convention : Reuss Voigt Hill
#
# Bulk Modulus (GPa) = 60.33559 72.02588 66.18073
# Shear Modulus (GPa) = 23.78010 35.24303 29.51157
#
# Velocity S-wave (km/s) = 3.18960 3.88299 3.55325
# Velocity P-wave (km/s) = 6.27514 7.13564 6.71918
#
# Compressibility (1/GPa) = 0.01657397
#
# Stress axis : x y z
#
# Youngs Moduli (GPa) = 46.61896 57.31025 32.31714
#
# Poissons Ratio (x) = -0.45443 0.64534
# Poissons Ratio (y) = -0.36965 0.47166
# Poissons Ratio (z) = 0.93093 0.83643
#
# Static dielectric constant tensor:
#      x y z
#    x 4.450470 0.000000 0.000000 
#    y 0.000000 4.183340 0.000000 
#    z 0.000000 0.000000 3.894030 
# 
# 
# High freq. dielectric constant tensor:
#      x y z
#    x 1.946610 0.000000 0.000000 
#    y 0.000000 1.936440 0.000000 
#    z 0.000000 0.000000 1.908930 
# 
# From -- ./inp_files/10314.got.cif
#   From: 2010.03.12/outbox.cif.g09.slc.cpg/sg41_6_cif.got.tgz:10314.got - 2010.04.14 01:55:53.
