data_PCOD8185456
_publ_section_title
;
Structure prediction by ZEFSAII (Michael W. Deem and Ramdas Pophale) SiO2 
 PCOD8185456
Probable space group: A B A 2
;
_chemical_formula_sum "Si O2"
_cell_formula_units_Z 36
_cell_length_a 4.860626
_cell_length_b 23.081220
_cell_length_c 14.197683
_cell_angle_alpha 90.000000
_cell_angle_beta 90.000000
_cell_angle_gamma 90.000000
_cell_volume 1592.826386
_symmetry_space_group_name_H-M "A B A 2"
_symmetry_group_IT_number 41
_symmetry_cell_setting 'orthorhombic'
loop_
_space_group_symop_operation_xyz
x,y,z
-x,-y,z
1/2-x,y,1/2+z
1/2+x,-y,1/2+z
x,1/2+y,1/2+z
-x,1/2-y,1/2+z
1/2-x,1/2+y,z
1/2+x,1/2-y,z
loop_
_atom_site_type_symbol
_atom_site_label
_atom_site_fract_x
_atom_site_fract_y
_atom_site_fract_z
Si Si1 0.117799 0.918349 0.500000
Si Si2 0.686868 0.895363 0.179127
Si Si3 0.500000 0.000000 0.590875
Si Si4 0.375997 0.614273 0.884709
Si Si5 0.130624 0.211259 0.277772
O O1 0.343709 0.879871 0.444095
O O2 0.045099 0.887928 0.599559
O O3 0.839822 0.926642 0.439660
O O4 0.247103 0.981071 0.523999
O O5 0.553885 0.912203 0.281091
O O6 0.833200 0.832492 0.189077
O O7 0.904539 0.945631 0.153568
O O8 0.224497 0.676875 0.872695
O O9 0.813239 0.230246 0.274229
#
# Coordination Sequence:
#
# PCOD8185456 Si02
#       5
#     8   8   4   8   8
#     4  12  24  48  67 112 142 193 239 302 347 451
#     4  10  27  45  77 105 155 189 244 295 371 431
#     4  12  26  46  72 110 158 184 248 302 348 460
#     4  10  26  44  77  97 150 191 243 289 372 413
#     4  10  23  47  77 105 144 192 242 303 356 436
#
# _framework density 22.601334000000001
#
# number of rings (size 3 to 8) (size 9 to 14) (size 15 to 20)
#    1.333    0.000    2.222    2.000    6.222    1.778 
#    0.000    6.667    0.000    0.000    0.000    0.000 
#    0.000    0.000    0.000    0.000    0.000    0.000 
#
# Total GULP energy -223027.828046 kJ/mol
# GULP energy per Si atom -12390.434891 kJ/mol
# Density = 2.254989 g / cm^3
# Si number density = 22.601334 Si / 1000 Ang^3
#
#
#
# Elastic Constant Matrix: (Units=GPa)
#
#
# Indices 1 2 3 4 5 6 
#
# 1 101.7191 2.5266 48.8408 0.0000 0.0000 0.0000
# 2 2.5266 78.3000 31.2626 0.0000 0.0000 0.0000
# 3 48.8408 31.2626 162.5965 0.0000 0.0000 0.0000
# 4 0.0000 0.0000 0.0000 11.2289 0.0000 0.0000
# 5 0.0000 0.0000 0.0000 0.0000 10.7015 0.0000
# 6 0.0000 0.0000 0.0000 0.0000 0.0000 49.3727
#
#
#
# Elastic Compliance Matrix: (Units=1/GPa)
#
#
# Indices 1 2 3 4 5 6 
#
# 1 0.011575 0.001099 -0.003688 0.000000 0.000000 0.000000
# 2 0.001099 0.013938 -0.003010 0.000000 0.000000 0.000000
# 3 -0.003688 -0.003010 0.007837 0.000000 0.000000 0.000000
# 4 0.000000 0.000000 0.000000 0.089056 0.000000 0.000000
# 5 0.000000 0.000000 0.000000 0.000000 0.093445 0.000000
# 6 0.000000 0.000000 0.000000 0.000000 0.000000 0.020254
#
#
# Mechanical properties :
#
#
# Convention : Reuss Voigt Hill
#
# Bulk Modulus (GPa) = 45.14469 56.43065 50.78767
# Shear Modulus (GPa) = 19.63205 31.59299 25.61252
#
# Velocity S-wave (km/s) = 2.95044 3.74282 3.37000
# Velocity P-wave (km/s) = 5.62357 6.61062 6.13697
#
# Compressibility (1/GPa) = 0.02215100
#
# Stress axis : x y z
#
# Youngs Moduli (GPa) = 86.39652 71.74787 127.60394
#
# Poissons Ratio (x) = -0.07885 0.47061
# Poissons Ratio (y) = -0.09495 0.38408
# Poissons Ratio (z) = 0.31864 0.21596
#
# Static dielectric constant tensor:
#      x y z
#    x 4.069940 0.000000 0.000000 
#    y 0.000000 3.887130 0.000000 
#    z 0.000000 0.000000 4.078020 
# 
# 
# High freq. dielectric constant tensor:
#      x y z
#    x 1.903170 0.000000 0.000000 
#    y 0.000000 1.875270 0.000000 
#    z 0.000000 0.000000 1.883640 
# 
# From -- ./inp_files/6788.got.cif
#   From: 2010.03.12/outbox.cif.g09.slc.cpg/sg41_4_cif.got.tgz:6788.got - 2010.04.14 01:55:53.
