data_PCOD8185373
_publ_section_title
;
Structure prediction by ZEFSAII (Michael W. Deem and Ramdas Pophale) SiO2 
 PCOD8185373
Probable space group: A B A 2
;
_chemical_formula_sum "Si O2"
_cell_formula_units_Z 52
_cell_length_a 19.315479
_cell_length_b 5.213590
_cell_length_c 21.744776
_cell_angle_alpha 90.000000
_cell_angle_beta 90.000000
_cell_angle_gamma 90.000000
_cell_volume 2189.763920
_symmetry_space_group_name_H-M "A B A 2"
_symmetry_group_IT_number 41
_symmetry_cell_setting 'orthorhombic'
loop_
_space_group_symop_operation_xyz
x,y,z
-x,-y,z
1/2-x,y,1/2+z
1/2+x,-y,1/2+z
x,1/2+y,1/2+z
-x,1/2-y,1/2+z
1/2-x,1/2+y,z
1/2+x,1/2-y,z
loop_
_atom_site_type_symbol
_atom_site_label
_atom_site_fract_x
_atom_site_fract_y
_atom_site_fract_z
Si Si1 0.500000 0.000000 0.730051
Si Si2 0.708859 0.956118 0.371034
Si Si3 0.788121 0.479441 0.635296
Si Si4 0.076865 0.615614 0.292567
Si Si5 0.406943 0.358575 0.671425
Si Si6 0.840615 0.464156 0.504821
Si Si7 0.080247 0.034582 0.537447
O O1 0.563357 0.084604 0.775104
O O2 0.483587 0.243807 0.685963
O O3 0.755115 0.717377 0.347359
O O4 0.629412 0.921708 0.348669
O O5 0.706177 0.976764 0.444488
O O6 0.766391 0.761278 0.658800
O O7 0.862623 0.401000 0.660977
O O8 0.787132 0.477084 0.561223
O O9 0.116633 0.500186 0.233109
O O10 0.000000 0.500000 0.307511
O O11 0.403990 0.535183 0.610956
O O12 0.881915 0.198344 0.504033
O O13 0.894903 0.698455 0.508892
O O14 0.000000 0.000000 0.524341
#
# Coordination Sequence:
#
# PCOD8185373 Si02
#       7
#     4   8   8   8   8   8   8
#     4  10  22  44  70  96 148 182 236 284 374 434
#     4  12  28  50  77 102 140 191 245 302 359 428
#     4  11  23  38  63  95 135 176 225 277 335 420
#     4  10  25  46  72 105 140 190 241 301 362 434
#     4  10  24  39  68 100 140 183 225 282 364 420
#     4  11  24  44  66  98 140 186 232 285 358 421
#     4  11  23  39  69 105 142 178 232 286 347 427
#
# _framework density 23.746850999999999
#
# number of rings (size 3 to 8) (size 9 to 14) (size 15 to 20)
#    0.000    1.231    0.000    5.538   15.077    2.462 
#    1.385    0.000    0.000    0.000    0.000    0.000 
#    0.000    0.000    0.000    0.000    0.000    0.000 
#
# Total GULP energy -322311.336702 kJ/mol
# GULP energy per Si atom -12396.589873 kJ/mol
# Density = 2.369280 g / cm^3
# Si number density = 23.746851 Si / 1000 Ang^3
#
#
#
# Elastic Constant Matrix: (Units=GPa)
#
#
# Indices 1 2 3 4 5 6 
#
# 1 93.5732 24.6616 20.6720 0.0000 0.0000 0.0000
# 2 24.6616 118.5192 27.5824 0.0000 0.0000 0.0000
# 3 20.6720 27.5824 64.7810 0.0000 0.0000 0.0000
# 4 0.0000 0.0000 0.0000 24.1939 0.0000 0.0000
# 5 0.0000 0.0000 0.0000 0.0000 37.3611 0.0000
# 6 0.0000 0.0000 0.0000 0.0000 0.0000 46.4954
#
#
#
# Elastic Compliance Matrix: (Units=1/GPa)
#
#
# Indices 1 2 3 4 5 6 
#
# 1 0.011817 -0.001755 -0.003024 0.000000 0.000000 0.000000
# 2 -0.001755 0.009626 -0.003539 0.000000 0.000000 0.000000
# 3 -0.003024 -0.003539 0.017908 0.000000 0.000000 0.000000
# 4 0.000000 0.000000 0.000000 0.041333 0.000000 0.000000
# 5 0.000000 0.000000 0.000000 0.000000 0.026766 0.000000
# 6 0.000000 0.000000 0.000000 0.000000 0.000000 0.021508
#
#
# Mechanical properties :
#
#
# Convention : Reuss Voigt Hill
#
# Bulk Modulus (GPa) = 44.02022 46.96726 45.49374
# Shear Modulus (GPa) = 32.64456 35.20724 33.92590
#
# Velocity S-wave (km/s) = 3.71170 3.85464 3.78385
# Velocity P-wave (km/s) = 6.07837 6.29542 6.18784
#
# Compressibility (1/GPa) = 0.02271683
#
# Stress axis : x y z
#
# Youngs Moduli (GPa) = 84.62085 103.88323 55.84064
#
# Poissons Ratio (x) = 0.18235 0.16884
# Poissons Ratio (y) = 0.14854 0.19759
# Poissons Ratio (z) = 0.25586 0.36759
#
# Static dielectric constant tensor:
#      x y z
#    x 4.241840 0.000000 0.000000 
#    y 0.000000 4.524030 0.000000 
#    z 0.000000 0.000000 4.010390 
# 
# 
# High freq. dielectric constant tensor:
#      x y z
#    x 1.944680 0.000000 0.000000 
#    y 0.000000 1.961680 0.000000 
#    z 0.000000 0.000000 1.911870 
# 
# From -- ./inp_files/11692.got.cif
#   From: 2010.03.12/outbox.cif.g09.slc.cpg/sg41_6_cif.got.tgz:11692.got - 2010.04.14 01:55:53.
