data_PCOD8185093
_publ_section_title
;
Structure prediction by ZEFSAII (Michael W. Deem and Ramdas Pophale) SiO2 
 PCOD8185093
Probable space group: A B A 2
;
_chemical_formula_sum "Si O2"
_cell_formula_units_Z 64
_cell_length_a 30.714972
_cell_length_b 12.656537
_cell_length_c 7.250760
_cell_angle_alpha 90.000000
_cell_angle_beta 90.000000
_cell_angle_gamma 90.000000
_cell_volume 2818.697998
_symmetry_space_group_name_H-M "A B A 2"
_symmetry_group_IT_number 41
_symmetry_cell_setting 'orthorhombic'
loop_
_space_group_symop_operation_xyz
x,y,z
-x,-y,z
1/2-x,y,1/2+z
1/2+x,-y,1/2+z
x,1/2+y,1/2+z
-x,1/2-y,1/2+z
1/2-x,1/2+y,z
1/2+x,1/2-y,z
loop_
_atom_site_type_symbol
_atom_site_label
_atom_site_fract_x
_atom_site_fract_y
_atom_site_fract_z
Si Si1 0.400459 0.010258 0.875000
Si Si2 0.950704 0.688789 0.862147
Si Si3 0.714636 0.983513 0.290261
Si Si4 0.805695 0.042241 0.382450
Si Si5 0.045069 0.173364 0.210673
Si Si6 0.694718 0.212002 0.402349
Si Si7 0.101600 0.724038 0.024800
Si Si8 0.713822 0.770886 0.494114
O O1 0.428839 0.061458 0.707032
O O2 0.397114 0.095970 0.040508
O O3 0.426026 0.909724 0.956234
O O4 0.352625 0.983302 0.795790
O O5 0.918703 0.728650 0.705804
O O6 0.996824 0.652525 0.784849
O O7 0.957453 0.781269 0.007359
O O8 0.767599 0.982919 0.267441
O O9 0.702611 0.086111 0.412095
O O10 0.697692 0.877307 0.391545
O O11 0.693823 0.996251 0.090034
O O12 0.799198 0.168790 0.372313
O O13 0.071276 0.253458 0.347444
O O14 0.649816 0.231876 0.503553
O O15 0.692428 0.259878 0.195531
O O16 0.733442 0.270905 0.514969
#
# Coordination Sequence:
#
# PCOD8185093 Si02
#       8
#     8   8   8   8   8   8   8   8
#     4  10  25  44  69 103 141 176 238 287 340 428
#     4  12  23  49  78 101 142 183 221 292 364 425
#     4  10  21  37  63  90 135 193 232 282 354 399
#     4  10  22  39  58  96 135 179 235 291 334 410
#     4  10  24  48  72 103 137 178 227 287 359 424
#     4  10  22  40  59  97 137 182 240 289 338 412
#     4  10  25  45  68 106 138 176 237 288 339 430
#     4  10  21  37  61  87 137 191 232 288 344 403
#
# _framework density 22.705518000000001
#
# number of rings (size 3 to 8) (size 9 to 14) (size 15 to 20)
#    0.750    1.000    1.250    1.875    3.500    6.000 
#    2.250    0.000    0.000    0.000    0.000    0.000 
#    0.000    0.000    0.000    0.000    0.000    0.000 
#
# Total GULP energy -396718.966857 kJ/mol
# GULP energy per Si atom -12397.467714 kJ/mol
# Density = 2.265384 g / cm^3
# Si number density = 22.705518 Si / 1000 Ang^3
#
#
#
# Elastic Constant Matrix: (Units=GPa)
#
#
# Indices 1 2 3 4 5 6 
#
# 1 159.8455 44.9834 23.9462 0.0000 0.0000 0.0000
# 2 44.9834 119.2001 22.0824 0.0000 0.0000 0.0000
# 3 23.9462 22.0824 52.0960 0.0000 0.0000 0.0000
# 4 0.0000 0.0000 0.0000 54.5064 0.0000 0.0000
# 5 0.0000 0.0000 0.0000 0.0000 33.2362 0.0000
# 6 0.0000 0.0000 0.0000 0.0000 0.0000 27.3417
#
#
#
# Elastic Compliance Matrix: (Units=1/GPa)
#
#
# Indices 1 2 3 4 5 6 
#
# 1 0.007257 -0.002301 -0.002360 0.000000 0.000000 0.000000
# 2 -0.002301 0.009834 -0.003111 0.000000 0.000000 0.000000
# 3 -0.002360 -0.003111 0.021599 0.000000 0.000000 0.000000
# 4 0.000000 0.000000 0.000000 0.018346 0.000000 0.000000
# 5 0.000000 0.000000 0.000000 0.000000 0.030088 0.000000
# 6 0.000000 0.000000 0.000000 0.000000 0.000000 0.036574
#
#
# Mechanical properties :
#
#
# Convention : Reuss Voigt Hill
#
# Bulk Modulus (GPa) = 43.20512 57.01839 50.11176
# Shear Modulus (GPa) = 34.02327 39.02550 36.52439
#
# Velocity S-wave (km/s) = 3.87519 4.15030 4.01510
# Velocity P-wave (km/s) = 6.25241 6.93782 6.60401
#
# Compressibility (1/GPa) = 0.02314541
#
# Stress axis : x y z
#
# Youngs Moduli (GPa) = 137.79204 101.68771 46.29898
#
# Poissons Ratio (x) = 0.23403 0.10928
# Poissons Ratio (y) = 0.31713 0.14402
# Poissons Ratio (z) = 0.32523 0.31630
#
# Static dielectric constant tensor:
#      x y z
#    x 4.061740 0.000000 0.000000 
#    y 0.000000 4.161310 0.000000 
#    z 0.000000 0.000000 3.744480 
# 
# 
# High freq. dielectric constant tensor:
#      x y z
#    x 1.898060 0.000000 0.000000 
#    y 0.000000 1.904060 0.000000 
#    z 0.000000 0.000000 1.872550 
# 
# From -- ./inp_files/3987.got.cif
#   From: 2010.03.12/outbox.cif.g09.slc.cpg/sg41_2_cif.got.tgz:3987.got - 2010.04.14 01:55:53.
