data_PCOD8185532
_publ_section_title
;
Structure prediction by ZEFSAII (Michael W. Deem and Ramdas Pophale) SiO2 
 PCOD8185532
Probable space group: A B A 2
;
_chemical_formula_sum "Si O2"
_cell_formula_units_Z 32
_cell_length_a 8.081160
_cell_length_b 9.752395
_cell_length_c 15.674789
_cell_angle_alpha 90.000000
_cell_angle_beta 90.000000
_cell_angle_gamma 90.000000
_cell_volume 1235.340535
_symmetry_space_group_name_H-M "A B A 2"
_symmetry_group_IT_number 41
_symmetry_cell_setting 'orthorhombic'
loop_
_space_group_symop_operation_xyz
x,y,z
-x,-y,z
1/2-x,y,1/2+z
1/2+x,-y,1/2+z
x,1/2+y,1/2+z
-x,1/2-y,1/2+z
1/2-x,1/2+y,z
1/2+x,1/2-y,z
loop_
_atom_site_type_symbol
_atom_site_label
_atom_site_fract_x
_atom_site_fract_y
_atom_site_fract_z
Si Si1 0.874181 0.378323 0.687780
Si Si2 0.312551 0.849474 0.412893
Si Si3 0.334530 0.583266 0.523097
Si Si4 0.413541 0.192032 0.294844
O O1 0.772144 0.357875 0.601484
O O2 0.740088 0.401993 0.763719
O O3 0.000000 0.500000 0.678913
O O4 0.985877 0.246407 0.711420
O O5 0.373476 0.716117 0.466393
O O6 0.463721 0.895751 0.352714
O O7 0.155038 0.817191 0.352875
O O8 0.280508 0.978530 0.472241
O O9 0.500000 0.500000 0.551189
#
# Coordination Sequence:
#
# PCOD8185532 Si02
#       4
#     8   8   8   8
#     4  11  29  50  79 115 161 209 267 329 411 472
#     4  11  26  51  81 114 160 212 272 332 397 480
#     4  12  29  51  80 121 165 213 268 332 408 486
#     4  10  26  51  81 112 158 209 273 331 397 474
#
# _framework density 25.903787999999999
#
# number of rings (size 3 to 8) (size 9 to 14) (size 15 to 20)
#    0.000    1.000    2.500    0.000   17.500    2.000 
#    4.500    0.000    0.000    0.000    0.000    0.000 
#    0.000    0.000    0.000    0.000    0.000    0.000 
#
# Total GULP energy -198350.507651 kJ/mol
# GULP energy per Si atom -12396.906728 kJ/mol
# Density = 2.584483 g / cm^3
# Si number density = 25.903788 Si / 1000 Ang^3
#
#
#
# Elastic Constant Matrix: (Units=GPa)
#
#
# Indices 1 2 3 4 5 6 
#
# 1 133.6232 0.7035 45.2705 0.0000 0.0000 0.0000
# 2 0.7035 79.9324 18.6430 0.0000 0.0000 0.0000
# 3 45.2705 18.6430 115.0320 0.0000 0.0000 0.0000
# 4 0.0000 0.0000 0.0000 36.0121 0.0000 0.0000
# 5 0.0000 0.0000 0.0000 0.0000 19.7781 0.0000
# 6 0.0000 0.0000 0.0000 0.0000 0.0000 31.8327
#
#
#
# Elastic Compliance Matrix: (Units=1/GPa)
#
#
# Indices 1 2 3 4 5 6 
#
# 1 0.008678 0.000748 -0.003536 0.000000 0.000000 0.000000
# 2 0.000748 0.013067 -0.002412 0.000000 0.000000 0.000000
# 3 -0.003536 -0.002412 0.010476 0.000000 0.000000 0.000000
# 4 0.000000 0.000000 0.000000 0.027768 0.000000 0.000000
# 5 0.000000 0.000000 0.000000 0.000000 0.050561 0.000000
# 6 0.000000 0.000000 0.000000 0.000000 0.000000 0.031414
#
#
# Mechanical properties :
#
#
# Convention : Reuss Voigt Hill
#
# Bulk Modulus (GPa) = 45.82957 50.86907 48.34932
# Shear Modulus (GPa) = 31.32091 35.12264 33.22177
#
# Velocity S-wave (km/s) = 3.48102 3.68623 3.58509
# Velocity P-wave (km/s) = 5.82128 6.14801 5.98688
#
# Compressibility (1/GPa) = 0.02181997
#
# Stress axis : x y z
#
# Youngs Moduli (GPa) = 115.23511 76.53098 95.45684
#
# Poissons Ratio (x) = -0.05728 0.33758
# Poissons Ratio (y) = -0.08625 0.23026
# Poissons Ratio (z) = 0.40752 0.18461
#
# Static dielectric constant tensor:
#      x y z
#    x 5.297370 0.000000 0.000000 
#    y 0.000000 4.560940 0.000000 
#    z 0.000000 0.000000 4.929320 
# 
# 
# High freq. dielectric constant tensor:
#      x y z
#    x 2.063190 0.000000 0.000000 
#    y 0.000000 2.026570 0.000000 
#    z 0.000000 0.000000 2.042280 
# 
# From -- ./inp_files/7064.got.cif
#   From: 2010.03.12/outbox.cif.g09.slc.cpg/sg41_4_cif.got.tgz:7064.got - 2010.04.14 01:55:53.
