data_PCOD8185218
_publ_section_title
;
Structure prediction by ZEFSAII (Michael W. Deem and Ramdas Pophale) SiO2 
 PCOD8185218
Probable space group: A B A 2
;
_chemical_formula_sum "Si O2"
_cell_formula_units_Z 36
_cell_length_a 8.828576
_cell_length_b 9.843704
_cell_length_c 20.555092
_cell_angle_alpha 90.000000
_cell_angle_beta 90.000000
_cell_angle_gamma 90.000000
_cell_volume 1786.358541
_symmetry_space_group_name_H-M "A B A 2"
_symmetry_group_IT_number 41
_symmetry_cell_setting 'orthorhombic'
loop_
_space_group_symop_operation_xyz
x,y,z
-x,-y,z
1/2-x,y,1/2+z
1/2+x,-y,1/2+z
x,1/2+y,1/2+z
-x,1/2-y,1/2+z
1/2-x,1/2+y,z
1/2+x,1/2-y,z
loop_
_atom_site_type_symbol
_atom_site_label
_atom_site_fract_x
_atom_site_fract_y
_atom_site_fract_z
Si Si1 0.185828 0.587835 0.746550
Si Si2 0.500000 0.000000 0.628618
Si Si3 0.914839 0.138827 0.442119
Si Si4 0.618669 0.190154 0.799089
Si Si5 0.904349 0.124143 0.004104
O O1 0.335410 0.678116 0.756292
O O2 0.217505 0.438320 0.775026
O O3 0.128722 0.573431 0.672206
O O4 0.058022 0.664381 0.788238
O O5 0.579240 0.113825 0.582818
O O6 0.856930 0.211846 0.376096
O O7 0.771290 0.108910 0.487244
O O8 0.031937 0.232688 0.480614
O O9 0.000000 0.000000 0.424127
O O10 0.000000 0.000000 0.971544
#
# Coordination Sequence:
#
# PCOD8185218 Si02
#       5
#     8   4   8   8   8
#     4  10  21  42  64  85 127 158 209 267 311 375
#     4   8  22  44  60  88 126 162 222 258 308 394
#     4  12  22  41  63  98 131 166 218 267 329 390
#     4  10  22  38  63  93 119 163 200 268 320 379
#     4  10  24  39  64  91 131 174 211 268 320 385
#
# _framework density 20.152729999999998
#
# number of rings (size 3 to 8) (size 9 to 14) (size 15 to 20)
#    0.667    1.333    2.222    2.667    3.111    4.444 
#    0.000    0.000    0.000    0.000    0.000    0.000 
#    0.000    0.000    0.000    0.000    0.000    0.000 
#
# Total GULP energy -223152.412102 kJ/mol
# GULP energy per Si atom -12397.356228 kJ/mol
# Density = 2.010686 g / cm^3
# Si number density = 20.152730 Si / 1000 Ang^3
#
#
#
# Elastic Constant Matrix: (Units=GPa)
#
#
# Indices 1 2 3 4 5 6 
#
# 1 63.9710 22.1781 24.4062 0.0000 0.0000 0.0000
# 2 22.1781 76.9964 24.9119 0.0000 0.0000 0.0000
# 3 24.4062 24.9119 151.7120 0.0000 0.0000 0.0000
# 4 0.0000 0.0000 0.0000 19.4802 0.0000 0.0000
# 5 0.0000 0.0000 0.0000 0.0000 21.7261 0.0000
# 6 0.0000 0.0000 0.0000 0.0000 0.0000 40.9971
#
#
#
# Elastic Compliance Matrix: (Units=1/GPa)
#
#
# Indices 1 2 3 4 5 6 
#
# 1 0.018013 -0.004489 -0.002161 0.000000 0.000000 0.000000
# 2 -0.004489 0.014835 -0.001714 0.000000 0.000000 0.000000
# 3 -0.002161 -0.001714 0.007220 0.000000 0.000000 0.000000
# 4 0.000000 0.000000 0.000000 0.051334 0.000000 0.000000
# 5 0.000000 0.000000 0.000000 0.000000 0.046028 0.000000
# 6 0.000000 0.000000 0.000000 0.000000 0.000000 0.024392
#
#
# Mechanical properties :
#
#
# Convention : Reuss Voigt Hill
#
# Bulk Modulus (GPa) = 42.84314 48.40798 45.62556
# Shear Modulus (GPa) = 26.83413 31.18624 29.01018
#
# Velocity S-wave (km/s) = 3.65298 3.93809 3.79821
# Velocity P-wave (km/s) = 6.25282 6.68960 6.47489
#
# Compressibility (1/GPa) = 0.02334096
#
# Stress axis : x y z
#
# Youngs Moduli (GPa) = 55.51608 67.40710 138.49592
#
# Poissons Ratio (x) = 0.30262 0.29923
# Poissons Ratio (y) = 0.24923 0.23736
# Poissons Ratio (z) = 0.11995 0.11552
#
# Static dielectric constant tensor:
#      x y z
#    x 3.383020 0.000000 0.000000 
#    y 0.000000 3.671240 0.000000 
#    z 0.000000 0.000000 3.578590 
# 
# 
# High freq. dielectric constant tensor:
#      x y z
#    x 1.773410 0.000000 0.000000 
#    y 0.000000 1.784920 0.000000 
#    z 0.000000 0.000000 1.786900 
# 
# From -- ./inp_files/11080.got.cif
#   From: 2010.03.12/outbox.cif.g09.slc.cpg/sg41_6_cif.got.tgz:11080.got - 2010.04.14 01:55:53.
