data_PCOD8185816
_publ_section_title
;
Structure prediction by ZEFSAII (Michael W. Deem and Ramdas Pophale) SiO2 
 PCOD8185816
Probable space group: F M M 2
;
_chemical_formula_sum "Si O2"
_cell_formula_units_Z 104
_cell_length_a 8.885879
_cell_length_b 26.002963
_cell_length_c 24.994864
_cell_angle_alpha 90.000000
_cell_angle_beta 90.000000
_cell_angle_gamma 90.000000
_cell_volume 5775.292852
_symmetry_space_group_name_H-M "F M M 2"
_symmetry_group_IT_number 42
_symmetry_cell_setting 'orthorhombic'
loop_
_space_group_symop_operation_xyz
x,y,z
-x,-y,z
-x,y,z
x,-y,z
x,1/2+y,1/2+z
-x,1/2-y,1/2+z
-x,1/2+y,1/2+z
x,1/2-y,1/2+z
1/2+x,y,1/2+z
1/2-x,-y,1/2+z
1/2-x,y,1/2+z
1/2+x,-y,1/2+z
1/2+x,1/2+y,z
1/2-x,1/2-y,z
1/2-x,1/2+y,z
1/2+x,1/2-y,z
loop_
_atom_site_type_symbol
_atom_site_label
_atom_site_fract_x
_atom_site_fract_y
_atom_site_fract_z
Si Si1 0.180753 0.387864 0.342570
Si Si2 0.167538 0.111135 0.231943
Si Si3 0.837876 0.500000 0.346548
Si Si4 0.337759 0.500000 0.616334
Si Si5 0.675613 0.197687 0.040685
Si Si6 0.322227 0.803533 0.917540
Si Si7 0.756339 0.500000 0.231505
Si Si8 0.180341 0.111216 0.621617
O O1 0.240081 0.370809 0.284226
O O2 0.242879 0.445340 0.360033
O O3 0.245030 0.349268 0.385837
O O4 0.000000 0.387465 0.341714
O O5 0.252974 0.129693 0.178351
O O6 0.000000 0.135351 0.233510
O O7 0.149566 0.049690 0.231581
O O8 0.864637 0.500000 0.282644
O O9 0.000000 0.500000 0.375204
O O10 0.500000 0.500000 0.587439
O O11 0.364251 0.500000 0.680279
O O12 0.255662 0.445550 0.602911
O O13 0.500000 0.204666 0.048298
O O14 0.750000 0.250000 0.061339
O O15 0.735646 0.150782 0.076577
O O16 0.717740 0.186470 0.979385
O O17 0.500000 0.802353 0.906888
O O18 0.250000 0.750000 0.898192
O O19 0.000000 0.108357 0.626793
#
# Coordination Sequence:
#
# PCOD8185816 Si02
#       8
#    16  16   8   8  16  16   8  16
#     4  10  19  33  52  75 103 136 170 206 247 297
#     4  10  18  28  45  72 103 134 165 202 246 293
#     4   8  15  27  46  71 100 133 168 201 242 294
#     4   8  13  23  44  69  96 129 162 195 236 286
#     4   9  19  35  55  75  96 124 163 206 247 291
#     4  10  20  36  56  77  98 126 166 212 256 300
#     4   8  14  24  40  64  97 132 167 202 237 282
#     4   9  17  31  49  72 100 131 165 200 240 292
#
# _framework density 18.007746000000001
#
# number of rings (size 3 to 8) (size 9 to 14) (size 15 to 20)
#    0.000    2.769    0.000    1.846    0.000    4.923 
#    0.000    2.692    0.000    3.692    0.000    2.154 
#    0.000    0.000    0.000    0.000    0.000    0.000 
#
# Total GULP energy -322105.852774 kJ/mol
# GULP energy per Si atom -12388.686645 kJ/mol
# Density = 1.796676 g / cm^3
# Si number density = 18.007746 Si / 1000 Ang^3
#
#
#
# Elastic Constant Matrix: (Units=GPa)
#
#
# Indices 1 2 3 4 5 6 
#
# 1 69.7528 36.8507 32.6043 0.0000 0.0000 0.0000
# 2 36.8507 147.0340 77.2394 0.0000 0.0000 0.0000
# 3 32.6043 77.2394 86.7042 0.0000 0.0000 0.0000
# 4 0.0000 0.0000 0.0000 24.0320 0.0000 0.0000
# 5 0.0000 0.0000 0.0000 0.0000 22.4012 0.0000
# 6 0.0000 0.0000 0.0000 0.0000 0.0000 19.9957
#
#
#
# Elastic Compliance Matrix: (Units=1/GPa)
#
#
# Indices 1 2 3 4 5 6 
#
# 1 0.017633 -0.001759 -0.005063 0.000000 0.000000 0.000000
# 2 -0.001759 0.012959 -0.010883 0.000000 0.000000 0.000000
# 3 -0.005063 -0.010883 0.023132 0.000000 0.000000 0.000000
# 4 0.000000 0.000000 0.000000 0.041611 0.000000 0.000000
# 5 0.000000 0.000000 0.000000 0.000000 0.044640 0.000000
# 6 0.000000 0.000000 0.000000 0.000000 0.000000 0.050011
#
#
# Mechanical properties :
#
#
# Convention : Reuss Voigt Hill
#
# Bulk Modulus (GPa) = 54.60604 66.31998 60.46301
# Shear Modulus (GPa) = 21.59815 23.73888 22.66852
#
# Velocity S-wave (km/s) = 3.46697 3.63472 3.55183
# Velocity P-wave (km/s) = 6.81292 7.38400 7.10420
#
# Compressibility (1/GPa) = 0.01831299
#
# Stress axis : x y z
#
# Youngs Moduli (GPa) = 56.71338 77.16648 43.22978
#
# Poissons Ratio (x) = 0.13577 0.21888
# Poissons Ratio (y) = 0.09978 0.47046
# Poissons Ratio (z) = 0.28715 0.83978
#
# Static dielectric constant tensor:
#      x y z
#    x 3.117470 0.000000 0.000000 
#    y 0.000000 3.594930 0.000000 
#    z 0.000000 0.000000 3.220300 
# 
# 
# High freq. dielectric constant tensor:
#      x y z
#    x 1.684600 0.000000 0.000000 
#    y 0.000000 1.694360 0.000000 
#    z 0.000000 0.000000 1.677100 
# 
# From -- ./inp_files/28317.got.cif
#   From: 2010.03.12/outbox.cif.g09.slc.cpg/sg42_15_cif.got.tgz:28317.got - 2010.04.14 02:04:31.
