data_PCOD8185514
_publ_section_title
;
Structure prediction by ZEFSAII (Michael W. Deem and Ramdas Pophale) SiO2 
 PCOD8185514
Probable space group: A B A 2
;
_chemical_formula_sum "Si O2"
_cell_formula_units_Z 28
_cell_length_a 10.638084
_cell_length_b 10.756712
_cell_length_c 8.228558
_cell_angle_alpha 90.000000
_cell_angle_beta 90.000000
_cell_angle_gamma 90.000000
_cell_volume 941.600523
_symmetry_space_group_name_H-M "A B A 2"
_symmetry_group_IT_number 41
_symmetry_cell_setting 'orthorhombic'
loop_
_space_group_symop_operation_xyz
x,y,z
-x,-y,z
1/2-x,y,1/2+z
1/2+x,-y,1/2+z
x,1/2+y,1/2+z
-x,1/2-y,1/2+z
1/2-x,1/2+y,z
1/2+x,1/2-y,z
loop_
_atom_site_type_symbol
_atom_site_label
_atom_site_fract_x
_atom_site_fract_y
_atom_site_fract_z
Si Si1 0.261100 0.421390 0.471590
Si Si2 0.664954 0.326705 0.363106
Si Si3 0.011391 0.329035 0.162723
Si Si4 0.500000 0.500000 0.951338
O O1 0.280193 0.535868 0.344408
O O2 0.261419 0.291692 0.367861
O O3 0.377026 0.420005 0.596724
O O4 0.123757 0.454377 0.552191
O O5 0.600809 0.313735 0.539469
O O6 0.572392 0.306286 0.208006
O O7 0.962849 0.384190 0.333151
#
# Coordination Sequence:
#
# PCOD8185514 Si02
#       4
#     8   8   8   4
#     4  11  26  47  79 113 163 203 271 333 399 487
#     4  11  27  49  82 118 161 215 270 340 407 492
#     4  11  25  51  82 117 163 209 276 330 415 485
#     4  10  24  48  76 118 158 212 264 332 408 482
#
# _framework density 29.736604
#
# number of rings (size 3 to 8) (size 9 to 14) (size 15 to 20)
#    0.000    1.143    2.857    0.000   12.000    2.286 
#    0.000    2.857    0.000    0.000    0.000    0.000 
#    0.000    0.000    0.000    0.000    0.000    0.000 
#
# Total GULP energy -173437.853208 kJ/mol
# GULP energy per Si atom -12388.418086 kJ/mol
# Density = 2.966892 g / cm^3
# Si number density = 29.736604 Si / 1000 Ang^3
#
#
#
# Elastic Constant Matrix: (Units=GPa)
#
#
# Indices 1 2 3 4 5 6 
#
# 1 75.6921 21.0605 0.7236 0.0000 0.0000 0.0000
# 2 21.0605 207.9330 2.7434 0.0000 0.0000 0.0000
# 3 0.7236 2.7434 31.8961 0.0000 0.0000 0.0000
# 4 0.0000 0.0000 0.0000 30.0737 0.0000 0.0000
# 5 0.0000 0.0000 0.0000 0.0000 28.1761 0.0000
# 6 0.0000 0.0000 0.0000 0.0000 0.0000 30.4892
#
#
#
# Elastic Compliance Matrix: (Units=1/GPa)
#
#
# Indices 1 2 3 4 5 6 
#
# 1 0.013596 -0.001375 -0.000190 0.000000 0.000000 0.000000
# 2 -0.001375 0.004954 -0.000395 0.000000 0.000000 0.000000
# 3 -0.000190 -0.000395 0.031390 0.000000 0.000000 0.000000
# 4 0.000000 0.000000 0.000000 0.033252 0.000000 0.000000
# 5 0.000000 0.000000 0.000000 0.000000 0.035491 0.000000
# 6 0.000000 0.000000 0.000000 0.000000 0.000000 0.032799
#
#
# Mechanical properties :
#
#
# Convention : Reuss Voigt Hill
#
# Bulk Modulus (GPa) = 21.72959 40.50847 31.11903
# Shear Modulus (GPa) = 29.28432 37.14739 33.21585
#
# Velocity S-wave (km/s) = 3.14154 3.53826 3.34578
# Velocity P-wave (km/s) = 4.52573 5.50857 5.04116
#
# Compressibility (1/GPa) = 0.04602019
#
# Stress axis : x y z
#
# Youngs Moduli (GPa) = 73.55275 201.87047 31.85721
#
# Poissons Ratio (x) = 0.27748 0.00606
# Poissons Ratio (y) = 0.10110 0.01258
# Poissons Ratio (z) = 0.01399 0.07972
#
# Static dielectric constant tensor:
#      x y z
#    x 5.556220 0.000000 0.000000 
#    y 0.000000 6.028950 0.000000 
#    z 0.000000 0.000000 4.816220 
# 
# 
# High freq. dielectric constant tensor:
#      x y z
#    x 2.210310 0.000000 0.000000 
#    y 0.000000 2.240810 0.000000 
#    z 0.000000 0.000000 2.175690 
# 
# From -- ./inp_files/1862.got.cif
#   From: 2010.03.12/outbox.cif.g09.slc.cpg/sg41_1_cif.got.tgz:1862.got - 2010.04.14 01:55:53.
