data_PCOD8185629
_publ_section_title
;
Structure prediction by ZEFSAII (Michael W. Deem and Ramdas Pophale) SiO2 
 PCOD8185629
Probable space group: A B A 2
;
_chemical_formula_sum "Si O2"
_cell_formula_units_Z 40
_cell_length_a 10.032985
_cell_length_b 9.066076
_cell_length_c 18.997789
_cell_angle_alpha 90.000000
_cell_angle_beta 90.000000
_cell_angle_gamma 90.000000
_cell_volume 1728.035174
_symmetry_space_group_name_H-M "A B A 2"
_symmetry_group_IT_number 41
_symmetry_cell_setting 'orthorhombic'
loop_
_space_group_symop_operation_xyz
x,y,z
-x,-y,z
1/2-x,y,1/2+z
1/2+x,-y,1/2+z
x,1/2+y,1/2+z
-x,1/2-y,1/2+z
1/2-x,1/2+y,z
1/2+x,1/2-y,z
loop_
_atom_site_type_symbol
_atom_site_label
_atom_site_fract_x
_atom_site_fract_y
_atom_site_fract_z
Si Si1 0.800827 0.370973 0.670010
Si Si2 0.970564 0.837139 0.717130
Si Si3 0.373496 0.091465 0.514629
Si Si4 0.635680 0.080342 0.795489
Si Si5 0.139894 0.417182 0.949954
O O1 0.643717 0.334086 0.654994
O O2 0.876427 0.413688 0.599342
O O3 0.794478 0.500834 0.729056
O O4 0.887418 0.233417 0.698300
O O5 0.894977 0.751044 0.779252
O O6 0.000000 0.000000 0.744514
O O7 0.377048 0.254113 0.481911
O O8 0.500000 0.000000 0.486423
O O9 0.238075 0.009086 0.497691
O O10 0.708009 0.084380 0.871489
O O11 0.500000 0.000000 0.810640
O O12 0.000000 0.500000 0.951786
#
# Coordination Sequence:
#
# PCOD8185629 Si02
#       5
#     8   8   8   8   8
#     4  11  26  45  73 107 143 184 241 297 353 427
#     4  11  24  42  73 107 138 184 237 293 355 416
#     4  12  28  47  74 107 147 190 242 299 366 433
#     4   9  22  47  68 102 143 183 237 293 348 429
#     4  11  27  49  73 105 149 193 239 294 369 439
#
# _framework density 23.147677000000002
#
# number of rings (size 3 to 8) (size 9 to 14) (size 15 to 20)
#    0.000    1.200    0.000    4.200   14.000    0.800 
#    7.200    0.000    0.000    0.000    0.000    0.000 
#    0.000    0.000    0.000    0.000    0.000    0.000 
#
# Total GULP energy -247779.211530 kJ/mol
# GULP energy per Si atom -12388.960577 kJ/mol
# Density = 2.309499 g / cm^3
# Si number density = 23.147677 Si / 1000 Ang^3
#
#
#
# Elastic Constant Matrix: (Units=GPa)
#
#
# Indices 1 2 3 4 5 6 
#
# 1 105.9369 55.9458 2.5343 0.0000 0.0000 0.0000
# 2 55.9458 194.6188 59.0814 0.0000 0.0000 0.0000
# 3 2.5343 59.0814 128.3857 0.0000 0.0000 0.0000
# 4 0.0000 0.0000 0.0000 -572.5989 0.0000 0.0000
# 5 0.0000 0.0000 0.0000 0.0000 -23.7320 0.0000
# 6 0.0000 0.0000 0.0000 0.0000 0.0000 34.0456
#
#
#
# Elastic Compliance Matrix: (Units=1/GPa)
#
#
# Indices 1 2 3 4 5 6 
#
# 1 0.011368 -0.003719 0.001487 0.000000 0.000000 0.000000
# 2 -0.003719 0.007190 -0.003235 0.000000 0.000000 0.000000
# 3 0.001487 -0.003235 0.009248 0.000000 0.000000 0.000000
# 4 0.000000 0.000000 0.000000 -0.001746 0.000000 0.000000
# 5 0.000000 0.000000 0.000000 0.000000 -0.042137 0.000000
# 6 0.000000 0.000000 0.000000 0.000000 0.000000 0.029372
#
#
# Mechanical properties :
#
#
# Convention : Reuss Voigt Hill
#
# Bulk Modulus (GPa) = 59.27123 73.78494 66.52808
# Shear Modulus (GPa) = 167.48423 -91.69841 37.89291
#
# Velocity S-wave (km/s) = 8.51538 -6.30084 4.05038
# Velocity P-wave (km/s) = 11.06090 4.58138 7.11880
#
# Compressibility (1/GPa) = 0.01687159
#
# Stress axis : x y z
#
# Youngs Moduli (GPa) = 87.96415 139.09053 108.12639
#
# Poissons Ratio (x) = 0.51734 -0.16081
# Poissons Ratio (y) = 0.32718 0.34980
# Poissons Ratio (z) = -0.13082 0.44998
#
# Static dielectric constant tensor:
#      x y z
#    x 5.065020 0.000000 0.000000 
#    y 0.000000 7.424700 0.000000 
#    z 0.000000 0.000000 4.342970 
# 
# 
# High freq. dielectric constant tensor:
#      x y z
#    x 1.927280 0.000000 0.000000 
#    y 0.000000 1.931150 0.000000 
#    z 0.000000 0.000000 1.903450 
# 
# From -- ./inp_files/11350.got.cif
#   From: 2010.03.12/outbox.cif.g09.slc.cpg/sg41_6_cif.got.tgz:11350.got - 2010.04.14 01:55:53.
