data_PCOD8185734
_publ_section_title
;
Structure prediction by ZEFSAII (Michael W. Deem and Ramdas Pophale) SiO2 
 PCOD8185734
Probable space group: A B A 2
;
_chemical_formula_sum "Si O2"
_cell_formula_units_Z 32
_cell_length_a 28.275372
_cell_length_b 8.194410
_cell_length_c 4.865359
_cell_angle_alpha 90.000000
_cell_angle_beta 90.000000
_cell_angle_gamma 90.000000
_cell_volume 1127.303637
_symmetry_space_group_name_H-M "A B A 2"
_symmetry_group_IT_number 41
_symmetry_cell_setting 'orthorhombic'
loop_
_space_group_symop_operation_xyz
x,y,z
-x,-y,z
1/2-x,y,1/2+z
1/2+x,-y,1/2+z
x,1/2+y,1/2+z
-x,1/2-y,1/2+z
1/2-x,1/2+y,z
1/2+x,1/2-y,z
loop_
_atom_site_type_symbol
_atom_site_label
_atom_site_fract_x
_atom_site_fract_y
_atom_site_fract_z
Si Si1 0.532082 0.762286 0.082710
Si Si2 0.906397 0.052326 0.443527
Si Si3 0.718031 0.512113 0.809561
Si Si4 0.841557 0.306031 0.683467
O O1 0.485212 0.770315 0.272478
O O2 0.566800 0.615998 0.171671
O O3 0.558634 0.935101 0.110718
O O4 0.889958 0.205853 0.626536
O O5 0.857443 0.959341 0.368616
O O6 0.765281 0.492372 0.994927
O O7 0.680552 0.372970 0.897582
O O8 0.695571 0.692316 0.846694
#
# Coordination Sequence:
#
# PCOD8185734 Si02
#       4
#     8   8   8   8
#     4  12  29  52  79 114 154 202 256 316 381 456
#     4  12  28  50  78 113 154 202 254 315 382 454
#     4  12  27  50  78 113 153 202 255 315 380 454
#     4  12  27  50  77 112 154 200 254 314 381 454
#
# _framework density 28.386319
#
# number of rings (size 3 to 8) (size 9 to 14) (size 15 to 20)
#    0.000    0.000    0.000    8.250    0.000   16.000 
#    0.000    0.000    0.000    0.000    0.000    0.000 
#    0.000    0.000    0.000    0.000    0.000    0.000 
#
# Total GULP energy -198562.914622 kJ/mol
# GULP energy per Si atom -12410.182164 kJ/mol
# Density = 2.832171 g / cm^3
# Si number density = 28.386319 Si / 1000 Ang^3
#
#
#
# Elastic Constant Matrix: (Units=GPa)
#
#
# Indices 1 2 3 4 5 6 
#
# 1 74.1938 19.2409 -27.7673 0.0000 0.0000 0.0000
# 2 19.2409 141.4871 3.7899 0.0000 0.0000 0.0000
# 3 -27.7673 3.7899 45.8991 0.0000 0.0000 0.0000
# 4 0.0000 0.0000 0.0000 46.8765 0.0000 0.0000
# 5 0.0000 0.0000 0.0000 0.0000 12.3710 0.0000
# 6 0.0000 0.0000 0.0000 0.0000 0.0000 7.5858
#
#
#
# Elastic Compliance Matrix: (Units=1/GPa)
#
#
# Indices 1 2 3 4 5 6 
#
# 1 0.018481 -0.002819 0.011413 0.000000 0.000000 0.000000
# 2 -0.002819 0.007513 -0.002326 0.000000 0.000000 0.000000
# 3 0.011413 -0.002326 0.028883 0.000000 0.000000 0.000000
# 4 0.000000 0.000000 0.000000 0.021333 0.000000 0.000000
# 5 0.000000 0.000000 0.000000 0.000000 0.080834 0.000000
# 6 0.000000 0.000000 0.000000 0.000000 0.000000 0.131825
#
#
# Mechanical properties :
#
#
# Convention : Reuss Voigt Hill
#
# Bulk Modulus (GPa) = 14.83381 28.01190 21.42285
# Shear Modulus (GPa) = 16.73340 31.12111 23.92726
#
# Velocity S-wave (km/s) = 2.43057 3.31470 2.90645
# Velocity P-wave (km/s) = 3.62132 4.95370 4.33896
#
# Compressibility (1/GPa) = 0.06741358
#
# Stress axis : x y z
#
# Youngs Moduli (GPa) = 54.11108 133.09525 34.62215
#
# Poissons Ratio (x) = 0.37518 -0.39513
# Poissons Ratio (y) = 0.15253 0.08052
# Poissons Ratio (z) = -0.61756 0.30954
#
# Static dielectric constant tensor:
#      x y z
#    x 5.256530 0.000000 0.000000 
#    y 0.000000 5.340500 0.000000 
#    z 0.000000 0.000000 4.728960 
# 
# 
# High freq. dielectric constant tensor:
#      x y z
#    x 2.177360 0.000000 0.000000 
#    y 0.000000 2.164300 0.000000 
#    z 0.000000 0.000000 2.136010 
# 
# From -- ./inp_files/1262.got.cif
#   From: 2010.03.12/outbox.cif.g09.slc.cpg/sg41_1_cif.got.tgz:1262.got - 2010.04.14 01:55:53.
