data_PCOD8185175
_publ_section_title
;
Structure prediction by ZEFSAII (Michael W. Deem and Ramdas Pophale) SiO2 
 PCOD8185175
Probable space group: A B A 2
;
_chemical_formula_sum "Si O2"
_cell_formula_units_Z 60
_cell_length_a 11.344463
_cell_length_b 16.878241
_cell_length_c 14.355287
_cell_angle_alpha 90.000000
_cell_angle_beta 90.000000
_cell_angle_gamma 90.000000
_cell_volume 2748.672557
_symmetry_space_group_name_H-M "A B A 2"
_symmetry_group_IT_number 41
_symmetry_cell_setting 'orthorhombic'
loop_
_space_group_symop_operation_xyz
x,y,z
-x,-y,z
1/2-x,y,1/2+z
1/2+x,-y,1/2+z
x,1/2+y,1/2+z
-x,1/2-y,1/2+z
1/2-x,1/2+y,z
1/2+x,1/2-y,z
loop_
_atom_site_type_symbol
_atom_site_label
_atom_site_fract_x
_atom_site_fract_y
_atom_site_fract_z
Si Si1 0.124473 0.876483 0.518840
Si Si2 0.223202 0.740280 0.971184
Si Si3 0.869489 0.380183 0.114729
Si Si4 0.750020 0.033124 0.367156
Si Si5 0.822639 0.860178 0.823654
Si Si6 0.743888 0.038831 0.664090
Si Si7 0.041969 0.377338 0.453217
Si Si8 0.500000 0.500000 0.098513
O O1 0.153529 0.786827 0.488111
O O2 0.137742 0.936655 0.429213
O O3 0.000457 0.881227 0.571172
O O4 0.232390 0.891802 0.590806
O O5 0.237376 0.706899 0.866248
O O6 0.108275 0.795382 0.976228
O O7 0.213956 0.667720 0.043877
O O8 0.854833 0.340650 0.216592
O O9 0.834294 0.471202 0.128692
O O10 0.632366 0.054160 0.422375
O O11 0.752171 0.940437 0.341311
O O12 0.738425 0.075673 0.266720
O O13 0.947120 0.861483 0.874702
O O14 0.612370 0.005761 0.664366
O O15 0.981347 0.417621 0.542417
#
# Coordination Sequence:
#
# PCOD8185175 Si02
#       8
#     8   8   8   8   8   8   8   4
#     4  11  22  44  67  94 131 172 220 278 321 387
#     4  11  24  40  61  95 134 172 218 263 335 394
#     4  11  25  41  66  96 134 174 211 270 332 400
#     4  10  21  40  66  95 123 165 223 274 326 388
#     4  11  22  41  64  94 131 171 219 267 330 397
#     4  11  23  41  65  99 124 168 223 269 334 388
#     4  11  20  40  69  90 124 180 219 269 326 394
#     4  12  20  42  66  92 128 172 216 274 320 388
#
# _framework density 21.828719
#
# number of rings (size 3 to 8) (size 9 to 14) (size 15 to 20)
#    0.000    1.067    4.000    3.600    0.000    5.333 
#    7.200    1.333    0.000    0.000    0.000    0.000 
#    0.000    0.000    0.000    0.000    0.000    0.000 
#
# Total GULP energy -371814.358395 kJ/mol
# GULP energy per Si atom -12393.811946 kJ/mol
# Density = 2.177904 g / cm^3
# Si number density = 21.828719 Si / 1000 Ang^3
#
#
#
# Elastic Constant Matrix: (Units=GPa)
#
#
# Indices 1 2 3 4 5 6 
#
# 1 84.4936 19.3229 27.7203 0.0000 0.0000 0.0000
# 2 19.3229 61.6803 42.4390 0.0000 0.0000 0.0000
# 3 27.7203 42.4390 135.5708 0.0000 0.0000 0.0000
# 4 0.0000 0.0000 0.0000 23.0640 0.0000 0.0000
# 5 0.0000 0.0000 0.0000 0.0000 35.7462 0.0000
# 6 0.0000 0.0000 0.0000 0.0000 0.0000 22.0417
#
#
#
# Elastic Compliance Matrix: (Units=1/GPa)
#
#
# Indices 1 2 3 4 5 6 
#
# 1 0.013075 -0.002876 -0.001773 0.000000 0.000000 0.000000
# 2 -0.002876 0.021296 -0.006078 0.000000 0.000000 0.000000
# 3 -0.001773 -0.006078 0.009642 0.000000 0.000000 0.000000
# 4 0.000000 0.000000 0.000000 0.043358 0.000000 0.000000
# 5 0.000000 0.000000 0.000000 0.000000 0.027975 0.000000
# 6 0.000000 0.000000 0.000000 0.000000 0.000000 0.045369
#
#
# Mechanical properties :
#
#
# Convention : Reuss Voigt Hill
#
# Bulk Modulus (GPa) = 44.33195 51.18989 47.76092
# Shear Modulus (GPa) = 26.35921 28.98790 27.67355
#
# Velocity S-wave (km/s) = 3.47875 3.64809 3.56442
# Velocity P-wave (km/s) = 6.04059 6.42233 6.23438
#
# Compressibility (1/GPa) = 0.02255709
#
# Stress axis : x y z
#
# Youngs Moduli (GPa) = 76.48402 46.95756 103.71798
#
# Poissons Ratio (x) = 0.13505 0.18390
# Poissons Ratio (y) = 0.21997 0.63044
# Poissons Ratio (z) = 0.13561 0.28543
#
# Static dielectric constant tensor:
#      x y z
#    x 3.779180 0.000000 0.000000 
#    y 0.000000 3.937910 0.000000 
#    z 0.000000 0.000000 4.138010 
# 
# 
# High freq. dielectric constant tensor:
#      x y z
#    x 1.853400 0.000000 0.000000 
#    y 0.000000 1.854030 0.000000 
#    z 0.000000 0.000000 1.867160 
# 
# From -- ./inp_files/8061.got.cif
#   From: 2010.03.12/outbox.cif.g09.slc.cpg/sg41_5_cif.got.tgz:8061.got - 2010.04.14 01:55:53.
