data_PCOD8185381
_publ_section_title
;
Structure prediction by ZEFSAII (Michael W. Deem and Ramdas Pophale) SiO2 
 PCOD8185381
Probable space group: A B A 2
;
_chemical_formula_sum "Si O2"
_cell_formula_units_Z 64
_cell_length_a 28.445292
_cell_length_b 9.461546
_cell_length_c 11.022577
_cell_angle_alpha 90.000000
_cell_angle_beta 90.000000
_cell_angle_gamma 90.000000
_cell_volume 2966.577120
_symmetry_space_group_name_H-M "A B A 2"
_symmetry_group_IT_number 41
_symmetry_cell_setting 'orthorhombic'
loop_
_space_group_symop_operation_xyz
x,y,z
-x,-y,z
1/2-x,y,1/2+z
1/2+x,-y,1/2+z
x,1/2+y,1/2+z
-x,1/2-y,1/2+z
1/2-x,1/2+y,z
1/2+x,1/2-y,z
loop_
_atom_site_type_symbol
_atom_site_label
_atom_site_fract_x
_atom_site_fract_y
_atom_site_fract_z
Si Si1 0.665669 0.817312 0.697640
Si Si2 0.294273 0.316749 0.474100
Si Si3 0.121563 0.750181 0.309703
Si Si4 0.126251 0.923508 0.086375
Si Si5 0.743645 0.930973 0.857306
Si Si6 0.478605 0.849664 0.532123
Si Si7 0.485174 0.337488 0.309402
Si Si8 0.658947 0.046354 0.332526
O O1 0.701712 0.739084 0.608811
O O2 0.624758 0.915857 0.640808
O O3 0.698777 0.924080 0.770731
O O4 0.640843 0.692019 0.773193
O O5 0.346602 0.303298 0.419704
O O6 0.256648 0.224641 0.400181
O O7 0.274360 0.475112 0.470904
O O8 0.070152 0.814981 0.331163
O O9 0.121545 0.578673 0.303277
O O10 0.143510 0.810194 0.185054
O O11 0.076697 0.874603 0.035040
O O12 0.163250 0.927880 0.976909
O O13 0.788779 0.000909 0.790357
O O14 0.488722 0.747470 0.417268
O O15 0.496014 0.793260 0.666937
O O16 0.500000 0.000000 0.500134
O O17 0.500000 0.500000 0.325443
#
# Coordination Sequence:
#
# PCOD8185381 Si02
#       8
#     8   8   8   8   8   8   8   8
#     4  12  25  41  66  93 134 182 225 283 336 401
#     4  11  24  41  65  93 131 175 224 282 329 400
#     4  10  22  45  67  94 140 171 225 285 338 415
#     4  11  23  44  66  97 136 173 224 285 340 403
#     4  11  23  41  60  95 128 175 228 271 336 393
#     4  10  23  43  72 101 140 178 221 290 348 429
#     4  10  23  46  71 103 135 181 227 281 359 425
#     4  11  25  41  63  99 127 182 224 277 343 401
#
# _framework density 21.573685000000001
#
# number of rings (size 3 to 8) (size 9 to 14) (size 15 to 20)
#    0.000    1.250    5.000    0.750    1.750    6.500 
#    4.500    0.000    0.000    0.000    0.000    0.000 
#    0.000    0.000    0.000    0.000    0.000    0.000 
#
# Total GULP energy -396568.163961 kJ/mol
# GULP energy per Si atom -12392.755124 kJ/mol
# Density = 2.152458 g / cm^3
# Si number density = 21.573685 Si / 1000 Ang^3
#
#
#
# Elastic Constant Matrix: (Units=GPa)
#
#
# Indices 1 2 3 4 5 6 
#
# 1 74.2071 48.2112 19.2523 0.0000 0.0000 0.0000
# 2 48.2112 110.2708 61.9897 0.0000 0.0000 0.0000
# 3 19.2523 61.9897 103.2935 0.0000 0.0000 0.0000
# 4 0.0000 0.0000 0.0000 51.8954 0.0000 0.0000
# 5 0.0000 0.0000 0.0000 0.0000 21.1646 0.0000
# 6 0.0000 0.0000 0.0000 0.0000 0.0000 28.6604
#
#
#
# Elastic Compliance Matrix: (Units=1/GPa)
#
#
# Indices 1 2 3 4 5 6 
#
# 1 0.019147 -0.009606 0.002196 0.000000 0.000000 0.000000
# 2 -0.009606 0.018505 -0.009315 0.000000 0.000000 0.000000
# 3 0.002196 -0.009315 0.014862 0.000000 0.000000 0.000000
# 4 0.000000 0.000000 0.000000 0.019270 0.000000 0.000000
# 5 0.000000 0.000000 0.000000 0.000000 0.047249 0.000000
# 6 0.000000 0.000000 0.000000 0.000000 0.000000 0.034891
#
#
# Mechanical properties :
#
#
# Convention : Reuss Voigt Hill
#
# Bulk Modulus (GPa) = 52.45390 60.74197 56.59793
# Shear Modulus (GPa) = 25.80955 30.89861 28.35408
#
# Velocity S-wave (km/s) = 3.46257 3.78860 3.62925
# Velocity P-wave (km/s) = 6.35236 6.88147 6.62220
#
# Compressibility (1/GPa) = 0.01906436
#
# Stress axis : x y z
#
# Youngs Moduli (GPa) = 52.22848 54.04041 67.28544
#
# Poissons Ratio (x) = 0.51909 -0.14776
# Poissons Ratio (y) = 0.50168 0.62676
# Poissons Ratio (z) = -0.11469 0.50338
#
# Static dielectric constant tensor:
#      x y z
#    x 3.577050 0.000000 0.000000 
#    y 0.000000 4.053030 0.000000 
#    z 0.000000 0.000000 4.116950 
# 
# 
# High freq. dielectric constant tensor:
#      x y z
#    x 1.836430 0.000000 0.000000 
#    y 0.000000 1.854180 0.000000 
#    z 0.000000 0.000000 1.849440 
# 
# From -- ./inp_files/6655.got.cif
#   From: 2010.03.12/outbox.cif.g09.slc.cpg/sg41_4_cif.got.tgz:6655.got - 2010.04.14 01:55:53.
