data_PCOD8185752
_publ_section_title
;
Structure prediction by ZEFSAII (Michael W. Deem and Ramdas Pophale) SiO2 
 PCOD8185752
Probable space group: F M M 2
;
_chemical_formula_sum "Si O2"
_cell_formula_units_Z 112
_cell_length_a 16.401783
_cell_length_b 16.338246
_cell_length_c 23.136426
_cell_angle_alpha 90.000000
_cell_angle_beta 90.000000
_cell_angle_gamma 90.000000
_cell_volume 6200.015350
_symmetry_space_group_name_H-M "F M M 2"
_symmetry_group_IT_number 42
_symmetry_cell_setting 'orthorhombic'
loop_
_space_group_symop_operation_xyz
x,y,z
-x,-y,z
-x,y,z
x,-y,z
x,1/2+y,1/2+z
-x,1/2-y,1/2+z
-x,1/2+y,1/2+z
x,1/2-y,1/2+z
1/2+x,y,1/2+z
1/2-x,-y,1/2+z
1/2-x,y,1/2+z
1/2+x,-y,1/2+z
1/2+x,1/2+y,z
1/2-x,1/2-y,z
1/2-x,1/2+y,z
1/2+x,1/2-y,z
loop_
_atom_site_type_symbol
_atom_site_label
_atom_site_fract_x
_atom_site_fract_y
_atom_site_fract_z
Si Si1 0.905573 0.406161 0.483130
Si Si2 0.907916 0.177138 0.662532
Si Si3 0.751784 0.089471 0.172568
Si Si4 0.340698 0.091696 0.358233
Si Si5 0.178347 0.588777 0.799419
Si Si6 0.651823 0.241446 0.279594
Si Si7 0.170430 0.794859 0.080983
O O1 0.892186 0.500000 0.501472
O O2 0.859660 0.385695 0.423950
O O3 0.869256 0.350196 0.532701
O O4 0.000000 0.385910 0.474417
O O5 0.845095 0.101814 0.663758
O O6 0.889331 0.234454 0.717446
O O7 0.895470 0.229551 0.603919
O O8 0.000000 0.143619 0.663849
O O9 0.769765 0.097913 0.240311
O O10 0.803776 0.153931 0.137108
O O11 0.774617 0.000000 0.149326
O O12 0.243083 0.089220 0.351684
O O13 0.377747 0.164442 0.318428
O O14 0.376449 0.000000 0.342964
O O15 0.131428 0.500000 0.799872
O O16 0.120782 0.669468 0.805037
O O17 0.750000 0.250000 0.276187
O O18 0.250000 0.750000 0.054735
#
# Coordination Sequence:
#
# PCOD8185752 Si02
#       7
#    16  16  16  16  16  16  16
#     4  10  21  37  54  77 110 141 173 220 272 320
#     4  11  20  30  46  74 108 137 171 216 267 325
#     4  10  18  32  52  73  99 136 179 222 260 309
#     4   9  18  30  48  75 104 135 170 209 261 320
#     4   9  16  29  51  74  99 133 178 222 258 301
#     4  10  16  31  50  70 102 136 180 216 256 308
#     4  10  20  35  54  74 101 137 186 220 258 309
#
# _framework density 18.064471999999999
#
# number of rings (size 3 to 8) (size 9 to 14) (size 15 to 20)
#    0.000    2.143    4.286    1.286    0.000    2.571 
#    0.000    0.000    0.000    1.286    0.000    0.000 
#    0.000    5.714    0.000    0.000    0.000    0.000 
#
# Total GULP energy -346931.892745 kJ/mol
# GULP energy per Si atom -12390.424741 kJ/mol
# Density = 1.802336 g / cm^3
# Si number density = 18.064472 Si / 1000 Ang^3
#
#
#
# Elastic Constant Matrix: (Units=GPa)
#
#
# Indices 1 2 3 4 5 6 
#
# 1 32.4784 -0.5053 18.2815 0.0000 0.0000 0.0000
# 2 -0.5053 110.9816 27.5944 0.0000 0.0000 0.0000
# 3 18.2815 27.5944 84.2042 0.0000 0.0000 0.0000
# 4 0.0000 0.0000 0.0000 31.5093 0.0000 0.0000
# 5 0.0000 0.0000 0.0000 0.0000 13.5132 0.0000
# 6 0.0000 0.0000 0.0000 0.0000 0.0000 14.0920
#
#
#
# Elastic Compliance Matrix: (Units=1/GPa)
#
#
# Indices 1 2 3 4 5 6 
#
# 1 0.035593 0.002268 -0.008471 0.000000 0.000000 0.000000
# 2 0.002268 0.009954 -0.003755 0.000000 0.000000 0.000000
# 3 -0.008471 -0.003755 0.014945 0.000000 0.000000 0.000000
# 4 0.000000 0.000000 0.000000 0.031737 0.000000 0.000000
# 5 0.000000 0.000000 0.000000 0.000000 0.074002 0.000000
# 6 0.000000 0.000000 0.000000 0.000000 0.000000 0.070962
#
#
# Mechanical properties :
#
#
# Convention : Reuss Voigt Hill
#
# Bulk Modulus (GPa) = 24.64363 35.37837 30.01100
# Shear Modulus (GPa) = 18.47510 23.97579 21.22545
#
# Velocity S-wave (km/s) = 3.20149 3.64708 3.43152
# Velocity P-wave (km/s) = 5.22855 6.11244 5.68769
#
# Compressibility (1/GPa) = 0.04057843
#
# Stress axis : x y z
#
# Youngs Moduli (GPa) = 28.09531 100.45843 66.91014
#
# Poissons Ratio (x) = -0.22787 0.56679
# Poissons Ratio (y) = -0.06373 0.25122
# Poissons Ratio (z) = 0.23799 0.37718
#
# Static dielectric constant tensor:
#      x y z
#    x 3.004200 0.000000 0.000000 
#    y 0.000000 4.008750 0.000000 
#    z 0.000000 0.000000 3.144420 
# 
# 
# High freq. dielectric constant tensor:
#      x y z
#    x 1.658180 0.000000 0.000000 
#    y 0.000000 1.720200 0.000000 
#    z 0.000000 0.000000 1.681700 
# 
# From -- ./inp_files/26041.got.cif
#   From: 2010.03.12/outbox.cif.g09.slc.cpg/sg42_14_cif.got.tgz:26041.got - 2010.04.14 02:04:31.
