data_PCOD8185434
_publ_section_title
;
Structure prediction by ZEFSAII (Michael W. Deem and Ramdas Pophale) SiO2 
 PCOD8185434
Probable space group: A B A 2
;
_chemical_formula_sum "Si O2"
_cell_formula_units_Z 64
_cell_length_a 15.698677
_cell_length_b 20.322085
_cell_length_c 9.265693
_cell_angle_alpha 90.000000
_cell_angle_beta 90.000000
_cell_angle_gamma 90.000000
_cell_volume 2956.032633
_symmetry_space_group_name_H-M "A B A 2"
_symmetry_group_IT_number 41
_symmetry_cell_setting 'orthorhombic'
loop_
_space_group_symop_operation_xyz
x,y,z
-x,-y,z
1/2-x,y,1/2+z
1/2+x,-y,1/2+z
x,1/2+y,1/2+z
-x,1/2-y,1/2+z
1/2-x,1/2+y,z
1/2+x,1/2-y,z
loop_
_atom_site_type_symbol
_atom_site_label
_atom_site_fract_x
_atom_site_fract_y
_atom_site_fract_z
Si Si1 0.841478 0.140149 0.252730
Si Si2 0.578359 0.845097 0.159621
Si Si3 0.219473 0.565871 0.060736
Si Si4 0.259786 0.976259 0.312996
Si Si5 0.533865 0.699761 0.070106
Si Si6 0.650336 0.830421 0.466995
Si Si7 0.905058 0.131042 0.787674
Si Si8 0.791970 0.696923 0.056067
O O1 0.815209 0.064202 0.230763
O O2 0.939037 0.159717 0.217893
O O3 0.809552 0.154557 0.413267
O O4 0.798667 0.183145 0.126135
O O5 0.634035 0.889080 0.046977
O O6 0.546166 0.778291 0.083545
O O7 0.637944 0.826724 0.295299
O O8 0.497544 0.887596 0.219743
O O9 0.221869 0.542930 0.226281
O O10 0.306354 0.602684 0.018752
O O11 0.219287 0.499359 0.964991
O O12 0.347030 0.933111 0.321456
O O13 0.435992 0.681692 0.053405
O O14 0.585227 0.672743 0.932753
O O15 0.713708 0.772504 0.512017
O O16 0.862779 0.179929 0.673544
#
# Coordination Sequence:
#
# PCOD8185434 Si02
#       8
#     8   8   8   8   8   8   8   8
#     4  11  22  40  68  99 128 182 222 283 326 412
#     4  11  23  45  69 103 138 172 229 288 366 414
#     4  12  25  45  67  97 135 190 224 284 333 417
#     4  11  24  45  67  95 138 179 246 263 333 412
#     4  11  22  43  71 100 136 168 226 283 371 412
#     4  11  24  42  64 101 139 170 218 289 353 419
#     4  10  23  43  71 100 134 182 218 296 338 422
#     4  11  21  39  66  99 134 166 223 277 357 394
#
# _framework density 21.650641
#
# number of rings (size 3 to 8) (size 9 to 14) (size 15 to 20)
#    0.000    1.000    3.750    4.500    0.000    1.500 
#    2.250    1.875    0.000    0.000    0.000    0.000 
#    0.000    0.000    0.000    0.000    0.000    0.000 
#
# Total GULP energy -396669.325455 kJ/mol
# GULP energy per Si atom -12395.916420 kJ/mol
# Density = 2.160136 g / cm^3
# Si number density = 21.650641 Si / 1000 Ang^3
#
#
#
# Elastic Constant Matrix: (Units=GPa)
#
#
# Indices 1 2 3 4 5 6 
#
# 1 84.3597 53.3567 38.0442 0.0000 0.0000 0.0000
# 2 53.3567 109.0081 29.8667 0.0000 0.0000 0.0000
# 3 38.0442 29.8667 84.0633 0.0000 0.0000 0.0000
# 4 0.0000 0.0000 0.0000 40.2608 0.0000 0.0000
# 5 0.0000 0.0000 0.0000 0.0000 32.5336 0.0000
# 6 0.0000 0.0000 0.0000 0.0000 0.0000 32.7014
#
#
#
# Elastic Compliance Matrix: (Units=1/GPa)
#
#
# Indices 1 2 3 4 5 6 
#
# 1 0.019603 -0.007937 -0.006052 0.000000 0.000000 0.000000
# 2 -0.007937 0.013377 -0.001160 0.000000 0.000000 0.000000
# 3 -0.006052 -0.001160 0.015047 0.000000 0.000000 0.000000
# 4 0.000000 0.000000 0.000000 0.024838 0.000000 0.000000
# 5 0.000000 0.000000 0.000000 0.000000 0.030737 0.000000
# 6 0.000000 0.000000 0.000000 0.000000 0.000000 0.030580
#
#
# Mechanical properties :
#
#
# Convention : Reuss Voigt Hill
#
# Bulk Modulus (GPa) = 56.40801 57.77403 57.09102
# Shear Modulus (GPa) = 29.34431 31.51007 30.42719
#
# Velocity S-wave (km/s) = 3.68551 3.81909 3.75290
# Velocity P-wave (km/s) = 6.64988 6.79632 6.72350
#
# Compressibility (1/GPa) = 0.01772798
#
# Stress axis : x y z
#
# Youngs Moduli (GPa) = 51.01131 74.75704 66.45860
#
# Poissons Ratio (x) = 0.59337 0.40220
# Poissons Ratio (y) = 0.40489 0.07712
# Poissons Ratio (z) = 0.30871 0.08675
#
# Static dielectric constant tensor:
#      x y z
#    x 4.053370 0.000000 0.000000 
#    y 0.000000 3.848640 0.000000 
#    z 0.000000 0.000000 3.957040 
# 
# 
# High freq. dielectric constant tensor:
#      x y z
#    x 1.849600 0.000000 0.000000 
#    y 0.000000 1.846340 0.000000 
#    z 0.000000 0.000000 1.858980 
# 
# From -- ./inp_files/3224.got.cif
#   From: 2010.03.12/outbox.cif.g09.slc.cpg/sg41_2_cif.got.tgz:3224.got - 2010.04.14 01:55:53.
