data_PCOD8185592
_publ_section_title
;
Structure prediction by ZEFSAII (Michael W. Deem and Ramdas Pophale) SiO2 
 PCOD8185592
Probable space group: A B A 2
;
_chemical_formula_sum "Si O2"
_cell_formula_units_Z 56
_cell_length_a 18.189573
_cell_length_b 12.185098
_cell_length_c 11.369218
_cell_angle_alpha 90.000000
_cell_angle_beta 90.000000
_cell_angle_gamma 90.000000
_cell_volume 2519.893142
_symmetry_space_group_name_H-M "A B A 2"
_symmetry_group_IT_number 41
_symmetry_cell_setting 'orthorhombic'
loop_
_space_group_symop_operation_xyz
x,y,z
-x,-y,z
1/2-x,y,1/2+z
1/2+x,-y,1/2+z
x,1/2+y,1/2+z
-x,1/2-y,1/2+z
1/2-x,1/2+y,z
1/2+x,1/2-y,z
loop_
_atom_site_type_symbol
_atom_site_label
_atom_site_fract_x
_atom_site_fract_y
_atom_site_fract_z
Si Si1 0.608293 0.259338 0.229340
Si Si2 0.314845 0.129516 0.944719
Si Si3 0.007422 0.616783 0.358357
Si Si4 0.012937 0.384604 0.621572
Si Si5 0.674124 0.868768 0.318351
Si Si6 0.805408 0.553514 0.131025
Si Si7 0.169154 0.306768 0.636499
O O1 0.649810 0.348155 0.314934
O O2 0.540836 0.208734 0.299765
O O3 0.564226 0.321520 0.128004
O O4 0.655811 0.170076 0.157761
O O5 0.226677 0.124059 0.931413
O O6 0.336415 0.235661 0.018455
O O7 0.335338 0.014985 0.015249
O O8 0.092060 0.652695 0.361960
O O9 0.000000 0.500000 0.289534
O O10 0.970533 0.598703 0.484605
O O11 0.086176 0.332722 0.677433
O O12 0.000000 0.500000 0.686631
O O13 0.703504 0.767347 0.239840
O O14 0.681925 0.981021 0.245815
O O15 0.718967 0.584703 0.115747
#
# Coordination Sequence:
#
# PCOD8185592 Si02
#       7
#     8   8   8   8   8   8   8
#     4  12  24  50  68 102 146 181 229 299 355 411
#     4  11  27  44  69 104 137 181 238 286 352 426
#     4  11  23  43  74  97 133 184 227 280 359 419
#     4  11  27  43  70 101 140 178 235 284 351 435
#     4  11  24  44  70 100 134 181 232 287 351 423
#     4  11  27  43  72 100 138 182 238 287 350 435
#     4  11  24  46  66 102 135 181 231 287 349 423
#
# _framework density 22.223165999999999
#
# number of rings (size 3 to 8) (size 9 to 14) (size 15 to 20)
#    0.000    0.857    5.714    0.000   10.000    0.000 
#    2.571    0.000    0.000    0.000    0.000    0.000 
#    0.000    0.000    0.000    0.000    0.000    0.000 
#
# Total GULP energy -346929.854860 kJ/mol
# GULP energy per Si atom -12390.351959 kJ/mol
# Density = 2.217258 g / cm^3
# Si number density = 22.223166 Si / 1000 Ang^3
#
#
#
# Elastic Constant Matrix: (Units=GPa)
#
#
# Indices 1 2 3 4 5 6 
#
# 1 125.3544 36.7349 22.7568 0.0000 0.0000 0.0000
# 2 36.7349 98.6853 27.2677 0.0000 0.0000 0.0000
# 3 22.7568 27.2677 54.4480 0.0000 0.0000 0.0000
# 4 0.0000 0.0000 0.0000 24.6715 0.0000 0.0000
# 5 0.0000 0.0000 0.0000 0.0000 29.3542 0.0000
# 6 0.0000 0.0000 0.0000 0.0000 0.0000 39.7476
#
#
#
# Elastic Compliance Matrix: (Units=1/GPa)
#
#
# Indices 1 2 3 4 5 6 
#
# 1 0.009234 -0.002752 -0.002481 0.000000 0.000000 0.000000
# 2 -0.002752 0.012581 -0.005150 0.000000 0.000000 0.000000
# 3 -0.002481 -0.005150 0.021983 0.000000 0.000000 0.000000
# 4 0.000000 0.000000 0.000000 0.040533 0.000000 0.000000
# 5 0.000000 0.000000 0.000000 0.000000 0.034067 0.000000
# 6 0.000000 0.000000 0.000000 0.000000 0.000000 0.025159
#
#
# Mechanical properties :
#
#
# Convention : Reuss Voigt Hill
#
# Bulk Modulus (GPa) = 43.42070 50.22295 46.82183
# Shear Modulus (GPa) = 29.06990 31.53655 30.30323
#
# Velocity S-wave (km/s) = 3.62068 3.77116 3.69668
# Velocity P-wave (km/s) = 6.08769 6.45063 6.27179
#
# Compressibility (1/GPa) = 0.02303049
#
# Stress axis : x y z
#
# Youngs Moduli (GPa) = 108.29248 79.48731 45.49062
#
# Poissons Ratio (x) = 0.21873 0.11288
# Poissons Ratio (y) = 0.29799 0.23429
# Poissons Ratio (z) = 0.26872 0.40938
#
# Static dielectric constant tensor:
#      x y z
#    x 3.983460 0.000000 0.000000 
#    y 0.000000 4.300290 0.000000 
#    z 0.000000 0.000000 3.797580 
# 
# 
# High freq. dielectric constant tensor:
#      x y z
#    x 1.884450 0.000000 0.000000 
#    y 0.000000 1.882060 0.000000 
#    z 0.000000 0.000000 1.859080 
# 
# From -- ./inp_files/6222.got.cif
#   From: 2010.03.12/outbox.cif.g09.slc.cpg/sg41_4_cif.got.tgz:6222.got - 2010.04.14 01:55:53.
