data_PCOD8185225
_publ_section_title
;
Structure prediction by ZEFSAII (Michael W. Deem and Ramdas Pophale) SiO2 
 PCOD8185225
Probable space group: A B A 2
;
_chemical_formula_sum "Si O2"
_cell_formula_units_Z 52
_cell_length_a 16.119803
_cell_length_b 16.005983
_cell_length_c 8.992134
_cell_angle_alpha 90.000000
_cell_angle_beta 90.000000
_cell_angle_gamma 90.000000
_cell_volume 2320.090102
_symmetry_space_group_name_H-M "A B A 2"
_symmetry_group_IT_number 41
_symmetry_cell_setting 'orthorhombic'
loop_
_space_group_symop_operation_xyz
x,y,z
-x,-y,z
1/2-x,y,1/2+z
1/2+x,-y,1/2+z
x,1/2+y,1/2+z
-x,1/2-y,1/2+z
1/2-x,1/2+y,z
1/2+x,1/2-y,z
loop_
_atom_site_type_symbol
_atom_site_label
_atom_site_fract_x
_atom_site_fract_y
_atom_site_fract_z
Si Si1 0.704805 0.392540 0.392180
Si Si2 0.082495 0.113101 0.642552
Si Si3 0.732914 0.146961 0.063386
Si Si4 0.823901 0.479058 0.600562
Si Si5 0.587248 0.073203 0.227228
Si Si6 0.810792 0.254521 0.287583
Si Si7 0.000000 0.000000 0.988938
O O1 0.620346 0.374113 0.479713
O O2 0.779915 0.405940 0.508160
O O3 0.694368 0.469240 0.276258
O O4 0.727466 0.308635 0.305070
O O5 0.109718 0.184376 0.763128
O O6 0.983716 0.108698 0.616735
O O7 0.115093 0.022842 0.700853
O O8 0.667495 0.129599 0.198614
O O9 0.800873 0.209322 0.129172
O O10 0.784740 0.063039 0.027623
O O11 0.683842 0.186193 0.921657
O O12 0.923523 0.467903 0.587861
O O13 0.541283 0.074551 0.388371
#
# Coordination Sequence:
#
# PCOD8185225 Si02
#       7
#     8   8   8   8   8   8   4
#     4  12  21  43  69  94 129 186 231 277 335 424
#     4  10  21  42  68  94 125 183 229 284 327 415
#     4  12  24  42  66 103 135 186 215 290 349 427
#     4  12  24  42  72  95 135 175 243 279 343 413
#     4  10  22  44  71  91 136 176 237 276 351 399
#     4  12  23  40  65  96 138 170 227 272 356 412
#     4  10  22  40  66 104 126 172 228 302 330 394
#
# _framework density 22.412921000000001
#
# number of rings (size 3 to 8) (size 9 to 14) (size 15 to 20)
#    0.000    0.923    4.615    4.615    0.000    1.231 
#    2.769    3.077    0.000    0.000    0.000    0.000 
#    0.000    0.000    0.000    0.000    0.000    0.000 
#
# Total GULP energy -322136.173828 kJ/mol
# GULP energy per Si atom -12389.852840 kJ/mol
# Density = 2.236191 g / cm^3
# Si number density = 22.412921 Si / 1000 Ang^3
#
#
#
# Elastic Constant Matrix: (Units=GPa)
#
#
# Indices 1 2 3 4 5 6 
#
# 1 99.2996 15.3169 21.4587 0.0000 0.0000 0.0000
# 2 15.3169 84.5114 18.0851 0.0000 0.0000 0.0000
# 3 21.4587 18.0851 88.8459 0.0000 0.0000 0.0000
# 4 0.0000 0.0000 0.0000 35.9989 0.0000 0.0000
# 5 0.0000 0.0000 0.0000 0.0000 32.8175 0.0000
# 6 0.0000 0.0000 0.0000 0.0000 0.0000 30.8669
#
#
#
# Elastic Compliance Matrix: (Units=1/GPa)
#
#
# Indices 1 2 3 4 5 6 
#
# 1 0.010795 -0.001462 -0.002310 0.000000 0.000000 0.000000
# 2 -0.001462 0.012570 -0.002205 0.000000 0.000000 0.000000
# 3 -0.002310 -0.002205 0.012262 0.000000 0.000000 0.000000
# 4 0.000000 0.000000 0.000000 0.027779 0.000000 0.000000
# 5 0.000000 0.000000 0.000000 0.000000 0.030472 0.000000
# 6 0.000000 0.000000 0.000000 0.000000 0.000000 0.032397
#
#
# Mechanical properties :
#
#
# Convention : Reuss Voigt Hill
#
# Bulk Modulus (GPa) = 42.24342 42.48647 42.36494
# Shear Modulus (GPa) = 34.21840 34.45638 34.33739
#
# Velocity S-wave (km/s) = 3.91157 3.92515 3.91837
# Velocity P-wave (km/s) = 6.26811 6.28807 6.27810
#
# Compressibility (1/GPa) = 0.02367233
#
# Stress axis : x y z
#
# Youngs Moduli (GPa) = 92.63364 79.55636 81.55122
#
# Poissons Ratio (x) = 0.11633 0.18836
# Poissons Ratio (y) = 0.13546 0.17986
# Poissons Ratio (z) = 0.21395 0.17546
#
# Static dielectric constant tensor:
#      x y z
#    x 4.146190 0.000000 0.000000 
#    y 0.000000 3.911360 0.000000 
#    z 0.000000 0.000000 4.010970 
# 
# 
# High freq. dielectric constant tensor:
#      x y z
#    x 1.875540 0.000000 0.000000 
#    y 0.000000 1.870720 0.000000 
#    z 0.000000 0.000000 1.879670 
# 
# From -- ./inp_files/3139.got.cif
#   From: 2010.03.12/outbox.cif.g09.slc.cpg/sg41_2_cif.got.tgz:3139.got - 2010.04.14 01:55:53.
