data_PCOD8185606
_publ_section_title
;
Structure prediction by ZEFSAII (Michael W. Deem and Ramdas Pophale) SiO2 
 PCOD8185606
Probable space group: A B A 2
;
_chemical_formula_sum "Si O2"
_cell_formula_units_Z 64
_cell_length_a 17.642704
_cell_length_b 12.239237
_cell_length_c 14.607638
_cell_angle_alpha 90.000000
_cell_angle_beta 90.000000
_cell_angle_gamma 90.000000
_cell_volume 3154.274537
_symmetry_space_group_name_H-M "A B A 2"
_symmetry_group_IT_number 41
_symmetry_cell_setting 'orthorhombic'
loop_
_space_group_symop_operation_xyz
x,y,z
-x,-y,z
1/2-x,y,1/2+z
1/2+x,-y,1/2+z
x,1/2+y,1/2+z
-x,1/2-y,1/2+z
1/2-x,1/2+y,z
1/2+x,1/2-y,z
loop_
_atom_site_type_symbol
_atom_site_label
_atom_site_fract_x
_atom_site_fract_y
_atom_site_fract_z
Si Si1 0.062804 0.231697 0.452340
Si Si2 0.978041 0.122198 0.612475
Si Si3 0.921039 0.560947 0.714609
Si Si4 0.158622 0.043684 0.372381
Si Si5 0.453076 0.205429 0.295571
Si Si6 0.674093 0.147457 0.014968
Si Si7 0.178121 0.626189 0.409827
Si Si8 0.160419 0.414037 0.526982
O O1 0.091896 0.121016 0.407278
O O2 0.132685 0.313638 0.464898
O O3 0.024622 0.206281 0.549832
O O4 0.001465 0.288201 0.387779
O O5 0.888422 0.140065 0.595295
O O6 0.998489 0.143574 0.718146
O O7 0.000000 0.000000 0.585122
O O8 0.859176 0.489056 0.768389
O O9 0.928581 0.676514 0.762757
O O10 0.893856 0.574766 0.612344
O O11 0.000000 0.500000 0.714232
O O12 0.237966 0.106446 0.371462
O O13 0.155633 0.935150 0.433216
O O14 0.377272 0.138281 0.322238
O O15 0.754127 0.112638 0.059286
O O16 0.676709 0.268602 0.974743
O O17 0.152671 0.523826 0.469561
#
# Coordination Sequence:
#
# PCOD8185606 Si02
#       8
#     8   8   8   8   8   8   8   8
#     4  12  23  45  70 101 136 184 229 286 337 411
#     4  12  26  44  73 102 136 183 234 282 342 414
#     4  12  25  45  69 102 135 181 233 278 341 413
#     4  11  23  45  72  98 133 186 231 279 343 415
#     4  12  27  44  70 104 139 177 231 286 341 406
#     4  11  23  47  70 100 133 184 230 280 347 409
#     4  11  25  45  71  98 139 181 228 283 348 408
#     4  11  28  45  69  99 144 180 225 290 346 406
#
# _framework density 20.289926999999999
#
# number of rings (size 3 to 8) (size 9 to 14) (size 15 to 20)
#    0.000    0.500    7.500    0.000    5.250    1.000 
#    6.750    0.000    0.000    0.000    0.000    0.000 
#    0.000    0.000    0.000    0.000    0.000    0.000 
#
# Total GULP energy -396979.547422 kJ/mol
# GULP energy per Si atom -12405.610857 kJ/mol
# Density = 2.024375 g / cm^3
# Si number density = 20.289927 Si / 1000 Ang^3
#
#
#
# Elastic Constant Matrix: (Units=GPa)
#
#
# Indices 1 2 3 4 5 6 
#
# 1 120.8514 50.6509 45.5115 0.0000 0.0000 0.0000
# 2 50.6509 113.3785 31.2885 0.0000 0.0000 0.0000
# 3 45.5115 31.2885 93.3704 0.0000 0.0000 0.0000
# 4 0.0000 0.0000 0.0000 33.5750 0.0000 0.0000
# 5 0.0000 0.0000 0.0000 0.0000 46.2284 0.0000
# 6 0.0000 0.0000 0.0000 0.0000 0.0000 35.3467
#
#
#
# Elastic Compliance Matrix: (Units=1/GPa)
#
#
# Indices 1 2 3 4 5 6 
#
# 1 0.011562 -0.003978 -0.004303 0.000000 0.000000 0.000000
# 2 -0.003978 0.011087 -0.001776 0.000000 0.000000 0.000000
# 3 -0.004303 -0.001776 0.013403 0.000000 0.000000 0.000000
# 4 0.000000 0.000000 0.000000 0.029784 0.000000 0.000000
# 5 0.000000 0.000000 0.000000 0.000000 0.021632 0.000000
# 6 0.000000 0.000000 0.000000 0.000000 0.000000 0.028291
#
#
# Mechanical properties :
#
#
# Convention : Reuss Voigt Hill
#
# Bulk Modulus (GPa) = 62.74328 64.72245 63.73286
# Shear Modulus (GPa) = 35.41428 36.37332 35.89380
#
# Velocity S-wave (km/s) = 4.18234 4.23860 4.21056
# Velocity P-wave (km/s) = 7.36975 7.47812 7.42413
#
# Compressibility (1/GPa) = 0.01593796
#
# Stress axis : x y z
#
# Youngs Moduli (GPa) = 86.48856 90.19299 74.61236
#
# Poissons Ratio (x) = 0.35878 0.32104
# Poissons Ratio (y) = 0.34404 0.13254
# Poissons Ratio (z) = 0.37214 0.16022
#
# Static dielectric constant tensor:
#      x y z
#    x 4.024150 0.000000 0.000000 
#    y 0.000000 3.832800 0.000000 
#    z 0.000000 0.000000 3.602500 
# 
# 
# High freq. dielectric constant tensor:
#      x y z
#    x 1.806840 0.000000 0.000000 
#    y 0.000000 1.810580 0.000000 
#    z 0.000000 0.000000 1.785080 
# 
# From -- ./inp_files/8821.got.cif
#   From: 2010.03.12/outbox.cif.g09.slc.cpg/sg41_5_cif.got.tgz:8821.got - 2010.04.14 01:55:53.
