data_PCOD8185154
_publ_section_title
;
Structure prediction by ZEFSAII (Michael W. Deem and Ramdas Pophale) SiO2 
 PCOD8185154
Probable space group: A B A 2
;
_chemical_formula_sum "Si O2"
_cell_formula_units_Z 64
_cell_length_a 8.641782
_cell_length_b 12.607584
_cell_length_c 28.487033
_cell_angle_alpha 90.000000
_cell_angle_beta 90.000000
_cell_angle_gamma 90.000000
_cell_volume 3103.719005
_symmetry_space_group_name_H-M "A B A 2"
_symmetry_group_IT_number 41
_symmetry_cell_setting 'orthorhombic'
loop_
_space_group_symop_operation_xyz
x,y,z
-x,-y,z
1/2-x,y,1/2+z
1/2+x,-y,1/2+z
x,1/2+y,1/2+z
-x,1/2-y,1/2+z
1/2-x,1/2+y,z
1/2+x,1/2-y,z
loop_
_atom_site_type_symbol
_atom_site_label
_atom_site_fract_x
_atom_site_fract_y
_atom_site_fract_z
Si Si1 0.486264 0.879749 0.035510
Si Si2 0.706419 0.653002 0.293840
Si Si3 0.464374 0.620314 0.425605
Si Si4 0.610489 0.805406 0.746289
Si Si5 0.489300 0.126809 0.643687
Si Si6 0.321875 0.207725 0.376415
Si Si7 0.738741 0.746060 0.088133
Si Si8 0.849469 0.443480 0.296970
O O1 0.622199 0.811304 0.056794
O O2 0.322728 0.835932 0.053489
O O3 0.500000 0.000000 0.053076
O O4 0.496178 0.872484 0.979921
O O5 0.826766 0.683913 0.251174
O O6 0.526452 0.674727 0.283289
O O7 0.769466 0.722864 0.337680
O O8 0.718249 0.530782 0.307367
O O9 0.500000 0.500000 0.407560
O O10 0.560840 0.712331 0.400740
O O11 0.286751 0.650898 0.415004
O O12 0.547950 0.835129 0.695753
O O13 0.769993 0.867837 0.758491
O O14 0.354800 0.168537 0.610078
O O15 0.652144 0.178870 0.628565
O O16 0.500000 0.000000 0.641096
O O17 0.400875 0.114001 0.345480
O O18 0.000000 0.500000 0.275102
#
# Coordination Sequence:
#
# PCOD8185154 Si02
#       8
#     8   8   8   8   8   8   8   8
#     4  10  21  40  62  88 119 156 196 244 310 373
#     4  11  21  37  56  80 117 159 199 246 301 356
#     4  11  23  39  62  88 120 156 199 253 304 363
#     4  11  23  38  59  86 119 159 207 254 302 364
#     4  11  22  39  62  91 122 157 203 254 305 364
#     4  11  22  37  57  85 116 154 202 246 295 356
#     4  10  22  39  63  89 120 156 196 249 309 373
#     4  11  22  37  57  81 117 161 204 250 301 359
#
# _framework density 20.620422999999999
#
# number of rings (size 3 to 8) (size 9 to 14) (size 15 to 20)
#    0.000    1.250    0.000    7.875    0.000    0.000 
#    0.000    1.875    0.000    7.500    0.000    0.000 
#    0.000    0.000    0.000    0.000    0.000    0.000 
#
# Total GULP energy -396592.791825 kJ/mol
# GULP energy per Si atom -12393.524745 kJ/mol
# Density = 2.057349 g / cm^3
# Si number density = 20.620423 Si / 1000 Ang^3
#
#
#
# Elastic Constant Matrix: (Units=GPa)
#
#
# Indices 1 2 3 4 5 6 
#
# 1 84.4731 30.7274 35.6388 0.0000 0.0000 0.0000
# 2 30.7274 131.2207 43.6728 0.0000 0.0000 0.0000
# 3 35.6388 43.6728 96.4084 0.0000 0.0000 0.0000
# 4 0.0000 0.0000 0.0000 23.2479 0.0000 0.0000
# 5 0.0000 0.0000 0.0000 0.0000 30.6849 0.0000
# 6 0.0000 0.0000 0.0000 0.0000 0.0000 38.2590
#
#
#
# Elastic Compliance Matrix: (Units=1/GPa)
#
#
# Indices 1 2 3 4 5 6 
#
# 1 0.014411 -0.001886 -0.004473 0.000000 0.000000 0.000000
# 2 -0.001886 0.009220 -0.003480 0.000000 0.000000 0.000000
# 3 -0.004473 -0.003480 0.013602 0.000000 0.000000 0.000000
# 4 0.000000 0.000000 0.000000 0.043015 0.000000 0.000000
# 5 0.000000 0.000000 0.000000 0.000000 0.032589 0.000000
# 6 0.000000 0.000000 0.000000 0.000000 0.000000 0.026138
#
#
# Mechanical properties :
#
#
# Convention : Reuss Voigt Hill
#
# Bulk Modulus (GPa) = 56.95795 59.13114 58.04454
# Shear Modulus (GPa) = 30.39417 31.90924 31.15171
#
# Velocity S-wave (km/s) = 3.84342 3.93804 3.89102
# Velocity P-wave (km/s) = 6.88316 7.02964 6.95678
#
# Compressibility (1/GPa) = 0.01755681
#
# Stress axis : x y z
#
# Youngs Moduli (GPa) = 69.39030 108.45420 73.51670
#
# Poissons Ratio (x) = 0.20454 0.32884
# Poissons Ratio (y) = 0.13086 0.25582
# Poissons Ratio (z) = 0.31038 0.37739
#
# Static dielectric constant tensor:
#      x y z
#    x 3.778590 0.000000 0.000000 
#    y 0.000000 4.405300 0.000000 
#    z 0.000000 0.000000 3.710810 
# 
# 
# High freq. dielectric constant tensor:
#      x y z
#    x 1.815750 0.000000 0.000000 
#    y 0.000000 1.828840 0.000000 
#    z 0.000000 0.000000 1.793310 
# 
# From -- ./inp_files/12689.got.cif
#   From: 2010.03.12/outbox.cif.g09.slc.cpg/sg41_7_cif.got.tgz:12689.got - 2010.04.14 01:55:53.
