data_PCOD8185963
_publ_section_title
;
Structure prediction by ZEFSAII (Michael W. Deem and Ramdas Pophale) SiO2 
 PCOD8185963
Probable space group: F M M 2
;
_chemical_formula_sum "Si O2"
_cell_formula_units_Z 72
_cell_length_a 14.662533
_cell_length_b 13.435154
_cell_length_c 18.276983
_cell_angle_alpha 90.000000
_cell_angle_beta 90.000000
_cell_angle_gamma 90.000000
_cell_volume 3600.444820
_symmetry_space_group_name_H-M "F M M 2"
_symmetry_group_IT_number 42
_symmetry_cell_setting 'orthorhombic'
loop_
_space_group_symop_operation_xyz
x,y,z
-x,-y,z
-x,y,z
x,-y,z
x,1/2+y,1/2+z
-x,1/2-y,1/2+z
-x,1/2+y,1/2+z
x,1/2-y,1/2+z
1/2+x,y,1/2+z
1/2-x,-y,1/2+z
1/2-x,y,1/2+z
1/2+x,-y,1/2+z
1/2+x,1/2+y,z
1/2-x,1/2-y,z
1/2-x,1/2+y,z
1/2+x,1/2-y,z
loop_
_atom_site_type_symbol
_atom_site_label
_atom_site_fract_x
_atom_site_fract_y
_atom_site_fract_z
Si Si1 0.396180 0.115700 0.401000
Si Si2 0.346737 0.710791 0.046307
Si Si3 0.712550 0.113244 0.693884
Si Si4 0.750000 0.250000 0.316346
Si Si5 0.598114 0.390351 0.626391
O O1 0.500000 0.134829 0.373261
O O2 0.393927 0.139786 0.487519
O O3 0.322515 0.186942 0.362984
O O4 0.369524 0.000000 0.388496
O O5 0.250000 0.750000 0.017056
O O6 0.339740 0.650227 0.122174
O O7 0.405203 0.810354 0.060940
O O8 0.688703 0.176195 0.766017
O O9 0.821542 0.130795 0.683853
O O10 0.685900 0.000000 0.708556
O O11 0.500000 0.387306 0.667566
O O12 0.614360 0.500000 0.591324
#
# Coordination Sequence:
#
# PCOD8185963 Si02
#       5
#    16  16  16   8  16
#     4  11  25  43  65  92 123 167 214 253 303 369
#     4  10  18  38  61  88 120 159 203 258 307 359
#     4  10  20  36  60  87 115 156 202 249 310 362
#     4  12  22  42  60  88 132 166 198 252 308 378
#     4   9  17  30  54  89 121 148 191 250 305 360
#
# _framework density 19.997527999999999
#
# number of rings (size 3 to 8) (size 9 to 14) (size 15 to 20)
#    0.000    1.778    4.444    2.000    0.000    1.778 
#    0.000    2.222    0.000    6.667    0.000    0.000 
#    0.000    0.000    0.000    0.000    0.000    0.000 
#
# Total GULP energy -223053.930892 kJ/mol
# GULP energy per Si atom -12391.885050 kJ/mol
# Density = 1.995201 g / cm^3
# Si number density = 19.997528 Si / 1000 Ang^3
#
#
#
# Elastic Constant Matrix: (Units=GPa)
#
#
# Indices 1 2 3 4 5 6 
#
# 1 84.1463 46.4829 35.3801 0.0000 0.0000 0.0000
# 2 46.4829 164.9697 65.1874 0.0000 0.0000 0.0000
# 3 35.3801 65.1874 102.0653 0.0000 0.0000 0.0000
# 4 0.0000 0.0000 0.0000 28.3423 0.0000 0.0000
# 5 0.0000 0.0000 0.0000 0.0000 9.0281 0.0000
# 6 0.0000 0.0000 0.0000 0.0000 0.0000 26.2790
#
#
#
# Elastic Compliance Matrix: (Units=1/GPa)
#
#
# Indices 1 2 3 4 5 6 
#
# 1 0.014869 -0.002880 -0.003315 0.000000 0.000000 0.000000
# 2 -0.002880 0.008666 -0.004536 0.000000 0.000000 0.000000
# 3 -0.003315 -0.004536 0.013844 0.000000 0.000000 0.000000
# 4 0.000000 0.000000 0.000000 0.035283 0.000000 0.000000
# 5 0.000000 0.000000 0.000000 0.000000 0.110765 0.000000
# 6 0.000000 0.000000 0.000000 0.000000 0.000000 0.038053
#
#
# Mechanical properties :
#
#
# Convention : Reuss Voigt Hill
#
# Bulk Modulus (GPa) = 62.82817 71.69802 67.26310
# Shear Modulus (GPa) = 20.14127 26.33861 23.23994
#
# Velocity S-wave (km/s) = 3.17707 3.63312 3.41272
# Velocity P-wave (km/s) = 6.70407 7.31646 7.01695
#
# Compressibility (1/GPa) = 0.01591643
#
# Stress axis : x y z
#
# Youngs Moduli (GPa) = 67.25611 115.39823 72.23300
#
# Poissons Ratio (x) = 0.33230 0.23945
# Poissons Ratio (y) = 0.19367 0.32768
# Poissons Ratio (z) = 0.22295 0.52350
#
# Static dielectric constant tensor:
#      x y z
#    x 3.575750 0.000000 0.000000 
#    y 0.000000 3.975110 0.000000 
#    z 0.000000 0.000000 3.375850 
# 
# 
# High freq. dielectric constant tensor:
#      x y z
#    x 1.766550 0.000000 0.000000 
#    y 0.000000 1.804350 0.000000 
#    z 0.000000 0.000000 1.753550 
# 
# From -- ./inp_files/19728.got.cif
#   From: 2010.03.12/outbox.cif.g09.slc.cpg/sg42_10_cif.got.tgz:19728.got - 2010.04.14 02:04:31.
