data_PCOD8185953
_publ_section_title
;
Structure prediction by ZEFSAII (Michael W. Deem and Ramdas Pophale) SiO2 
 PCOD8185953
Probable space group: F M M 2
;
_chemical_formula_sum "Si O2"
_cell_formula_units_Z 80
_cell_length_a 18.008018
_cell_length_b 10.112670
_cell_length_c 22.874194
_cell_angle_alpha 90.000000
_cell_angle_beta 90.000000
_cell_angle_gamma 90.000000
_cell_volume 4165.599875
_symmetry_space_group_name_H-M "F M M 2"
_symmetry_group_IT_number 42
_symmetry_cell_setting 'orthorhombic'
loop_
_space_group_symop_operation_xyz
x,y,z
-x,-y,z
-x,y,z
x,-y,z
x,1/2+y,1/2+z
-x,1/2-y,1/2+z
-x,1/2+y,1/2+z
x,1/2-y,1/2+z
1/2+x,y,1/2+z
1/2-x,-y,1/2+z
1/2-x,y,1/2+z
1/2+x,-y,1/2+z
1/2+x,1/2+y,z
1/2-x,1/2-y,z
1/2-x,1/2+y,z
1/2+x,1/2-y,z
loop_
_atom_site_type_symbol
_atom_site_label
_atom_site_fract_x
_atom_site_fract_y
_atom_site_fract_z
Si Si1 0.330805 0.500000 0.135751
Si Si2 0.587117 0.000000 0.757945
Si Si3 0.087264 0.000000 0.736876
Si Si4 0.844541 0.000000 0.612171
Si Si5 0.162542 0.265609 0.555159
Si Si6 0.587112 0.728931 0.818307
Si Si7 0.179448 0.655459 0.429870
O O1 0.359969 0.500000 0.201655
O O2 0.241539 0.500000 0.131488
O O3 0.363275 0.628699 0.103474
O O4 0.607943 0.124366 0.797959
O O5 0.500000 0.000000 0.739303
O O6 0.108299 0.000000 0.670158
O O7 0.118961 0.130184 0.768894
O O8 0.000000 0.000000 0.741824
O O9 0.870294 0.875819 0.573169
O O10 0.250000 0.250000 0.554082
O O11 0.137249 0.312684 0.490890
O O12 0.500000 0.712146 0.826707
O O13 0.622530 0.691513 0.879564
O O14 0.202566 0.500000 0.428359
O O15 0.250000 0.750000 0.422112
#
# Coordination Sequence:
#
# PCOD8185953 Si02
#       7
#     8   8   8   8  16  16  16
#     4  10  18  35  56  78 112 145 185 226 273 338
#     4  10  22  37  56  84 116 151 189 236 287 332
#     4  10  20  37  58  80 112 153 191 230 283 338
#     4  10  20  33  56  84 110 147 185 228 279 338
#     4   9  19  34  55  82 112 144 180 226 286 333
#     4  10  22  40  60  81 115 157 191 232 288 341
#     4  11  23  38  61  87 114 148 191 238 285 340
#
# _framework density 19.204916999999998
#
# number of rings (size 3 to 8) (size 9 to 14) (size 15 to 20)
#    0.000    2.000    2.000    1.200    5.600    1.600 
#    0.000    2.000    0.000    0.000    0.000    0.000 
#    0.000    0.000    0.000    0.000    0.000    0.000 
#
# Total GULP energy -247961.248919 kJ/mol
# GULP energy per Si atom -12398.062446 kJ/mol
# Density = 1.916121 g / cm^3
# Si number density = 19.204917 Si / 1000 Ang^3
#
#
#
# Elastic Constant Matrix: (Units=GPa)
#
#
# Indices 1 2 3 4 5 6 
#
# 1 17.2046 26.6330 25.0087 0.0000 0.0000 0.0000
# 2 26.6330 196.2643 78.9789 0.0000 0.0000 0.0000
# 3 25.0087 78.9789 145.9586 0.0000 0.0000 0.0000
# 4 0.0000 0.0000 0.0000 38.8020 0.0000 0.0000
# 5 0.0000 0.0000 0.0000 0.0000 -4.0708 0.0000
# 6 0.0000 0.0000 0.0000 0.0000 0.0000 13.8193
#
#
#
# Elastic Compliance Matrix: (Units=1/GPa)
#
#
# Indices 1 2 3 4 5 6 
#
# 1 0.084733 -0.007230 -0.010606 0.000000 0.000000 0.000000
# 2 -0.007230 0.007130 -0.002619 0.000000 0.000000 0.000000
# 3 -0.010606 -0.002619 0.010086 0.000000 0.000000 0.000000
# 4 0.000000 0.000000 0.000000 0.025772 0.000000 0.000000
# 5 0.000000 0.000000 0.000000 0.000000 -0.245651 0.000000
# 6 0.000000 0.000000 0.000000 0.000000 0.000000 0.072363
#
#
# Mechanical properties :
#
#
# Convention : Reuss Voigt Hill
#
# Bulk Modulus (GPa) = 16.38319 68.96322 42.67320
# Shear Modulus (GPa) = 318.66729 24.96389 171.81559
#
# Velocity S-wave (km/s) = 12.89536 3.60928 9.46882
# Velocity P-wave (km/s) = 15.17464 7.30454 11.90852
#
# Compressibility (1/GPa) = 0.06103818
#
# Stress axis : x y z
#
# Youngs Moduli (GPa) = 11.80173 140.24421 99.14845
#
# Poissons Ratio (x) = 1.01401 1.05156
# Poissons Ratio (y) = 0.08533 0.25971
# Poissons Ratio (z) = 0.12517 0.36736
#
# Static dielectric constant tensor:
#      x y z
#    x 3.091600 0.000000 0.000000 
#    y 0.000000 4.414490 0.000000 
#    z 0.000000 0.000000 3.653060 
# 
# 
# High freq. dielectric constant tensor:
#      x y z
#    x 1.705710 0.000000 0.000000 
#    y 0.000000 1.773780 0.000000 
#    z 0.000000 0.000000 1.760520 
# 
# From -- ./inp_files/23485.got.cif
#   From: 2010.03.12/outbox.cif.g09.slc.cpg/sg42_12_cif.got.tgz:23485.got - 2010.04.14 02:04:31.
