data_PCOD8185341
_publ_section_title
;
Structure prediction by ZEFSAII (Michael W. Deem and Ramdas Pophale) SiO2 
 PCOD8185341
Probable space group: A B A 2
;
_chemical_formula_sum "Si O2"
_cell_formula_units_Z 60
_cell_length_a 29.805938
_cell_length_b 10.239521
_cell_length_c 9.430333
_cell_angle_alpha 90.000000
_cell_angle_beta 90.000000
_cell_angle_gamma 90.000000
_cell_volume 2878.123751
_symmetry_space_group_name_H-M "A B A 2"
_symmetry_group_IT_number 41
_symmetry_cell_setting 'orthorhombic'
loop_
_space_group_symop_operation_xyz
x,y,z
-x,-y,z
1/2-x,y,1/2+z
1/2+x,-y,1/2+z
x,1/2+y,1/2+z
-x,1/2-y,1/2+z
1/2-x,1/2+y,z
1/2+x,1/2-y,z
loop_
_atom_site_type_symbol
_atom_site_label
_atom_site_fract_x
_atom_site_fract_y
_atom_site_fract_z
Si Si1 0.500000 0.500000 0.533250
Si Si2 0.287118 0.472302 0.325362
Si Si3 0.577595 0.396517 0.353655
Si Si4 0.202406 0.445397 0.508259
Si Si5 0.665062 0.336154 0.516713
Si Si6 0.078325 0.352386 0.171424
Si Si7 0.136523 0.565760 0.299124
Si Si8 0.878474 0.155645 0.372190
O O1 0.530474 0.408295 0.434091
O O2 0.470609 0.405913 0.632141
O O3 0.242145 0.418200 0.397264
O O4 0.301138 0.608106 0.398742
O O5 0.325469 0.364451 0.350509
O O6 0.279746 0.502229 0.157965
O O7 0.613919 0.343879 0.464927
O O8 0.572544 0.294967 0.225954
O O9 0.593628 0.539154 0.293903
O O10 0.177274 0.312204 0.545844
O O11 0.167272 0.545427 0.437602
O O12 0.668425 0.421043 0.660858
O O13 0.101436 0.446591 0.287556
O O14 0.111052 0.352229 0.037875
O O15 0.108630 0.701688 0.313201
#
# Coordination Sequence:
#
# PCOD8185341 Si02
#       8
#     4   8   8   8   8   8   8   8
#     4  10  22  42  66 104 136 172 226 278 334 414
#     4  11  25  43  62  96 138 176 229 276 331 391
#     4  10  22  45  68  97 137 178 217 279 343 401
#     4  12  27  40  66  99 135 180 227 285 329 402
#     4  11  23  45  67  94 136 178 224 281 338 399
#     4  11  23  44  72  98 139 178 217 283 341 404
#     4  12  23  42  69  99 130 178 229 271 345 396
#     4  10  24  41  67  97 135 179 227 276 329 404
#
# _framework density 20.846914000000002
#
# number of rings (size 3 to 8) (size 9 to 14) (size 15 to 20)
#    0.000    1.067    6.667    0.800    5.600    3.200 
#    0.000    0.000    0.000    0.000    0.000    0.000 
#    0.000    0.000    0.000    0.000    0.000    0.000 
#
# Total GULP energy -372022.963778 kJ/mol
# GULP energy per Si atom -12400.765459 kJ/mol
# Density = 2.079947 g / cm^3
# Si number density = 20.846914 Si / 1000 Ang^3
#
#
#
# Elastic Constant Matrix: (Units=GPa)
#
#
# Indices 1 2 3 4 5 6 
#
# 1 108.2786 35.2393 39.2291 0.0000 0.0000 0.0000
# 2 35.2393 135.9044 44.7263 0.0000 0.0000 0.0000
# 3 39.2291 44.7263 112.7820 0.0000 0.0000 0.0000
# 4 0.0000 0.0000 0.0000 42.1914 0.0000 0.0000
# 5 0.0000 0.0000 0.0000 0.0000 26.4098 0.0000
# 6 0.0000 0.0000 0.0000 0.0000 0.0000 19.2300
#
#
#
# Elastic Compliance Matrix: (Units=1/GPa)
#
#
# Indices 1 2 3 4 5 6 
#
# 1 0.010946 -0.001823 -0.003084 0.000000 0.000000 0.000000
# 2 -0.001823 0.008766 -0.002842 0.000000 0.000000 0.000000
# 3 -0.003084 -0.002842 0.011067 0.000000 0.000000 0.000000
# 4 0.000000 0.000000 0.000000 0.023702 0.000000 0.000000
# 5 0.000000 0.000000 0.000000 0.000000 0.037865 0.000000
# 6 0.000000 0.000000 0.000000 0.000000 0.000000 0.052002
#
#
# Mechanical properties :
#
#
# Convention : Reuss Voigt Hill
#
# Bulk Modulus (GPa) = 65.44770 66.15049 65.79910
# Shear Modulus (GPa) = 30.31394 33.41758 31.86576
#
# Velocity S-wave (km/s) = 3.81743 4.00809 3.91392
# Velocity P-wave (km/s) = 7.13393 7.29521 7.21502
#
# Compressibility (1/GPa) = 0.01527938
#
# Stress axis : x y z
#
# Youngs Moduli (GPa) = 91.35517 114.07359 90.36119
#
# Poissons Ratio (x) = 0.20798 0.27871
# Poissons Ratio (y) = 0.16656 0.25683
# Poissons Ratio (z) = 0.28178 0.32423
#
# Static dielectric constant tensor:
#      x y z
#    x 3.650760 0.000000 0.000000 
#    y 0.000000 3.946540 0.000000 
#    z 0.000000 0.000000 3.812610 
# 
# 
# High freq. dielectric constant tensor:
#      x y z
#    x 1.805190 0.000000 0.000000 
#    y 0.000000 1.820410 0.000000 
#    z 0.000000 0.000000 1.816530 
# 
# From -- ./inp_files/3821.got.cif
#   From: 2010.03.12/outbox.cif.g09.slc.cpg/sg41_2_cif.got.tgz:3821.got - 2010.04.14 01:55:53.
