data_PCOD8185389
_publ_section_title
;
Structure prediction by ZEFSAII (Michael W. Deem and Ramdas Pophale) SiO2 
 PCOD8185389
Probable space group: A B A 2
;
_chemical_formula_sum "Si O2"
_cell_formula_units_Z 56
_cell_length_a 22.007510
_cell_length_b 8.629265
_cell_length_c 13.725697
_cell_angle_alpha 90.000000
_cell_angle_beta 90.000000
_cell_angle_gamma 90.000000
_cell_volume 2606.628392
_symmetry_space_group_name_H-M "A B A 2"
_symmetry_group_IT_number 41
_symmetry_cell_setting 'orthorhombic'
loop_
_space_group_symop_operation_xyz
x,y,z
-x,-y,z
1/2-x,y,1/2+z
1/2+x,-y,1/2+z
x,1/2+y,1/2+z
-x,1/2-y,1/2+z
1/2-x,1/2+y,z
1/2+x,1/2-y,z
loop_
_atom_site_type_symbol
_atom_site_label
_atom_site_fract_x
_atom_site_fract_y
_atom_site_fract_z
Si Si1 0.500000 0.500000 0.664840
Si Si2 0.585213 0.752339 0.237018
Si Si3 0.500000 0.500000 0.192072
Si Si4 0.301039 0.364428 0.684639
Si Si5 0.835807 0.293356 0.417839
Si Si6 0.082994 0.748066 0.592585
Si Si7 0.782399 0.621139 0.413953
Si Si8 0.684221 0.296513 0.596064
O O1 0.537073 0.390608 0.737542
O O2 0.453501 0.408750 0.596004
O O3 0.547413 0.595307 0.259640
O O4 0.639626 0.796170 0.308845
O O5 0.618883 0.734036 0.132962
O O6 0.462095 0.612134 0.122454
O O7 0.357278 0.251422 0.660689
O O8 0.301205 0.372135 0.801250
O O9 0.310170 0.523143 0.624421
O O10 0.238583 0.292879 0.648862
O O11 0.895524 0.274187 0.482459
O O12 0.799158 0.448287 0.449215
O O13 0.789889 0.148273 0.427670
O O14 0.815599 0.752660 0.480534
#
# Coordination Sequence:
#
# PCOD8185389 Si02
#       8
#     4   8   4   8   8   8   8   8
#     4  10  22  46  68  84 136 186 232 286 340 388
#     4  11  23  45  67  98 135 183 235 288 345 419
#     4  10  26  44  68  94 134 190 236 290 342 404
#     4  12  24  43  69 102 141 177 224 287 353 423
#     4  12  25  41  68 100 140 175 231 279 356 422
#     4  11  24  45  67  99 134 182 233 288 341 416
#     4  12  24  42  66 107 139 181 214 283 359 429
#     4  12  24  41  71 100 141 179 224 288 354 423
#
# _framework density 21.483689999999999
#
# number of rings (size 3 to 8) (size 9 to 14) (size 15 to 20)
#    0.000    0.571    5.714    1.714    2.000    2.286 
#    0.000    5.714    0.000    0.000    0.000    0.000 
#    0.000    0.000    0.000    0.000    0.000    0.000 
#
# Total GULP energy -347124.864330 kJ/mol
# GULP energy per Si atom -12397.316583 kJ/mol
# Density = 2.143479 g / cm^3
# Si number density = 21.483690 Si / 1000 Ang^3
#
#
#
# Elastic Constant Matrix: (Units=GPa)
#
#
# Indices 1 2 3 4 5 6 
#
# 1 106.2598 38.9871 12.0968 0.0000 0.0000 0.0000
# 2 38.9871 99.0349 32.3457 0.0000 0.0000 0.0000
# 3 12.0968 32.3457 94.9107 0.0000 0.0000 0.0000
# 4 0.0000 0.0000 0.0000 26.8906 0.0000 0.0000
# 5 0.0000 0.0000 0.0000 0.0000 34.9319 0.0000
# 6 0.0000 0.0000 0.0000 0.0000 0.0000 41.8551
#
#
#
# Elastic Compliance Matrix: (Units=1/GPa)
#
#
# Indices 1 2 3 4 5 6 
#
# 1 0.011000 -0.004358 0.000083 0.000000 0.000000 0.000000
# 2 -0.004358 0.013088 -0.003905 0.000000 0.000000 0.000000
# 3 0.000083 -0.003905 0.011857 0.000000 0.000000 0.000000
# 4 0.000000 0.000000 0.000000 0.037188 0.000000 0.000000
# 5 0.000000 0.000000 0.000000 0.000000 0.028627 0.000000
# 6 0.000000 0.000000 0.000000 0.000000 0.000000 0.023892
#
#
# Mechanical properties :
#
#
# Convention : Reuss Voigt Hill
#
# Bulk Modulus (GPa) = 51.05753 51.89606 51.47680
# Shear Modulus (GPa) = 33.66101 35.18725 34.42413
#
# Velocity S-wave (km/s) = 3.96260 4.05144 4.00726
# Velocity P-wave (km/s) = 6.68981 6.78926 6.73972
#
# Compressibility (1/GPa) = 0.01958575
#
# Stress axis : x y z
#
# Youngs Moduli (GPa) = 90.90695 76.40381 84.34184
#
# Poissons Ratio (x) = 0.33294 -0.00700
# Poissons Ratio (y) = 0.39614 0.32937
# Poissons Ratio (z) = -0.00755 0.29837
#
# Static dielectric constant tensor:
#      x y z
#    x 4.246980 0.000000 0.000000 
#    y 0.000000 4.100290 0.000000 
#    z 0.000000 0.000000 3.822040 
# 
# 
# High freq. dielectric constant tensor:
#      x y z
#    x 1.860480 0.000000 0.000000 
#    y 0.000000 1.851270 0.000000 
#    z 0.000000 0.000000 1.830290 
# 
# From -- ./inp_files/9040.got.cif
#   From: 2010.03.12/outbox.cif.g09.slc.cpg/sg41_5_cif.got.tgz:9040.got - 2010.04.14 01:55:53.
