data_PCOD8185830
_publ_section_title
;
Structure prediction by ZEFSAII (Michael W. Deem and Ramdas Pophale) SiO2 
 PCOD8185830
Probable space group: F M M 2
;
_chemical_formula_sum "Si O2"
_cell_formula_units_Z 80
_cell_length_a 26.094985
_cell_length_b 9.042708
_cell_length_c 18.834532
_cell_angle_alpha 90.000000
_cell_angle_beta 90.000000
_cell_angle_gamma 90.000000
_cell_volume 4444.371890
_symmetry_space_group_name_H-M "F M M 2"
_symmetry_group_IT_number 42
_symmetry_cell_setting 'orthorhombic'
loop_
_space_group_symop_operation_xyz
x,y,z
-x,-y,z
-x,y,z
x,-y,z
x,1/2+y,1/2+z
-x,1/2-y,1/2+z
-x,1/2+y,1/2+z
x,1/2-y,1/2+z
1/2+x,y,1/2+z
1/2-x,-y,1/2+z
1/2-x,y,1/2+z
1/2+x,-y,1/2+z
1/2+x,1/2+y,z
1/2-x,1/2-y,z
1/2-x,1/2+y,z
1/2+x,1/2-y,z
loop_
_atom_site_type_symbol
_atom_site_label
_atom_site_fract_x
_atom_site_fract_y
_atom_site_fract_z
Si Si1 0.095871 0.323704 0.093370
Si Si2 0.797394 0.161852 0.933694
Si Si3 0.408669 0.823306 0.444061
Si Si4 0.000000 0.324687 0.344878
Si Si5 0.500000 0.325035 0.686582
Si Si6 0.299691 0.333468 0.102370
O O1 0.101385 0.500000 0.088138
O O2 0.149014 0.256191 0.122513
O O3 0.051163 0.272320 0.146647
O O4 0.079928 0.259253 0.017293
O O5 0.750000 0.250000 0.899889
O O6 0.853151 0.227220 0.913404
O O7 0.792125 0.000000 0.900911
O O8 0.793849 0.158820 0.018223
O O9 0.449917 0.770130 0.386778
O O10 0.409356 0.000000 0.458209
O O11 0.000000 0.256386 0.265930
O O12 0.000000 0.500000 0.341139
O O13 0.500000 0.500000 0.690952
O O14 0.302679 0.500000 0.133508
O O15 0.250000 0.250000 0.134783
#
# Coordination Sequence:
#
# PCOD8185830 Si02
#       6
#    16  16  16   8   8  16
#     4  10  18  29  47  71  99 127 157 196 239 284
#     4   8  14  23  37  62  90 113 140 176 220 267
#     4   9  17  29  48  71  91 117 157 199 236 278
#     4   9  17  32  51  67  88 121 162 204 242 283
#     4   9  19  32  47  69  94 125 164 202 242 285
#     4   9  16  27  44  69  98 125 156 192 234 282
#
# _framework density 18.000294
#
# number of rings (size 3 to 8) (size 9 to 14) (size 15 to 20)
#    0.000    3.000    0.000    3.000    0.000    4.800 
#    0.000    1.500    0.000    6.000    0.000    2.800 
#    0.000    0.000    0.000    0.000    0.000    0.000 
#
# Total GULP energy -247878.465669 kJ/mol
# GULP energy per Si atom -12393.923283 kJ/mol
# Density = 1.795932 g / cm^3
# Si number density = 18.000294 Si / 1000 Ang^3
#
#
#
# Elastic Constant Matrix: (Units=GPa)
#
#
# Indices 1 2 3 4 5 6 
#
# 1 197.6489 55.6340 76.4116 0.0000 0.0000 0.0000
# 2 55.6340 73.2895 32.0532 0.0000 0.0000 0.0000
# 3 76.4116 32.0532 77.6139 0.0000 0.0000 0.0000
# 4 0.0000 0.0000 0.0000 11.1007 0.0000 0.0000
# 5 0.0000 0.0000 0.0000 0.0000 1.9143 0.0000
# 6 0.0000 0.0000 0.0000 0.0000 0.0000 27.9312
#
#
#
# Elastic Compliance Matrix: (Units=1/GPa)
#
#
# Indices 1 2 3 4 5 6 
#
# 1 0.008868 -0.003555 -0.007262 0.000000 0.000000 0.000000
# 2 -0.003555 0.018078 -0.003965 0.000000 0.000000 0.000000
# 3 -0.007262 -0.003965 0.021672 0.000000 0.000000 0.000000
# 4 0.000000 0.000000 0.000000 0.090085 0.000000 0.000000
# 5 0.000000 0.000000 0.000000 0.000000 0.522389 0.000000
# 6 0.000000 0.000000 0.000000 0.000000 0.000000 0.035802
#
#
# Mechanical properties :
#
#
# Convention : Reuss Voigt Hill
#
# Bulk Modulus (GPa) = 52.49024 75.19443 63.84233
# Shear Modulus (GPa) = 6.82306 20.48613 13.65459
#
# Velocity S-wave (km/s) = 1.94904 3.37723 2.75721
# Velocity P-wave (km/s) = 5.85569 7.55462 6.75875
#
# Compressibility (1/GPa) = 0.01905116
#
# Stress axis : x y z
#
# Youngs Moduli (GPa) = 112.76734 55.31671 46.14344
#
# Poissons Ratio (x) = 0.19668 0.33510
# Poissons Ratio (y) = 0.40094 0.18298
# Poissons Ratio (z) = 0.81893 0.21935
#
# Static dielectric constant tensor:
#      x y z
#    x 3.726750 0.000000 0.000000 
#    y 0.000000 3.297600 0.000000 
#    z 0.000000 0.000000 2.975720 
# 
# 
# High freq. dielectric constant tensor:
#      x y z
#    x 1.721810 0.000000 0.000000 
#    y 0.000000 1.682050 0.000000 
#    z 0.000000 0.000000 1.639720 
# 
# From -- ./inp_files/18238.got.cif
#   From: 2010.03.12/outbox.cif.g09.slc.cpg/sg42_10_cif.got.tgz:18238.got - 2010.04.14 02:04:31.
