data_PCOD8185849
_publ_section_title
;
Structure prediction by ZEFSAII (Michael W. Deem and Ramdas Pophale) SiO2 
 PCOD8185849
Probable space group: F M M 2
;
_chemical_formula_sum "Si O2"
_cell_formula_units_Z 96
_cell_length_a 8.663168
_cell_length_b 19.419862
_cell_length_c 31.507882
_cell_angle_alpha 90.000000
_cell_angle_beta 90.000000
_cell_angle_gamma 90.000000
_cell_volume 5300.808150
_symmetry_space_group_name_H-M "F M M 2"
_symmetry_group_IT_number 42
_symmetry_cell_setting 'orthorhombic'
loop_
_space_group_symop_operation_xyz
x,y,z
-x,-y,z
-x,y,z
x,-y,z
x,1/2+y,1/2+z
-x,1/2-y,1/2+z
-x,1/2+y,1/2+z
x,1/2-y,1/2+z
1/2+x,y,1/2+z
1/2-x,-y,1/2+z
1/2-x,y,1/2+z
1/2+x,-y,1/2+z
1/2+x,1/2+y,z
1/2-x,1/2-y,z
1/2-x,1/2+y,z
1/2+x,1/2-y,z
loop_
_atom_site_type_symbol
_atom_site_label
_atom_site_fract_x
_atom_site_fract_y
_atom_site_fract_z
Si Si1 0.683821 0.825916 0.974760
Si Si2 0.816118 0.173990 0.646929
Si Si3 0.683805 0.326429 0.060772
Si Si4 0.328876 0.418131 0.307364
Si Si5 0.818549 0.577127 0.222033
Si Si6 0.684024 0.576889 0.399607
O O1 0.500000 0.822883 0.977510
O O2 0.750000 0.750000 0.967902
O O3 0.744580 0.872144 0.935898
O O4 0.750906 0.861307 0.017802
O O5 0.750000 0.250000 0.654036
O O6 0.749730 0.138952 0.603714
O O7 0.754561 0.126671 0.685295
O O8 0.000000 0.177581 0.644435
O O9 0.500000 0.327088 0.060903
O O10 0.750000 0.250000 0.060587
O O11 0.500000 0.387475 0.300838
O O12 0.335141 0.500000 0.308173
O O13 0.226082 0.391846 0.268068
O O14 0.259763 0.395150 0.353256
O O15 0.749127 0.500000 0.216073
O O16 0.000000 0.573802 0.218997
O O17 0.500000 0.574432 0.399006
O O18 0.748734 0.500000 0.408584
#
# Coordination Sequence:
#
# PCOD8185849 Si02
#       6
#    16  16  16  16  16  16
#     4  10  18  30  49  70  94 122 153 190 229 272
#     4  10  19  32  50  70  93 121 154 191 229 272
#     4  10  18  30  48  68  92 121 155 190 225 273
#     4   8  14  27  48  70  91 119 156 192 225 267
#     4   9  18  32  49  70  95 122 153 189 229 273
#     4   8  15  29  49  71  92 119 157 194 226 266
#
# _framework density 18.110444999999999
#
# number of rings (size 3 to 8) (size 9 to 14) (size 15 to 20)
#    0.000    2.833    0.000    5.500    0.000    1.333 
#    0.000    3.333    0.000   13.000    0.000    0.000 
#    0.000    0.000    0.000    0.000    0.000    0.000 
#
# Total GULP energy -297405.173726 kJ/mol
# GULP energy per Si atom -12391.882239 kJ/mol
# Density = 1.806923 g / cm^3
# Si number density = 18.110445 Si / 1000 Ang^3
#
#
#
# Elastic Constant Matrix: (Units=GPa)
#
#
# Indices 1 2 3 4 5 6 
#
# 1 66.2605 20.0247 42.0816 0.0000 0.0000 0.0000
# 2 20.0247 58.6197 70.0360 0.0000 0.0000 0.0000
# 3 42.0816 70.0360 215.1104 0.0000 0.0000 0.0000
# 4 0.0000 0.0000 0.0000 33.9090 0.0000 0.0000
# 5 0.0000 0.0000 0.0000 0.0000 29.9787 0.0000
# 6 0.0000 0.0000 0.0000 0.0000 0.0000 16.1568
#
#
#
# Elastic Compliance Matrix: (Units=1/GPa)
#
#
# Indices 1 2 3 4 5 6 
#
# 1 0.017571 -0.003102 -0.002427 0.000000 0.000000 0.000000
# 2 -0.003102 0.028467 -0.008662 0.000000 0.000000 0.000000
# 3 -0.002427 -0.008662 0.007944 0.000000 0.000000 0.000000
# 4 0.000000 0.000000 0.000000 0.029491 0.000000 0.000000
# 5 0.000000 0.000000 0.000000 0.000000 0.033357 0.000000
# 6 0.000000 0.000000 0.000000 0.000000 0.000000 0.061893
#
#
# Mechanical properties :
#
#
# Convention : Reuss Voigt Hill
#
# Bulk Modulus (GPa) = 39.06291 67.14167 53.10229
# Shear Modulus (GPa) = 23.18694 29.86545 26.52619
#
# Velocity S-wave (km/s) = 3.58202 4.06528 3.83128
# Velocity P-wave (km/s) = 6.22285 7.69346 6.99690
#
# Compressibility (1/GPa) = 0.02559973
#
# Stress axis : x y z
#
# Youngs Moduli (GPa) = 56.91166 35.12810 125.88644
#
# Poissons Ratio (x) = 0.10898 0.30557
# Poissons Ratio (y) = 0.17655 1.09037
# Poissons Ratio (z) = 0.13815 0.30426
#
# Static dielectric constant tensor:
#      x y z
#    x 3.197760 0.000000 0.000000 
#    y 0.000000 3.138290 0.000000 
#    z 0.000000 0.000000 4.258720 
# 
# 
# High freq. dielectric constant tensor:
#      x y z
#    x 1.689290 0.000000 0.000000 
#    y 0.000000 1.652900 0.000000 
#    z 0.000000 0.000000 1.728540 
# 
# From -- ./inp_files/28056.got.cif
#   From: 2010.03.12/outbox.cif.g09.slc.cpg/sg42_15_cif.got.tgz:28056.got - 2010.04.14 02:04:31.
