data_PCOD8185623
_publ_section_title
;
Structure prediction by ZEFSAII (Michael W. Deem and Ramdas Pophale) SiO2 
 PCOD8185623
Probable space group: A B A 2
;
_chemical_formula_sum "Si O2"
_cell_formula_units_Z 48
_cell_length_a 9.522895
_cell_length_b 21.372353
_cell_length_c 10.633944
_cell_angle_alpha 90.000000
_cell_angle_beta 90.000000
_cell_angle_gamma 90.000000
_cell_volume 2164.291249
_symmetry_space_group_name_H-M "A B A 2"
_symmetry_group_IT_number 41
_symmetry_cell_setting 'orthorhombic'
loop_
_space_group_symop_operation_xyz
x,y,z
-x,-y,z
1/2-x,y,1/2+z
1/2+x,-y,1/2+z
x,1/2+y,1/2+z
-x,1/2-y,1/2+z
1/2-x,1/2+y,z
1/2+x,1/2-y,z
loop_
_atom_site_type_symbol
_atom_site_label
_atom_site_fract_x
_atom_site_fract_y
_atom_site_fract_z
Si Si1 0.234123 0.348102 0.972170
Si Si2 0.612518 0.235112 0.171228
Si Si3 0.350397 0.030159 0.640946
Si Si4 0.341430 0.482891 0.414091
Si Si5 0.549931 0.848862 0.527974
Si Si6 0.347264 0.224060 0.323508
O O1 0.159824 0.407590 0.908994
O O2 0.395287 0.370720 0.986511
O O3 0.208266 0.289375 0.881986
O O4 0.165067 0.329734 0.107493
O O5 0.512170 0.222394 0.288924
O O6 0.744093 0.281079 0.205062
O O7 0.521900 0.278399 0.078217
O O8 0.376962 0.104517 0.626874
O O9 0.500000 0.000000 0.617970
O O10 0.290581 0.012040 0.779415
O O11 0.248813 0.007999 0.530144
O O12 0.500000 0.500000 0.441655
O O13 0.662017 0.836834 0.413840
#
# Coordination Sequence:
#
# PCOD8185623 Si02
#       6
#     8   8   8   8   8   8
#     4  11  24  45  70 100 143 191 240 299 376 438
#     4  11  24  40  70 102 140 183 237 300 366 434
#     4  11  26  48  73 105 141 198 248 305 368 444
#     4  11  28  47  74 107 143 194 250 308 371 441
#     4  11  24  43  68 101 143 186 241 299 365 440
#     4  11  24  40  69 105 138 186 236 300 364 436
#
# _framework density 22.178162
#
# number of rings (size 3 to 8) (size 9 to 14) (size 15 to 20)
#    0.000    1.000    5.000    0.000    9.333    2.000 
#    0.000    0.000    0.000    0.000    0.000    0.000 
#    0.000    0.000    0.000    0.000    0.000    0.000 
#
# Total GULP energy -297376.396313 kJ/mol
# GULP energy per Si atom -12390.683180 kJ/mol
# Density = 2.212768 g / cm^3
# Si number density = 22.178162 Si / 1000 Ang^3
#
#
#
# Elastic Constant Matrix: (Units=GPa)
#
#
# Indices 1 2 3 4 5 6 
#
# 1 83.9508 27.4870 50.3690 0.0000 0.0000 0.0000
# 2 27.4870 115.1230 38.8204 0.0000 0.0000 0.0000
# 3 50.3690 38.8204 136.9350 0.0000 0.0000 0.0000
# 4 0.0000 0.0000 0.0000 42.5388 0.0000 0.0000
# 5 0.0000 0.0000 0.0000 0.0000 34.9719 0.0000
# 6 0.0000 0.0000 0.0000 0.0000 0.0000 25.1647
#
#
#
# Elastic Compliance Matrix: (Units=1/GPa)
#
#
# Indices 1 2 3 4 5 6 
#
# 1 0.015687 -0.001990 -0.005206 0.000000 0.000000 0.000000
# 2 -0.001990 0.009857 -0.002062 0.000000 0.000000 0.000000
# 3 -0.005206 -0.002062 0.009802 0.000000 0.000000 0.000000
# 4 0.000000 0.000000 0.000000 0.023508 0.000000 0.000000
# 5 0.000000 0.000000 0.000000 0.000000 0.028594 0.000000
# 6 0.000000 0.000000 0.000000 0.000000 0.000000 0.039738
#
#
# Mechanical properties :
#
#
# Convention : Reuss Voigt Hill
#
# Bulk Modulus (GPa) = 59.41973 63.26239 61.34106
# Shear Modulus (GPa) = 33.04410 35.15725 34.10067
#
# Velocity S-wave (km/s) = 3.86416 3.98580 3.92545
# Velocity P-wave (km/s) = 6.83807 7.05469 6.94722
#
# Compressibility (1/GPa) = 0.01682943
#
# Stress axis : x y z
#
# Youngs Moduli (GPa) = 63.74806 101.45121 102.01649
#
# Poissons Ratio (x) = 0.20188 0.53109
# Poissons Ratio (y) = 0.12685 0.21040
# Poissons Ratio (z) = 0.33187 0.20924
#
# Static dielectric constant tensor:
#      x y z
#    x 4.034780 0.000000 0.000000 
#    y 0.000000 3.987370 0.000000 
#    z 0.000000 0.000000 4.294790 
# 
# 
# High freq. dielectric constant tensor:
#      x y z
#    x 1.874450 0.000000 0.000000 
#    y 0.000000 1.866960 0.000000 
#    z 0.000000 0.000000 1.883360 
# 
# From -- ./inp_files/4480.got.cif
#   From: 2010.03.12/outbox.cif.g09.slc.cpg/sg41_3_cif.got.tgz:4480.got - 2010.04.14 01:55:53.
