data_PCOD8185525
_publ_section_title
;
Structure prediction by ZEFSAII (Michael W. Deem and Ramdas Pophale) SiO2 
 PCOD8185525
Probable space group: A B A 2
;
_chemical_formula_sum "Si O2"
_cell_formula_units_Z 48
_cell_length_a 11.299517
_cell_length_b 14.039439
_cell_length_c 13.379777
_cell_angle_alpha 90.000000
_cell_angle_beta 90.000000
_cell_angle_gamma 90.000000
_cell_volume 2122.552833
_symmetry_space_group_name_H-M "A B A 2"
_symmetry_group_IT_number 41
_symmetry_cell_setting 'orthorhombic'
loop_
_space_group_symop_operation_xyz
x,y,z
-x,-y,z
1/2-x,y,1/2+z
1/2+x,-y,1/2+z
x,1/2+y,1/2+z
-x,1/2-y,1/2+z
1/2-x,1/2+y,z
1/2+x,1/2-y,z
loop_
_atom_site_type_symbol
_atom_site_label
_atom_site_fract_x
_atom_site_fract_y
_atom_site_fract_z
Si Si1 0.915074 0.656045 0.535560
Si Si2 0.500000 0.000000 0.390321
Si Si3 0.774286 0.933724 0.796747
Si Si4 0.602992 0.299832 0.202883
Si Si5 0.699329 0.597482 0.667826
Si Si6 0.914351 0.345734 0.916031
Si Si7 0.500000 0.500000 0.553339
O O1 0.925211 0.569315 0.459770
O O2 0.799023 0.637845 0.597906
O O3 0.886546 0.749578 0.473481
O O4 0.030809 0.665432 0.606060
O O5 0.585288 0.934637 0.320700
O O6 0.730447 0.856129 0.712069
O O7 0.706380 0.907252 0.899805
O O8 0.740642 0.041245 0.760750
O O9 0.620643 0.186490 0.202555
O O10 0.530247 0.323859 0.305560
O O11 0.616805 0.514544 0.619956
O O12 0.001383 0.406702 0.983927
#
# Coordination Sequence:
#
# PCOD8185525 Si02
#       7
#     8   4   8   8   8   8   4
#     4  12  26  47  78 111 153 204 255 317 391 458
#     4  12  25  47  76 112 156 202 260 316 388 466
#     4  10  26  46  74 107 152 194 256 316 378 457
#     4  10  26  47  74 110 152 199 256 323 379 460
#     4  12  26  45  76 108 149 204 251 315 389 451
#     4  10  26  45  73 107 149 195 258 314 378 451
#     4  12  25  45  70 106 148 200 256 314 372 462
#
# _framework density 22.614277999999999
#
# number of rings (size 3 to 8) (size 9 to 14) (size 15 to 20)
#    1.000    0.000    1.667    3.500    7.000    2.667 
#    0.000    0.000    0.000    0.000    0.000    0.000 
#    0.000    0.000    0.000    0.000    0.000    0.000 
#
# Total GULP energy -297413.700758 kJ/mol
# GULP energy per Si atom -12392.237532 kJ/mol
# Density = 2.256281 g / cm^3
# Si number density = 22.614278 Si / 1000 Ang^3
#
#
#
# Elastic Constant Matrix: (Units=GPa)
#
#
# Indices 1 2 3 4 5 6 
#
# 1 75.9433 29.2669 43.2446 0.0000 0.0000 0.0000
# 2 29.2669 130.2001 49.2358 0.0000 0.0000 0.0000
# 3 43.2446 49.2358 99.9247 0.0000 0.0000 0.0000
# 4 0.0000 0.0000 0.0000 42.6773 0.0000 0.0000
# 5 0.0000 0.0000 0.0000 0.0000 26.4817 0.0000
# 6 0.0000 0.0000 0.0000 0.0000 0.0000 33.0733
#
#
#
# Elastic Compliance Matrix: (Units=1/GPa)
#
#
# Indices 1 2 3 4 5 6 
#
# 1 0.017658 -0.001327 -0.006988 0.000000 0.000000 0.000000
# 2 -0.001327 0.009539 -0.004126 0.000000 0.000000 0.000000
# 3 -0.006988 -0.004126 0.015065 0.000000 0.000000 0.000000
# 4 0.000000 0.000000 0.000000 0.023432 0.000000 0.000000
# 5 0.000000 0.000000 0.000000 0.000000 0.037762 0.000000
# 6 0.000000 0.000000 0.000000 0.000000 0.000000 0.030236
#
#
# Mechanical properties :
#
#
# Convention : Reuss Voigt Hill
#
# Bulk Modulus (GPa) = 57.53662 61.06252 59.29957
# Shear Modulus (GPa) = 30.41974 32.73454 31.57714
#
# Velocity S-wave (km/s) = 3.67162 3.80875 3.74081
# Velocity P-wave (km/s) = 6.59334 6.81194 6.70353
#
# Compressibility (1/GPa) = 0.01738024
#
# Stress axis : x y z
#
# Youngs Moduli (GPa) = 56.63035 104.83325 66.37948
#
# Poissons Ratio (x) = 0.13908 0.46388
# Poissons Ratio (y) = 0.07513 0.27388
# Poissons Ratio (z) = 0.39575 0.43254
#
# Static dielectric constant tensor:
#      x y z
#    x 3.724200 0.000000 0.000000 
#    y 0.000000 4.596660 0.000000 
#    z 0.000000 0.000000 4.225740 
# 
# 
# High freq. dielectric constant tensor:
#      x y z
#    x 1.869280 0.000000 0.000000 
#    y 0.000000 1.905250 0.000000 
#    z 0.000000 0.000000 1.904550 
# 
# From -- ./inp_files/7934.got.cif
#   From: 2010.03.12/outbox.cif.g09.slc.cpg/sg41_4_cif.got.tgz:7934.got - 2010.04.14 01:55:53.
