data_PCOD8185605
_publ_section_title
;
Structure prediction by ZEFSAII (Michael W. Deem and Ramdas Pophale) SiO2 
 PCOD8185605
Probable space group: A B A 2
;
_chemical_formula_sum "Si O2"
_cell_formula_units_Z 60
_cell_length_a 16.950117
_cell_length_b 18.477708
_cell_length_c 8.154837
_cell_angle_alpha 90.000000
_cell_angle_beta 90.000000
_cell_angle_gamma 90.000000
_cell_volume 2554.089342
_symmetry_space_group_name_H-M "A B A 2"
_symmetry_group_IT_number 41
_symmetry_cell_setting 'orthorhombic'
loop_
_space_group_symop_operation_xyz
x,y,z
-x,-y,z
1/2-x,y,1/2+z
1/2+x,-y,1/2+z
x,1/2+y,1/2+z
-x,1/2-y,1/2+z
1/2-x,1/2+y,z
1/2+x,1/2-y,z
loop_
_atom_site_type_symbol
_atom_site_label
_atom_site_fract_x
_atom_site_fract_y
_atom_site_fract_z
Si Si1 0.627965 0.777517 0.539040
Si Si2 0.500000 0.000000 0.540535
Si Si3 0.231643 0.357004 0.937332
Si Si4 0.284375 0.108823 0.724776
Si Si5 0.336838 0.451212 0.179960
Si Si6 0.971527 0.371149 0.325462
Si Si7 0.880035 0.708884 0.355418
Si Si8 0.362134 0.158228 0.061673
O O1 0.678094 0.706561 0.504973
O O2 0.679037 0.849201 0.569803
O O3 0.566052 0.796874 0.398357
O O4 0.585539 0.761212 0.713200
O O5 0.569185 0.036898 0.649817
O O6 0.451969 0.056338 0.426227
O O7 0.173197 0.416287 0.859995
O O8 0.291893 0.318705 0.808582
O O9 0.294491 0.394687 0.059611
O O10 0.195087 0.141358 0.719757
O O11 0.287089 0.025126 0.676800
O O12 0.329253 0.119585 0.897843
O O13 0.944628 0.375442 0.133313
O O14 0.064676 0.361577 0.357057
O O15 0.874653 0.756257 0.524463
#
# Coordination Sequence:
#
# PCOD8185605 Si02
#       8
#     8   4   8   8   8   8   8   8
#     4  11  24  44  73 107 141 192 247 313 373 461
#     4  12  28  50  72 106 160 212 246 310 404 466
#     4  12  25  45  77 109 147 191 261 314 384 447
#     4  11  23  45  72 109 144 191 252 300 381 455
#     4  12  27  49  74 109 153 200 246 323 383 467
#     4  12  26  46  74 103 153 196 248 307 391 456
#     4  11  24  44  70 108 145 189 246 317 377 448
#     4  11  25  42  75 107 142 193 251 309 372 453
#
# _framework density 23.49174
#
# number of rings (size 3 to 8) (size 9 to 14) (size 15 to 20)
#    0.000    0.533    5.333    2.400    5.600    1.067 
#    4.800    0.000    0.000    0.000    0.000    0.000 
#    0.000    0.000    0.000    0.000    0.000    0.000 
#
# Total GULP energy -371648.758621 kJ/mol
# GULP energy per Si atom -12388.291954 kJ/mol
# Density = 2.343827 g / cm^3
# Si number density = 23.491740 Si / 1000 Ang^3
#
#
#
# Elastic Constant Matrix: (Units=GPa)
#
#
# Indices 1 2 3 4 5 6 
#
# 1 105.3870 43.4925 45.3069 0.0000 0.0000 0.0000
# 2 43.4925 121.7555 37.0322 0.0000 0.0000 0.0000
# 3 45.3069 37.0322 76.6009 0.0000 0.0000 0.0000
# 4 0.0000 0.0000 0.0000 31.2617 0.0000 0.0000
# 5 0.0000 0.0000 0.0000 0.0000 28.1475 0.0000
# 6 0.0000 0.0000 0.0000 0.0000 0.0000 40.3974
#
#
#
# Elastic Compliance Matrix: (Units=1/GPa)
#
#
# Indices 1 2 3 4 5 6 
#
# 1 0.013495 -0.002805 -0.006626 0.000000 0.000000 0.000000
# 2 -0.002805 0.010212 -0.003278 0.000000 0.000000 0.000000
# 3 -0.006626 -0.003278 0.018558 0.000000 0.000000 0.000000
# 4 0.000000 0.000000 0.000000 0.031988 0.000000 0.000000
# 5 0.000000 0.000000 0.000000 0.000000 0.035527 0.000000
# 6 0.000000 0.000000 0.000000 0.000000 0.000000 0.024754
#
#
# Mechanical properties :
#
#
# Convention : Reuss Voigt Hill
#
# Bulk Modulus (GPa) = 59.35464 61.71184 60.53324
# Shear Modulus (GPa) = 30.19906 31.82210 31.01058
#
# Velocity S-wave (km/s) = 3.58930 3.68449 3.63721
# Velocity P-wave (km/s) = 6.51909 6.66538 6.59264
#
# Compressibility (1/GPa) = 0.01684788
#
# Stress axis : x y z
#
# Youngs Moduli (GPa) = 74.10151 97.92181 53.88479
#
# Poissons Ratio (x) = 0.27471 0.35702
# Poissons Ratio (y) = 0.20788 0.17662
# Poissons Ratio (z) = 0.49097 0.32096
#
# Static dielectric constant tensor:
#      x y z
#    x 4.322370 0.000000 0.000000 
#    y 0.000000 4.196270 0.000000 
#    z 0.000000 0.000000 4.144160 
# 
# 
# High freq. dielectric constant tensor:
#      x y z
#    x 1.924220 0.000000 0.000000 
#    y 0.000000 1.934110 0.000000 
#    z 0.000000 0.000000 1.929010 
# 
# From -- ./inp_files/3154.got.cif
#   From: 2010.03.12/outbox.cif.g09.slc.cpg/sg41_2_cif.got.tgz:3154.got - 2010.04.14 01:55:53.
