data_PCOD8185138
_publ_section_title
;
Structure prediction by ZEFSAII (Michael W. Deem and Ramdas Pophale) SiO2 
 PCOD8185138
Probable space group: A B A 2
;
_chemical_formula_sum "Si O2"
_cell_formula_units_Z 64
_cell_length_a 8.774939
_cell_length_b 14.986288
_cell_length_c 22.479257
_cell_angle_alpha 90.000000
_cell_angle_beta 90.000000
_cell_angle_gamma 90.000000
_cell_volume 2956.106886
_symmetry_space_group_name_H-M "A B A 2"
_symmetry_group_IT_number 41
_symmetry_cell_setting 'orthorhombic'
loop_
_space_group_symop_operation_xyz
x,y,z
-x,-y,z
1/2-x,y,1/2+z
1/2+x,-y,1/2+z
x,1/2+y,1/2+z
-x,1/2-y,1/2+z
1/2-x,1/2+y,z
1/2+x,1/2-y,z
loop_
_atom_site_type_symbol
_atom_site_label
_atom_site_fract_x
_atom_site_fract_y
_atom_site_fract_z
Si Si1 0.923493 0.204492 0.926160
Si Si2 0.668291 0.513007 0.677060
Si Si3 0.177858 0.152041 0.232039
Si Si4 0.679062 0.517895 0.929817
Si Si5 0.231597 0.652700 0.366757
Si Si6 0.519266 0.650290 0.057215
Si Si7 0.770335 0.479466 0.554187
Si Si8 0.860243 0.689733 0.679662
O O1 0.805394 0.122188 0.912992
O O2 0.850494 0.298671 0.910169
O O3 0.066974 0.191030 0.883283
O O4 0.961253 0.206217 0.996459
O O5 0.500000 0.500000 0.705614
O O6 0.785854 0.448033 0.710668
O O7 0.648348 0.489168 0.606853
O O8 0.732686 0.612546 0.684810
O O9 0.224417 0.170706 0.299574
O O10 0.278678 0.218322 0.193308
O O11 0.997716 0.168500 0.225060
O O12 0.500000 0.500000 0.947449
O O13 0.733093 0.454568 0.876282
O O14 0.787237 0.490962 0.986079
O O15 0.613147 0.560244 0.061566
O O16 0.344110 0.618932 0.061938
O O17 0.568082 0.707561 0.114314
#
# Coordination Sequence:
#
# PCOD8185138 Si02
#       8
#     8   8   8   8   8   8   8   8
#     4  10  21  39  63  91 121 159 213 262 316 378
#     4  11  24  41  66  96 125 166 216 269 330 394
#     4  12  25  41  62  90 131 173 217 264 320 389
#     4   9  17  36  65  87 116 168 210 246 322 388
#     4  11  23  39  60  90 121 167 211 263 308 376
#     4   9  16  34  66  91 117 161 204 253 326 380
#     4   9  14  34  63  90 118 156 204 255 318 378
#     4  11  24  42  65  95 128 169 211 267 326 389
#
# _framework density 21.650096999999999
#
# number of rings (size 3 to 8) (size 9 to 14) (size 15 to 20)
#    0.000    1.750    5.000    1.875    0.000    4.500 
#    0.000    6.875    0.000    0.000    0.000    0.000 
#    0.000    0.000    0.000    0.000    0.000    0.000 
#
# Total GULP energy -396577.482823 kJ/mol
# GULP energy per Si atom -12393.046338 kJ/mol
# Density = 2.160082 g / cm^3
# Si number density = 21.650097 Si / 1000 Ang^3
#
#
#
# Elastic Constant Matrix: (Units=GPa)
#
#
# Indices 1 2 3 4 5 6 
#
# 1 68.8070 8.8737 29.7836 0.0000 0.0000 0.0000
# 2 8.8737 50.9978 35.4438 0.0000 0.0000 0.0000
# 3 29.7836 35.4438 123.4756 0.0000 0.0000 0.0000
# 4 0.0000 0.0000 0.0000 17.2830 0.0000 0.0000
# 5 0.0000 0.0000 0.0000 0.0000 17.2903 0.0000
# 6 0.0000 0.0000 0.0000 0.0000 0.0000 29.1402
#
#
#
# Elastic Compliance Matrix: (Units=1/GPa)
#
#
# Indices 1 2 3 4 5 6 
#
# 1 0.016228 -0.000129 -0.003877 0.000000 0.000000 0.000000
# 2 -0.000129 0.024497 -0.007001 0.000000 0.000000 0.000000
# 3 -0.003877 -0.007001 0.011044 0.000000 0.000000 0.000000
# 4 0.000000 0.000000 0.000000 0.057860 0.000000 0.000000
# 5 0.000000 0.000000 0.000000 0.000000 0.057836 0.000000
# 6 0.000000 0.000000 0.000000 0.000000 0.000000 0.034317
#
#
# Mechanical properties :
#
#
# Convention : Reuss Voigt Hill
#
# Bulk Modulus (GPa) = 33.60833 43.49808 38.55320
# Shear Modulus (GPa) = 21.39365 24.02132 22.70749
#
# Velocity S-wave (km/s) = 3.14690 3.33457 3.24209
# Velocity P-wave (km/s) = 5.36294 5.91277 5.64455
#
# Compressibility (1/GPa) = 0.02975453
#
# Stress axis : x y z
#
# Youngs Moduli (GPa) = 61.62031 40.82194 90.55021
#
# Poissons Ratio (x) = 0.00526 0.35110
# Poissons Ratio (y) = 0.00794 0.63391
# Poissons Ratio (z) = 0.23893 0.28578
#
# Static dielectric constant tensor:
#      x y z
#    x 3.684470 0.000000 0.000000 
#    y 0.000000 3.884370 0.000000 
#    z 0.000000 0.000000 4.047330 
# 
# 
# High freq. dielectric constant tensor:
#      x y z
#    x 1.823080 0.000000 0.000000 
#    y 0.000000 1.848110 0.000000 
#    z 0.000000 0.000000 1.851370 
# 
# From -- ./inp_files/12041.got.cif
#   From: 2010.03.12/outbox.cif.g09.slc.cpg/sg41_7_cif.got.tgz:12041.got - 2010.04.14 01:55:53.
