data_PCOD8185988
_publ_section_title
;
Structure prediction by ZEFSAII (Michael W. Deem and Ramdas Pophale) SiO2 
 PCOD8185988
Probable space group: F M M 2
;
_chemical_formula_sum "Si O2"
_cell_formula_units_Z 112
_cell_length_a 14.163102
_cell_length_b 14.051440
_cell_length_c 29.259007
_cell_angle_alpha 90.000000
_cell_angle_beta 90.000000
_cell_angle_gamma 90.000000
_cell_volume 5822.892856
_symmetry_space_group_name_H-M "F M M 2"
_symmetry_group_IT_number 42
_symmetry_cell_setting 'orthorhombic'
loop_
_space_group_symop_operation_xyz
x,y,z
-x,-y,z
-x,y,z
x,-y,z
x,1/2+y,1/2+z
-x,1/2-y,1/2+z
-x,1/2+y,1/2+z
x,1/2-y,1/2+z
1/2+x,y,1/2+z
1/2-x,-y,1/2+z
1/2-x,y,1/2+z
1/2+x,-y,1/2+z
1/2+x,1/2+y,z
1/2-x,1/2-y,z
1/2-x,1/2+y,z
1/2+x,1/2-y,z
loop_
_atom_site_type_symbol
_atom_site_label
_atom_site_fract_x
_atom_site_fract_y
_atom_site_fract_z
Si Si1 0.105419 0.705522 0.696640
Si Si2 0.104799 0.887773 0.467063
Si Si3 0.793951 0.891242 0.279400
Si Si4 0.888594 0.217357 0.093153
Si Si5 0.109720 0.609122 0.867435
Si Si6 0.782392 0.612505 0.055595
Si Si7 0.897038 0.895179 0.741819
O O1 0.174931 0.657207 0.732286
O O2 0.131497 0.681211 0.644586
O O3 0.112909 0.819688 0.701052
O O4 0.000000 0.669491 0.707731
O O5 0.133597 0.844801 0.417141
O O6 0.184071 0.862037 0.504115
O O7 0.000000 0.849259 0.481543
O O8 0.095943 0.000000 0.461018
O O9 0.835439 0.840885 0.324983
O O10 0.680691 0.879766 0.281430
O O11 0.827915 0.000000 0.276874
O O12 0.851463 0.326157 0.088411
O O13 0.826373 0.147239 0.060845
O O14 0.000000 0.210630 0.080926
O O15 0.142533 0.500000 0.868266
O O16 0.000000 0.619471 0.856818
O O17 0.792332 0.500000 0.066227
O O18 0.000000 0.885424 0.765499
O O19 0.883965 0.000000 0.719621
#
# Coordination Sequence:
#
# PCOD8185988 Si02
#       7
#    16  16  16  16  16  16  16
#     4  10  21  36  52  72 104 141 176 218 266 318
#     4   8  14  28  53  82 109 135 171 226 281 325
#     4  10  19  30  52  80 108 141 174 213 263 322
#     4  10  23  39  55  80 114 150 186 231 282 331
#     4   8  14  26  47  79 112 137 169 216 269 322
#     4  10  21  36  59  85 108 143 189 233 280 336
#     4   9  19  34  51  70  96 139 187 225 260 300
#
# _framework density 19.234425999999999
#
# number of rings (size 3 to 8) (size 9 to 14) (size 15 to 20)
#    0.000    2.714    0.000    2.143    4.000    3.143 
#    0.000    2.857    6.286    0.857    0.000    4.000 
#    0.000    0.000    0.000    0.000    0.000    0.000 
#
# Total GULP energy -346883.748654 kJ/mol
# GULP energy per Si atom -12388.705309 kJ/mol
# Density = 1.919065 g / cm^3
# Si number density = 19.234426 Si / 1000 Ang^3
#
#
#
# Elastic Constant Matrix: (Units=GPa)
#
#
# Indices 1 2 3 4 5 6 
#
# 1 133.4950 34.6164 75.0007 0.0000 0.0000 0.0000
# 2 34.6164 64.8750 31.3422 0.0000 0.0000 0.0000
# 3 75.0007 31.3422 127.2792 0.0000 0.0000 0.0000
# 4 0.0000 0.0000 0.0000 14.3043 0.0000 0.0000
# 5 0.0000 0.0000 0.0000 0.0000 25.0597 0.0000
# 6 0.0000 0.0000 0.0000 0.0000 0.0000 22.7873
#
#
#
# Elastic Compliance Matrix: (Units=1/GPa)
#
#
# Indices 1 2 3 4 5 6 
#
# 1 0.011801 -0.003334 -0.006133 0.000000 0.000000 0.000000
# 2 -0.003334 0.018438 -0.002576 0.000000 0.000000 0.000000
# 3 -0.006133 -0.002576 0.012105 0.000000 0.000000 0.000000
# 4 0.000000 0.000000 0.000000 0.069909 0.000000 0.000000
# 5 0.000000 0.000000 0.000000 0.000000 0.039905 0.000000
# 6 0.000000 0.000000 0.000000 0.000000 0.000000 0.043884
#
#
# Mechanical properties :
#
#
# Convention : Reuss Voigt Hill
#
# Bulk Modulus (GPa) = 54.76916 67.50753 61.13835
# Shear Modulus (GPa) = 22.10314 24.74295 23.42304
#
# Velocity S-wave (km/s) = 3.39358 3.59052 3.49344
# Velocity P-wave (km/s) = 6.62507 7.23620 6.93737
#
# Compressibility (1/GPa) = 0.01825845
#
# Stress axis : x y z
#
# Youngs Moduli (GPa) = 84.73810 54.23723 82.61135
#
# Poissons Ratio (x) = 0.18082 0.50665
# Poissons Ratio (y) = 0.28251 0.21277
# Poissons Ratio (z) = 0.51969 0.13969
#
# Static dielectric constant tensor:
#      x y z
#    x 3.687330 0.000000 0.000000 
#    y 0.000000 3.370930 0.000000 
#    z 0.000000 0.000000 3.601970 
# 
# 
# High freq. dielectric constant tensor:
#      x y z
#    x 1.755020 0.000000 0.000000 
#    y 0.000000 1.720230 0.000000 
#    z 0.000000 0.000000 1.735900 
# 
# From -- ./inp_files/32591.got.cif
#   From: 2010.03.12/outbox.cif.g09.slc.cpg/sg42_17_cif.got.tgz:32591.got - 2010.04.14 02:04:31.
