data_PCOD8185536
_publ_section_title
;
Structure prediction by ZEFSAII (Michael W. Deem and Ramdas Pophale) SiO2 
 PCOD8185536
Probable space group: A B A 2
;
_chemical_formula_sum "Si O2"
_cell_formula_units_Z 64
_cell_length_a 8.277413
_cell_length_b 15.051870
_cell_length_c 23.166346
_cell_angle_alpha 90.000000
_cell_angle_beta 90.000000
_cell_angle_gamma 90.000000
_cell_volume 2886.307660
_symmetry_space_group_name_H-M "A B A 2"
_symmetry_group_IT_number 41
_symmetry_cell_setting 'orthorhombic'
loop_
_space_group_symop_operation_xyz
x,y,z
-x,-y,z
1/2-x,y,1/2+z
1/2+x,-y,1/2+z
x,1/2+y,1/2+z
-x,1/2-y,1/2+z
1/2-x,1/2+y,z
1/2+x,1/2-y,z
loop_
_atom_site_type_symbol
_atom_site_label
_atom_site_fract_x
_atom_site_fract_y
_atom_site_fract_z
Si Si1 0.918140 0.211631 0.696130
Si Si2 0.285749 0.323774 0.855587
Si Si3 0.123161 0.660226 0.542527
Si Si4 0.190902 0.012897 0.348219
Si Si5 0.704185 0.324789 0.769343
Si Si6 0.476563 0.764323 0.934267
Si Si7 0.353759 0.064391 0.974157
Si Si8 0.838024 0.703058 0.613950
O O1 0.834353 0.304177 0.718356
O O2 0.777577 0.154412 0.662299
O O3 0.017307 0.161451 0.747301
O O4 0.049497 0.229466 0.647847
O O5 0.291361 0.424630 0.832168
O O6 0.207676 0.265873 0.805323
O O7 0.456986 0.285192 0.876474
O O8 0.174898 0.322117 0.912951
O O9 0.068562 0.689948 0.479372
O O10 0.228772 0.571015 0.528674
O O11 0.226730 0.738519 0.571671
O O12 0.959233 0.637178 0.578930
O O13 0.247600 0.090474 0.306194
O O14 0.230488 0.033645 0.414928
O O15 0.000000 0.000000 0.340164
O O16 0.595977 0.833527 0.964147
O O17 0.500000 0.000000 0.992845
#
# Coordination Sequence:
#
# PCOD8185536 Si02
#       8
#     8   8   8   8   8   8   8   8
#     4   9  20  36  61  92 117 156 217 279 323 381
#     4  12  22  36  62  92 131 174 209 255 315 388
#     4  11  19  36  63  94 121 168 219 265 320 393
#     4  11  21  37  58  90 134 177 212 256 316 397
#     4  11  20  38  61  90 126 169 216 265 326 393
#     4  12  20  36  61  92 130 167 210 256 306 387
#     4  11  21  35  57  89 136 177 209 257 319 388
#     4   9  19  36  63  94 115 153 228 268 324 390
#
# _framework density 22.173658
#
# number of rings (size 3 to 8) (size 9 to 14) (size 15 to 20)
#    0.000    1.250    6.250    1.500    0.000    0.000 
#    0.000    5.625    0.000    4.500   19.500    0.000 
#    0.000    0.000    0.000    0.000    0.500    0.000 
#
# Total GULP energy -396431.389956 kJ/mol
# GULP energy per Si atom -12388.480936 kJ/mol
# Density = 2.212319 g / cm^3
# Si number density = 22.173658 Si / 1000 Ang^3
#
#
#
# Elastic Constant Matrix: (Units=GPa)
#
#
# Indices 1 2 3 4 5 6 
#
# 1 114.3515 41.1028 55.1844 0.0000 0.0000 0.0000
# 2 41.1028 100.3904 36.9113 0.0000 0.0000 0.0000
# 3 55.1844 36.9113 101.0902 0.0000 0.0000 0.0000
# 4 0.0000 0.0000 0.0000 17.6950 0.0000 0.0000
# 5 0.0000 0.0000 0.0000 0.0000 46.7656 0.0000
# 6 0.0000 0.0000 0.0000 0.0000 0.0000 24.7788
#
#
#
# Elastic Compliance Matrix: (Units=1/GPa)
#
#
# Indices 1 2 3 4 5 6 
#
# 1 0.012630 -0.003045 -0.005783 0.000000 0.000000 0.000000
# 2 -0.003045 0.012240 -0.002807 0.000000 0.000000 0.000000
# 3 -0.005783 -0.002807 0.014074 0.000000 0.000000 0.000000
# 4 0.000000 0.000000 0.000000 0.056513 0.000000 0.000000
# 5 0.000000 0.000000 0.000000 0.000000 0.021383 0.000000
# 6 0.000000 0.000000 0.000000 0.000000 0.000000 0.040357
#
#
# Mechanical properties :
#
#
# Convention : Reuss Voigt Hill
#
# Bulk Modulus (GPa) = 63.79852 64.69210 64.24531
# Shear Modulus (GPa) = 26.92633 30.02345 28.47489
#
# Velocity S-wave (km/s) = 3.48852 3.68369 3.58743
# Velocity P-wave (km/s) = 6.71275 6.87977 6.79677
#
# Compressibility (1/GPa) = 0.01567435
#
# Stress axis : x y z
#
# Youngs Moduli (GPa) = 79.17529 81.70035 71.05329
#
# Poissons Ratio (x) = 0.24877 0.41090
# Poissons Ratio (y) = 0.24108 0.19944
# Poissons Ratio (z) = 0.45787 0.22933
#
# Static dielectric constant tensor:
#      x y z
#    x 4.677930 0.000000 0.000000 
#    y 0.000000 3.577610 0.000000 
#    z 0.000000 0.000000 4.358600 
# 
# 
# High freq. dielectric constant tensor:
#      x y z
#    x 1.896560 0.000000 0.000000 
#    y 0.000000 1.815230 0.000000 
#    z 0.000000 0.000000 1.883120 
# 
# From -- ./inp_files/12035.got.cif
#   From: 2010.03.12/outbox.cif.g09.slc.cpg/sg41_7_cif.got.tgz:12035.got - 2010.04.14 01:55:53.
