data_PCOD8185529
_publ_section_title
;
Structure prediction by ZEFSAII (Michael W. Deem and Ramdas Pophale) SiO2 
 PCOD8185529
Probable space group: A B A 2
;
_chemical_formula_sum "Si O2"
_cell_formula_units_Z 52
_cell_length_a 13.256503
_cell_length_b 21.896889
_cell_length_c 8.001315
_cell_angle_alpha 90.000000
_cell_angle_beta 90.000000
_cell_angle_gamma 90.000000
_cell_volume 2322.591111
_symmetry_space_group_name_H-M "A B A 2"
_symmetry_group_IT_number 41
_symmetry_cell_setting 'orthorhombic'
loop_
_space_group_symop_operation_xyz
x,y,z
-x,-y,z
1/2-x,y,1/2+z
1/2+x,-y,1/2+z
x,1/2+y,1/2+z
-x,1/2-y,1/2+z
1/2-x,1/2+y,z
1/2+x,1/2-y,z
loop_
_atom_site_type_symbol
_atom_site_label
_atom_site_fract_x
_atom_site_fract_y
_atom_site_fract_z
Si Si1 0.541615 0.838094 0.012940
Si Si2 0.303568 0.367864 0.951908
Si Si3 0.888054 0.097068 0.287235
Si Si4 0.212216 0.730386 0.841505
Si Si5 0.009483 0.605811 0.358864
Si Si6 0.000000 0.500000 0.584285
Si Si7 0.405671 0.220618 0.512079
O O1 0.552226 0.883094 0.173319
O O2 0.469790 0.780596 0.051784
O O3 0.491397 0.873759 0.857217
O O4 0.652565 0.815198 0.966182
O O5 0.196259 0.403656 0.934296
O O6 0.307694 0.300107 0.882023
O O7 0.388920 0.406011 0.851122
O O8 0.331482 0.362511 0.147336
O O9 0.916619 0.031782 0.204570
O O10 0.174725 0.712856 0.658789
O O11 0.333696 0.721932 0.847958
O O12 0.021199 0.663742 0.483746
O O13 0.056698 0.548258 0.459369
#
# Coordination Sequence:
#
# PCOD8185529 Si02
#       7
#     8   8   8   8   8   4   8
#     4  12  23  39  69 101 139 177 223 289 355 414
#     4  11  20  37  65  99 134 172 231 277 336 422
#     4  11  24  42  68 101 135 181 232 285 342 404
#     4  12  23  36  63 104 141 178 214 275 361 421
#     4  11  24  44  66  97 138 184 235 284 343 412
#     4  10  26  48  66  88 138 184 240 292 334 404
#     4  12  23  39  62 102 142 172 219 285 348 422
#
# _framework density 22.388788000000002
#
# number of rings (size 3 to 8) (size 9 to 14) (size 15 to 20)
#    0.000    0.615    4.615    4.615    2.154    0.615 
#    0.000    9.231    0.000    0.000    0.000    0.000 
#    0.000    0.000    0.000    0.000    0.000    0.000 
#
# Total GULP energy -322218.764973 kJ/mol
# GULP energy per Si atom -12393.029422 kJ/mol
# Density = 2.233783 g / cm^3
# Si number density = 22.388788 Si / 1000 Ang^3
#
#
#
# Elastic Constant Matrix: (Units=GPa)
#
#
# Indices 1 2 3 4 5 6 
#
# 1 67.1781 33.1598 -4.2745 0.0000 0.0000 0.0000
# 2 33.1598 110.0281 49.2880 0.0000 0.0000 0.0000
# 3 -4.2745 49.2880 89.2300 0.0000 0.0000 0.0000
# 4 0.0000 0.0000 0.0000 34.3668 0.0000 0.0000
# 5 0.0000 0.0000 0.0000 0.0000 38.3033 0.0000
# 6 0.0000 0.0000 0.0000 0.0000 0.0000 24.4036
#
#
#
# Elastic Compliance Matrix: (Units=1/GPa)
#
#
# Indices 1 2 3 4 5 6 
#
# 1 0.019329 -0.008292 0.005506 0.000000 0.000000 0.000000
# 2 -0.008292 0.015634 -0.009033 0.000000 0.000000 0.000000
# 3 0.005506 -0.009033 0.016460 0.000000 0.000000 0.000000
# 4 0.000000 0.000000 0.000000 0.029098 0.000000 0.000000
# 5 0.000000 0.000000 0.000000 0.000000 0.026107 0.000000
# 6 0.000000 0.000000 0.000000 0.000000 0.000000 0.040977
#
#
# Mechanical properties :
#
#
# Convention : Reuss Voigt Hill
#
# Bulk Modulus (GPa) = 35.98938 46.97587 41.48263
# Shear Modulus (GPa) = 27.70001 31.96559 29.83280
#
# Velocity S-wave (km/s) = 3.52124 3.78266 3.65429
# Velocity P-wave (km/s) = 5.71330 6.33288 6.03105
#
# Compressibility (1/GPa) = 0.02778597
#
# Stress axis : x y z
#
# Youngs Moduli (GPa) = 51.73552 63.96349 60.75232
#
# Poissons Ratio (x) = 0.53037 -0.33451
# Poissons Ratio (y) = 0.42898 0.54877
# Poissons Ratio (z) = -0.28486 0.57778
#
# Static dielectric constant tensor:
#      x y z
#    x 4.408960 0.000000 0.000000 
#    y 0.000000 3.860200 0.000000 
#    z 0.000000 0.000000 4.228900 
# 
# 
# High freq. dielectric constant tensor:
#      x y z
#    x 1.883140 0.000000 0.000000 
#    y 0.000000 1.848000 0.000000 
#    z 0.000000 0.000000 1.898450 
# 
# From -- ./inp_files/2639.got.cif
#   From: 2010.03.12/outbox.cif.g09.slc.cpg/sg41_2_cif.got.tgz:2639.got - 2010.04.14 01:55:53.
