data_PCOD8185666
_publ_section_title
;
Structure prediction by ZEFSAII (Michael W. Deem and Ramdas Pophale) SiO2 
 PCOD8185666
Probable space group: A B A 2
;
_chemical_formula_sum "Si O2"
_cell_formula_units_Z 48
_cell_length_a 8.863415
_cell_length_b 9.773835
_cell_length_c 24.745901
_cell_angle_alpha 90.000000
_cell_angle_beta 90.000000
_cell_angle_gamma 90.000000
_cell_volume 2143.726410
_symmetry_space_group_name_H-M "A B A 2"
_symmetry_group_IT_number 41
_symmetry_cell_setting 'orthorhombic'
loop_
_space_group_symop_operation_xyz
x,y,z
-x,-y,z
1/2-x,y,1/2+z
1/2+x,-y,1/2+z
x,1/2+y,1/2+z
-x,1/2-y,1/2+z
1/2-x,1/2+y,z
1/2+x,1/2-y,z
loop_
_atom_site_type_symbol
_atom_site_label
_atom_site_fract_x
_atom_site_fract_y
_atom_site_fract_z
Si Si1 0.894175 0.377158 0.020370
Si Si2 0.064160 0.858525 0.859926
Si Si3 0.365822 0.101299 0.145118
Si Si4 0.068839 0.640345 0.477671
Si Si5 0.139117 0.903550 0.199558
Si Si6 0.114267 0.878416 0.318609
O O1 0.838559 0.388251 0.081434
O O2 0.000000 0.500000 0.000587
O O3 0.751144 0.363918 0.980111
O O4 0.004528 0.248515 0.019544
O O5 0.247602 0.864639 0.861588
O O6 0.994288 0.824547 0.918475
O O7 0.998497 0.749591 0.818351
O O8 0.000000 0.000000 0.838213
O O9 0.382862 0.254668 0.170551
O O10 0.500000 0.000000 0.160718
O O11 0.228600 0.012069 0.164792
O O12 0.000000 0.500000 0.498569
O O13 0.199184 0.879469 0.260481
O O14 0.000000 0.000000 0.211136
O O15 0.000000 0.000000 0.333872
#
# Coordination Sequence:
#
# PCOD8185666 Si02
#       6
#     8   8   8   8   8   8
#     4  11  26  44  73 105 142 190 238 296 363 433
#     4  11  25  45  71 103 142 187 238 299 361 429
#     4  11  27  44  71 106 147 194 244 302 362 437
#     4  11  25  45  71 103 142 187 238 299 361 429
#     4  11  27  44  71 106 147 194 244 302 362 437
#     4  11  26  44  73 105 142 190 238 296 363 433
#
# _framework density 22.390917999999999
#
# number of rings (size 3 to 8) (size 9 to 14) (size 15 to 20)
#    0.000    1.000    0.000    4.000   18.667    3.333 
#    0.000    0.000    0.000    0.000    0.000    0.000 
#    0.000    0.000    0.000    0.000    0.000    0.000 
#
# Total GULP energy -297352.376602 kJ/mol
# GULP energy per Si atom -12389.682358 kJ/mol
# Density = 2.233996 g / cm^3
# Si number density = 22.390918 Si / 1000 Ang^3
#
#
#
# Elastic Constant Matrix: (Units=GPa)
#
#
# Indices 1 2 3 4 5 6 
#
# 1 139.4426 40.5752 48.0029 0.0000 0.0000 0.0000
# 2 40.5752 164.2414 33.7063 0.0000 0.0000 0.0000
# 3 48.0029 33.7063 100.5979 0.0000 0.0000 0.0000
# 4 0.0000 0.0000 0.0000 29.9519 0.0000 0.0000
# 5 0.0000 0.0000 0.0000 0.0000 63.2174 0.0000
# 6 0.0000 0.0000 0.0000 0.0000 0.0000 45.3082
#
#
#
# Elastic Compliance Matrix: (Units=1/GPa)
#
#
# Indices 1 2 3 4 5 6 
#
# 1 0.008880 -0.001422 -0.003761 0.000000 0.000000 0.000000
# 2 -0.001422 0.006766 -0.001588 0.000000 0.000000 0.000000
# 3 -0.003761 -0.001588 0.012267 0.000000 0.000000 0.000000
# 4 0.000000 0.000000 0.000000 0.033387 0.000000 0.000000
# 5 0.000000 0.000000 0.000000 0.000000 0.015818 0.000000
# 6 0.000000 0.000000 0.000000 0.000000 0.000000 0.022071
#
#
# Mechanical properties :
#
#
# Convention : Reuss Voigt Hill
#
# Bulk Modulus (GPa) = 69.58617 72.09451 70.84034
# Shear Modulus (GPa) = 42.54522 46.49533 44.52028
#
# Velocity S-wave (km/s) = 4.36375 4.56184 4.46389
# Velocity P-wave (km/s) = 7.51898 7.74694 7.63381
#
# Compressibility (1/GPa) = 0.01437067
#
# Stress axis : x y z
#
# Youngs Moduli (GPa) = 112.61500 147.80067 81.51709
#
# Poissons Ratio (x) = 0.21016 0.30657
# Poissons Ratio (y) = 0.16013 0.12949
# Poissons Ratio (z) = 0.42352 0.23478
#
# Static dielectric constant tensor:
#      x y z
#    x 4.024480 0.000000 0.000000 
#    y 0.000000 4.438120 0.000000 
#    z 0.000000 0.000000 3.885170 
# 
# 
# High freq. dielectric constant tensor:
#      x y z
#    x 1.892710 0.000000 0.000000 
#    y 0.000000 1.907000 0.000000 
#    z 0.000000 0.000000 1.880850 
# 
# From -- ./inp_files/12669.got.cif
#   From: 2010.03.12/outbox.cif.g09.slc.cpg/sg41_7_cif.got.tgz:12669.got - 2010.04.14 01:55:53.
