data_PCOD8185007
_publ_section_title
;
Structure prediction by ZEFSAII (Michael W. Deem and Ramdas Pophale) SiO2 
 PCOD8185007
Probable space group: A B A 2
;
_chemical_formula_sum "Si O2"
_cell_formula_units_Z 44
_cell_length_a 5.665512
_cell_length_b 26.408038
_cell_length_c 13.027994
_cell_angle_alpha 90.000000
_cell_angle_beta 90.000000
_cell_angle_gamma 90.000000
_cell_volume 1949.184054
_symmetry_space_group_name_H-M "A B A 2"
_symmetry_group_IT_number 41
_symmetry_cell_setting 'orthorhombic'
loop_
_space_group_symop_operation_xyz
x,y,z
-x,-y,z
1/2-x,y,1/2+z
1/2+x,-y,1/2+z
x,1/2+y,1/2+z
-x,1/2-y,1/2+z
1/2-x,1/2+y,z
1/2+x,1/2-y,z
loop_
_atom_site_type_symbol
_atom_site_label
_atom_site_fract_x
_atom_site_fract_y
_atom_site_fract_z
Si Si1 0.685227 0.414775 0.887580
Si Si2 0.507940 0.723014 0.604250
Si Si3 0.500000 0.000000 0.949335
Si Si4 0.682515 0.080870 0.545871
Si Si5 0.557229 0.163819 0.914615
Si Si6 0.348143 0.867043 0.234383
O O1 0.865543 0.461482 0.871328
O O2 0.494611 0.409806 0.796888
O O3 0.805068 0.360006 0.889479
O O4 0.578782 0.426475 0.000700
O O5 0.261505 0.751074 0.633668
O O6 0.514933 0.714965 0.480167
O O7 0.490333 0.669428 0.664236
O O8 0.671204 0.029976 0.026211
O O9 0.790768 0.126997 0.483798
O O10 0.676031 0.097727 0.664859
O O11 0.697763 0.170642 0.807794
#
# Coordination Sequence:
#
# PCOD8185007 Si02
#       6
#     8   8   4   8   8   8
#     4  10  21  41  69  92 136 177 228 280 348 423
#     4  11  27  44  69 102 142 182 235 293 350 422
#     4  10  20  40  64  96 130 180 220 284 340 414
#     4   9  20  40  63  91 133 173 218 277 344 413
#     4   9  22  40  66  92 132 180 220 279 353 405
#     4  10  23  42  68 101 132 184 227 286 358 418
#
# _framework density 22.573549
#
# number of rings (size 3 to 8) (size 9 to 14) (size 15 to 20)
#    0.000    2.182    0.000    0.545   10.182    4.364 
#    9.818    0.000    0.000    0.000    0.000    0.000 
#    0.000    0.000    0.000    0.000    0.000    0.000 
#
# Total GULP energy -272581.069731 kJ/mol
# GULP energy per Si atom -12390.048624 kJ/mol
# Density = 2.252217 g / cm^3
# Si number density = 22.573549 Si / 1000 Ang^3
#
#
#
# Elastic Constant Matrix: (Units=GPa)
#
#
# Indices 1 2 3 4 5 6 
#
# 1 107.1105 24.5463 30.9081 0.0000 0.0000 0.0000
# 2 24.5463 72.5815 28.2653 0.0000 0.0000 0.0000
# 3 30.9081 28.2653 117.0529 0.0000 0.0000 0.0000
# 4 0.0000 0.0000 0.0000 29.7179 0.0000 0.0000
# 5 0.0000 0.0000 0.0000 0.0000 17.6370 0.0000
# 6 0.0000 0.0000 0.0000 0.0000 0.0000 37.0272
#
#
#
# Elastic Compliance Matrix: (Units=1/GPa)
#
#
# Indices 1 2 3 4 5 6 
#
# 1 0.010581 -0.002749 -0.002130 0.000000 0.000000 0.000000
# 2 -0.002749 0.015922 -0.003119 0.000000 0.000000 0.000000
# 3 -0.002130 -0.003119 0.009859 0.000000 0.000000 0.000000
# 4 0.000000 0.000000 0.000000 0.033650 0.000000 0.000000
# 5 0.000000 0.000000 0.000000 0.000000 0.056699 0.000000
# 6 0.000000 0.000000 0.000000 0.000000 0.000000 0.027007
#
#
# Mechanical properties :
#
#
# Convention : Reuss Voigt Hill
#
# Bulk Modulus (GPa) = 49.10208 51.57605 50.33906
# Shear Modulus (GPa) = 28.32842 31.07812 29.70327
#
# Velocity S-wave (km/s) = 3.54635 3.71448 3.63139
# Velocity P-wave (km/s) = 6.21032 6.42605 6.31911
#
# Compressibility (1/GPa) = 0.02036574
#
# Stress axis : x y z
#
# Youngs Moduli (GPa) = 94.51118 62.80697 101.43283
#
# Poissons Ratio (x) = 0.17264 0.21606
# Poissons Ratio (y) = 0.25979 0.31636
# Poissons Ratio (z) = 0.20132 0.19589
#
# Static dielectric constant tensor:
#      x y z
#    x 4.238610 0.000000 0.000000 
#    y 0.000000 3.938590 0.000000 
#    z 0.000000 0.000000 4.309580 
# 
# 
# High freq. dielectric constant tensor:
#      x y z
#    x 1.890640 0.000000 0.000000 
#    y 0.000000 1.875940 0.000000 
#    z 0.000000 0.000000 1.883070 
# 
# From -- ./inp_files/6858.got.cif
#   From: 2010.03.12/outbox.cif.g09.slc.cpg/sg41_4_cif.got.tgz:6858.got - 2010.04.14 01:55:53.
