data_PCOD8185580
_publ_section_title
;
Structure prediction by ZEFSAII (Michael W. Deem and Ramdas Pophale) SiO2 
 PCOD8185580
Probable space group: A B A 2
;
_chemical_formula_sum "Si O2"
_cell_formula_units_Z 44
_cell_length_a 16.111204
_cell_length_b 23.593489
_cell_length_c 5.156541
_cell_angle_alpha 90.000000
_cell_angle_beta 90.000000
_cell_angle_gamma 90.000000
_cell_volume 1960.101861
_symmetry_space_group_name_H-M "A B A 2"
_symmetry_group_IT_number 41
_symmetry_cell_setting 'orthorhombic'
loop_
_space_group_symop_operation_xyz
x,y,z
-x,-y,z
1/2-x,y,1/2+z
1/2+x,-y,1/2+z
x,1/2+y,1/2+z
-x,1/2-y,1/2+z
1/2-x,1/2+y,z
1/2+x,1/2-y,z
loop_
_atom_site_type_symbol
_atom_site_label
_atom_site_fract_x
_atom_site_fract_y
_atom_site_fract_z
Si Si1 0.975312 0.780554 0.896580
Si Si2 0.000000 0.500000 0.858832
Si Si3 0.802516 0.831443 0.725348
Si Si4 0.957814 0.602092 0.496753
Si Si5 0.195603 0.461839 0.502852
Si Si6 0.605627 0.445529 0.738370
O O1 0.882505 0.794426 0.800294
O O2 0.026306 0.764539 0.634295
O O3 0.021795 0.832271 0.044476
O O4 0.987406 0.559798 0.719105
O O5 0.911924 0.490776 0.011148
O O6 0.766704 0.816910 0.441985
O O7 0.824088 0.898164 0.702730
O O8 0.859030 0.594980 0.456353
O O9 0.015165 0.583988 0.255061
O O10 0.234883 0.464040 0.784543
O O11 0.133821 0.516408 0.485160
#
# Coordination Sequence:
#
# PCOD8185580 Si02
#       6
#     8   4   8   8   8   8
#     4  11  27  49  77 102 137 195 254 298 358 439
#     4  12  20  40  72 102 142 188 238 282 360 434
#     4  11  25  44  72 109 143 179 240 315 368 407
#     4  11  25  42  69  98 139 187 241 291 351 438
#     4  12  24  39  59  98 142 179 220 275 352 429
#     4  11  23  38  66  99 144 190 230 282 356 440
#
# _framework density 22.44781
#
# number of rings (size 3 to 8) (size 9 to 14) (size 15 to 20)
#    0.000    0.727    3.636    3.273   10.182    0.000 
#    0.000    5.455    0.000    0.000    0.000    0.000 
#    0.000    0.000    0.000    0.000    0.000    0.000 
#
# Total GULP energy -272543.482652 kJ/mol
# GULP energy per Si atom -12388.340121 kJ/mol
# Density = 2.239672 g / cm^3
# Si number density = 22.447810 Si / 1000 Ang^3
#
#
#
# Elastic Constant Matrix: (Units=GPa)
#
#
# Indices 1 2 3 4 5 6 
#
# 1 96.8118 42.8259 25.4734 0.0000 0.0000 0.0000
# 2 42.8259 87.9205 23.1249 0.0000 0.0000 0.0000
# 3 25.4734 23.1249 90.4962 0.0000 0.0000 0.0000
# 4 0.0000 0.0000 0.0000 25.0263 0.0000 0.0000
# 5 0.0000 0.0000 0.0000 0.0000 35.5282 0.0000
# 6 0.0000 0.0000 0.0000 0.0000 0.0000 35.4278
#
#
#
# Elastic Compliance Matrix: (Units=1/GPa)
#
#
# Indices 1 2 3 4 5 6 
#
# 1 0.013594 -0.006020 -0.002288 0.000000 0.000000 0.000000
# 2 -0.006020 0.014859 -0.002103 0.000000 0.000000 0.000000
# 3 -0.002288 -0.002103 0.012232 0.000000 0.000000 0.000000
# 4 0.000000 0.000000 0.000000 0.039958 0.000000 0.000000
# 5 0.000000 0.000000 0.000000 0.000000 0.028147 0.000000
# 6 0.000000 0.000000 0.000000 0.000000 0.000000 0.028226
#
#
# Mechanical properties :
#
#
# Convention : Reuss Voigt Hill
#
# Bulk Modulus (GPa) = 50.34323 50.89745 50.62034
# Shear Modulus (GPa) = 30.40271 31.45009 30.92640
#
# Velocity S-wave (km/s) = 3.68417 3.74710 3.71577
# Velocity P-wave (km/s) = 6.36969 6.43769 6.40378
#
# Compressibility (1/GPa) = 0.01986364
#
# Stress axis : x y z
#
# Youngs Moduli (GPa) = 73.55958 67.29832 81.75559
#
# Poissons Ratio (x) = 0.40513 0.18708
# Poissons Ratio (y) = 0.44282 0.17189
# Poissons Ratio (z) = 0.16833 0.14150
#
# Static dielectric constant tensor:
#      x y z
#    x 4.486270 0.000000 0.000000 
#    y 0.000000 4.041780 0.000000 
#    z 0.000000 0.000000 3.973760 
# 
# 
# High freq. dielectric constant tensor:
#      x y z
#    x 1.895960 0.000000 0.000000 
#    y 0.000000 1.863660 0.000000 
#    z 0.000000 0.000000 1.891340 
# 
# From -- ./inp_files/279.got.cif
#   From: 2010.03.12/outbox.cif.g09.slc.cpg/sg41_1_cif.got.tgz:279.got - 2010.04.14 01:55:53.
