data_PCOD8185167
_publ_section_title
;
Structure prediction by ZEFSAII (Michael W. Deem and Ramdas Pophale) SiO2 
 PCOD8185167
Probable space group: A B A 2
;
_chemical_formula_sum "Si O2"
_cell_formula_units_Z 60
_cell_length_a 16.778407
_cell_length_b 11.742414
_cell_length_c 14.484751
_cell_angle_alpha 90.000000
_cell_angle_beta 90.000000
_cell_angle_gamma 90.000000
_cell_volume 2853.771175
_symmetry_space_group_name_H-M "A B A 2"
_symmetry_group_IT_number 41
_symmetry_cell_setting 'orthorhombic'
loop_
_space_group_symop_operation_xyz
x,y,z
-x,-y,z
1/2-x,y,1/2+z
1/2+x,-y,1/2+z
x,1/2+y,1/2+z
-x,1/2-y,1/2+z
1/2-x,1/2+y,z
1/2+x,1/2-y,z
loop_
_atom_site_type_symbol
_atom_site_label
_atom_site_fract_x
_atom_site_fract_y
_atom_site_fract_z
Si Si1 0.002838 0.736372 0.497320
Si Si2 0.106963 0.359625 0.861058
Si Si3 0.500000 0.000000 0.404124
Si Si4 0.678616 0.393097 0.647791
Si Si5 0.235067 0.234829 0.297884
Si Si6 0.104925 0.917651 0.762129
Si Si7 0.028326 0.741453 0.198924
Si Si8 0.645323 0.897585 0.944581
O O1 0.082014 0.787953 0.451193
O O2 0.989522 0.609527 0.465560
O O3 0.018299 0.720188 0.606867
O O4 0.928852 0.815437 0.466438
O O5 0.191344 0.315088 0.824243
O O6 0.041296 0.338352 0.778310
O O7 0.111196 0.490161 0.893624
O O8 0.583208 0.995287 0.345147
O O9 0.753502 0.343544 0.705858
O O10 0.650157 0.515900 0.682553
O O11 0.613475 0.296517 0.662177
O O12 0.693844 0.417731 0.540034
O O13 0.157256 0.310320 0.287948
O O14 0.214916 0.151119 0.381148
O O15 0.017582 0.868519 0.737432
#
# Coordination Sequence:
#
# PCOD8185167 Si02
#       8
#     8   8   4   8   8   8   8   8
#     4  11  23  41  64  95 125 167 222 273 336 395
#     4  11  22  42  67  95 133 170 216 279 338 392
#     4  12  20  40  66  94 124 170 222 276 328 400
#     4  10  22  39  64  92 127 171 222 270 331 403
#     4  11  24  41  61  94 135 172 220 269 333 404
#     4  12  20  41  69  91 125 180 222 275 336 402
#     4  10  21  40  65  93 123 164 225 273 329 403
#     4  11  23  42  66  94 130 172 216 277 334 399
#
# _framework density 21.024811
#
# number of rings (size 3 to 8) (size 9 to 14) (size 15 to 20)
#    0.000    1.067    4.000    2.800    0.000    4.267 
#    4.800    1.333    0.000    0.000    0.000    0.000 
#    0.000    0.000    0.000    0.000    0.000    0.000 
#
# Total GULP energy -371775.633211 kJ/mol
# GULP energy per Si atom -12392.521107 kJ/mol
# Density = 2.097696 g / cm^3
# Si number density = 21.024811 Si / 1000 Ang^3
#
#
#
# Elastic Constant Matrix: (Units=GPa)
#
#
# Indices 1 2 3 4 5 6 
#
# 1 20.7182 16.8555 16.6931 0.0000 0.0000 0.0000
# 2 16.8555 129.3313 62.9722 0.0000 0.0000 0.0000
# 3 16.6931 62.9722 154.5479 0.0000 0.0000 0.0000
# 4 0.0000 0.0000 0.0000 20.2036 0.0000 0.0000
# 5 0.0000 0.0000 0.0000 0.0000 27.3639 0.0000
# 6 0.0000 0.0000 0.0000 0.0000 0.0000 23.7779
#
#
#
# Elastic Compliance Matrix: (Units=1/GPa)
#
#
# Indices 1 2 3 4 5 6 
#
# 1 0.055741 -0.005406 -0.003818 0.000000 0.000000 0.000000
# 2 -0.005406 0.010170 -0.003560 0.000000 0.000000 0.000000
# 3 -0.003818 -0.003560 0.008333 0.000000 0.000000 0.000000
# 4 0.000000 0.000000 0.000000 0.049496 0.000000 0.000000
# 5 0.000000 0.000000 0.000000 0.000000 0.036544 0.000000
# 6 0.000000 0.000000 0.000000 0.000000 0.000000 0.042056
#
#
# Mechanical properties :
#
#
# Convention : Reuss Voigt Hill
#
# Bulk Modulus (GPa) = 20.54363 55.29323 37.91843
# Shear Modulus (GPa) = 20.48058 28.14086 24.31072
#
# Velocity S-wave (km/s) = 3.12447 3.66247 3.40411
# Velocity P-wave (km/s) = 4.77585 6.65139 5.79007
#
# Compressibility (1/GPa) = 0.04867689
#
# Stress axis : x y z
#
# Youngs Moduli (GPa) = 17.94016 98.32889 119.99831
#
# Poissons Ratio (x) = 0.53152 0.45817
# Poissons Ratio (y) = 0.09698 0.42719
# Poissons Ratio (z) = 0.06850 0.35005
#
# Static dielectric constant tensor:
#      x y z
#    x 3.722170 0.000000 0.000000 
#    y 0.000000 3.768940 0.000000 
#    z 0.000000 0.000000 4.324340 
# 
# 
# High freq. dielectric constant tensor:
#      x y z
#    x 1.810690 0.000000 0.000000 
#    y 0.000000 1.824220 0.000000 
#    z 0.000000 0.000000 1.837570 
# 
# From -- ./inp_files/8790.got.cif
#   From: 2010.03.12/outbox.cif.g09.slc.cpg/sg41_5_cif.got.tgz:8790.got - 2010.04.14 01:55:53.
