data_PCOD8185196
_publ_section_title
;
Structure prediction by ZEFSAII (Michael W. Deem and Ramdas Pophale) SiO2 
 PCOD8185196
Probable space group: A B A 2
;
_chemical_formula_sum "Si O2"
_cell_formula_units_Z 56
_cell_length_a 5.269319
_cell_length_b 17.069665
_cell_length_c 30.832342
_cell_angle_alpha 90.000000
_cell_angle_beta 90.000000
_cell_angle_gamma 90.000000
_cell_volume 2773.230729
_symmetry_space_group_name_H-M "A B A 2"
_symmetry_group_IT_number 41
_symmetry_cell_setting 'orthorhombic'
loop_
_space_group_symop_operation_xyz
x,y,z
-x,-y,z
1/2-x,y,1/2+z
1/2+x,-y,1/2+z
x,1/2+y,1/2+z
-x,1/2-y,1/2+z
1/2-x,1/2+y,z
1/2+x,1/2-y,z
loop_
_atom_site_type_symbol
_atom_site_label
_atom_site_fract_x
_atom_site_fract_y
_atom_site_fract_z
Si Si1 0.039692 0.302090 0.773600
Si Si2 0.197590 0.202539 0.028867
Si Si3 0.376191 0.084316 0.702480
Si Si4 0.500000 0.000000 0.399910
Si Si5 0.500000 0.500000 0.756299
Si Si6 0.744568 0.457755 0.983300
Si Si7 0.787228 0.798979 0.128538
Si Si8 0.683126 0.567026 0.331320
O O1 0.276195 0.243994 0.772199
O O2 0.050803 0.350330 0.819547
O O3 0.051609 0.358710 0.731613
O O4 0.416468 0.265720 0.018910
O O5 0.254119 0.131651 0.996983
O O6 0.210826 0.174570 0.078569
O O7 0.314386 0.122552 0.656348
O O8 0.500000 0.000000 0.693834
O O9 0.112512 0.070360 0.727593
O O10 0.282234 0.037355 0.430781
O O11 0.601731 0.071089 0.368840
O O12 0.716680 0.538092 0.785144
O O13 0.500000 0.500000 0.005394
O O14 0.000000 0.500000 0.999039
O O15 0.519781 0.758604 0.139745
O O16 0.500000 0.500000 0.349768
#
# Coordination Sequence:
#
# PCOD8185196 Si02
#       8
#     8   8   8   4   4   8   8   8
#     4  12  25  40  61  90 125 167 214 262 318 373
#     4  10  21  42  69  96 134 176 208 256 330 394
#     4  12  24  39  61  92 127 172 220 272 312 375
#     4   9  24  38  72  90 128 164 214 262 332 373
#     4  11  20  38  62  90 120 166 222 258 322 357
#     4  10  21  41  66 102 127 162 219 263 321 390
#     4  10  24  43  62  93 133 175 212 259 322 377
#     4  11  21  42  66  86 126 169 215 263 317 388
#
# _framework density 20.193052999999999
#
# number of rings (size 3 to 8) (size 9 to 14) (size 15 to 20)
#    0.429    0.857    2.857    3.000    4.000    0.571 
#    1.286    1.429    0.000    0.000    0.000    0.000 
#    0.000    0.000    0.000    0.000    0.000    0.000 
#
# Total GULP energy -347101.426837 kJ/mol
# GULP energy per Si atom -12396.479530 kJ/mol
# Density = 2.014709 g / cm^3
# Si number density = 20.193053 Si / 1000 Ang^3
#
#
#
# Elastic Constant Matrix: (Units=GPa)
#
#
# Indices 1 2 3 4 5 6 
#
# 1 110.1462 34.7846 25.1491 0.0000 0.0000 0.0000
# 2 34.7846 112.2873 58.5314 0.0000 0.0000 0.0000
# 3 25.1491 58.5314 92.1850 0.0000 0.0000 0.0000
# 4 0.0000 0.0000 0.0000 22.6434 0.0000 0.0000
# 5 0.0000 0.0000 0.0000 0.0000 22.7505 0.0000
# 6 0.0000 0.0000 0.0000 0.0000 0.0000 40.7043
#
#
#
# Elastic Compliance Matrix: (Units=1/GPa)
#
#
# Indices 1 2 3 4 5 6 
#
# 1 0.010145 -0.002541 -0.001154 0.000000 0.000000 0.000000
# 2 -0.002541 0.013948 -0.008163 0.000000 0.000000 0.000000
# 3 -0.001154 -0.008163 0.016345 0.000000 0.000000 0.000000
# 4 0.000000 0.000000 0.000000 0.044163 0.000000 0.000000
# 5 0.000000 0.000000 0.000000 0.000000 0.043955 0.000000
# 6 0.000000 0.000000 0.000000 0.000000 0.000000 0.024567
#
#
# Mechanical properties :
#
#
# Convention : Reuss Voigt Hill
#
# Bulk Modulus (GPa) = 59.80107 61.28322 60.54214
# Shear Modulus (GPa) = 27.41022 30.29654 28.85338
#
# Velocity S-wave (km/s) = 3.68830 3.87763 3.78415
# Velocity P-wave (km/s) = 6.91499 7.10370 7.00998
#
# Compressibility (1/GPa) = 0.01672211
#
# Stress axis : x y z
#
# Youngs Moduli (GPa) = 98.57216 71.69568 61.17910
#
# Poissons Ratio (x) = 0.18218 0.07062
# Poissons Ratio (y) = 0.25048 0.49939
# Poissons Ratio (z) = 0.11378 0.58523
#
# Static dielectric constant tensor:
#      x y z
#    x 3.756850 0.000000 0.000000 
#    y 0.000000 3.656960 0.000000 
#    z 0.000000 0.000000 3.582010 
# 
# 
# High freq. dielectric constant tensor:
#      x y z
#    x 1.806890 0.000000 0.000000 
#    y 0.000000 1.775810 0.000000 
#    z 0.000000 0.000000 1.777000 
# 
# From -- ./inp_files/12641.got.cif
#   From: 2010.03.12/outbox.cif.g09.slc.cpg/sg41_7_cif.got.tgz:12641.got - 2010.04.14 01:55:53.
