data_PCOD8185226
_publ_section_title
;
Structure prediction by ZEFSAII (Michael W. Deem and Ramdas Pophale) SiO2 
 PCOD8185226
Probable space group: A B A 2
;
_chemical_formula_sum "Si O2"
_cell_formula_units_Z 64
_cell_length_a 29.749077
_cell_length_b 8.103335
_cell_length_c 11.495253
_cell_angle_alpha 90.000000
_cell_angle_beta 90.000000
_cell_angle_gamma 90.000000
_cell_volume 2771.123130
_symmetry_space_group_name_H-M "A B A 2"
_symmetry_group_IT_number 41
_symmetry_cell_setting 'orthorhombic'
loop_
_space_group_symop_operation_xyz
x,y,z
-x,-y,z
1/2-x,y,1/2+z
1/2+x,-y,1/2+z
x,1/2+y,1/2+z
-x,1/2-y,1/2+z
1/2-x,1/2+y,z
1/2+x,1/2-y,z
loop_
_atom_site_type_symbol
_atom_site_label
_atom_site_fract_x
_atom_site_fract_y
_atom_site_fract_z
Si Si1 0.159901 0.081904 0.250000
Si Si2 0.693294 0.908507 0.493649
Si Si3 0.120111 0.329357 0.903074
Si Si4 0.211592 0.729337 0.958377
Si Si5 0.460150 0.725448 0.031506
Si Si6 0.557419 0.137865 0.494610
Si Si7 0.368689 0.120099 0.085503
Si Si8 0.410088 0.877053 0.240237
O O1 0.184313 0.057653 0.128778
O O2 0.197142 0.118517 0.348361
O O3 0.125013 0.229908 0.248063
O O4 0.133322 0.909540 0.278631
O O5 0.650558 0.828767 0.431633
O O6 0.735990 0.789006 0.484442
O O7 0.702977 0.079561 0.428286
O O8 0.067788 0.277190 0.914945
O O9 0.127677 0.466972 0.999699
O O10 0.182961 0.680305 0.074589
O O11 0.446608 0.838283 0.140699
O O12 0.512962 0.750843 0.007606
O O13 0.448969 0.534603 0.061774
O O14 0.600159 0.228982 0.546464
O O15 0.563663 0.098463 0.359062
O O16 0.383532 0.050151 0.211950
#
# Coordination Sequence:
#
# PCOD8185226 Si02
#       8
#     8   8   8   8   8   8   8   8
#     4  11  24  45  70  97 132 181 224 267 348 394
#     4  12  25  45  69  99 142 168 226 279 333 399
#     4  10  21  43  65  99 132 175 220 281 325 401
#     4  11  25  44  69 102 133 174 221 282 326 409
#     4  10  24  43  66 101 139 169 234 278 329 407
#     4  11  23  44  65 100 138 176 222 285 330 403
#     4  10  21  42  68  95 133 174 223 273 334 393
#     4  11  23  44  69  92 135 179 220 277 336 400
#
# _framework density 23.095327999999999
#
# number of rings (size 3 to 8) (size 9 to 14) (size 15 to 20)
#    0.000    1.250    5.000    2.250    0.000    7.000 
#    4.500    0.000    0.000    0.000    0.000    0.000 
#    0.000    0.000    0.000    0.000    0.000    0.000 
#
# Total GULP energy -396849.556118 kJ/mol
# GULP energy per Si atom -12401.548629 kJ/mol
# Density = 2.304276 g / cm^3
# Si number density = 23.095328 Si / 1000 Ang^3
#
#
#
# Elastic Constant Matrix: (Units=GPa)
#
#
# Indices 1 2 3 4 5 6 
#
# 1 72.3269 -12.8439 8.9519 0.0000 0.0000 0.0000
# 2 -12.8439 70.5641 0.2672 0.0000 0.0000 0.0000
# 3 8.9519 0.2672 86.9295 0.0000 0.0000 0.0000
# 4 0.0000 0.0000 0.0000 29.3849 0.0000 0.0000
# 5 0.0000 0.0000 0.0000 0.0000 29.7284 0.0000
# 6 0.0000 0.0000 0.0000 0.0000 0.0000 40.2485
#
#
#
# Elastic Compliance Matrix: (Units=1/GPa)
#
#
# Indices 1 2 3 4 5 6 
#
# 1 0.014481 0.002641 -0.001499 0.000000 0.000000 0.000000
# 2 0.002641 0.014653 -0.000317 0.000000 0.000000 0.000000
# 3 -0.001499 -0.000317 0.011659 0.000000 0.000000 0.000000
# 4 0.000000 0.000000 0.000000 0.034031 0.000000 0.000000
# 5 0.000000 0.000000 0.000000 0.000000 0.033638 0.000000
# 6 0.000000 0.000000 0.000000 0.000000 0.000000 0.024846
#
#
# Mechanical properties :
#
#
# Convention : Reuss Voigt Hill
#
# Bulk Modulus (GPa) = 23.56086 24.73010 24.14548
# Shear Modulus (GPa) = 34.29227 35.43539 34.86383
#
# Velocity S-wave (km/s) = 3.85751 3.92128 3.88952
# Velocity P-wave (km/s) = 5.48308 5.58865 5.53612
#
# Compressibility (1/GPa) = 0.04244328
#
# Stress axis : x y z
#
# Youngs Moduli (GPa) = 69.05721 68.24313 85.77101
#
# Poissons Ratio (x) = -0.18026 0.12860
# Poissons Ratio (y) = -0.18241 0.02719
# Poissons Ratio (z) = 0.10354 0.02164
#
# Static dielectric constant tensor:
#      x y z
#    x 4.315410 0.000000 0.000000 
#    y 0.000000 4.534200 0.000000 
#    z 0.000000 0.000000 4.368500 
# 
# 
# High freq. dielectric constant tensor:
#      x y z
#    x 1.913250 0.000000 0.000000 
#    y 0.000000 1.931060 0.000000 
#    z 0.000000 0.000000 1.898820 
# 
# From -- ./inp_files/6689.got.cif
#   From: 2010.03.12/outbox.cif.g09.slc.cpg/sg41_4_cif.got.tgz:6689.got - 2010.04.14 01:55:53.
