data_PCOD8185915
_publ_section_title
;
Structure prediction by ZEFSAII (Michael W. Deem and Ramdas Pophale) SiO2 
 PCOD8185915
Probable space group: F M M 2
;
_chemical_formula_sum "Si O2"
_cell_formula_units_Z 96
_cell_length_a 25.552581
_cell_length_b 8.971372
_cell_length_c 23.573187
_cell_angle_alpha 90.000000
_cell_angle_beta 90.000000
_cell_angle_gamma 90.000000
_cell_volume 5403.957691
_symmetry_space_group_name_H-M "F M M 2"
_symmetry_group_IT_number 42
_symmetry_cell_setting 'orthorhombic'
loop_
_space_group_symop_operation_xyz
x,y,z
-x,-y,z
-x,y,z
x,-y,z
x,1/2+y,1/2+z
-x,1/2-y,1/2+z
-x,1/2+y,1/2+z
x,1/2-y,1/2+z
1/2+x,y,1/2+z
1/2-x,-y,1/2+z
1/2-x,y,1/2+z
1/2+x,-y,1/2+z
1/2+x,1/2+y,z
1/2-x,1/2-y,z
1/2-x,1/2+y,z
1/2+x,1/2-y,z
loop_
_atom_site_type_symbol
_atom_site_label
_atom_site_fract_x
_atom_site_fract_y
_atom_site_fract_z
Si Si1 0.195668 0.323842 0.142420
Si Si2 0.399115 0.322832 0.205532
Si Si3 0.441324 0.824273 0.824793
Si Si4 0.905133 0.324485 0.946627
Si Si5 0.000000 0.323212 0.509996
Si Si6 0.696778 0.674163 0.513008
Si Si7 0.500000 0.176454 0.637796
O O1 0.199728 0.500000 0.150113
O O2 0.250000 0.250000 0.161008
O O3 0.151946 0.259703 0.183647
O O4 0.182363 0.279274 0.077399
O O5 0.391292 0.500000 0.200452
O O6 0.409099 0.269753 0.270109
O O7 0.448311 0.264851 0.169131
O O8 0.500000 0.754144 0.826462
O O9 0.408843 0.778243 0.880677
O O10 0.447837 0.000000 0.821149
O O11 0.914604 0.500000 0.955253
O O12 0.849151 0.273833 0.970891
O O13 0.948692 0.236760 0.980406
O O14 0.000000 0.262496 0.574088
O O15 0.000000 0.500000 0.507735
O O16 0.706187 0.500000 0.509041
O O17 0.750000 0.750000 0.492173
O O18 0.500000 0.000000 0.639943
#
# Coordination Sequence:
#
# PCOD8185915 Si02
#       7
#    16  16  16  16   8  16   8
#     4  10  20  35  53  76 104 135 171 211 259 308
#     4  10  18  32  54  77 101 134 175 212 249 300
#     4   9  16  30  54  77  98 135 179 208 238 297
#     4  10  19  34  54  75 101 136 174 209 251 307
#     4  11  21  30  45  75 107 133 164 211 262 304
#     4   9  19  34  54  77 102 134 171 211 257 308
#     4   9  18  30  47  73 105 135 166 205 256 312
#
# _framework density 17.764759000000002
#
# number of rings (size 3 to 8) (size 9 to 14) (size 15 to 20)
#    0.000    2.333    1.667    1.750    0.000    1.333 
#    0.000    2.917    0.000    2.000    0.000    0.000 
#    0.000    0.000    0.000    0.000    0.000    0.000 
#
# Total GULP energy -297606.115626 kJ/mol
# GULP energy per Si atom -12400.254818 kJ/mol
# Density = 1.772433 g / cm^3
# Si number density = 17.764759 Si / 1000 Ang^3
#
#
#
# Elastic Constant Matrix: (Units=GPa)
#
#
# Indices 1 2 3 4 5 6 
#
# 1 170.8488 46.5604 101.2637 0.0000 0.0001 -0.0001
# 2 46.5604 41.7648 38.6147 0.0000 0.0001 -0.0001
# 3 101.2637 38.6147 164.0389 0.0000 0.0000 0.0000
# 4 0.0000 0.0000 0.0000 18.0295 0.0000 0.0000
# 5 0.0001 0.0001 0.0000 0.0000 22.4259 -0.0001
# 6 -0.0001 -0.0001 0.0000 0.0000 -0.0001 30.4587
#
#
#
# Elastic Compliance Matrix: (Units=1/GPa)
#
#
# Indices 1 2 3 4 5 6 
#
# 1 0.010807 -0.007515 -0.004902 0.000000 0.000000 0.000000
# 2 -0.007515 0.035831 -0.003795 0.000000 0.000000 0.000000
# 3 -0.004902 -0.003795 0.010016 0.000000 0.000000 0.000000
# 4 0.000000 0.000000 0.000000 0.055465 0.000000 0.000000
# 5 0.000000 0.000000 0.000000 0.000000 0.044591 0.000000
# 6 0.000000 0.000000 0.000000 0.000000 0.000000 0.032831
#
#
# Mechanical properties :
#
#
# Convention : Reuss Voigt Hill
#
# Bulk Modulus (GPa) = 41.27462 83.28113 62.27787
# Shear Modulus (GPa) = 21.73522 26.86375 24.29948
#
# Velocity S-wave (km/s) = 3.50165 3.89291 3.70245
# Velocity P-wave (km/s) = 6.29549 8.19683 7.30826
#
# Compressibility (1/GPa) = 0.02422797
#
# Stress axis : x y z
#
# Youngs Moduli (GPa) = 92.53512 27.90896 99.84385
#
# Poissons Ratio (x) = 0.20974 0.48944
# Poissons Ratio (y) = 0.69542 0.37894
# Poissons Ratio (z) = 0.45361 0.10592
#
# Static dielectric constant tensor:
#      x y z
#    x 3.325940 0.000000 0.000000 
#    y 0.000000 3.025170 0.000000 
#    z 0.000000 0.000000 3.576450 
# 
# 
# High freq. dielectric constant tensor:
#      x y z
#    x 1.691450 0.000000 0.000000 
#    y 0.000000 1.661350 0.000000 
#    z 0.000000 0.000000 1.691950 
# 
# From -- ./inp_files/28099.got.cif
#   From: 2010.03.12/outbox.cif.g09.slc.cpg/sg42_15_cif.got.tgz:28099.got - 2010.04.14 02:04:31.
