data_PCOD8185481
_publ_section_title
;
Structure prediction by ZEFSAII (Michael W. Deem and Ramdas Pophale) SiO2 
 PCOD8185481
Probable space group: A B A 2
;
_chemical_formula_sum "Si O2"
_cell_formula_units_Z 60
_cell_length_a 14.621873
_cell_length_b 9.084007
_cell_length_c 20.637424
_cell_angle_alpha 90.000000
_cell_angle_beta 90.000000
_cell_angle_gamma 90.000000
_cell_volume 2741.169902
_symmetry_space_group_name_H-M "A B A 2"
_symmetry_group_IT_number 41
_symmetry_cell_setting 'orthorhombic'
loop_
_space_group_symop_operation_xyz
x,y,z
-x,-y,z
1/2-x,y,1/2+z
1/2+x,-y,1/2+z
x,1/2+y,1/2+z
-x,1/2-y,1/2+z
1/2-x,1/2+y,z
1/2+x,1/2-y,z
loop_
_atom_site_type_symbol
_atom_site_label
_atom_site_fract_x
_atom_site_fract_y
_atom_site_fract_z
Si Si1 0.391696 0.667138 0.171750
Si Si2 0.894063 0.997899 0.683546
Si Si3 0.811316 0.159164 0.867995
Si Si4 0.500000 0.000000 0.569905
Si Si5 0.529825 0.344473 0.311029
Si Si6 0.684768 0.093841 0.512773
Si Si7 0.724813 0.367819 0.588579
Si Si8 0.151620 0.155117 0.808843
O O1 0.362815 0.834971 0.181873
O O2 0.468012 0.635026 0.116487
O O3 0.429361 0.610577 0.240477
O O4 0.298962 0.592079 0.145030
O O5 0.873644 0.924181 0.614099
O O6 0.836063 0.904466 0.735992
O O7 0.000000 0.000000 0.701349
O O8 0.892902 0.271020 0.854324
O O9 0.723936 0.217658 0.827550
O O10 0.837332 0.989469 0.853593
O O11 0.792468 0.167080 0.944302
O O12 0.422269 0.941706 0.521381
O O13 0.500000 0.500000 0.342920
O O14 0.448137 0.227505 0.311525
O O15 0.717378 0.197762 0.571569
O O16 0.746273 0.948734 0.522040
#
# Coordination Sequence:
#
# PCOD8185481 Si02
#       8
#     8   8   8   4   8   8   8   8
#     4  11  21  43  66 104 140 170 227 289 355 411
#     4  12  22  40  68 102 139 174 228 288 353 419
#     4  12  26  48  67 103 139 188 238 282 342 420
#     4  10  24  42  72 100 134 184 224 292 346 412
#     4  12  25  45  72 106 140 177 232 292 355 419
#     4  11  25  45  69  97 140 185 233 276 341 415
#     4  11  24  42  69 102 136 183 225 289 347 413
#     4  12  26  43  72 100 138 182 229 292 350 413
#
# _framework density 21.888463999999999
#
# number of rings (size 3 to 8) (size 9 to 14) (size 15 to 20)
#    0.000    0.533    4.667    3.600    1.867    0.000 
#    0.000    2.000    0.000    0.000    0.000    0.000 
#    0.000    0.000    0.000    0.000    0.000    0.000 
#
# Total GULP energy -371876.396509 kJ/mol
# GULP energy per Si atom -12395.879884 kJ/mol
# Density = 2.183865 g / cm^3
# Si number density = 21.888464 Si / 1000 Ang^3
#
#
#
# Elastic Constant Matrix: (Units=GPa)
#
#
# Indices 1 2 3 4 5 6 
#
# 1 87.0527 32.8075 54.7181 0.0000 0.0000 0.0000
# 2 32.8075 98.8261 32.1211 0.0000 0.0000 0.0000
# 3 54.7181 32.1211 100.1770 0.0000 0.0000 0.0000
# 4 0.0000 0.0000 0.0000 37.3340 0.0000 0.0000
# 5 0.0000 0.0000 0.0000 0.0000 24.6261 0.0000
# 6 0.0000 0.0000 0.0000 0.0000 0.0000 34.1341
#
#
#
# Elastic Compliance Matrix: (Units=1/GPa)
#
#
# Indices 1 2 3 4 5 6 
#
# 1 0.018337 -0.003161 -0.009002 0.000000 0.000000 0.000000
# 2 -0.003161 0.011841 -0.002070 0.000000 0.000000 0.000000
# 3 -0.009002 -0.002070 0.015563 0.000000 0.000000 0.000000
# 4 0.000000 0.000000 0.000000 0.026785 0.000000 0.000000
# 5 0.000000 0.000000 0.000000 0.000000 0.040607 0.000000
# 6 0.000000 0.000000 0.000000 0.000000 0.000000 0.029296
#
#
# Mechanical properties :
#
#
# Convention : Reuss Voigt Hill
#
# Bulk Modulus (GPa) = 57.89015 58.37214 58.13114
# Shear Modulus (GPa) = 28.30359 30.31278 29.30819
#
# Velocity S-wave (km/s) = 3.59985 3.72543 3.66318
# Velocity P-wave (km/s) = 6.61693 6.72540 6.67138
#
# Compressibility (1/GPa) = 0.01727410
#
# Stress axis : x y z
#
# Youngs Moduli (GPa) = 54.53361 84.45173 64.25384
#
# Poissons Ratio (x) = 0.26699 0.57844
# Poissons Ratio (y) = 0.17241 0.13300
# Poissons Ratio (z) = 0.49093 0.17481
#
# Static dielectric constant tensor:
#      x y z
#    x 4.108330 0.000000 0.000000 
#    y 0.000000 4.250070 0.000000 
#    z 0.000000 0.000000 3.781000 
# 
# 
# High freq. dielectric constant tensor:
#      x y z
#    x 1.867060 0.000000 0.000000 
#    y 0.000000 1.874080 0.000000 
#    z 0.000000 0.000000 1.847200 
# 
# From -- ./inp_files/12217.got.cif
#   From: 2010.03.12/outbox.cif.g09.slc.cpg/sg41_7_cif.got.tgz:12217.got - 2010.04.14 01:55:53.
