data_PCOD8185746
_publ_section_title
;
Structure prediction by ZEFSAII (Michael W. Deem and Ramdas Pophale) SiO2 
 PCOD8185746
Probable space group: F M M 2
;
_chemical_formula_sum "Si O2"
_cell_formula_units_Z 72
_cell_length_a 9.952148
_cell_length_b 22.871134
_cell_length_c 18.434153
_cell_angle_alpha 90.000000
_cell_angle_beta 90.000000
_cell_angle_gamma 90.000000
_cell_volume 4195.924953
_symmetry_space_group_name_H-M "F M M 2"
_symmetry_group_IT_number 42
_symmetry_cell_setting 'orthorhombic'
loop_
_space_group_symop_operation_xyz
x,y,z
-x,-y,z
-x,y,z
x,-y,z
x,1/2+y,1/2+z
-x,1/2-y,1/2+z
-x,1/2+y,1/2+z
x,1/2-y,1/2+z
1/2+x,y,1/2+z
1/2-x,-y,1/2+z
1/2-x,y,1/2+z
1/2+x,-y,1/2+z
1/2+x,1/2+y,z
1/2-x,1/2-y,z
1/2-x,1/2+y,z
1/2+x,1/2-y,z
loop_
_atom_site_type_symbol
_atom_site_label
_atom_site_fract_x
_atom_site_fract_y
_atom_site_fract_z
Si Si1 0.650481 0.160181 0.780680
Si Si2 0.341457 0.432403 0.170833
Si Si3 0.845078 0.801865 0.433696
Si Si4 0.250000 0.250000 0.170876
Si Si5 0.350171 0.642222 0.581809
O O1 0.500000 0.144742 0.801735
O O2 0.711510 0.102239 0.742327
O O3 0.719710 0.174462 0.857843
O O4 0.651970 0.213930 0.724097
O O5 0.500000 0.421586 0.157153
O O6 0.307519 0.500000 0.181154
O O7 0.259348 0.406358 0.103196
O O8 0.750000 0.750000 0.460571
O O9 0.836892 0.851325 0.495188
O O10 0.000000 0.780340 0.424023
O O11 0.331495 0.204969 0.120864
O O12 0.500000 0.620048 0.601615
#
# Coordination Sequence:
#
# PCOD8185746 Si02
#       5
#    16  16  16   8  16
#     4   9  17  29  48  71  98 129 165 202 241 289
#     4   9  19  36  55  72  94 130 174 213 248 291
#     4  10  19  32  47  72 106 135 162 196 242 300
#     4  10  16  28  48  70 104 130 164 196 244 296
#     4  10  20  31  49  76 104 131 164 205 251 294
#
# _framework density 17.159506
#
# number of rings (size 3 to 8) (size 9 to 14) (size 15 to 20)
#    0.000    2.444    2.222    0.667    0.000    2.222 
#    0.000    1.111    0.000    4.000    0.000    0.000 
#    0.000    0.000    0.000    0.000    0.000    0.000 
#
# Total GULP energy -223067.510787 kJ/mol
# GULP energy per Si atom -12392.639488 kJ/mol
# Density = 1.712045 g / cm^3
# Si number density = 17.159506 Si / 1000 Ang^3
#
#
#
# Elastic Constant Matrix: (Units=GPa)
#
#
# Indices 1 2 3 4 5 6 
#
# 1 66.7242 33.2160 26.5357 0.0000 0.0000 0.0000
# 2 33.2160 102.9550 33.5378 0.0000 0.0000 0.0000
# 3 26.5357 33.5378 100.5918 0.0000 0.0000 0.0000
# 4 0.0000 0.0000 0.0000 16.1278 0.0000 0.0000
# 5 0.0000 0.0000 0.0000 0.0000 20.6941 0.0000
# 6 0.0000 0.0000 0.0000 0.0000 0.0000 24.7265
#
#
#
# Elastic Compliance Matrix: (Units=1/GPa)
#
#
# Indices 1 2 3 4 5 6 
#
# 1 0.018778 -0.004986 -0.003291 0.000000 0.000000 0.000000
# 2 -0.004986 0.012220 -0.002759 0.000000 0.000000 0.000000
# 3 -0.003291 -0.002759 0.011729 0.000000 0.000000 0.000000
# 4 0.000000 0.000000 0.000000 0.062005 0.000000 0.000000
# 5 0.000000 0.000000 0.000000 0.000000 0.048323 0.000000
# 6 0.000000 0.000000 0.000000 0.000000 0.000000 0.040442
#
#
# Mechanical properties :
#
#
# Convention : Reuss Voigt Hill
#
# Bulk Modulus (GPa) = 48.41441 50.76111 49.58776
# Shear Modulus (GPa) = 22.47640 24.10845 23.29242
#
# Velocity S-wave (km/s) = 3.62311 3.75235 3.68830
# Velocity P-wave (km/s) = 6.76596 6.95842 6.86286
#
# Compressibility (1/GPa) = 0.02065501
#
# Stress axis : x y z
#
# Youngs Moduli (GPa) = 53.25338 81.83022 85.25707
#
# Poissons Ratio (x) = 0.40802 0.28060
# Poissons Ratio (y) = 0.26553 0.23522
# Poissons Ratio (z) = 0.17527 0.22577
#
# Static dielectric constant tensor:
#      x y z
#    x 3.080540 0.000000 0.000000 
#    y 0.000000 3.041400 0.000000 
#    z 0.000000 0.000000 3.424690 
# 
# 
# High freq. dielectric constant tensor:
#      x y z
#    x 1.649810 0.000000 0.000000 
#    y 0.000000 1.638250 0.000000 
#    z 0.000000 0.000000 1.670970 
# 
# From -- ./inp_files/18048.got.cif
#   From: 2010.03.12/outbox.cif.g09.slc.cpg/sg42_10_cif.got.tgz:18048.got - 2010.04.14 02:04:31.
