data_PCOD8185722
_publ_section_title
;
Structure prediction by ZEFSAII (Michael W. Deem and Ramdas Pophale) SiO2 
 PCOD8185722
Probable space group: A B A 2
;
_chemical_formula_sum "Si O2"
_cell_formula_units_Z 32
_cell_length_a 21.356679
_cell_length_b 4.809702
_cell_length_c 13.268157
_cell_angle_alpha 90.000000
_cell_angle_beta 90.000000
_cell_angle_gamma 90.000000
_cell_volume 1362.895291
_symmetry_space_group_name_H-M "A B A 2"
_symmetry_group_IT_number 41
_symmetry_cell_setting 'orthorhombic'
loop_
_space_group_symop_operation_xyz
x,y,z
-x,-y,z
1/2-x,y,1/2+z
1/2+x,-y,1/2+z
x,1/2+y,1/2+z
-x,1/2-y,1/2+z
1/2-x,1/2+y,z
1/2+x,1/2-y,z
loop_
_atom_site_type_symbol
_atom_site_label
_atom_site_fract_x
_atom_site_fract_y
_atom_site_fract_z
Si Si1 0.500000 0.500000 0.972641
Si Si2 0.707583 0.810620 0.913353
Si Si3 0.381277 0.797021 0.594850
Si Si4 0.500000 0.000000 0.835985
Si Si5 0.116775 0.272195 0.231498
O O1 0.528607 0.249338 0.904809
O O2 0.445740 0.367106 0.039143
O O3 0.770525 0.628120 0.905660
O O4 0.662316 0.705331 0.825748
O O5 0.671948 0.797386 0.018800
O O6 0.395224 0.570017 0.681214
O O7 0.353343 0.070818 0.647772
O O8 0.448117 0.134758 0.765267
#
# Coordination Sequence:
#
# PCOD8185722 Si02
#       5
#     4   8   8   4   8
#     4  12  25  46  79 108 154 194 239 306 383 446
#     4  12  28  50  76 104 148 196 252 304 358 428
#     4  12  27  48  76 111 147 192 245 304 373 439
#     4  12  25  46  79 108 154 194 239 306 383 446
#     4  12  27  48  76 111 147 192 245 304 373 439
#
# _framework density 23.479424000000002
#
# number of rings (size 3 to 8) (size 9 to 14) (size 15 to 20)
#    0.000    0.000    2.500    6.750    3.500    8.000 
#    0.000    0.000    0.000    0.000    0.000    0.000 
#    0.000    0.000    0.000    0.000    0.000    0.000 
#
# Total GULP energy -198485.720058 kJ/mol
# GULP energy per Si atom -12405.357504 kJ/mol
# Density = 2.342598 g / cm^3
# Si number density = 23.479424 Si / 1000 Ang^3
#
#
#
# Elastic Constant Matrix: (Units=GPa)
#
#
# Indices 1 2 3 4 5 6 
#
# 1 95.3919 8.0201 29.3752 0.0000 0.0000 0.0000
# 2 8.0201 99.0475 14.1008 0.0000 0.0000 0.0000
# 3 29.3752 14.1008 99.6408 0.0000 0.0000 0.0000
# 4 0.0000 0.0000 0.0000 36.9434 0.0000 0.0000
# 5 0.0000 0.0000 0.0000 0.0000-2985.6172 0.0000
# 6 0.0000 0.0000 0.0000 0.0000 0.0000 39.5283
#
#
#
# Elastic Compliance Matrix: (Units=1/GPa)
#
#
# Indices 1 2 3 4 5 6 
#
# 1 0.011550 -0.000460 -0.003340 0.000000 0.000000 0.000000
# 2 -0.000460 0.010322 -0.001325 0.000000 0.000000 0.000000
# 3 -0.003340 -0.001325 0.011208 0.000000 0.000000 0.000000
# 4 0.000000 0.000000 0.000000 0.027068 0.000000 0.000000
# 5 0.000000 0.000000 0.000000 0.000000 -0.000335 0.000000
# 6 0.000000 0.000000 0.000000 0.000000 0.000000 0.025298
#
#
# Mechanical properties :
#
#
# Convention : Reuss Voigt Hill
#
# Bulk Modulus (GPa) = 43.80095 44.11914 43.96005
# Shear Modulus (GPa) = 48.55658 -565.65682 -258.55012
#
# Velocity S-wave (km/s) = 4.55251 -15.53831 -10.50508
# Velocity P-wave (km/s) = 6.80657 17.40940 11.33044
#
# Compressibility (1/GPa) = 0.02283055
#
# Stress axis : x y z
#
# Youngs Moduli (GPa) = 86.57800 96.87995 89.21971
#
# Poissons Ratio (x) = 0.04454 0.29800
# Poissons Ratio (y) = 0.03980 0.11823
# Poissons Ratio (z) = 0.28918 0.12839
#
# Static dielectric constant tensor:
#      x y z
#    x 14.435070 0.000000 0.000000 
#    y 0.000000 4.639570 0.000000 
#    z 0.000000 0.000000 4.682860 
# 
# 
# High freq. dielectric constant tensor:
#      x y z
#    x 1.918800 0.000000 0.000000 
#    y 0.000000 1.954130 0.000000 
#    z 0.000000 0.000000 1.953930 
# 
# From -- ./inp_files/6347.got.cif
#   From: 2010.03.12/outbox.cif.g09.slc.cpg/sg41_4_cif.got.tgz:6347.got - 2010.04.14 01:55:53.
