data_PCOD8185604
_publ_section_title
;
Structure prediction by ZEFSAII (Michael W. Deem and Ramdas Pophale) SiO2 
 PCOD8185604
Probable space group: A B A 2
;
_chemical_formula_sum "Si O2"
_cell_formula_units_Z 60
_cell_length_a 10.559457
_cell_length_b 29.157419
_cell_length_c 8.740014
_cell_angle_alpha 90.000000
_cell_angle_beta 90.000000
_cell_angle_gamma 90.000000
_cell_volume 2690.932427
_symmetry_space_group_name_H-M "A B A 2"
_symmetry_group_IT_number 41
_symmetry_cell_setting 'orthorhombic'
loop_
_space_group_symop_operation_xyz
x,y,z
-x,-y,z
1/2-x,y,1/2+z
1/2+x,-y,1/2+z
x,1/2+y,1/2+z
-x,1/2-y,1/2+z
1/2-x,1/2+y,z
1/2+x,1/2-y,z
loop_
_atom_site_type_symbol
_atom_site_label
_atom_site_fract_x
_atom_site_fract_y
_atom_site_fract_z
Si Si1 0.690361 0.021056 0.783430
Si Si2 0.358240 0.164153 0.340262
Si Si3 0.362256 0.057506 0.294293
Si Si4 0.500000 0.500000 0.041606
Si Si5 0.369213 0.334464 0.553484
Si Si6 0.872669 0.693916 0.389772
Si Si7 0.874632 0.295473 0.012751
Si Si8 0.408877 0.939795 0.100870
O O1 0.591770 0.030115 0.648710
O O2 0.818903 0.048284 0.745160
O O3 0.725216 0.966781 0.783195
O O4 0.633451 0.036762 0.944180
O O5 0.344079 0.111508 0.295013
O O6 0.490122 0.172358 0.432337
O O7 0.237110 0.174898 0.441043
O O8 0.363099 0.197920 0.194840
O O9 0.427011 0.038507 0.447237
O O10 0.449364 0.043886 0.147075
O O11 0.239973 0.336986 0.458549
O O12 0.351680 0.304529 0.707471
O O13 0.485802 0.312174 0.457207
O O14 0.411658 0.385327 0.593727
O O15 0.857250 0.743338 0.464902
#
# Coordination Sequence:
#
# PCOD8185604 Si02
#       8
#     8   8   8   4   8   8   8   8
#     4  12  27  42  74 102 140 192 234 299 357 435
#     4  11  27  45  72 107 145 193 236 302 361 433
#     4  12  25  50  68 100 153 184 242 302 355 434
#     4  12  28  42  70 106 134 190 238 288 368 416
#     4  11  25  43  72 105 138 192 238 301 357 431
#     4  11  23  45  72 104 144 182 244 296 362 431
#     4  11  24  46  70 104 144 187 238 295 372 430
#     4  12  23  48  71 100 147 184 246 293 361 427
#
# _framework density 22.297103
#
# number of rings (size 3 to 8) (size 9 to 14) (size 15 to 20)
#    0.000    0.533    5.333    2.400    5.600    4.267 
#    0.000    0.000    0.000    0.000    0.000    0.000 
#    0.000    0.000    0.000    0.000    0.000    0.000 
#
# Total GULP energy -372033.117881 kJ/mol
# GULP energy per Si atom -12401.103929 kJ/mol
# Density = 2.224635 g / cm^3
# Si number density = 22.297103 Si / 1000 Ang^3
#
#
#
# Elastic Constant Matrix: (Units=GPa)
#
#
# Indices 1 2 3 4 5 6 
#
# 1 113.1573 16.1558 54.0126 0.0000 0.0000 0.0000
# 2 16.1558 69.3491 18.7622 0.0000 0.0000 0.0000
# 3 54.0126 18.7622 100.3173 0.0000 0.0000 0.0000
# 4 0.0000 0.0000 0.0000 24.1178 0.0000 0.0000
# 5 0.0000 0.0000 0.0000 0.0000 47.1454 0.0000
# 6 0.0000 0.0000 0.0000 0.0000 0.0000 29.8409
#
#
#
# Elastic Compliance Matrix: (Units=1/GPa)
#
#
# Indices 1 2 3 4 5 6 
#
# 1 0.011973 -0.001101 -0.006241 0.000000 0.000000 0.000000
# 2 -0.001101 0.015290 -0.002267 0.000000 0.000000 0.000000
# 3 -0.006241 -0.002267 0.013752 0.000000 0.000000 0.000000
# 4 0.000000 0.000000 0.000000 0.041463 0.000000 0.000000
# 5 0.000000 0.000000 0.000000 0.000000 0.021211 0.000000
# 6 0.000000 0.000000 0.000000 0.000000 0.000000 0.033511
#
#
# Mechanical properties :
#
#
# Convention : Reuss Voigt Hill
#
# Bulk Modulus (GPa) = 45.87509 51.18723 48.53116
# Shear Modulus (GPa) = 30.54675 33.14702 31.84688
#
# Velocity S-wave (km/s) = 3.70535 3.85984 3.78338
# Velocity P-wave (km/s) = 6.23901 6.54761 6.39517
#
# Compressibility (1/GPa) = 0.02179832
#
# Stress axis : x y z
#
# Youngs Moduli (GPa) = 83.51936 65.40412 72.71433
#
# Poissons Ratio (x) = 0.07201 0.45379
# Poissons Ratio (y) = 0.09195 0.16483
# Poissons Ratio (z) = 0.52122 0.14826
#
# Static dielectric constant tensor:
#      x y z
#    x 4.491150 0.000000 0.000000 
#    y 0.000000 3.936000 0.000000 
#    z 0.000000 0.000000 4.009830 
# 
# 
# High freq. dielectric constant tensor:
#      x y z
#    x 1.899480 0.000000 0.000000 
#    y 0.000000 1.880910 0.000000 
#    z 0.000000 0.000000 1.873210 
# 
# From -- ./inp_files/2161.got.cif
#   From: 2010.03.12/outbox.cif.g09.slc.cpg/sg41_2_cif.got.tgz:2161.got - 2010.04.14 01:55:53.
