data_PCOD8185397
_publ_section_title
;
Structure prediction by ZEFSAII (Michael W. Deem and Ramdas Pophale) SiO2 
 PCOD8185397
Probable space group: A B A 2
;
_chemical_formula_sum "Si O2"
_cell_formula_units_Z 48
_cell_length_a 22.347141
_cell_length_b 10.501187
_cell_length_c 9.462574
_cell_angle_alpha 90.000000
_cell_angle_beta 90.000000
_cell_angle_gamma 90.000000
_cell_volume 2220.596496
_symmetry_space_group_name_H-M "A B A 2"
_symmetry_group_IT_number 41
_symmetry_cell_setting 'orthorhombic'
loop_
_space_group_symop_operation_xyz
x,y,z
-x,-y,z
1/2-x,y,1/2+z
1/2+x,-y,1/2+z
x,1/2+y,1/2+z
-x,1/2-y,1/2+z
1/2-x,1/2+y,z
1/2+x,1/2-y,z
loop_
_atom_site_type_symbol
_atom_site_label
_atom_site_fract_x
_atom_site_fract_y
_atom_site_fract_z
Si Si1 0.703797 0.427059 0.837700
Si Si2 0.362919 0.185622 0.095026
Si Si3 0.923006 0.876670 0.309498
Si Si4 0.557680 0.165087 0.808792
Si Si5 0.741027 0.189326 0.450335
Si Si6 0.138242 0.232131 0.043548
O O1 0.673272 0.421779 0.683240
O O2 0.753668 0.313645 0.847387
O O3 0.735297 0.562484 0.856589
O O4 0.654007 0.399631 0.959663
O O5 0.414424 0.245046 0.190639
O O6 0.392774 0.119458 0.961951
O O7 0.316820 0.296702 0.049675
O O8 0.881784 0.797271 0.202200
O O9 0.987117 0.807504 0.318464
O O10 0.930139 0.021139 0.259478
O O11 0.585464 0.194018 0.962173
O O12 0.801888 0.179779 0.543941
#
# Coordination Sequence:
#
# PCOD8185397 Si02
#       6
#     8   8   8   8   8   8
#     4   9  23  42  62  96 135 173 216 271 337 407
#     4  11  24  39  68  96 130 174 227 274 341 403
#     4  11  23  41  68  94 127 183 225 281 334 400
#     4  10  23  43  63  95 136 173 230 280 337 395
#     4  10  23  38  68  95 133 174 219 270 344 402
#     4   9  22  39  67  92 138 169 222 273 338 399
#
# _framework density 21.615812999999999
#
# number of rings (size 3 to 8) (size 9 to 14) (size 15 to 20)
#    1.000    1.000    0.000    2.000    4.667    2.667 
#    0.000    0.000    0.000    8.000    0.000    0.000 
#    0.000    0.000    0.000    0.000    0.000    0.000 
#
# Total GULP energy -297526.196030 kJ/mol
# GULP energy per Si atom -12396.924835 kJ/mol
# Density = 2.156661 g / cm^3
# Si number density = 21.615813 Si / 1000 Ang^3
#
#
#
# Elastic Constant Matrix: (Units=GPa)
#
#
# Indices 1 2 3 4 5 6 
#
# 1 127.7077 50.3342 56.8523 0.0000 0.0000 0.0000
# 2 50.3342 112.9554 41.4006 0.0000 0.0000 0.0000
# 3 56.8523 41.4006 125.4865 0.0000 0.0000 0.0000
# 4 0.0000 0.0000 0.0000 21.4145 0.0000 0.0000
# 5 0.0000 0.0000 0.0000 0.0000 29.2672 0.0000
# 6 0.0000 0.0000 0.0000 0.0000 0.0000 21.5748
#
#
#
# Elastic Compliance Matrix: (Units=1/GPa)
#
#
# Indices 1 2 3 4 5 6 
#
# 1 0.010880 -0.003460 -0.003788 0.000000 0.000000 0.000000
# 2 -0.003460 0.011171 -0.002118 0.000000 0.000000 0.000000
# 3 -0.003788 -0.002118 0.010384 0.000000 0.000000 0.000000
# 4 0.000000 0.000000 0.000000 0.046697 0.000000 0.000000
# 5 0.000000 0.000000 0.000000 0.000000 0.034168 0.000000
# 6 0.000000 0.000000 0.000000 0.000000 0.000000 0.046350
#
#
# Mechanical properties :
#
#
# Convention : Reuss Voigt Hill
#
# Bulk Modulus (GPa) = 72.97379 73.70267 73.33823
# Shear Modulus (GPa) = 27.32975 28.95547 28.14261
#
# Velocity S-wave (km/s) = 3.55961 3.66396 3.61216
# Velocity P-wave (km/s) = 7.12230 7.21596 7.16929
#
# Compressibility (1/GPa) = 0.01370355
#
# Stress axis : x y z
#
# Youngs Moduli (GPa) = 91.90842 89.51586 96.30326
#
# Poissons Ratio (x) = 0.30973 0.36478
# Poissons Ratio (y) = 0.31801 0.20397
# Poissons Ratio (z) = 0.34814 0.18959
#
# Static dielectric constant tensor:
#      x y z
#    x 4.018230 0.000000 0.000000 
#    y 0.000000 3.530080 0.000000 
#    z 0.000000 0.000000 3.705100 
# 
# 
# High freq. dielectric constant tensor:
#      x y z
#    x 1.855850 0.000000 0.000000 
#    y 0.000000 1.830520 0.000000 
#    z 0.000000 0.000000 1.846890 
# 
# From -- ./inp_files/3606.got.cif
#   From: 2010.03.12/outbox.cif.g09.slc.cpg/sg41_2_cif.got.tgz:3606.got - 2010.04.14 01:55:53.
