data_PCOD8185042
_publ_section_title
;
Structure prediction by ZEFSAII (Michael W. Deem and Ramdas Pophale) SiO2 
 PCOD8185042
Probable space group: A B A 2
;
_chemical_formula_sum "Si O2"
_cell_formula_units_Z 52
_cell_length_a 27.915820
_cell_length_b 7.173131
_cell_length_c 11.923267
_cell_angle_alpha 90.000000
_cell_angle_beta 90.000000
_cell_angle_gamma 90.000000
_cell_volume 2387.560696
_symmetry_space_group_name_H-M "A B A 2"
_symmetry_group_IT_number 41
_symmetry_cell_setting 'orthorhombic'
loop_
_space_group_symop_operation_xyz
x,y,z
-x,-y,z
1/2-x,y,1/2+z
1/2+x,-y,1/2+z
x,1/2+y,1/2+z
-x,1/2-y,1/2+z
1/2-x,1/2+y,z
1/2+x,1/2-y,z
loop_
_atom_site_type_symbol
_atom_site_label
_atom_site_fract_x
_atom_site_fract_y
_atom_site_fract_z
Si Si1 0.193063 0.823654 0.634030
Si Si2 0.000000 0.000000 0.510189
Si Si3 0.808987 0.840697 0.889383
Si Si4 0.387798 0.449288 0.773357
Si Si5 0.467554 0.738269 0.706671
Si Si6 0.442724 0.594383 0.310672
Si Si7 0.226655 0.491055 0.762219
O O1 0.190760 0.742693 0.511695
O O2 0.145628 0.944408 0.661653
O O3 0.193840 0.664161 0.729859
O O4 0.241283 0.944448 0.651778
O O5 0.008061 0.185438 0.587074
O O6 0.951919 0.007992 0.431398
O O7 0.857979 0.955544 0.873845
O O8 0.762019 0.967323 0.867795
O O9 0.808392 0.675458 0.797291
O O10 0.435455 0.564256 0.745445
O O11 0.398464 0.236252 0.811394
O O12 0.437364 0.934724 0.712181
O O13 0.510818 0.774515 0.792317
#
# Coordination Sequence:
#
# PCOD8185042 Si02
#       7
#     8   4   8   8   8   8   8
#     4  10  21  37  62  88 122 164 200 250 312 358
#     4  10  20  42  68  86 108 172 202 234 316 366
#     4  10  21  38  63  91 125 165 204 256 304 366
#     4  11  23  40  59  97 127 152 206 262 303 365
#     4  10  21  44  62  85 124 157 205 253 297 373
#     4  10  24  42  62  88 124 159 202 257 305 369
#     4   9  20  40  60  87 125 162 211 247 298 372
#
# _framework density 21.77955
#
# number of rings (size 3 to 8) (size 9 to 14) (size 15 to 20)
#    0.000    2.154    1.538    0.923    2.154    3.692 
#   11.077    0.000    0.000    0.000    0.000    0.000 
#    0.000    0.000    0.000    0.000    0.000    0.000 
#
# Total GULP energy -322125.091783 kJ/mol
# GULP energy per Si atom -12389.426607 kJ/mol
# Density = 2.172998 g / cm^3
# Si number density = 21.779550 Si / 1000 Ang^3
#
#
#
# Elastic Constant Matrix: (Units=GPa)
#
#
# Indices 1 2 3 4 5 6 
#
# 1 52.6751 33.4679 30.9631 0.0000 0.0000 0.0000
# 2 33.4679 115.5979 34.2034 0.0000 0.0000 0.0000
# 3 30.9631 34.2034 121.9390 0.0000 0.0000 0.0000
# 4 0.0000 0.0000 0.0000 41.0905 0.0000 0.0000
# 5 0.0000 0.0000 0.0000 0.0000 24.0761 0.0000
# 6 0.0000 0.0000 0.0000 0.0000 0.0000 56.9123
#
#
#
# Elastic Compliance Matrix: (Units=1/GPa)
#
#
# Indices 1 2 3 4 5 6 
#
# 1 0.025629 -0.005992 -0.004827 0.000000 0.000000 0.000000
# 2 -0.005992 0.010834 -0.001518 0.000000 0.000000 0.000000
# 3 -0.004827 -0.001518 0.009852 0.000000 0.000000 0.000000
# 4 0.000000 0.000000 0.000000 0.024337 0.000000 0.000000
# 5 0.000000 0.000000 0.000000 0.000000 0.041535 0.000000
# 6 0.000000 0.000000 0.000000 0.000000 0.000000 0.017571
#
#
# Mechanical properties :
#
#
# Convention : Reuss Voigt Hill
#
# Bulk Modulus (GPa) = 46.20528 54.16452 50.18490
# Shear Modulus (GPa) = 30.93207 37.18763 34.05985
#
# Velocity S-wave (km/s) = 3.77269 4.13662 3.95884
# Velocity P-wave (km/s) = 6.34339 6.90934 6.63240
#
# Compressibility (1/GPa) = 0.02164255
#
# Stress axis : x y z
#
# Youngs Moduli (GPa) = 39.01882 92.29837 101.50036
#
# Poissons Ratio (x) = 0.55303 0.48995
# Poissons Ratio (y) = 0.23379 0.15403
# Poissons Ratio (z) = 0.18834 0.14007
#
# Static dielectric constant tensor:
#      x y z
#    x 3.813800 0.000000 0.000000 
#    y 0.000000 4.293530 0.000000 
#    z 0.000000 0.000000 3.716390 
# 
# 
# High freq. dielectric constant tensor:
#      x y z
#    x 1.848410 0.000000 0.000000 
#    y 0.000000 1.870060 0.000000 
#    z 0.000000 0.000000 1.828940 
# 
# From -- ./inp_files/6550.got.cif
#   From: 2010.03.12/outbox.cif.g09.slc.cpg/sg41_4_cif.got.tgz:6550.got - 2010.04.14 01:55:53.
