data_PCOD8185394
_publ_section_title
;
Structure prediction by ZEFSAII (Michael W. Deem and Ramdas Pophale) SiO2 
 PCOD8185394
Probable space group: A B A 2
;
_chemical_formula_sum "Si O2"
_cell_formula_units_Z 64
_cell_length_a 25.045580
_cell_length_b 8.602013
_cell_length_c 12.928266
_cell_angle_alpha 90.000000
_cell_angle_beta 90.000000
_cell_angle_gamma 90.000000
_cell_volume 2785.296716
_symmetry_space_group_name_H-M "A B A 2"
_symmetry_group_IT_number 41
_symmetry_cell_setting 'orthorhombic'
loop_
_space_group_symop_operation_xyz
x,y,z
-x,-y,z
1/2-x,y,1/2+z
1/2+x,-y,1/2+z
x,1/2+y,1/2+z
-x,1/2-y,1/2+z
1/2-x,1/2+y,z
1/2+x,1/2-y,z
loop_
_atom_site_type_symbol
_atom_site_label
_atom_site_fract_x
_atom_site_fract_y
_atom_site_fract_z
Si Si1 0.636972 0.914319 0.608720
Si Si2 0.821534 0.163342 0.251459
Si Si3 0.911184 0.593349 0.070382
Si Si4 0.081492 0.115560 0.764710
Si Si5 0.491779 0.832301 0.893139
Si Si6 0.941825 0.574375 0.451450
Si Si7 0.693185 0.009229 0.961219
Si Si8 0.747818 0.768597 0.569570
O O1 0.609436 0.747784 0.630985
O O2 0.696741 0.883488 0.567986
O O3 0.643822 0.018912 0.709571
O O4 0.601450 0.026402 0.536125
O O5 0.862546 0.298895 0.279217
O O6 0.793363 0.089123 0.351825
O O7 0.777880 0.247457 0.179125
O O8 0.927944 0.456885 0.150520
O O9 0.958462 0.651317 0.998313
O O10 0.868493 0.525094 0.989956
O O11 0.083266 0.973741 0.842814
O O12 0.033224 0.228037 0.801279
O O13 0.547476 0.759084 0.936432
O O14 0.500000 0.000000 0.841588
O O15 0.000000 0.500000 0.475209
O O16 0.728849 0.096209 0.046176
O O17 0.712061 0.830966 0.978870
#
# Coordination Sequence:
#
# PCOD8185394 Si02
#       8
#     8   8   8   8   8   8   8   8
#     4  11  24  47  71 110 147 192 256 312 373 462
#     4  12  25  44  72 109 145 190 253 309 379 468
#     4  11  23  47  75 105 149 198 243 312 382 456
#     4  11  23  46  73 106 148 192 251 306 382 454
#     4  11  25  46  77 111 152 199 259 314 394 455
#     4  10  22  49  75 102 151 198 249 319 375 442
#     4  11  24  45  70 100 149 190 239 308 382 454
#     4  11  24  45  67 106 145 191 243 305 381 454
#
# _framework density 22.977803000000002
#
# number of rings (size 3 to 8) (size 9 to 14) (size 15 to 20)
#    0.000    1.000    6.250    0.750    3.500    2.500 
#    6.750    0.625    0.000    0.000    0.000    0.000 
#    0.000    0.000    0.000    0.000    0.000    0.000 
#
# Total GULP energy -396482.516683 kJ/mol
# GULP energy per Si atom -12390.078646 kJ/mol
# Density = 2.292550 g / cm^3
# Si number density = 22.977803 Si / 1000 Ang^3
#
#
#
# Elastic Constant Matrix: (Units=GPa)
#
#
# Indices 1 2 3 4 5 6 
#
# 1 86.7748 40.7298 48.7978 0.0000 0.0000 0.0000
# 2 40.7298 105.7832 39.5922 0.0000 0.0000 0.0000
# 3 48.7978 39.5922 109.5657 0.0000 0.0000 0.0000
# 4 0.0000 0.0000 0.0000 47.0618 0.0000 0.0000
# 5 0.0000 0.0000 0.0000 0.0000 39.9951 0.0000
# 6 0.0000 0.0000 0.0000 0.0000 0.0000 35.3621
#
#
#
# Elastic Compliance Matrix: (Units=1/GPa)
#
#
# Indices 1 2 3 4 5 6 
#
# 1 0.016889 -0.004264 -0.005981 0.000000 0.000000 0.000000
# 2 -0.004264 0.012008 -0.002440 0.000000 0.000000 0.000000
# 3 -0.005981 -0.002440 0.012673 0.000000 0.000000 0.000000
# 4 0.000000 0.000000 0.000000 0.021249 0.000000 0.000000
# 5 0.000000 0.000000 0.000000 0.000000 0.025003 0.000000
# 6 0.000000 0.000000 0.000000 0.000000 0.000000 0.028279
#
#
# Mechanical properties :
#
#
# Convention : Reuss Voigt Hill
#
# Bulk Modulus (GPa) = 61.73160 62.26258 61.99709
# Shear Modulus (GPa) = 34.04344 36.01739 35.03041
#
# Velocity S-wave (km/s) = 3.85330 3.96344 3.90876
# Velocity P-wave (km/s) = 6.83530 6.93548 6.88557
#
# Compressibility (1/GPa) = 0.01619916
#
# Stress axis : x y z
#
# Youngs Moduli (GPa) = 59.20996 83.27469 78.91092
#
# Poissons Ratio (x) = 0.35510 0.47197
# Poissons Ratio (y) = 0.25248 0.19255
# Poissons Ratio (z) = 0.35414 0.20320
#
# Static dielectric constant tensor:
#      x y z
#    x 4.270200 0.000000 0.000000 
#    y 0.000000 4.729360 0.000000 
#    z 0.000000 0.000000 3.966230 
# 
# 
# High freq. dielectric constant tensor:
#      x y z
#    x 1.911610 0.000000 0.000000 
#    y 0.000000 1.925090 0.000000 
#    z 0.000000 0.000000 1.890800 
# 
# From -- ./inp_files/6692.got.cif
#   From: 2010.03.12/outbox.cif.g09.slc.cpg/sg41_4_cif.got.tgz:6692.got - 2010.04.14 01:55:53.
