data_PCOD8185482
_publ_section_title
;
Structure prediction by ZEFSAII (Michael W. Deem and Ramdas Pophale) SiO2 
 PCOD8185482
Probable space group: A B A 2
;
_chemical_formula_sum "Si O2"
_cell_formula_units_Z 40
_cell_length_a 8.924150
_cell_length_b 21.537366
_cell_length_c 8.662054
_cell_angle_alpha 90.000000
_cell_angle_beta 90.000000
_cell_angle_gamma 90.000000
_cell_volume 1664.870035
_symmetry_space_group_name_H-M "A B A 2"
_symmetry_group_IT_number 41
_symmetry_cell_setting 'orthorhombic'
loop_
_space_group_symop_operation_xyz
x,y,z
-x,-y,z
1/2-x,y,1/2+z
1/2+x,-y,1/2+z
x,1/2+y,1/2+z
-x,1/2-y,1/2+z
1/2-x,1/2+y,z
1/2+x,1/2-y,z
loop_
_atom_site_type_symbol
_atom_site_label
_atom_site_fract_x
_atom_site_fract_y
_atom_site_fract_z
Si Si1 0.357498 0.032320 0.420650
Si Si2 0.101902 0.094949 0.603570
Si Si3 0.600431 0.552596 0.333392
Si Si4 0.944456 0.717554 0.068550
Si Si5 0.137037 0.812095 0.227997
O O1 0.264929 0.075041 0.539214
O O2 0.413508 0.074502 0.279503
O O3 0.500000 0.000000 0.502798
O O4 0.264982 0.973881 0.356047
O O5 0.969550 0.065064 0.502380
O O6 0.081443 0.169123 0.593063
O O7 0.500000 0.500000 0.248734
O O8 0.606153 0.614233 0.229948
O O9 0.807012 0.700301 0.179475
O O10 0.014868 0.784288 0.109796
O O11 0.886111 0.719268 0.894178
#
# Coordination Sequence:
#
# PCOD8185482 Si02
#       5
#     8   8   8   8   8
#     4  11  21  39  68  99 134 176 226 283 342 407
#     4  10  24  43  64  97 140 178 225 279 342 413
#     4   9  21  42  66  96 137 180 223 279 346 412
#     4  11  25  47  71 102 139 184 235 288 346 413
#     4  11  24  45  73 100 137 182 232 289 347 413
#
# _framework density 24.025898999999999
#
# number of rings (size 3 to 8) (size 9 to 14) (size 15 to 20)
#    0.000    1.600    0.000    4.200    0.000   12.000 
#    0.000   16.000    0.000    0.000    0.000    0.000 
#    0.000    0.000    0.000    0.000    0.000    0.000 
#
# Total GULP energy -248035.128944 kJ/mol
# GULP energy per Si atom -12401.756447 kJ/mol
# Density = 2.397122 g / cm^3
# Si number density = 24.025899 Si / 1000 Ang^3
#
#
#
# Elastic Constant Matrix: (Units=GPa)
#
#
# Indices 1 2 3 4 5 6 
#
# 1 148.6320 53.5776 18.8349 0.0000 0.0000 0.0000
# 2 53.5776 137.9218 20.3147 0.0000 0.0000 0.0000
# 3 18.8349 20.3147 90.4250 0.0000 0.0000 0.0000
# 4 0.0000 0.0000 0.0000 40.2842 0.0000 0.0000
# 5 0.0000 0.0000 0.0000 0.0000 30.4093 0.0000
# 6 0.0000 0.0000 0.0000 0.0000 0.0000 36.3033
#
#
#
# Elastic Compliance Matrix: (Units=1/GPa)
#
#
# Indices 1 2 3 4 5 6 
#
# 1 0.007908 -0.002926 -0.000990 0.000000 0.000000 0.000000
# 2 -0.002926 0.008581 -0.001318 0.000000 0.000000 0.000000
# 3 -0.000990 -0.001318 0.011561 0.000000 0.000000 0.000000
# 4 0.000000 0.000000 0.000000 0.024824 0.000000 0.000000
# 5 0.000000 0.000000 0.000000 0.000000 0.032885 0.000000
# 6 0.000000 0.000000 0.000000 0.000000 0.000000 0.027546
#
#
# Mechanical properties :
#
#
# Convention : Reuss Voigt Hill
#
# Bulk Modulus (GPa) = 56.87632 62.49258 59.68445
# Shear Modulus (GPa) = 38.56997 40.34949 39.45973
#
# Velocity S-wave (km/s) = 4.01103 4.10251 4.05703
# Velocity P-wave (km/s) = 6.72127 6.96475 6.84409
#
# Compressibility (1/GPa) = 0.01758201
#
# Stress axis : x y z
#
# Youngs Moduli (GPa) = 126.44937 116.53073 86.49590
#
# Poissons Ratio (x) = 0.34100 0.08562
# Poissons Ratio (y) = 0.37003 0.11403
# Poissons Ratio (z) = 0.12516 0.15363
#
# Static dielectric constant tensor:
#      x y z
#    x 4.391440 0.000000 0.000000 
#    y 0.000000 4.593440 0.000000 
#    z 0.000000 0.000000 4.201390 
# 
# 
# High freq. dielectric constant tensor:
#      x y z
#    x 1.959480 0.000000 0.000000 
#    y 0.000000 1.957080 0.000000 
#    z 0.000000 0.000000 1.956090 
# 
# From -- ./inp_files/1694.got.cif
#   From: 2010.03.12/outbox.cif.g09.slc.cpg/sg41_1_cif.got.tgz:1694.got - 2010.04.14 01:55:53.
