data_PCOD8185217
_publ_section_title
;
Structure prediction by ZEFSAII (Michael W. Deem and Ramdas Pophale) SiO2 
 PCOD8185217
Probable space group: A B A 2
;
_chemical_formula_sum "Si O2"
_cell_formula_units_Z 44
_cell_length_a 9.806440
_cell_length_b 17.126100
_cell_length_c 10.770021
_cell_angle_alpha 90.000000
_cell_angle_beta 90.000000
_cell_angle_gamma 90.000000
_cell_volume 1808.782723
_symmetry_space_group_name_H-M "A B A 2"
_symmetry_group_IT_number 41
_symmetry_cell_setting 'orthorhombic'
loop_
_space_group_symop_operation_xyz
x,y,z
-x,-y,z
1/2-x,y,1/2+z
1/2+x,-y,1/2+z
x,1/2+y,1/2+z
-x,1/2-y,1/2+z
1/2-x,1/2+y,z
1/2+x,1/2-y,z
loop_
_atom_site_type_symbol
_atom_site_label
_atom_site_fract_x
_atom_site_fract_y
_atom_site_fract_z
Si Si1 0.171219 0.033436 0.513830
Si Si2 0.084732 0.623786 0.591150
Si Si3 0.500000 0.000000 0.779598
Si Si4 0.464924 0.753455 0.914919
Si Si5 0.411237 0.878596 0.104166
Si Si6 0.706127 0.753809 0.759929
O O1 0.323635 0.065338 0.510082
O O2 0.128139 0.012947 0.371796
O O3 0.067025 0.089489 0.590672
O O4 0.186844 0.952740 0.589991
O O5 0.998988 0.674747 0.492948
O O6 0.191634 0.683803 0.651468
O O7 0.990653 0.577138 0.690865
O O8 0.612605 0.785127 0.873337
O O9 0.365636 0.743415 0.795132
O O10 0.386899 0.818543 0.992600
O O11 0.362726 0.831204 0.227107
#
# Coordination Sequence:
#
# PCOD8185217 Si02
#       6
#     8   8   4   8   8   8
#     4  10  21  42  63  94 131 167 213 273 335 398
#     4  11  23  40  65  91 127 174 220 267 336 396
#     4  10  22  40  64  92 126 168 212 270 328 382
#     4  11  23  40  62  92 126 170 222 267 321 394
#     4   9  21  37  62  90 123 164 213 264 326 391
#     4  11  23  41  64  91 128 171 216 274 326 384
#
# _framework density 24.325751
#
# number of rings (size 3 to 8) (size 9 to 14) (size 15 to 20)
#    0.000    1.818    0.000    5.455    0.000   10.182 
#    0.000    5.455    0.000    0.000    0.000    0.000 
#    0.000    0.000    0.000    0.000    0.000    0.000 
#
# Total GULP energy -272537.711470 kJ/mol
# GULP energy per Si atom -12388.077794 kJ/mol
# Density = 2.427038 g / cm^3
# Si number density = 24.325751 Si / 1000 Ang^3
#
#
#
# Elastic Constant Matrix: (Units=GPa)
#
#
# Indices 1 2 3 4 5 6 
#
# 1 54.3477 6.0334 13.4944 0.0000 0.0000 0.0000
# 2 6.0334 114.2379 27.3629 0.0000 0.0000 0.0000
# 3 13.4944 27.3629 84.5948 0.0000 0.0000 0.0000
# 4 0.0000 0.0000 0.0000 36.1065 0.0000 0.0000
# 5 0.0000 0.0000 0.0000 0.0000 25.1010 0.0000
# 6 0.0000 0.0000 0.0000 0.0000 0.0000 35.7222
#
#
#
# Elastic Compliance Matrix: (Units=1/GPa)
#
#
# Indices 1 2 3 4 5 6 
#
# 1 0.019169 -0.000303 -0.002960 0.000000 0.000000 0.000000
# 2 -0.000303 0.009494 -0.003022 0.000000 0.000000 0.000000
# 3 -0.002960 -0.003022 0.013271 0.000000 0.000000 0.000000
# 4 0.000000 0.000000 0.000000 0.027696 0.000000 0.000000
# 5 0.000000 0.000000 0.000000 0.000000 0.039839 0.000000
# 6 0.000000 0.000000 0.000000 0.000000 0.000000 0.027994
#
#
# Mechanical properties :
#
#
# Convention : Reuss Voigt Hill
#
# Bulk Modulus (GPa) = 34.05749 38.55131 36.30440
# Shear Modulus (GPa) = 31.28522 33.13860 32.21191
#
# Velocity S-wave (km/s) = 3.59011 3.69492 3.64289
# Velocity P-wave (km/s) = 5.58714 5.83829 5.71409
#
# Compressibility (1/GPa) = 0.02936211
#
# Stress axis : x y z
#
# Youngs Moduli (GPa) = 52.16872 105.33385 75.35354
#
# Poissons Ratio (x) = 0.03197 0.22301
# Poissons Ratio (y) = 0.01583 0.22775
# Poissons Ratio (z) = 0.15440 0.31836
#
# Static dielectric constant tensor:
#      x y z
#    x 3.814910 0.000000 0.000000 
#    y 0.000000 4.794050 0.000000 
#    z 0.000000 0.000000 4.299610 
# 
# 
# High freq. dielectric constant tensor:
#      x y z
#    x 1.935210 0.000000 0.000000 
#    y 0.000000 1.985550 0.000000 
#    z 0.000000 0.000000 1.956720 
# 
# From -- ./inp_files/4931.got.cif
#   From: 2010.03.12/outbox.cif.g09.slc.cpg/sg41_3_cif.got.tgz:4931.got - 2010.04.14 01:55:53.
