data_PCOD8185628
_publ_section_title
;
Structure prediction by ZEFSAII (Michael W. Deem and Ramdas Pophale) SiO2 
 PCOD8185628
Probable space group: A B A 2
;
_chemical_formula_sum "Si O2"
_cell_formula_units_Z 60
_cell_length_a 9.043672
_cell_length_b 17.279124
_cell_length_c 16.878600
_cell_angle_alpha 90.000000
_cell_angle_beta 90.000000
_cell_angle_gamma 90.000000
_cell_volume 2637.563627
_symmetry_space_group_name_H-M "A B A 2"
_symmetry_group_IT_number 41
_symmetry_cell_setting 'orthorhombic'
loop_
_space_group_symop_operation_xyz
x,y,z
-x,-y,z
1/2-x,y,1/2+z
1/2+x,-y,1/2+z
x,1/2+y,1/2+z
-x,1/2-y,1/2+z
1/2-x,1/2+y,z
1/2+x,1/2-y,z
loop_
_atom_site_type_symbol
_atom_site_label
_atom_site_fract_x
_atom_site_fract_y
_atom_site_fract_z
Si Si1 0.500000 0.500000 0.373690
Si Si2 0.205060 0.800948 0.988904
Si Si3 0.734682 0.024448 0.741341
Si Si4 0.290607 0.111625 0.137687
Si Si5 0.376414 0.840180 0.324123
Si Si6 0.035268 0.645719 0.989117
Si Si7 0.541366 0.629119 0.137888
Si Si8 0.128798 0.243341 0.747895
O O1 0.643905 0.501724 0.319177
O O2 0.486251 0.579673 0.422979
O O3 0.158691 0.711665 0.969825
O O4 0.381307 0.808630 0.001823
O O5 0.129603 0.831627 0.067513
O O6 0.150410 0.856119 0.917021
O O7 0.857968 0.085158 0.768844
O O8 0.629995 0.055171 0.670603
O O9 0.821428 0.951245 0.706024
O O10 0.408222 0.100008 0.067024
O O11 0.312619 0.196698 0.172514
O O12 0.120944 0.104885 0.108034
O O13 0.539612 0.808614 0.309892
O O14 0.261988 0.774579 0.299142
O O15 0.528363 0.687488 0.212721
#
# Coordination Sequence:
#
# PCOD8185628 Si02
#       8
#     4   8   8   8   8   8   8   8
#     4  12  26  54  72 110 156 202 244 314 394 452
#     4  12  26  47  73 111 145 193 245 315 372 450
#     4  11  26  47  76 101 150 195 249 305 378 449
#     4  12  25  45  74 107 140 200 241 307 374 446
#     4  11  25  45  72 108 140 191 240 310 363 446
#     4  12  29  45  80 108 153 196 251 310 384 452
#     4  11  24  47  71 105 147 189 248 303 369 441
#     4  11  24  42  73 103 141 183 252 296 364 436
#
# _framework density 22.748266999999998
#
# number of rings (size 3 to 8) (size 9 to 14) (size 15 to 20)
#    0.000    0.533    5.333    1.600    9.333    0.533 
#    0.000    0.000    0.000    0.000    0.000    0.000 
#    0.000    0.000    0.000    0.000    0.000    0.000 
#
# Total GULP energy -372030.995368 kJ/mol
# GULP energy per Si atom -12401.033179 kJ/mol
# Density = 2.269649 g / cm^3
# Si number density = 22.748267 Si / 1000 Ang^3
#
#
#
# Elastic Constant Matrix: (Units=GPa)
#
#
# Indices 1 2 3 4 5 6 
#
# 1 73.1130 39.3455 28.4142 0.0000 0.0000 0.0000
# 2 39.3455 111.4361 36.9246 0.0000 0.0000 0.0000
# 3 28.4142 36.9246 115.9545 0.0000 0.0000 0.0000
# 4 0.0000 0.0000 0.0000 33.6315 0.0000 0.0000
# 5 0.0000 0.0000 0.0000 0.0000 33.5960 0.0000
# 6 0.0000 0.0000 0.0000 0.0000 0.0000 22.3116
#
#
#
# Elastic Compliance Matrix: (Units=1/GPa)
#
#
# Indices 1 2 3 4 5 6 
#
# 1 0.017562 -0.005338 -0.002604 0.000000 0.000000 0.000000
# 2 -0.005338 0.011655 -0.002403 0.000000 0.000000 0.000000
# 3 -0.002604 -0.002403 0.010027 0.000000 0.000000 0.000000
# 4 0.000000 0.000000 0.000000 0.029734 0.000000 0.000000
# 5 0.000000 0.000000 0.000000 0.000000 0.029765 0.000000
# 6 0.000000 0.000000 0.000000 0.000000 0.000000 0.044820
#
#
# Mechanical properties :
#
#
# Convention : Reuss Voigt Hill
#
# Bulk Modulus (GPa) = 53.89599 56.65245 55.27422
# Shear Modulus (GPa) = 29.33620 30.96246 30.14933
#
# Velocity S-wave (km/s) = 3.59500 3.69330 3.64448
# Velocity P-wave (km/s) = 6.40123 6.56852 6.48541
#
# Compressibility (1/GPa) = 0.01855425
#
# Stress axis : x y z
#
# Youngs Moduli (GPa) = 56.94136 85.80146 99.72676
#
# Poissons Ratio (x) = 0.45801 0.25965
# Poissons Ratio (y) = 0.30395 0.23967
# Poissons Ratio (z) = 0.14826 0.20621
#
# Static dielectric constant tensor:
#      x y z
#    x 4.008890 0.000000 0.000000 
#    y 0.000000 4.287900 0.000000 
#    z 0.000000 0.000000 4.294650 
# 
# 
# High freq. dielectric constant tensor:
#      x y z
#    x 1.898750 0.000000 0.000000 
#    y 0.000000 1.901510 0.000000 
#    z 0.000000 0.000000 1.900940 
# 
# From -- ./inp_files/9781.got.cif
#   From: 2010.03.12/outbox.cif.g09.slc.cpg/sg41_5_cif.got.tgz:9781.got - 2010.04.14 01:55:53.
