data_PCOD8185319
_publ_section_title
;
Structure prediction by ZEFSAII (Michael W. Deem and Ramdas Pophale) SiO2 
 PCOD8185319
Probable space group: A B A 2
;
_chemical_formula_sum "Si O2"
_cell_formula_units_Z 64
_cell_length_a 16.680394
_cell_length_b 15.069794
_cell_length_c 11.578039
_cell_angle_alpha 90.000000
_cell_angle_beta 90.000000
_cell_angle_gamma 90.000000
_cell_volume 2910.372838
_symmetry_space_group_name_H-M "A B A 2"
_symmetry_group_IT_number 41
_symmetry_cell_setting 'orthorhombic'
loop_
_space_group_symop_operation_xyz
x,y,z
-x,-y,z
1/2-x,y,1/2+z
1/2+x,-y,1/2+z
x,1/2+y,1/2+z
-x,1/2-y,1/2+z
1/2-x,1/2+y,z
1/2+x,1/2-y,z
loop_
_atom_site_type_symbol
_atom_site_label
_atom_site_fract_x
_atom_site_fract_y
_atom_site_fract_z
Si Si1 0.822225 0.479877 0.792020
Si Si2 0.357893 0.831827 0.741059
Si Si3 0.829865 0.187697 0.770556
Si Si4 0.321780 0.158038 0.605660
Si Si5 0.413229 0.787128 0.498206
Si Si6 0.850330 0.388127 0.029725
Si Si7 0.422455 0.665574 0.881274
Si Si8 0.138197 0.504310 0.242697
O O1 0.871560 0.572262 0.801703
O O2 0.846702 0.431711 0.672746
O O3 0.726977 0.492184 0.795154
O O4 0.841501 0.417713 0.899019
O O5 0.263370 0.818424 0.742800
O O6 0.388835 0.844148 0.609833
O O7 0.405046 0.752096 0.803149
O O8 0.859877 0.261713 0.680239
O O9 0.884498 0.099440 0.751696
O O10 0.841126 0.214440 0.904130
O O11 0.225763 0.161763 0.589143
O O12 0.356050 0.159205 0.478498
O O13 0.422335 0.683883 0.536054
O O14 0.491652 0.826795 0.440047
O O15 0.868956 0.473642 0.107199
O O16 0.419218 0.573367 0.809958
#
# Coordination Sequence:
#
# PCOD8185319 Si02
#       8
#     8   8   8   8   8   8   8   8
#     4  10  22  40  71 102 130 174 236 285 342 397
#     4  11  25  45  69 104 136 180 240 291 340 425
#     4  11  24  41  73 102 129 180 240 286 348 410
#     4  11  22  40  68  97 135 178 224 287 342 407
#     4  12  26  43  69  95 142 188 230 281 361 425
#     4  11  20  43  67  96 131 176 231 289 329 406
#     4  12  26  44  64  98 146 183 220 287 360 420
#     4  10  23  40  67 102 137 174 222 289 348 408
#
# _framework density 21.990310999999998
#
# number of rings (size 3 to 8) (size 9 to 14) (size 15 to 20)
#    0.000    1.000    5.000    1.500    5.250    2.500 
#    0.000    1.875    0.000    0.000    0.000    0.000 
#    0.000    0.000    0.000    0.000    0.000    0.000 
#
# Total GULP energy -396659.051026 kJ/mol
# GULP energy per Si atom -12395.595345 kJ/mol
# Density = 2.194026 g / cm^3
# Si number density = 21.990311 Si / 1000 Ang^3
#
#
#
# Elastic Constant Matrix: (Units=GPa)
#
#
# Indices 1 2 3 4 5 6 
#
# 1 50.6457 9.2171 16.7401 0.0000 0.0000 0.0000
# 2 9.2171 129.1027 23.2926 0.0000 0.0000 0.0000
# 3 16.7401 23.2926 111.9463 0.0000 0.0000 0.0000
# 4 0.0000 0.0000 0.0000 33.8142 0.0000 0.0000
# 5 0.0000 0.0000 0.0000 0.0000 21.3455 0.0000
# 6 0.0000 0.0000 0.0000 0.0000 0.0000 8.1287
#
#
#
# Elastic Compliance Matrix: (Units=1/GPa)
#
#
# Indices 1 2 3 4 5 6 
#
# 1 0.020886 -0.000964 -0.002923 0.000000 0.000000 0.000000
# 2 -0.000964 0.008092 -0.001540 0.000000 0.000000 0.000000
# 3 -0.002923 -0.001540 0.009690 0.000000 0.000000 0.000000
# 4 0.000000 0.000000 0.000000 0.029573 0.000000 0.000000
# 5 0.000000 0.000000 0.000000 0.000000 0.046848 0.000000
# 6 0.000000 0.000000 0.000000 0.000000 0.000000 0.123021
#
#
# Mechanical properties :
#
#
# Convention : Reuss Voigt Hill
#
# Bulk Modulus (GPa) = 35.94972 43.35494 39.65233
# Shear Modulus (GPa) = 19.36206 28.82066 24.09136
#
# Velocity S-wave (km/s) = 2.97051 3.62416 3.31349
# Velocity P-wave (km/s) = 5.30554 6.10500 5.71925
#
# Compressibility (1/GPa) = 0.02781663
#
# Stress axis : x y z
#
# Youngs Moduli (GPa) = 47.87788 123.57324 103.19638
#
# Poissons Ratio (x) = 0.11910 0.30162
# Poissons Ratio (y) = 0.04615 0.15889
# Poissons Ratio (z) = 0.13993 0.19026
#
# Static dielectric constant tensor:
#      x y z
#    x 3.576000 0.000000 0.000000 
#    y 0.000000 4.380590 0.000000 
#    z 0.000000 0.000000 4.149650 
# 
# 
# High freq. dielectric constant tensor:
#      x y z
#    x 1.827880 0.000000 0.000000 
#    y 0.000000 1.880000 0.000000 
#    z 0.000000 0.000000 1.880440 
# 
# From -- ./inp_files/6045.got.cif
#   From: 2010.03.12/outbox.cif.g09.slc.cpg/sg41_4_cif.got.tgz:6045.got - 2010.04.14 01:55:53.
