data_PCOD8185367
_publ_section_title
;
Structure prediction by ZEFSAII (Michael W. Deem and Ramdas Pophale) SiO2 
 PCOD8185367
Probable space group: A B A 2
;
_chemical_formula_sum "Si O2"
_cell_formula_units_Z 52
_cell_length_a 24.865723
_cell_length_b 9.446732
_cell_length_c 11.029399
_cell_angle_alpha 90.000000
_cell_angle_beta 90.000000
_cell_angle_gamma 90.000000
_cell_volume 2590.803853
_symmetry_space_group_name_H-M "A B A 2"
_symmetry_group_IT_number 41
_symmetry_cell_setting 'orthorhombic'
loop_
_space_group_symop_operation_xyz
x,y,z
-x,-y,z
1/2-x,y,1/2+z
1/2+x,-y,1/2+z
x,1/2+y,1/2+z
-x,1/2-y,1/2+z
1/2-x,1/2+y,z
1/2+x,1/2-y,z
loop_
_atom_site_type_symbol
_atom_site_label
_atom_site_fract_x
_atom_site_fract_y
_atom_site_fract_z
Si Si1 0.744599 0.945652 0.341410
Si Si2 0.813430 0.190060 0.435236
Si Si3 0.500000 0.000000 0.936258
Si Si4 0.090845 0.902358 0.268344
Si Si5 0.845390 0.557461 0.182132
Si Si6 0.086395 0.671973 0.072783
Si Si7 0.642536 0.320220 0.322804
O O1 0.707741 0.850891 0.431164
O O2 0.795175 0.853876 0.297416
O O3 0.763365 0.085090 0.412024
O O4 0.710997 0.988674 0.222360
O O5 0.858853 0.172338 0.333161
O O6 0.838423 0.154230 0.564069
O O7 0.461478 0.901859 0.854016
O O8 0.530415 0.885861 0.020281
O O9 0.078407 0.822635 0.141134
O O10 0.106108 0.067582 0.247840
O O11 0.890495 0.438390 0.169582
O O12 0.870002 0.661479 0.282782
O O13 0.130639 0.676025 0.966211
#
# Coordination Sequence:
#
# PCOD8185367 Si02
#       7
#     8   8   4   8   8   8   8
#     4  11  22  37  57  96 129 171 216 250 317 379
#     4  11  23  39  61  94 130 174 215 260 317 385
#     4  10  22  44  66 100 122 168 214 274 344 374
#     4  10  22  45  67  91 132 167 214 275 327 382
#     4  12  23  39  64  90 133 171 213 267 310 383
#     4  11  23  45  70  92 131 165 216 275 325 387
#     4  10  24  40  60  99 130 170 216 257 319 389
#
# _framework density 20.070989999999998
#
# number of rings (size 3 to 8) (size 9 to 14) (size 15 to 20)
#    0.000    1.231    7.692    0.000    2.154    6.154 
#    0.000    0.000    0.000    0.000    0.000    0.000 
#    0.000    0.000    0.000    0.000    0.000    0.000 
#
# Total GULP energy -322395.511007 kJ/mol
# GULP energy per Si atom -12399.827346 kJ/mol
# Density = 2.002531 g / cm^3
# Si number density = 20.070990 Si / 1000 Ang^3
#
#
#
# Elastic Constant Matrix: (Units=GPa)
#
#
# Indices 1 2 3 4 5 6 
#
# 1 95.9901 40.4490 23.9265 0.0000 0.0000 0.0000
# 2 40.4490 110.3547 49.6500 0.0000 0.0000 0.0000
# 3 23.9265 49.6500 60.8127 0.0000 0.0000 0.0000
# 4 0.0000 0.0000 0.0000 45.7746 0.0000 0.0000
# 5 0.0000 0.0000 0.0000 0.0000 34.7346 0.0000
# 6 0.0000 0.0000 0.0000 0.0000 0.0000 19.8332
#
#
#
# Elastic Compliance Matrix: (Units=1/GPa)
#
#
# Indices 1 2 3 4 5 6 
#
# 1 0.012452 -0.003730 -0.001854 0.000000 0.000000 0.000000
# 2 -0.003730 0.015440 -0.011139 0.000000 0.000000 0.000000
# 3 -0.001854 -0.011139 0.026267 0.000000 0.000000 0.000000
# 4 0.000000 0.000000 0.000000 0.021846 0.000000 0.000000
# 5 0.000000 0.000000 0.000000 0.000000 0.028790 0.000000
# 6 0.000000 0.000000 0.000000 0.000000 0.000000 0.050421
#
#
# Mechanical properties :
#
#
# Convention : Reuss Voigt Hill
#
# Bulk Modulus (GPa) = 48.27505 55.02317 51.64911
# Shear Modulus (GPa) = 25.56699 30.27727 27.92213
#
# Velocity S-wave (km/s) = 3.57294 3.88817 3.73388
# Velocity P-wave (km/s) = 6.41293 6.90151 6.66170
#
# Compressibility (1/GPa) = 0.02071464
#
# Stress axis : x y z
#
# Youngs Moduli (GPa) = 80.31136 64.76601 38.07026
#
# Poissons Ratio (x) = 0.24157 0.07057
# Poissons Ratio (y) = 0.29955 0.42405
# Poissons Ratio (z) = 0.14888 0.72140
#
# Static dielectric constant tensor:
#      x y z
#    x 3.616920 0.000000 0.000000 
#    y 0.000000 3.730580 0.000000 
#    z 0.000000 0.000000 3.472510 
# 
# 
# High freq. dielectric constant tensor:
#      x y z
#    x 1.779160 0.000000 0.000000 
#    y 0.000000 1.790310 0.000000 
#    z 0.000000 0.000000 1.769850 
# 
# From -- ./inp_files/6533.got.cif
#   From: 2010.03.12/outbox.cif.g09.slc.cpg/sg41_4_cif.got.tgz:6533.got - 2010.04.14 01:55:53.
