data_PCOD8185010
_publ_section_title
;
Structure prediction by ZEFSAII (Michael W. Deem and Ramdas Pophale) SiO2 
 PCOD8185010
Probable space group: A B A 2
;
_chemical_formula_sum "Si O2"
_cell_formula_units_Z 60
_cell_length_a 20.527637
_cell_length_b 9.955812
_cell_length_c 11.028411
_cell_angle_alpha 90.000000
_cell_angle_beta 90.000000
_cell_angle_gamma 90.000000
_cell_volume 2253.868579
_symmetry_space_group_name_H-M "A B A 2"
_symmetry_group_IT_number 41
_symmetry_cell_setting 'orthorhombic'
loop_
_space_group_symop_operation_xyz
x,y,z
-x,-y,z
1/2-x,y,1/2+z
1/2+x,-y,1/2+z
x,1/2+y,1/2+z
-x,1/2-y,1/2+z
1/2-x,1/2+y,z
1/2+x,1/2-y,z
loop_
_atom_site_type_symbol
_atom_site_label
_atom_site_fract_x
_atom_site_fract_y
_atom_site_fract_z
Si Si1 0.988919 0.200589 0.756110
Si Si2 0.112982 0.648169 0.106431
Si Si3 0.500000 0.000000 0.689430
Si Si4 0.170991 0.029672 0.392653
Si Si5 0.193812 0.050703 0.997958
Si Si6 0.424061 0.908162 0.473118
Si Si7 0.286639 0.334516 0.209667
Si Si8 0.148859 0.737320 0.694269
O O1 0.985726 0.122179 0.884999
O O2 0.918661 0.176994 0.690247
O O3 0.047726 0.126570 0.685709
O O4 0.000801 0.362735 0.768182
O O5 0.177293 0.692414 0.182243
O O6 0.131265 0.520066 0.020801
O O7 0.100838 0.762151 0.007500
O O8 0.560519 0.007377 0.595732
O O9 0.243678 0.087640 0.418047
O O10 0.177224 0.883555 0.332511
O O11 0.134631 0.121265 0.293470
O O12 0.208489 0.939930 0.100688
O O13 0.168590 0.186410 0.061245
O O14 0.135663 0.990717 0.912052
O O15 0.210498 0.321748 0.241478
#
# Coordination Sequence:
#
# PCOD8185010 Si02
#       8
#     8   8   4   8   8   8   8   8
#     4  11  22  39  69  93 135 186 237 288 357 453
#     4  10  22  40  63  95 136 178 231 292 352 442
#     4  10  22  40  66  96 130 184 230 286 348 432
#     4  11  22  39  67  97 137 177 227 301 357 420
#     4  10  21  40  67 100 136 178 235 303 355 430
#     4  10  20  40  65  96 131 182 233 289 365 426
#     4  10  23  40  67 102 135 179 235 294 363 429
#     4  11  21  41  69  99 132 186 240 287 362 443
#
# _framework density 26.620895000000001
#
# number of rings (size 3 to 8) (size 9 to 14) (size 15 to 20)
#    0.000    1.600    4.000    0.800    3.733    0.000 
#    2.400    4.000    2.933    3.200    0.000    0.000 
#    0.000    0.000    0.000    0.000    0.000    0.000 
#
# Total GULP energy -371725.448521 kJ/mol
# GULP energy per Si atom -12390.848284 kJ/mol
# Density = 2.656031 g / cm^3
# Si number density = 26.620895 Si / 1000 Ang^3
#
#
#
# Elastic Constant Matrix: (Units=GPa)
#
#
# Indices 1 2 3 4 5 6 
#
# 1 140.4648 3.7318 21.2297 0.0000 0.0000 0.0000
# 2 3.7318 36.0154 27.8940 0.0000 0.0000 0.0000
# 3 21.2297 27.8940 75.2620 0.0000 0.0000 0.0000
# 4 0.0000 0.0000 0.0000 26.9242 0.0000 0.0000
# 5 0.0000 0.0000 0.0000 0.0000 56.9336 0.0000
# 6 0.0000 0.0000 0.0000 0.0000 0.0000 35.7888
#
#
#
# Elastic Compliance Matrix: (Units=1/GPa)
#
#
# Indices 1 2 3 4 5 6 
#
# 1 0.007473 0.001204 -0.002554 0.000000 0.000000 0.000000
# 2 0.001204 0.039139 -0.014846 0.000000 0.000000 0.000000
# 3 -0.002554 -0.014846 0.019510 0.000000 0.000000 0.000000
# 4 0.000000 0.000000 0.000000 0.037141 0.000000 0.000000
# 5 0.000000 0.000000 0.000000 0.000000 0.017564 0.000000
# 6 0.000000 0.000000 0.000000 0.000000 0.000000 0.027942
#
#
# Mechanical properties :
#
#
# Convention : Reuss Voigt Hill
#
# Bulk Modulus (GPa) = 29.64709 39.71704 34.68207
# Shear Modulus (GPa) = 25.98695 37.18842 31.58769
#
# Velocity S-wave (km/s) = 3.12779 3.74165 3.44841
# Velocity P-wave (km/s) = 4.91986 5.79815 5.37697
#
# Compressibility (1/GPa) = 0.03373012
#
# Stress axis : x y z
#
# Youngs Moduli (GPa) = 133.81003 25.54997 51.25698
#
# Poissons Ratio (x) = -0.03076 0.13092
# Poissons Ratio (y) = -0.16110 0.76094
# Poissons Ratio (z) = 0.34178 0.37930
#
# Static dielectric constant tensor:
#      x y z
#    x 5.063130 0.000000 0.000000 
#    y 0.000000 4.557470 0.000000 
#    z 0.000000 0.000000 4.632280 
# 
# 
# High freq. dielectric constant tensor:
#      x y z
#    x 2.084110 0.000000 0.000000 
#    y 0.000000 2.049310 0.000000 
#    z 0.000000 0.000000 2.051640 
# 
# From -- ./inp_files/6264.got.cif
#   From: 2010.03.12/outbox.cif.g09.slc.cpg/sg41_4_cif.got.tgz:6264.got - 2010.04.14 01:55:53.
