data_PCOD8185933
_publ_section_title
;
Structure prediction by ZEFSAII (Michael W. Deem and Ramdas Pophale) SiO2 
 PCOD8185933
Probable space group: F M M 2
;
_chemical_formula_sum "Si O2"
_cell_formula_units_Z 80
_cell_length_a 7.548252
_cell_length_b 18.164582
_cell_length_c 29.056249
_cell_angle_alpha 90.000000
_cell_angle_beta 90.000000
_cell_angle_gamma 90.000000
_cell_volume 3983.926778
_symmetry_space_group_name_H-M "F M M 2"
_symmetry_group_IT_number 42
_symmetry_cell_setting 'orthorhombic'
loop_
_space_group_symop_operation_xyz
x,y,z
-x,-y,z
-x,y,z
x,-y,z
x,1/2+y,1/2+z
-x,1/2-y,1/2+z
-x,1/2+y,1/2+z
x,1/2-y,1/2+z
1/2+x,y,1/2+z
1/2-x,-y,1/2+z
1/2-x,y,1/2+z
1/2+x,-y,1/2+z
1/2+x,1/2+y,z
1/2-x,1/2-y,z
1/2-x,1/2+y,z
1/2+x,1/2-y,z
loop_
_atom_site_type_symbol
_atom_site_label
_atom_site_fract_x
_atom_site_fract_y
_atom_site_fract_z
Si Si1 0.500000 0.413255 0.540160
Si Si2 0.707959 0.164192 0.598446
Si Si3 0.302535 0.665496 0.879497
Si Si4 0.790005 0.917625 0.190059
Si Si5 0.500000 0.085612 0.933140
Si Si6 0.792472 0.666494 0.778548
O O1 0.500000 0.500000 0.550322
O O2 0.678963 0.377496 0.559929
O O3 0.500000 0.394783 0.486528
O O4 0.500000 0.149423 0.589234
O O5 0.750000 0.250000 0.597152
O O6 0.771437 0.132584 0.647556
O O7 0.500000 0.653593 0.898464
O O8 0.250000 0.750000 0.883521
O O9 0.175863 0.617258 0.910528
O O10 0.297567 0.641506 0.826062
O O11 0.715210 0.883517 0.237388
O O12 0.000000 0.919132 0.192351
O O13 0.713579 0.000000 0.183861
O O14 0.500000 0.000000 0.923805
O O15 0.750000 0.750000 0.765528
O O16 0.000000 0.655620 0.785150
#
# Coordination Sequence:
#
# PCOD8185933 Si02
#       6
#     8  16  16  16   8  16
#     4  11  26  46  68  95 127 167 213 262 329 390
#     4  11  22  42  67  95 130 164 214 267 317 374
#     4  11  21  41  67  95 126 169 215 264 320 378
#     4   9  19  34  56  87 125 172 211 252 316 376
#     4  11  26  46  66  95 131 165 207 268 331 386
#     4  10  18  33  57  87 124 165 210 261 310 369
#
# _framework density 20.080690000000001
#
# number of rings (size 3 to 8) (size 9 to 14) (size 15 to 20)
#    0.000    1.600    3.000    3.000    0.000    4.000 
#    3.600    2.000    0.000    0.000    0.000    0.000 
#    0.000    0.000    0.000    0.000    0.000    0.000 
#
# Total GULP energy -248044.046799 kJ/mol
# GULP energy per Si atom -12402.202340 kJ/mol
# Density = 2.003499 g / cm^3
# Si number density = 20.080690 Si / 1000 Ang^3
#
#
#
# Elastic Constant Matrix: (Units=GPa)
#
#
# Indices 1 2 3 4 5 6 
#
# 1 137.4275 46.4789 63.7988 0.0000 0.0000 0.0000
# 2 46.4789 132.2716 100.0556 0.0000 0.0000 0.0000
# 3 63.7988 100.0556 155.8522 0.0000 0.0000 0.0000
# 4 0.0000 0.0000 0.0000 40.8344 0.0000 0.0000
# 5 0.0000 0.0000 0.0000 0.0000 18.9280 0.0000
# 6 0.0000 0.0000 0.0000 0.0000 0.0000 -86.2504
#
#
#
# Elastic Compliance Matrix: (Units=1/GPa)
#
#
# Indices 1 2 3 4 5 6 
#
# 1 0.009020 -0.000732 -0.003223 0.000000 0.000000 0.000000
# 2 -0.000732 0.014757 -0.009174 0.000000 0.000000 0.000000
# 3 -0.003223 -0.009174 0.013625 0.000000 0.000000 0.000000
# 4 0.000000 0.000000 0.000000 0.024489 0.000000 0.000000
# 5 0.000000 0.000000 0.000000 0.000000 0.052832 0.000000
# 6 0.000000 0.000000 0.000000 0.000000 0.000000 -0.011594
#
#
# Mechanical properties :
#
#
# Convention : Reuss Voigt Hill
#
# Bulk Modulus (GPa) = 89.72606 94.02421 91.87513
# Shear Modulus (GPa) = 37.56505 9.05026 23.30765
#
# Velocity S-wave (km/s) = 4.32986 2.12526 3.41060
# Velocity P-wave (km/s) = 8.35324 7.27648 7.83338
#
# Compressibility (1/GPa) = 0.01114503
#
# Stress axis : x y z
#
# Youngs Moduli (GPa) = 110.86323 67.76303 73.39237
#
# Poissons Ratio (x) = 0.04960 0.23651
# Poissons Ratio (y) = 0.08114 0.67333
# Poissons Ratio (z) = 0.35726 0.62169
#
# Static dielectric constant tensor:
#      x y z
#    x 3.738810 0.000000 0.000000 
#    y 0.000000 3.753390 0.000000 
#    z 0.000000 0.000000 3.755210 
# 
# 
# High freq. dielectric constant tensor:
#      x y z
#    x 1.789560 0.000000 0.000000 
#    y 0.000000 1.786100 0.000000 
#    z 0.000000 0.000000 1.784620 
# 
# From -- ./inp_files/31326.got.cif
#   From: 2010.03.12/outbox.cif.g09.slc.cpg/sg42_16_cif.got.tgz:31326.got - 2010.04.14 02:04:31.
