data_PCOD8185416
_publ_section_title
;
Structure prediction by ZEFSAII (Michael W. Deem and Ramdas Pophale) SiO2 
 PCOD8185416
Probable space group: A B A 2
;
_chemical_formula_sum "Si O2"
_cell_formula_units_Z 56
_cell_length_a 14.220500
_cell_length_b 9.874107
_cell_length_c 16.894376
_cell_angle_alpha 90.000000
_cell_angle_beta 90.000000
_cell_angle_gamma 90.000000
_cell_volume 2372.219390
_symmetry_space_group_name_H-M "A B A 2"
_symmetry_group_IT_number 41
_symmetry_cell_setting 'orthorhombic'
loop_
_space_group_symop_operation_xyz
x,y,z
-x,-y,z
1/2-x,y,1/2+z
1/2+x,-y,1/2+z
x,1/2+y,1/2+z
-x,1/2-y,1/2+z
1/2-x,1/2+y,z
1/2+x,1/2-y,z
loop_
_atom_site_type_symbol
_atom_site_label
_atom_site_fract_x
_atom_site_fract_y
_atom_site_fract_z
Si Si1 0.803255 0.260065 0.808260
Si Si2 0.307084 0.824410 0.949074
Si Si3 0.523583 0.744435 0.552760
Si Si4 0.337708 0.379314 0.074359
Si Si5 0.090419 0.925386 0.696571
Si Si6 0.758408 0.380216 0.154123
Si Si7 0.417199 0.581833 0.427392
O O1 0.709223 0.229986 0.859943
O O2 0.843874 0.126038 0.767092
O O3 0.779886 0.376004 0.744075
O O4 0.886152 0.305241 0.866250
O O5 0.332558 0.982299 0.948717
O O6 0.386559 0.731874 0.993714
O O7 0.205463 0.828224 0.991180
O O8 0.451826 0.869656 0.569510
O O9 0.563598 0.696531 0.637206
O O10 0.456472 0.634568 0.511216
O O11 0.316931 0.536484 0.099393
O O12 0.283156 0.276286 0.134088
O O13 0.145524 0.037070 0.645920
O O14 0.000000 0.000000 0.733263
O O15 0.500000 0.500000 0.383094
#
# Coordination Sequence:
#
# PCOD8185416 Si02
#       7
#     8   8   8   8   8   8   8
#     4  12  26  44  71 109 152 199 245 318 390 457
#     4  11  23  44  74 104 147 186 252 316 383 455
#     4  11  22  45  75 107 140 199 255 314 383 459
#     4  12  24  44  78 106 143 202 257 310 384 469
#     4  12  24  44  75 105 150 199 255 309 391 467
#     4  12  25  45  73 106 148 198 250 314 388 458
#     4  10  23  41  71 100 142 192 245 303 384 446
#
# _framework density 23.606584999999999
#
# number of rings (size 3 to 8) (size 9 to 14) (size 15 to 20)
#    0.000    0.571    5.714    3.000    0.000    3.429 
#    0.000    2.143    0.000    0.000    0.000    0.000 
#    0.000    0.000    0.000    0.000    0.000    0.000 
#
# Total GULP energy -347025.265503 kJ/mol
# GULP energy per Si atom -12393.759482 kJ/mol
# Density = 2.355286 g / cm^3
# Si number density = 23.606585 Si / 1000 Ang^3
#
#
#
# Elastic Constant Matrix: (Units=GPa)
#
#
# Indices 1 2 3 4 5 6 
#
# 1 108.8181 13.7095 47.8757 0.0000 0.0000 0.0000
# 2 13.7095 57.6667 24.7063 0.0000 0.0000 0.0000
# 3 47.8757 24.7063 118.0404 0.0000 0.0000 0.0000
# 4 0.0000 0.0000 0.0000 29.3317 0.0000 0.0000
# 5 0.0000 0.0000 0.0000 0.0000 41.1181 0.0000
# 6 0.0000 0.0000 0.0000 0.0000 0.0000 32.7470
#
#
#
# Elastic Compliance Matrix: (Units=1/GPa)
#
#
# Indices 1 2 3 4 5 6 
#
# 1 0.011218 -0.000788 -0.004385 0.000000 0.000000 0.000000
# 2 -0.000788 0.019105 -0.003679 0.000000 0.000000 0.000000
# 3 -0.004385 -0.003679 0.011020 0.000000 0.000000 0.000000
# 4 0.000000 0.000000 0.000000 0.034093 0.000000 0.000000
# 5 0.000000 0.000000 0.000000 0.000000 0.024320 0.000000
# 6 0.000000 0.000000 0.000000 0.000000 0.000000 0.030537
#
#
# Mechanical properties :
#
#
# Convention : Reuss Voigt Hill
#
# Bulk Modulus (GPa) = 42.30377 50.78978 46.54677
# Shear Modulus (GPa) = 32.07658 33.85495 32.96576
#
# Velocity S-wave (km/s) = 3.69019 3.79110 3.74098
# Velocity P-wave (km/s) = 6.00965 6.38162 6.19842
#
# Compressibility (1/GPa) = 0.02363856
#
# Stress axis : x y z
#
# Youngs Moduli (GPa) = 89.14109 52.34341 90.74277
#
# Poissons Ratio (x) = 0.04126 0.39790
# Poissons Ratio (y) = 0.07027 0.33384
# Poissons Ratio (z) = 0.39088 0.19257
#
# Static dielectric constant tensor:
#      x y z
#    x 4.560460 0.000000 0.000000 
#    y 0.000000 4.188200 0.000000 
#    z 0.000000 0.000000 4.146610 
# 
# 
# High freq. dielectric constant tensor:
#      x y z
#    x 1.949390 0.000000 0.000000 
#    y 0.000000 1.924800 0.000000 
#    z 0.000000 0.000000 1.926130 
# 
# From -- ./inp_files/8386.got.cif
#   From: 2010.03.12/outbox.cif.g09.slc.cpg/sg41_5_cif.got.tgz:8386.got - 2010.04.14 01:55:53.
