data_PCOD8185655
_publ_section_title
;
Structure prediction by ZEFSAII (Michael W. Deem and Ramdas Pophale) SiO2 
 PCOD8185655
Probable space group: A B A 2
;
_chemical_formula_sum "Si O2"
_cell_formula_units_Z 40
_cell_length_a 9.855348
_cell_length_b 8.683536
_cell_length_c 19.768058
_cell_angle_alpha 90.000000
_cell_angle_beta 90.000000
_cell_angle_gamma 90.000000
_cell_volume 1691.735956
_symmetry_space_group_name_H-M "A B A 2"
_symmetry_group_IT_number 41
_symmetry_cell_setting 'orthorhombic'
loop_
_space_group_symop_operation_xyz
x,y,z
-x,-y,z
1/2-x,y,1/2+z
1/2+x,-y,1/2+z
x,1/2+y,1/2+z
-x,1/2-y,1/2+z
1/2-x,1/2+y,z
1/2+x,1/2-y,z
loop_
_atom_site_type_symbol
_atom_site_label
_atom_site_fract_x
_atom_site_fract_y
_atom_site_fract_z
Si Si1 0.509846 0.675571 0.378690
Si Si2 0.849081 0.054961 0.203287
Si Si3 0.387242 0.120739 0.255077
Si Si4 0.247732 0.727279 0.963484
Si Si5 0.656721 0.030431 0.554350
O O1 0.500000 0.500000 0.350739
O O2 0.562497 0.800681 0.324429
O O3 0.361024 0.727100 0.402840
O O4 0.616521 0.683528 0.440130
O O5 0.853489 0.240737 0.203784
O O6 0.751856 0.979874 0.261148
O O7 0.787197 0.003042 0.130391
O O8 0.000000 0.000000 0.217767
O O9 0.500000 0.000000 0.228053
O O10 0.281280 0.558096 0.990067
O O11 0.186796 0.796209 0.032586
O O12 0.500000 0.000000 0.559710
#
# Coordination Sequence:
#
# PCOD8185655 Si02
#       5
#     8   8   8   8   8
#     4  12  29  46  75 110 155 201 256 317 387 467
#     4  11  26  50  76 111 151 205 258 322 386 462
#     4  12  29  49  76 111 153 202 262 318 389 463
#     4  12  25  46  73 110 147 196 246 318 388 455
#     4  11  24  46  75 109 150 190 256 315 384 464
#
# _framework density 23.644352000000001
#
# number of rings (size 3 to 8) (size 9 to 14) (size 15 to 20)
#    0.000    0.400    4.000    3.000   11.200    1.600 
#    3.600    0.000    0.000    0.000    0.000    0.000 
#    0.000    0.000    0.000    0.000    0.000    0.000 
#
# Total GULP energy -247879.643510 kJ/mol
# GULP energy per Si atom -12393.982176 kJ/mol
# Density = 2.359054 g / cm^3
# Si number density = 23.644352 Si / 1000 Ang^3
#
#
#
# Elastic Constant Matrix: (Units=GPa)
#
#
# Indices 1 2 3 4 5 6 
#
# 1 126.0926 60.1085 38.5514 0.0000 0.0000 0.0000
# 2 60.1085 142.5955 38.4642 0.0000 0.0000 0.0000
# 3 38.5514 38.4642 109.7017 0.0000 0.0000 0.0000
# 4 0.0000 0.0000 0.0000 27.0510 0.0000 0.0000
# 5 0.0000 0.0000 0.0000 0.0000-2327.2982 0.0000
# 6 0.0000 0.0000 0.0000 0.0000 0.0000 42.5119
#
#
#
# Elastic Compliance Matrix: (Units=1/GPa)
#
#
# Indices 1 2 3 4 5 6 
#
# 1 0.010446 -0.003770 -0.002349 0.000000 0.000000 0.000000
# 2 -0.003770 0.009106 -0.001868 0.000000 0.000000 0.000000
# 3 -0.002349 -0.001868 0.010596 0.000000 0.000000 0.000000
# 4 0.000000 0.000000 0.000000 0.036967 0.000000 0.000000
# 5 0.000000 0.000000 0.000000 0.000000 -0.000430 0.000000
# 6 0.000000 0.000000 0.000000 0.000000 0.000000 0.023523
#
#
# Mechanical properties :
#
#
# Convention : Reuss Voigt Hill
#
# Bulk Modulus (GPa) = 70.55057 72.51533 71.53295
# Shear Modulus (GPa) = 45.08309 -435.46268 -195.18980
#
# Velocity S-wave (km/s) = 4.37133 -13.58572 -9.09569
# Velocity P-wave (km/s) = 7.44185 14.67515 8.94368
#
# Compressibility (1/GPa) = 0.01417423
#
# Stress axis : x y z
#
# Youngs Moduli (GPa) = 95.73146 109.82101 94.37395
#
# Poissons Ratio (x) = 0.41398 0.22170
# Poissons Ratio (y) = 0.36087 0.17629
# Poissons Ratio (z) = 0.22489 0.20514
#
# Static dielectric constant tensor:
#      x y z
#    x 6.979200 0.000000 0.000000 
#    y 0.000000 4.363010 0.000000 
#    z 0.000000 0.000000 4.190830 
# 
# 
# High freq. dielectric constant tensor:
#      x y z
#    x 1.945160 0.000000 0.000000 
#    y 0.000000 1.948290 0.000000 
#    z 0.000000 0.000000 1.932790 
# 
# From -- ./inp_files/11349.got.cif
#   From: 2010.03.12/outbox.cif.g09.slc.cpg/sg41_6_cif.got.tgz:11349.got - 2010.04.14 01:55:53.
