data_PCOD8185873
_publ_section_title
;
Structure prediction by ZEFSAII (Michael W. Deem and Ramdas Pophale) SiO2 
 PCOD8185873
Probable space group: F M M 2
;
_chemical_formula_sum "Si O2"
_cell_formula_units_Z 96
_cell_length_a 18.831730
_cell_length_b 10.044430
_cell_length_c 27.774479
_cell_angle_alpha 90.000000
_cell_angle_beta 90.000000
_cell_angle_gamma 90.000000
_cell_volume 5253.653628
_symmetry_space_group_name_H-M "F M M 2"
_symmetry_group_IT_number 42
_symmetry_cell_setting 'orthorhombic'
loop_
_space_group_symop_operation_xyz
x,y,z
-x,-y,z
-x,y,z
x,-y,z
x,1/2+y,1/2+z
-x,1/2-y,1/2+z
-x,1/2+y,1/2+z
x,1/2-y,1/2+z
1/2+x,y,1/2+z
1/2-x,-y,1/2+z
1/2-x,y,1/2+z
1/2+x,-y,1/2+z
1/2+x,1/2+y,z
1/2-x,1/2-y,z
1/2-x,1/2+y,z
1/2+x,1/2-y,z
loop_
_atom_site_type_symbol
_atom_site_label
_atom_site_fract_x
_atom_site_fract_y
_atom_site_fract_z
Si Si1 0.843329 0.500000 0.172068
Si Si2 0.915500 0.151634 0.433827
Si Si3 0.915069 0.000000 0.775223
Si Si4 0.083761 0.345830 0.519478
Si Si5 0.419190 0.248853 0.333245
Si Si6 0.421774 0.000000 0.766517
Si Si7 0.321024 0.000000 0.678843
Si Si8 0.832469 0.742904 0.612352
O O1 0.889887 0.500000 0.220068
O O2 0.762252 0.500000 0.189088
O O3 0.860546 0.375135 0.138148
O O4 0.891028 0.252016 0.475702
O O5 0.883223 0.214058 0.384464
O O6 0.000000 0.144907 0.430013
O O7 0.886830 0.000000 0.442329
O O8 0.883605 0.874235 0.804818
O O9 0.000000 0.000000 0.772638
O O10 0.105929 0.500000 0.510022
O O11 0.121767 0.285995 0.565653
O O12 0.000000 0.335511 0.527592
O O13 0.500000 0.208547 0.343850
O O14 0.412751 0.373672 0.299373
O O15 0.359053 0.000000 0.729264
O O16 0.500000 0.000000 0.741785
O O17 0.346250 0.127771 0.650216
O O18 0.750000 0.750000 0.597241
#
# Coordination Sequence:
#
# PCOD8185873 Si02
#       8
#     8  16   8  16  16   8   8  16
#     4  10  22  36  53  76 102 142 183 216 263 316
#     4   9  17  31  51  78 110 139 169 209 262 321
#     4  10  20  32  49  76 106 136 175 220 261 300
#     4  10  21  35  55  84 110 135 174 225 274 312
#     4   9  17  30  49  76 108 138 170 210 258 314
#     4  10  18  30  53  80 102 132 173 218 263 306
#     4  10  20  36  55  74 102 140 179 218 263 318
#     4  10  21  38  56  75 104 144 183 215 262 327
#
# _framework density 18.272997
#
# number of rings (size 3 to 8) (size 9 to 14) (size 15 to 20)
#    0.000    2.333    1.667    1.000    2.333    1.333 
#    0.000    0.000    0.000    2.000    0.000    0.000 
#    0.000    0.000    0.000    0.000    0.000    0.000 
#
# Total GULP energy -297512.458127 kJ/mol
# GULP energy per Si atom -12396.352422 kJ/mol
# Density = 1.823141 g / cm^3
# Si number density = 18.272997 Si / 1000 Ang^3
#
#
#
# Elastic Constant Matrix: (Units=GPa)
#
#
# Indices 1 2 3 4 5 6 
#
# 1 31.0774 28.9327 43.6272 0.0000 0.0000 0.0000
# 2 28.9327 177.6019 80.5081 0.0000 0.0000 0.0000
# 3 43.6272 80.5081 141.1939 0.0000 0.0000 0.0000
# 4 0.0000 0.0000 0.0000 -19.8289 0.0000 0.0000
# 5 0.0000 0.0000 0.0000 0.0000 -15.2600 0.0000
# 6 0.0000 0.0000 0.0000 0.0000 0.0000 25.1190
#
#
#
# Elastic Compliance Matrix: (Units=1/GPa)
#
#
# Indices 1 2 3 4 5 6 
#
# 1 0.057234 -0.001763 -0.016679 0.000000 0.000000 0.000000
# 2 -0.001763 0.007648 -0.003816 0.000000 0.000000 0.000000
# 3 -0.016679 -0.003816 0.014412 0.000000 0.000000 0.000000
# 4 0.000000 0.000000 0.000000 -0.050431 0.000000 0.000000
# 5 0.000000 0.000000 0.000000 0.000000 -0.065531 0.000000
# 6 0.000000 0.000000 0.000000 0.000000 0.000000 0.039811
#
#
# Mechanical properties :
#
#
# Convention : Reuss Voigt Hill
#
# Bulk Modulus (GPa) = 28.75464 72.88990 50.82227
# Shear Modulus (GPa) = 84.38775 11.12636 47.75705
#
# Velocity S-wave (km/s) = 6.80308 2.47026 5.11782
# Velocity P-wave (km/s) = 8.80225 6.93630 7.92439
#
# Compressibility (1/GPa) = 0.03477700
#
# Stress axis : x y z
#
# Youngs Moduli (GPa) = 17.47220 130.76143 69.38692
#
# Poissons Ratio (x) = 0.23053 1.15733
# Poissons Ratio (y) = 0.03080 0.26477
# Poissons Ratio (z) = 0.29142 0.49896
#
# Static dielectric constant tensor:
#      x y z
#    x 3.005070 0.000000 0.000000 
#    y 0.000000 3.720230 0.000000 
#    z 0.000000 0.000000 3.448540 
# 
# 
# High freq. dielectric constant tensor:
#      x y z
#    x 1.659760 0.000000 0.000000 
#    y 0.000000 1.733490 0.000000 
#    z 0.000000 0.000000 1.718490 
# 
# From -- ./inp_files/28154.got.cif
#   From: 2010.03.12/outbox.cif.g09.slc.cpg/sg42_15_cif.got.tgz:28154.got - 2010.04.14 02:04:31.
