data_PCOD8185116
_publ_section_title
;
Structure prediction by ZEFSAII (Michael W. Deem and Ramdas Pophale) SiO2 
 PCOD8185116
Probable space group: A B A 2
;
_chemical_formula_sum "Si O2"
_cell_formula_units_Z 64
_cell_length_a 9.385833
_cell_length_b 16.491128
_cell_length_c 19.375194
_cell_angle_alpha 90.000000
_cell_angle_beta 90.000000
_cell_angle_gamma 90.000000
_cell_volume 2998.950137
_symmetry_space_group_name_H-M "A B A 2"
_symmetry_group_IT_number 41
_symmetry_cell_setting 'orthorhombic'
loop_
_space_group_symop_operation_xyz
x,y,z
-x,-y,z
1/2-x,y,1/2+z
1/2+x,-y,1/2+z
x,1/2+y,1/2+z
-x,1/2-y,1/2+z
1/2-x,1/2+y,z
1/2+x,1/2-y,z
loop_
_atom_site_type_symbol
_atom_site_label
_atom_site_fract_x
_atom_site_fract_y
_atom_site_fract_z
Si Si1 0.781275 0.090391 0.101590
Si Si2 0.664055 0.916750 0.094510
Si Si3 0.270232 0.825306 0.734785
Si Si4 0.056001 0.132647 0.027708
Si Si5 0.230667 0.813604 0.385463
Si Si6 0.558823 0.345678 0.882077
Si Si7 0.069791 0.321934 0.019363
Si Si8 0.941641 0.339183 0.230615
O O1 0.824989 0.105979 0.181326
O O2 0.689913 0.168434 0.078213
O O3 0.922922 0.081932 0.056225
O O4 0.678600 0.013555 0.089449
O O5 0.818490 0.878093 0.082378
O O6 0.563914 0.879794 0.035126
O O7 0.604564 0.900538 0.170991
O O8 0.303450 0.857634 0.812328
O O9 0.347075 0.740420 0.722182
O O10 0.103232 0.810386 0.722516
O O11 0.020749 0.228475 0.018990
O O12 0.091578 0.098299 0.949753
O O13 0.180594 0.721577 0.381009
O O14 0.400149 0.811135 0.396676
O O15 0.142261 0.854026 0.448033
O O16 0.571889 0.385383 0.805594
#
# Coordination Sequence:
#
# PCOD8185116 Si02
#       8
#     8   8   8   8   8   8   8   8
#     4  12  24  41  60  90 133 164 203 260 319 380
#     4  12  26  39  60  93 131 171 205 258 321 377
#     4  10  21  38  63  92 122 162 209 260 308 373
#     4  11  23  41  64  93 120 166 215 263 312 375
#     4   9  19  35  60  94 121 154 206 268 310 359
#     4   9  19  36  61  91 122 154 207 268 308 360
#     4  11  21  39  66  92 122 162 217 258 312 373
#     4  10  21  39  62  93 121 163 214 255 312 373
#
# _framework density 21.340802
#
# number of rings (size 3 to 8) (size 9 to 14) (size 15 to 20)
#    0.000    1.500    2.500    3.000    7.000    0.000 
#    0.000    1.250    2.750    1.500    0.000    0.000 
#    0.000    0.000    0.000    0.000    0.000    0.000 
#
# Total GULP energy -396513.960957 kJ/mol
# GULP energy per Si atom -12391.061280 kJ/mol
# Density = 2.129223 g / cm^3
# Si number density = 21.340802 Si / 1000 Ang^3
#
#
#
# Elastic Constant Matrix: (Units=GPa)
#
#
# Indices 1 2 3 4 5 6 
#
# 1 82.8663 9.7009 28.7479 0.0000 0.0000 0.0000
# 2 9.7009 47.1313 29.6617 0.0000 0.0000 0.0000
# 3 28.7479 29.6617 149.6089 0.0000 0.0000 0.0000
# 4 0.0000 0.0000 0.0000 12.9502 0.0000 0.0000
# 5 0.0000 0.0000 0.0000 0.0000 39.4633 0.0000
# 6 0.0000 0.0000 0.0000 0.0000 0.0000 31.1108
#
#
#
# Elastic Compliance Matrix: (Units=1/GPa)
#
#
# Indices 1 2 3 4 5 6 
#
# 1 0.012995 -0.001261 -0.002247 0.000000 0.000000 0.000000
# 2 -0.001261 0.024364 -0.004588 0.000000 0.000000 0.000000
# 3 -0.002247 -0.004588 0.008026 0.000000 0.000000 0.000000
# 4 0.000000 0.000000 0.000000 0.077219 0.000000 0.000000
# 5 0.000000 0.000000 0.000000 0.000000 0.025340 0.000000
# 6 0.000000 0.000000 0.000000 0.000000 0.000000 0.032143
#
#
# Mechanical properties :
#
#
# Convention : Reuss Voigt Hill
#
# Bulk Modulus (GPa) = 34.25488 46.20308 40.22898
# Shear Modulus (GPa) = 24.27073 30.80460 27.53766
#
# Velocity S-wave (km/s) = 3.37604 3.80341 3.59608
# Velocity P-wave (km/s) = 5.59312 6.40196 6.01116
#
# Compressibility (1/GPa) = 0.02919292
#
# Stress axis : x y z
#
# Youngs Moduli (GPa) = 76.95413 41.04348 124.60177
#
# Poissons Ratio (x) = 0.05174 0.27999
# Poissons Ratio (y) = 0.09700 0.57171
# Poissons Ratio (z) = 0.17292 0.18832
#
# Static dielectric constant tensor:
#      x y z
#    x 3.978230 0.000000 0.000000 
#    y 0.000000 3.320840 0.000000 
#    z 0.000000 0.000000 4.681130 
# 
# 
# High freq. dielectric constant tensor:
#      x y z
#    x 1.850220 0.000000 0.000000 
#    y 0.000000 1.783050 0.000000 
#    z 0.000000 0.000000 1.866200 
# 
# From -- ./inp_files/11284.got.cif
#   From: 2010.03.12/outbox.cif.g09.slc.cpg/sg41_6_cif.got.tgz:11284.got - 2010.04.14 01:55:53.
