data_PCOD8185941
_publ_section_title
;
Structure prediction by ZEFSAII (Michael W. Deem and Ramdas Pophale) SiO2 
 PCOD8185941
Probable space group: F M M 2
;
_chemical_formula_sum "Si O2"
_cell_formula_units_Z 112
_cell_length_a 14.858861
_cell_length_b 22.523664
_cell_length_c 16.695497
_cell_angle_alpha 90.000000
_cell_angle_beta 90.000000
_cell_angle_gamma 90.000000
_cell_volume 5587.582030
_symmetry_space_group_name_H-M "F M M 2"
_symmetry_group_IT_number 42
_symmetry_cell_setting 'orthorhombic'
loop_
_space_group_symop_operation_xyz
x,y,z
-x,-y,z
-x,y,z
x,-y,z
x,1/2+y,1/2+z
-x,1/2-y,1/2+z
-x,1/2+y,1/2+z
x,1/2-y,1/2+z
1/2+x,y,1/2+z
1/2-x,-y,1/2+z
1/2-x,y,1/2+z
1/2+x,-y,1/2+z
1/2+x,1/2+y,z
1/2-x,1/2-y,z
1/2-x,1/2+y,z
1/2+x,1/2-y,z
loop_
_atom_site_type_symbol
_atom_site_label
_atom_site_fract_x
_atom_site_fract_y
_atom_site_fract_z
Si Si1 0.397602 0.225345 0.153100
Si Si2 0.100288 0.865450 0.786005
Si Si3 0.232104 0.567412 0.181737
Si Si4 0.342549 0.313402 0.489133
Si Si5 0.101099 0.434365 0.032914
Si Si6 0.139311 0.685182 0.454235
Si Si7 0.398414 0.357035 0.127663
O O1 0.500000 0.216987 0.122559
O O2 0.380035 0.194737 0.237574
O O3 0.375029 0.293864 0.167193
O O4 0.333766 0.195847 0.085538
O O5 0.178568 0.911165 0.761062
O O6 0.100853 0.849981 0.879259
O O7 0.000000 0.890514 0.765972
O O8 0.257056 0.500000 0.197156
O O9 0.167513 0.576428 0.106186
O O10 0.327460 0.598167 0.165855
O O11 0.387865 0.378246 0.471725
O O12 0.246220 0.315069 0.448705
O O13 0.395084 0.254532 0.456113
O O14 0.120061 0.500000 0.993313
O O15 0.000000 0.433260 0.066840
O O16 0.107124 0.648753 0.531607
O O17 0.500000 0.377686 0.149809
#
# Coordination Sequence:
#
# PCOD8185941 Si02
#       7
#    16  16  16  16  16  16  16
#     4   9  18  33  59  87 114 154 199 249 299 345
#     4  11  22  38  59  88 124 157 193 247 311 363
#     4  11  23  39  61  86 113 154 207 251 290 352
#     4  10  18  34  56  85 122 161 200 243 286 347
#     4  10  19  33  58  87 113 147 195 247 289 331
#     4  10  21  34  56  90 125 161 193 239 310 371
#     4  10  20  37  60  87 119 153 197 249 304 362
#
# _framework density 20.044447999999999
#
# number of rings (size 3 to 8) (size 9 to 14) (size 15 to 20)
#    0.000    1.857    2.857    1.286    0.000    5.714 
#    0.000    1.429    0.000    3.429    0.000    0.000 
#    0.000    0.000    0.000    0.000    0.000    0.000 
#
# Total GULP energy -346989.794247 kJ/mol
# GULP energy per Si atom -12392.492652 kJ/mol
# Density = 1.999883 g / cm^3
# Si number density = 20.044448 Si / 1000 Ang^3
#
#
#
# Elastic Constant Matrix: (Units=GPa)
#
#
# Indices 1 2 3 4 5 6 
#
# 1 107.7597 57.4643 18.3049 0.0000 0.0000 0.0000
# 2 57.4643 157.6644 29.0425 0.0000 0.0000 0.0000
# 3 18.3049 29.0425 53.7318 0.0000 0.0000 0.0000
# 4 0.0000 0.0000 0.0000 21.8936 0.0000 0.0000
# 5 0.0000 0.0000 0.0000 0.0000 20.7382 0.0000
# 6 0.0000 0.0000 0.0000 0.0000 0.0000 27.8128
#
#
#
# Elastic Compliance Matrix: (Units=1/GPa)
#
#
# Indices 1 2 3 4 5 6 
#
# 1 0.011684 -0.003915 -0.001864 0.000000 0.000000 0.000000
# 2 -0.003915 0.008356 -0.003183 0.000000 0.000000 0.000000
# 3 -0.001864 -0.003183 0.020966 0.000000 0.000000 0.000000
# 4 0.000000 0.000000 0.000000 0.045676 0.000000 0.000000
# 5 0.000000 0.000000 0.000000 0.000000 0.048220 0.000000
# 6 0.000000 0.000000 0.000000 0.000000 0.000000 0.035955
#
#
# Mechanical properties :
#
#
# Convention : Reuss Voigt Hill
#
# Bulk Modulus (GPa) = 43.32335 58.75326 51.03830
# Shear Modulus (GPa) = 25.44846 28.37851 26.91349
#
# Velocity S-wave (km/s) = 3.56701 3.76677 3.66825
# Velocity P-wave (km/s) = 6.21493 6.94933 6.59236
#
# Compressibility (1/GPa) = 0.02308224
#
# Stress axis : x y z
#
# Youngs Moduli (GPa) = 85.58382 119.67696 47.69556
#
# Poissons Ratio (x) = 0.46856 0.08892
# Poissons Ratio (y) = 0.33508 0.15180
# Poissons Ratio (z) = 0.15956 0.38088
#
# Static dielectric constant tensor:
#      x y z
#    x 3.730970 0.000000 0.000000 
#    y 0.000000 3.945040 0.000000 
#    z 0.000000 0.000000 3.198660 
# 
# 
# High freq. dielectric constant tensor:
#      x y z
#    x 1.790430 0.000000 0.000000 
#    y 0.000000 1.783510 0.000000 
#    z 0.000000 0.000000 1.734800 
# 
# From -- ./inp_files/14271.got.cif
#   From: 2010.03.12/outbox.cif.g09.slc.cpg/sg42_8_cif.got.tgz:14271.got - 2010.04.14 02:04:31.
