data_PCOD8185032
_publ_section_title
;
Structure prediction by ZEFSAII (Michael W. Deem and Ramdas Pophale) SiO2 
 PCOD8185032
Probable space group: A B A 2
;
_chemical_formula_sum "Si O2"
_cell_formula_units_Z 60
_cell_length_a 16.043311
_cell_length_b 14.573739
_cell_length_c 11.687658
_cell_angle_alpha 90.000000
_cell_angle_beta 90.000000
_cell_angle_gamma 90.000000
_cell_volume 2732.703323
_symmetry_space_group_name_H-M "A B A 2"
_symmetry_group_IT_number 41
_symmetry_cell_setting 'orthorhombic'
loop_
_space_group_symop_operation_xyz
x,y,z
-x,-y,z
1/2-x,y,1/2+z
1/2+x,-y,1/2+z
x,1/2+y,1/2+z
-x,1/2-y,1/2+z
1/2-x,1/2+y,z
1/2+x,1/2-y,z
loop_
_atom_site_type_symbol
_atom_site_label
_atom_site_fract_x
_atom_site_fract_y
_atom_site_fract_z
Si Si1 0.019464 0.820084 0.619900
Si Si2 0.283403 0.877144 0.688268
Si Si3 0.420112 0.330839 0.031676
Si Si4 0.650424 0.741133 0.803391
Si Si5 0.851444 0.045565 0.551240
Si Si6 0.000000 0.000000 0.932182
Si Si7 0.797884 0.938829 0.328382
Si Si8 0.382106 0.582827 0.754314
O O1 0.079499 0.803105 0.725953
O O2 0.063577 0.894203 0.532848
O O3 0.005040 0.727369 0.548056
O O4 0.926925 0.847600 0.665415
O O5 0.368700 0.829505 0.649809
O O6 0.238946 0.805154 0.772494
O O7 0.230006 0.891241 0.570766
O O8 0.307280 0.973479 0.747753
O O9 0.365405 0.284752 0.933557
O O10 0.440689 0.436961 0.008451
O O11 0.646796 0.851851 0.789285
O O12 0.830028 0.970497 0.454462
O O13 0.864092 0.005948 0.678569
O O14 0.053024 0.067215 0.854303
O O15 0.704624 0.894483 0.319698
#
# Coordination Sequence:
#
# PCOD8185032 Si02
#       8
#     8   8   8   8   8   4   8   8
#     4  11  23  41  65  93 137 179 221 279 340 416
#     4  10  23  44  65  93 138 172 226 289 333 410
#     4  12  25  42  67  98 135 180 227 282 350 403
#     4  11  24  46  63  99 136 175 229 278 348 416
#     4  10  20  41  68  96 129 178 224 276 343 403
#     4  12  22  42  68  92 126 174 230 274 330 420
#     4  11  24  40  71 100 132 173 232 288 340 396
#     4  11  20  43  69  94 126 182 224 272 338 424
#
# _framework density 21.956282000000002
#
# number of rings (size 3 to 8) (size 9 to 14) (size 15 to 20)
#    0.000    1.067    2.667    4.800    1.867    2.133 
#    7.200    1.333    0.000    0.000    0.000    0.000 
#    0.000    0.000    0.000    0.000    0.000    0.000 
#
# Total GULP energy -371760.186246 kJ/mol
# GULP energy per Si atom -12392.006208 kJ/mol
# Density = 2.190631 g / cm^3
# Si number density = 21.956282 Si / 1000 Ang^3
#
#
#
# Elastic Constant Matrix: (Units=GPa)
#
#
# Indices 1 2 3 4 5 6 
#
# 1 88.1536 35.5823 38.3394 0.0000 0.0000 0.0000
# 2 35.5823 127.5050 36.6106 0.0000 0.0000 0.0000
# 3 38.3394 36.6106 77.3050 0.0000 0.0000 0.0000
# 4 0.0000 0.0000 0.0000 16.8314 0.0000 0.0000
# 5 0.0000 0.0000 0.0000 0.0000 26.0114 0.0000
# 6 0.0000 0.0000 0.0000 0.0000 0.0000 41.8380
#
#
#
# Elastic Compliance Matrix: (Units=1/GPa)
#
#
# Indices 1 2 3 4 5 6 
#
# 1 0.015064 -0.002383 -0.006343 0.000000 0.000000 0.000000
# 2 -0.002383 0.009454 -0.003296 0.000000 0.000000 0.000000
# 3 -0.006343 -0.003296 0.017642 0.000000 0.000000 0.000000
# 4 0.000000 0.000000 0.000000 0.059413 0.000000 0.000000
# 5 0.000000 0.000000 0.000000 0.000000 0.038445 0.000000
# 6 0.000000 0.000000 0.000000 0.000000 0.000000 0.023902
#
#
# Mechanical properties :
#
#
# Convention : Reuss Voigt Hill
#
# Bulk Modulus (GPa) = 55.19246 57.11426 56.15336
# Shear Modulus (GPa) = 25.77311 29.09824 27.43568
#
# Velocity S-wave (km/s) = 3.42985 3.64439 3.53875
# Velocity P-wave (km/s) = 6.39352 6.61649 6.50596
#
# Compressibility (1/GPa) = 0.01811842
#
# Stress axis : x y z
#
# Youngs Moduli (GPa) = 66.38293 105.77491 56.68239
#
# Poissons Ratio (x) = 0.25203 0.35952
# Poissons Ratio (y) = 0.15817 0.18680
# Poissons Ratio (z) = 0.42104 0.34859
#
# Static dielectric constant tensor:
#      x y z
#    x 4.228500 0.000000 0.000000 
#    y 0.000000 3.896940 0.000000 
#    z 0.000000 0.000000 3.694600 
# 
# 
# High freq. dielectric constant tensor:
#      x y z
#    x 1.866730 0.000000 0.000000 
#    y 0.000000 1.869320 0.000000 
#    z 0.000000 0.000000 1.848780 
# 
# From -- ./inp_files/5999.got.cif
#   From: 2010.03.12/outbox.cif.g09.slc.cpg/sg41_3_cif.got.tgz:5999.got - 2010.04.14 01:55:53.
