data_PCOD8185364
_publ_section_title
;
Structure prediction by ZEFSAII (Michael W. Deem and Ramdas Pophale) SiO2 
 PCOD8185364
Probable space group: A B A 2
;
_chemical_formula_sum "Si O2"
_cell_formula_units_Z 60
_cell_length_a 16.261468
_cell_length_b 9.216472
_cell_length_c 17.733593
_cell_angle_alpha 90.000000
_cell_angle_beta 90.000000
_cell_angle_gamma 90.000000
_cell_volume 2657.793248
_symmetry_space_group_name_H-M "A B A 2"
_symmetry_group_IT_number 41
_symmetry_cell_setting 'orthorhombic'
loop_
_space_group_symop_operation_xyz
x,y,z
-x,-y,z
1/2-x,y,1/2+z
1/2+x,-y,1/2+z
x,1/2+y,1/2+z
-x,1/2-y,1/2+z
1/2-x,1/2+y,z
1/2+x,1/2-y,z
loop_
_atom_site_type_symbol
_atom_site_label
_atom_site_fract_x
_atom_site_fract_y
_atom_site_fract_z
Si Si1 0.333684 0.071738 0.359310
Si Si2 0.402162 0.355148 0.657419
Si Si3 0.000000 0.500000 0.286707
Si Si4 0.590508 0.972036 0.664837
Si Si5 0.413394 0.019313 0.003594
Si Si6 0.666889 0.224647 0.575814
Si Si7 0.232945 0.559940 0.203382
Si Si8 0.728154 0.150858 0.941404
O O1 0.297187 0.126803 0.280817
O O2 0.306670 0.191743 0.419582
O O3 0.431456 0.061824 0.344315
O O4 0.297187 0.915272 0.385246
O O5 0.463359 0.378579 0.729295
O O6 0.426654 0.443703 0.584307
O O7 0.311071 0.405881 0.684527
O O8 0.406801 0.189198 0.630603
O O9 0.606869 0.096429 0.603288
O O10 0.500000 0.000000 0.702300
O O11 0.670760 0.975863 0.718320
O O12 0.500000 0.000000 0.960717
O O13 0.390121 0.185540 0.018684
O O14 0.348124 0.957431 0.944827
O O15 0.709220 0.324751 0.639011
O O16 0.740081 0.155062 0.527432
#
# Coordination Sequence:
#
# PCOD8185364 Si02
#       8
#     8   8   4   8   8   8   8   8
#     4  11  28  47  74 101 148 193 247 296 378 451
#     4  10  22  43  73 102 137 185 240 292 376 415
#     4  10  24  50  76 102 144 198 244 308 372 446
#     4  12  25  36  68 114 135 170 241 313 345 419
#     4  11  22  42  70  99 138 185 232 291 354 430
#     4  11  24  45  70 100 142 185 246 298 359 434
#     4  10  24  46  72  95 139 195 232 297 367 439
#     4  12  26  48  69 104 144 202 236 291 376 454
#
# _framework density 22.575119000000001
#
# number of rings (size 3 to 8) (size 9 to 14) (size 15 to 20)
#    0.000    1.067    2.000    4.000   11.200    1.067 
#    1.200    0.667    0.000    0.000    0.000    0.000 
#    0.000    0.000    0.000    0.000    0.000    0.000 
#
# Total GULP energy -371748.232569 kJ/mol
# GULP energy per Si atom -12391.607752 kJ/mol
# Density = 2.252374 g / cm^3
# Si number density = 22.575119 Si / 1000 Ang^3
#
#
#
# Elastic Constant Matrix: (Units=GPa)
#
#
# Indices 1 2 3 4 5 6 
#
# 1 195.1458 42.9314 36.0914 0.0000 0.0000 0.0000
# 2 42.9314 119.4544 11.0049 0.0000 0.0000 0.0000
# 3 36.0914 11.0049 68.2440 0.0000 0.0000 0.0000
# 4 0.0000 0.0000 0.0000 23.8069 0.0000 0.0000
# 5 0.0000 0.0000 0.0000 0.0000 28.6947 0.0000
# 6 0.0000 0.0000 0.0000 0.0000 0.0000 27.4908
#
#
#
# Elastic Compliance Matrix: (Units=1/GPa)
#
#
# Indices 1 2 3 4 5 6 
#
# 1 0.006084 -0.001919 -0.002908 0.000000 0.000000 0.000000
# 2 -0.001919 0.009103 -0.000453 0.000000 0.000000 0.000000
# 3 -0.002908 -0.000453 0.016264 0.000000 0.000000 0.000000
# 4 0.000000 0.000000 0.000000 0.042005 0.000000 0.000000
# 5 0.000000 0.000000 0.000000 0.000000 0.034850 0.000000
# 6 0.000000 0.000000 0.000000 0.000000 0.000000 0.036376
#
#
# Mechanical properties :
#
#
# Convention : Reuss Voigt Hill
#
# Bulk Modulus (GPa) = 47.86732 62.54440 55.20586
# Shear Modulus (GPa) = 30.82499 35.51956 33.17227
#
# Velocity S-wave (km/s) = 3.69920 3.97091 3.83746
# Velocity P-wave (km/s) = 6.28451 6.98493 6.64396
#
# Compressibility (1/GPa) = 0.02089108
#
# Stress axis : x y z
#
# Youngs Moduli (GPa) = 164.35518 109.85709 61.48362
#
# Poissons Ratio (x) = 0.21079 0.17882
# Poissons Ratio (y) = 0.31536 0.02786
# Poissons Ratio (z) = 0.47800 0.04978
#
# Static dielectric constant tensor:
#      x y z
#    x 4.528670 0.000000 0.000000 
#    y 0.000000 4.132300 0.000000 
#    z 0.000000 0.000000 3.705550 
# 
# 
# High freq. dielectric constant tensor:
#      x y z
#    x 1.910590 0.000000 0.000000 
#    y 0.000000 1.895180 0.000000 
#    z 0.000000 0.000000 1.859330 
# 
# From -- ./inp_files/10590.got.cif
#   From: 2010.03.12/outbox.cif.g09.slc.cpg/sg41_6_cif.got.tgz:10590.got - 2010.04.14 01:55:53.
