data_PCOD8185518
_publ_section_title
;
Structure prediction by ZEFSAII (Michael W. Deem and Ramdas Pophale) SiO2 
 PCOD8185518
Probable space group: A B A 2
;
_chemical_formula_sum "Si O2"
_cell_formula_units_Z 44
_cell_length_a 15.474571
_cell_length_b 11.111692
_cell_length_c 11.455327
_cell_angle_alpha 90.000000
_cell_angle_beta 90.000000
_cell_angle_gamma 90.000000
_cell_volume 1969.728205
_symmetry_space_group_name_H-M "A B A 2"
_symmetry_group_IT_number 41
_symmetry_cell_setting 'orthorhombic'
loop_
_space_group_symop_operation_xyz
x,y,z
-x,-y,z
1/2-x,y,1/2+z
1/2+x,-y,1/2+z
x,1/2+y,1/2+z
-x,1/2-y,1/2+z
1/2-x,1/2+y,z
1/2+x,1/2-y,z
loop_
_atom_site_type_symbol
_atom_site_label
_atom_site_fract_x
_atom_site_fract_y
_atom_site_fract_z
Si Si1 0.421181 0.849742 0.158040
Si Si2 0.935749 0.336582 0.333668
Si Si3 0.878644 0.422834 0.696508
Si Si4 0.117143 0.921375 0.401438
Si Si5 0.000000 0.500000 0.517409
Si Si6 0.284823 0.492578 0.797409
O O1 0.516313 0.874135 0.212701
O O2 0.407568 0.707134 0.151825
O O3 0.343994 0.891941 0.240089
O O4 0.415852 0.918079 0.034078
O O5 0.917901 0.195868 0.334890
O O6 0.998662 0.379109 0.438389
O O7 0.845863 0.406302 0.353284
O O8 0.916325 0.461636 0.826445
O O9 0.915875 0.514219 0.599523
O O10 0.775037 0.440798 0.699807
O O11 0.222768 0.927924 0.394031
#
# Coordination Sequence:
#
# PCOD8185518 Si02
#       6
#     8   8   8   8   4   8
#     4  12  23  46  71 110 148 189 252 311 367 456
#     4  12  24  47  72 105 143 192 244 303 383 439
#     4  10  25  45  71 104 145 191 244 298 381 435
#     4  10  26  43  75 101 146 193 248 296 377 447
#     4  12  22  46  70  96 148 184 236 300 370 444
#     4  10  25  45  68 107 140 188 247 301 372 449
#
# _framework density 22.338106
#
# number of rings (size 3 to 8) (size 9 to 14) (size 15 to 20)
#    1.091    0.000    3.636    2.182    2.545    0.000 
#    9.818    0.000    0.000    0.000    0.000    0.000 
#    0.000    0.000    0.000    0.000    0.000    0.000 
#
# Total GULP energy -272562.986546 kJ/mol
# GULP energy per Si atom -12389.226661 kJ/mol
# Density = 2.228726 g / cm^3
# Si number density = 22.338106 Si / 1000 Ang^3
#
#
#
# Elastic Constant Matrix: (Units=GPa)
#
#
# Indices 1 2 3 4 5 6 
#
# 1 97.5611 14.1675 39.6516 0.0000 0.0000 0.0000
# 2 14.1675 67.9664 12.1816 0.0000 0.0000 0.0000
# 3 39.6516 12.1816 106.2620 0.0000 0.0000 0.0000
# 4 0.0000 0.0000 0.0000 34.7904 0.0000 0.0000
# 5 0.0000 0.0000 0.0000 0.0000 39.3393 0.0000
# 6 0.0000 0.0000 0.0000 0.0000 0.0000 40.8929
#
#
#
# Elastic Compliance Matrix: (Units=1/GPa)
#
#
# Indices 1 2 3 4 5 6 
#
# 1 0.012289 -0.001776 -0.004382 0.000000 0.000000 0.000000
# 2 -0.001776 0.015279 -0.001089 0.000000 0.000000 0.000000
# 3 -0.004382 -0.001089 0.011171 0.000000 0.000000 0.000000
# 4 0.000000 0.000000 0.000000 0.028744 0.000000 0.000000
# 5 0.000000 0.000000 0.000000 0.000000 0.025420 0.000000
# 6 0.000000 0.000000 0.000000 0.000000 0.000000 0.024454
#
#
# Mechanical properties :
#
#
# Convention : Reuss Voigt Hill
#
# Bulk Modulus (GPa) = 41.24685 44.86566 43.05626
# Shear Modulus (GPa) = 35.73196 36.72379 36.22787
#
# Velocity S-wave (km/s) = 4.00383 4.05902 4.03152
# Velocity P-wave (km/s) = 6.31499 6.48814 6.40215
#
# Compressibility (1/GPa) = 0.02424428
#
# Stress axis : x y z
#
# Youngs Moduli (GPa) = 81.37441 65.45134 89.52045
#
# Poissons Ratio (x) = 0.11626 0.39228
# Poissons Ratio (y) = 0.14454 0.09746
# Poissons Ratio (z) = 0.35658 0.07126
#
# Static dielectric constant tensor:
#      x y z
#    x 4.147110 0.000000 0.000000 
#    y 0.000000 3.849250 0.000000 
#    z 0.000000 0.000000 3.891620 
# 
# 
# High freq. dielectric constant tensor:
#      x y z
#    x 1.886040 0.000000 0.000000 
#    y 0.000000 1.874030 0.000000 
#    z 0.000000 0.000000 1.872230 
# 
# From -- ./inp_files/5897.got.cif
#   From: 2010.03.12/outbox.cif.g09.slc.cpg/sg41_3_cif.got.tgz:5897.got - 2010.04.14 01:55:53.
