data_PCOD8185710
_publ_section_title
;
Structure prediction by ZEFSAII (Michael W. Deem and Ramdas Pophale) SiO2 
 PCOD8185710
Probable space group: A B A 2
;
_chemical_formula_sum "Si O2"
_cell_formula_units_Z 52
_cell_length_a 7.870408
_cell_length_b 14.036993
_cell_length_c 19.146604
_cell_angle_alpha 90.000000
_cell_angle_beta 90.000000
_cell_angle_gamma 90.000000
_cell_volume 2115.256728
_symmetry_space_group_name_H-M "A B A 2"
_symmetry_group_IT_number 41
_symmetry_cell_setting 'orthorhombic'
loop_
_space_group_symop_operation_xyz
x,y,z
-x,-y,z
1/2-x,y,1/2+z
1/2+x,-y,1/2+z
x,1/2+y,1/2+z
-x,1/2-y,1/2+z
1/2-x,1/2+y,z
1/2+x,1/2-y,z
loop_
_atom_site_type_symbol
_atom_site_label
_atom_site_fract_x
_atom_site_fract_y
_atom_site_fract_z
Si Si1 0.664924 0.446718 0.858340
Si Si2 0.000000 0.000000 0.135414
Si Si3 0.550473 0.364849 0.717204
Si Si4 0.845146 0.658736 0.732528
Si Si5 0.847170 0.436164 0.072290
Si Si6 0.157124 0.867159 0.388814
Si Si7 0.176610 0.698025 0.951335
O O1 0.500000 0.500000 0.884582
O O2 0.657723 0.420919 0.776339
O O3 0.814189 0.520048 0.878743
O O4 0.682913 0.350632 0.901902
O O5 0.835546 0.987251 0.085151
O O6 0.037944 0.911453 0.186980
O O7 0.352952 0.367964 0.737542
O O8 0.627444 0.262193 0.700667
O O9 0.568875 0.419580 0.646289
O O10 0.903180 0.668778 0.812748
O O11 0.000000 0.500000 0.035114
O O12 0.798266 0.337126 0.031547
O O13 0.311669 0.809678 0.428856
O O14 0.006202 0.845482 0.440034
#
# Coordination Sequence:
#
# PCOD8185710 Si02
#       7
#     8   4   8   8   8   8   8
#     4  12  24  45  76 109 145 203 254 327 391 467
#     4  12  28  48  84 116 156 214 264 334 416 480
#     4  12  25  47  77 114 159 202 268 337 395 478
#     4  12  25  46  78 118 156 202 269 337 399 478
#     4  12  27  54  76 115 160 211 266 326 407 486
#     4  12  25  46  74 109 153 197 261 321 397 467
#     4  12  29  49  73 111 158 203 259 325 397 492
#
# _framework density 24.583304999999999
#
# number of rings (size 3 to 8) (size 9 to 14) (size 15 to 20)
#    0.000    0.000    4.615    5.538    5.385    2.462 
#    5.538    0.000    0.000    0.000    0.000    0.000 
#    0.000    0.000    0.000    0.000    0.000    0.000 
#
# Total GULP energy -322137.810799 kJ/mol
# GULP energy per Si atom -12389.915800 kJ/mol
# Density = 2.452735 g / cm^3
# Si number density = 24.583305 Si / 1000 Ang^3
#
#
#
# Elastic Constant Matrix: (Units=GPa)
#
#
# Indices 1 2 3 4 5 6 
#
# 1 93.1308 30.6771 16.0468 0.0000 0.0000 0.0000
# 2 30.6771 101.1453 13.1902 0.0000 0.0000 0.0000
# 3 16.0468 13.1902 96.3314 0.0000 0.0000 0.0000
# 4 0.0000 0.0000 0.0000 49.8014 0.0000 0.0000
# 5 0.0000 0.0000 0.0000 0.0000 34.5411 0.0000
# 6 0.0000 0.0000 0.0000 0.0000 0.0000 38.6589
#
#
#
# Elastic Compliance Matrix: (Units=1/GPa)
#
#
# Indices 1 2 3 4 5 6 
#
# 1 0.012152 -0.003484 -0.001547 0.000000 0.000000 0.000000
# 2 -0.003484 0.011065 -0.000935 0.000000 0.000000 0.000000
# 3 -0.001547 -0.000935 0.010767 0.000000 0.000000 0.000000
# 4 0.000000 0.000000 0.000000 0.020080 0.000000 0.000000
# 5 0.000000 0.000000 0.000000 0.000000 0.028951 0.000000
# 6 0.000000 0.000000 0.000000 0.000000 0.000000 0.025867
#
#
# Mechanical properties :
#
#
# Convention : Reuss Voigt Hill
#
# Bulk Modulus (GPa) = 45.34741 45.60398 45.47570
# Shear Modulus (GPa) = 39.01254 39.97984 39.49619
#
# Velocity S-wave (km/s) = 3.98798 4.03712 4.01262
# Velocity P-wave (km/s) = 6.30014 6.34997 6.32511
#
# Compressibility (1/GPa) = 0.02205197
#
# Stress axis : x y z
#
# Youngs Moduli (GPa) = 82.29270 90.37257 92.88017
#
# Poissons Ratio (x) = 0.31484 0.14371
# Poissons Ratio (y) = 0.28669 0.08682
# Poissons Ratio (z) = 0.12732 0.08448
#
# Static dielectric constant tensor:
#      x y z
#    x 4.566180 0.000000 0.000000 
#    y 0.000000 4.467570 0.000000 
#    z 0.000000 0.000000 4.265400 
# 
# 
# High freq. dielectric constant tensor:
#      x y z
#    x 1.987120 0.000000 0.000000 
#    y 0.000000 1.989440 0.000000 
#    z 0.000000 0.000000 1.972810 
# 
# From -- ./inp_files/11177.got.cif
#   From: 2010.03.12/outbox.cif.g09.slc.cpg/sg41_6_cif.got.tgz:11177.got - 2010.04.14 01:55:53.
