data_PCOD8185179
_publ_section_title
;
Structure prediction by ZEFSAII (Michael W. Deem and Ramdas Pophale) SiO2 
 PCOD8185179
Probable space group: A B A 2
;
_chemical_formula_sum "Si O2"
_cell_formula_units_Z 56
_cell_length_a 14.965127
_cell_length_b 20.739390
_cell_length_c 8.781215
_cell_angle_alpha 90.000000
_cell_angle_beta 90.000000
_cell_angle_gamma 90.000000
_cell_volume 2725.404671
_symmetry_space_group_name_H-M "A B A 2"
_symmetry_group_IT_number 41
_symmetry_cell_setting 'orthorhombic'
loop_
_space_group_symop_operation_xyz
x,y,z
-x,-y,z
1/2-x,y,1/2+z
1/2+x,-y,1/2+z
x,1/2+y,1/2+z
-x,1/2-y,1/2+z
1/2-x,1/2+y,z
1/2+x,1/2-y,z
loop_
_atom_site_type_symbol
_atom_site_label
_atom_site_fract_x
_atom_site_fract_y
_atom_site_fract_z
Si Si1 0.361901 0.102852 0.422240
Si Si2 0.360563 0.981663 0.998870
Si Si3 0.454561 0.858314 0.355338
Si Si4 0.256245 0.170151 0.158109
Si Si5 0.521607 0.896729 0.019568
Si Si6 0.875393 0.280723 0.900112
Si Si7 0.179990 0.965265 0.836658
O O1 0.459918 0.129945 0.464376
O O2 0.325804 0.135414 0.267969
O O3 0.293986 0.115440 0.560150
O O4 0.373860 0.026948 0.396843
O O5 0.440511 0.935396 0.941927
O O6 0.321253 0.956917 0.156644
O O7 0.392729 0.055467 0.022017
O O8 0.283683 0.973388 0.875339
O O9 0.490411 0.874497 0.186446
O O10 0.426890 0.785334 0.379915
O O11 0.370789 0.902866 0.404946
O O12 0.183591 0.211282 0.249021
O O13 0.311256 0.218516 0.048479
O O14 0.549515 0.836224 0.916069
#
# Coordination Sequence:
#
# PCOD8185179 Si02
#       7
#     8   8   8   8   8   8   8
#     4  11  20  40  65  91 122 165 214 263 313 380
#     4  10  21  40  69  90 125 159 217 263 324 368
#     4  11  24  38  63  92 128 165 208 257 325 381
#     4  10  23  39  66  92 120 169 217 257 313 382
#     4  10  21  42  66  92 122 174 209 263 319 380
#     4  11  23  42  63  93 129 169 211 259 317 385
#     4  11  21  39  62  93 122 164 204 266 315 378
#
# _framework density 20.547408000000001
#
# number of rings (size 3 to 8) (size 9 to 14) (size 15 to 20)
#    0.000    1.429    2.857    3.000    2.000    2.286 
#    5.143    0.000    0.000    0.000    0.000    0.000 
#    0.000    0.000    0.000    0.000    0.000    0.000 
#
# Total GULP energy -347195.106505 kJ/mol
# GULP energy per Si atom -12399.825232 kJ/mol
# Density = 2.050064 g / cm^3
# Si number density = 20.547408 Si / 1000 Ang^3
#
#
#
# Elastic Constant Matrix: (Units=GPa)
#
#
# Indices 1 2 3 4 5 6 
#
# 1 129.4294 75.8292 41.4542 0.0000 0.0000 0.0000
# 2 75.8292 152.3298 30.0083 0.0000 0.0000 0.0000
# 3 41.4542 30.0083 64.6940 0.0000 0.0000 0.0000
# 4 0.0000 0.0000 0.0000 22.8847 0.0000 0.0000
# 5 0.0000 0.0000 0.0000 0.0000 29.4618 0.0000
# 6 0.0000 0.0000 0.0000 0.0000 0.0000 41.5366
#
#
#
# Elastic Compliance Matrix: (Units=1/GPa)
#
#
# Indices 1 2 3 4 5 6 
#
# 1 0.012544 -0.005130 -0.005658 0.000000 0.000000 0.000000
# 2 -0.005130 0.009323 -0.001037 0.000000 0.000000 0.000000
# 3 -0.005658 -0.001037 0.019564 0.000000 0.000000 0.000000
# 4 0.000000 0.000000 0.000000 0.043697 0.000000 0.000000
# 5 0.000000 0.000000 0.000000 0.000000 0.033942 0.000000
# 6 0.000000 0.000000 0.000000 0.000000 0.000000 0.024075
#
#
# Mechanical properties :
#
#
# Convention : Reuss Voigt Hill
#
# Bulk Modulus (GPa) = 56.24292 71.22627 63.73460
# Shear Modulus (GPa) = 28.94814 32.05406 30.50110
#
# Velocity S-wave (km/s) = 3.75753 3.95398 3.85700
# Velocity P-wave (km/s) = 6.80126 7.45552 7.13589
#
# Compressibility (1/GPa) = 0.01778001
#
# Stress axis : x y z
#
# Youngs Moduli (GPa) = 79.72073 107.26689 51.11349
#
# Poissons Ratio (x) = 0.55023 0.28922
# Poissons Ratio (y) = 0.40893 0.05302
# Poissons Ratio (z) = 0.45109 0.11127
#
# Static dielectric constant tensor:
#      x y z
#    x 4.007660 0.000000 0.000000 
#    y 0.000000 3.615780 0.000000 
#    z 0.000000 0.000000 3.615970 
# 
# 
# High freq. dielectric constant tensor:
#      x y z
#    x 1.823540 0.000000 0.000000 
#    y 0.000000 1.796450 0.000000 
#    z 0.000000 0.000000 1.786310 
# 
# From -- ./inp_files/2689.got.cif
#   From: 2010.03.12/outbox.cif.g09.slc.cpg/sg41_2_cif.got.tgz:2689.got - 2010.04.14 01:55:53.
