data_PCOD8185565
_publ_section_title
;
Structure prediction by ZEFSAII (Michael W. Deem and Ramdas Pophale) SiO2 
 PCOD8185565
Probable space group: A B A 2
;
_chemical_formula_sum "Si O2"
_cell_formula_units_Z 64
_cell_length_a 9.491926
_cell_length_b 22.559866
_cell_length_c 14.166396
_cell_angle_alpha 90.000000
_cell_angle_beta 90.000000
_cell_angle_gamma 90.000000
_cell_volume 3033.543571
_symmetry_space_group_name_H-M "A B A 2"
_symmetry_group_IT_number 41
_symmetry_cell_setting 'orthorhombic'
loop_
_space_group_symop_operation_xyz
x,y,z
-x,-y,z
1/2-x,y,1/2+z
1/2+x,-y,1/2+z
x,1/2+y,1/2+z
-x,1/2-y,1/2+z
1/2-x,1/2+y,z
1/2+x,1/2-y,z
loop_
_atom_site_type_symbol
_atom_site_label
_atom_site_fract_x
_atom_site_fract_y
_atom_site_fract_z
Si Si1 0.321570 0.764123 0.672680
Si Si2 0.097022 0.188785 0.493118
Si Si3 0.704284 0.417450 0.953020
Si Si4 0.702055 0.640691 0.548642
Si Si5 0.664714 0.010031 0.305155
Si Si6 0.906177 0.126934 0.892362
Si Si7 0.926194 0.245113 0.800803
Si Si8 0.167754 0.492739 0.092265
O O1 0.327375 0.723526 0.578772
O O2 0.258581 0.828021 0.643544
O O3 0.224404 0.737734 0.756232
O O4 0.471222 0.772110 0.721844
O O5 0.203814 0.141331 0.450346
O O6 0.051649 0.229163 0.405279
O O7 0.959120 0.158126 0.534436
O O8 0.745230 0.459617 0.864843
O O9 0.539988 0.399482 0.949040
O O10 0.741711 0.454897 0.045857
O O11 0.802982 0.662015 0.463641
O O12 0.716145 0.570124 0.552324
O O13 0.689756 0.075849 0.345048
O O14 0.718141 0.004169 0.199561
O O15 0.500000 0.000000 0.310331
O O16 0.951534 0.174052 0.811793
O O17 0.000000 0.500000 0.078617
#
# Coordination Sequence:
#
# PCOD8185565 Si02
#       8
#     8   8   8   8   8   8   8   8
#     4  12  27  45  70 107 137 183 240 287 359 431
#     4  12  27  45  70 103 143 184 231 296 356 426
#     4  11  24  42  70 103 136 181 236 290 347 419
#     4  12  24  45  72  98 140 186 232 291 356 422
#     4   9  21  40  66  98 132 177 231 275 337 414
#     4  11  23  43  74  98 137 184 232 289 355 417
#     4  12  26  46  71 102 142 183 232 293 362 425
#     4  11  22  43  71 100 137 187 230 285 350 415
#
# _framework density 21.097439000000001
#
# number of rings (size 3 to 8) (size 9 to 14) (size 15 to 20)
#    0.000    0.750    5.000    2.250    3.500    2.000 
#    0.000    0.000    2.750    0.000    0.000    0.000 
#    0.000    0.000    0.000    0.000    0.000    0.000 
#
# Total GULP energy -396810.257488 kJ/mol
# GULP energy per Si atom -12400.320547 kJ/mol
# Density = 2.104942 g / cm^3
# Si number density = 21.097439 Si / 1000 Ang^3
#
#
#
# Elastic Constant Matrix: (Units=GPa)
#
#
# Indices 1 2 3 4 5 6 
#
# 1 75.1536 27.1483 30.1435 0.0000 0.0000 0.0000
# 2 27.1483 97.9177 38.0300 0.0000 0.0000 0.0000
# 3 30.1435 38.0300 125.9862 0.0000 0.0000 0.0000
# 4 0.0000 0.0000 0.0000 34.6676 0.0000 0.0000
# 5 0.0000 0.0000 0.0000 0.0000 39.5008 0.0000
# 6 0.0000 0.0000 0.0000 0.0000 0.0000 30.6808
#
#
#
# Elastic Compliance Matrix: (Units=1/GPa)
#
#
# Indices 1 2 3 4 5 6 
#
# 1 0.015583 -0.003254 -0.002746 0.000000 0.000000 0.000000
# 2 -0.003254 0.012248 -0.002919 0.000000 0.000000 0.000000
# 3 -0.002746 -0.002919 0.009475 0.000000 0.000000 0.000000
# 4 0.000000 0.000000 0.000000 0.028845 0.000000 0.000000
# 5 0.000000 0.000000 0.000000 0.000000 0.025316 0.000000
# 6 0.000000 0.000000 0.000000 0.000000 0.000000 0.032594
#
#
# Mechanical properties :
#
#
# Convention : Reuss Voigt Hill
#
# Bulk Modulus (GPa) = 51.36312 54.41123 52.88718
# Shear Modulus (GPa) = 33.69515 34.55222 34.12368
#
# Velocity S-wave (km/s) = 4.00073 4.05130 4.02609
# Velocity P-wave (km/s) = 6.76311 6.90872 6.83630
#
# Compressibility (1/GPa) = 0.01946922
#
# Stress axis : x y z
#
# Youngs Moduli (GPa) = 64.17256 81.64304 105.53553
#
# Poissons Ratio (x) = 0.26566 0.28982
# Poissons Ratio (y) = 0.20881 0.30803
# Poissons Ratio (z) = 0.17623 0.23830
#
# Static dielectric constant tensor:
#      x y z
#    x 3.634170 0.000000 0.000000 
#    y 0.000000 3.946850 0.000000 
#    z 0.000000 0.000000 3.957000 
# 
# 
# High freq. dielectric constant tensor:
#      x y z
#    x 1.816290 0.000000 0.000000 
#    y 0.000000 1.835800 0.000000 
#    z 0.000000 0.000000 1.838600 
# 
# From -- ./inp_files/7569.got.cif
#   From: 2010.03.12/outbox.cif.g09.slc.cpg/sg41_4_cif.got.tgz:7569.got - 2010.04.14 01:55:53.
