data_PCOD8185653
_publ_section_title
;
Structure prediction by ZEFSAII (Michael W. Deem and Ramdas Pophale) SiO2 
 PCOD8185653
Probable space group: A B A 2
;
_chemical_formula_sum "Si O2"
_cell_formula_units_Z 40
_cell_length_a 10.772278
_cell_length_b 21.697960
_cell_length_c 7.435638
_cell_angle_alpha 90.000000
_cell_angle_beta 90.000000
_cell_angle_gamma 90.000000
_cell_volume 1737.979683
_symmetry_space_group_name_H-M "A B A 2"
_symmetry_group_IT_number 41
_symmetry_cell_setting 'orthorhombic'
loop_
_space_group_symop_operation_xyz
x,y,z
-x,-y,z
1/2-x,y,1/2+z
1/2+x,-y,1/2+z
x,1/2+y,1/2+z
-x,1/2-y,1/2+z
1/2-x,1/2+y,z
1/2+x,1/2-y,z
loop_
_atom_site_type_symbol
_atom_site_label
_atom_site_fract_x
_atom_site_fract_y
_atom_site_fract_z
Si Si1 0.462233 0.168367 0.541010
Si Si2 0.615700 0.467910 0.132806
Si Si3 0.891878 0.714022 0.865986
Si Si4 0.635055 0.516198 0.754260
Si Si5 0.151070 0.846530 0.727530
O O1 0.399246 0.103401 0.580929
O O2 0.375423 0.214359 0.423535
O O3 0.493670 0.202558 0.729555
O O4 0.579701 0.157056 0.414635
O O5 0.500000 0.500000 0.247335
O O6 0.752032 0.468625 0.221100
O O7 0.616497 0.514879 0.966446
O O8 0.773729 0.693353 0.752772
O O9 0.919508 0.675947 0.048359
O O10 0.500000 0.500000 0.663172
O O11 0.682378 0.582380 0.688480
#
# Coordination Sequence:
#
# PCOD8185653 Si02
#       5
#     8   8   8   8   8
#     4  12  25  46  70 109 146 189 247 307 359 448
#     4  11  24  46  72 107 151 185 244 307 370 441
#     4  12  26  43  76 103 143 195 245 301 375 435
#     4  11  24  46  73 104 143 194 244 303 370 445
#     4  12  23  47  72 101 145 191 244 302 372 439
#
# _framework density 23.015228
#
# number of rings (size 3 to 8) (size 9 to 14) (size 15 to 20)
#    0.000    0.400    8.000    2.400    0.000    4.000 
#    3.600    0.000    0.000    0.000    0.000    0.000 
#    0.000    0.000    0.000    0.000    0.000    0.000 
#
# Total GULP energy -247805.599391 kJ/mol
# GULP energy per Si atom -12390.279970 kJ/mol
# Density = 2.296284 g / cm^3
# Si number density = 23.015228 Si / 1000 Ang^3
#
#
#
# Elastic Constant Matrix: (Units=GPa)
#
#
# Indices 1 2 3 4 5 6 
#
# 1 143.8704 42.3703 22.5995 0.0000 0.0000 0.0000
# 2 42.3703 144.5514 27.2457 0.0000 0.0000 0.0000
# 3 22.5995 27.2457 98.7050 0.0000 0.0000 0.0000
# 4 0.0000 0.0000 0.0000 29.1044 0.0000 0.0000
# 5 0.0000 0.0000 0.0000 0.0000 22.8633 0.0000
# 6 0.0000 0.0000 0.0000 0.0000 0.0000 38.6876
#
#
#
# Elastic Compliance Matrix: (Units=1/GPa)
#
#
# Indices 1 2 3 4 5 6 
#
# 1 0.007742 -0.002041 -0.001209 0.000000 0.000000 0.000000
# 2 -0.002041 0.007836 -0.001696 0.000000 0.000000 0.000000
# 3 -0.001209 -0.001696 0.010876 0.000000 0.000000 0.000000
# 4 0.000000 0.000000 0.000000 0.034359 0.000000 0.000000
# 5 0.000000 0.000000 0.000000 0.000000 0.043738 0.000000
# 6 0.000000 0.000000 0.000000 0.000000 0.000000 0.025848
#
#
# Mechanical properties :
#
#
# Convention : Reuss Voigt Hill
#
# Bulk Modulus (GPa) = 60.38009 63.50643 61.94326
# Shear Modulus (GPa) = 34.29082 37.79183 36.04132
#
# Velocity S-wave (km/s) = 3.86413 4.05660 3.96154
# Velocity P-wave (km/s) = 6.79710 7.04233 6.92080
#
# Compressibility (1/GPa) = 0.01656175
#
# Stress axis : x y z
#
# Youngs Moduli (GPa) = 129.16877 127.61783 91.94506
#
# Poissons Ratio (x) = 0.26051 0.11117
# Poissons Ratio (y) = 0.26368 0.15590
# Poissons Ratio (z) = 0.15618 0.21638
#
# Static dielectric constant tensor:
#      x y z
#    x 4.454570 0.000000 0.000000 
#    y 0.000000 4.204270 0.000000 
#    z 0.000000 0.000000 4.140470 
# 
# 
# High freq. dielectric constant tensor:
#      x y z
#    x 1.901050 0.000000 0.000000 
#    y 0.000000 1.919500 0.000000 
#    z 0.000000 0.000000 1.908560 
# 
# From -- ./inp_files/1702.got.cif
#   From: 2010.03.12/outbox.cif.g09.slc.cpg/sg41_1_cif.got.tgz:1702.got - 2010.04.14 01:55:53.
