data_PCOD8185288
_publ_section_title
;
Structure prediction by ZEFSAII (Michael W. Deem and Ramdas Pophale) SiO2 
 PCOD8185288
Probable space group: A B A 2
;
_chemical_formula_sum "Si O2"
_cell_formula_units_Z 52
_cell_length_a 11.460077
_cell_length_b 21.413842
_cell_length_c 8.903841
_cell_angle_alpha 90.000000
_cell_angle_beta 90.000000
_cell_angle_gamma 90.000000
_cell_volume 2185.040674
_symmetry_space_group_name_H-M "A B A 2"
_symmetry_group_IT_number 41
_symmetry_cell_setting 'orthorhombic'
loop_
_space_group_symop_operation_xyz
x,y,z
-x,-y,z
1/2-x,y,1/2+z
1/2+x,-y,1/2+z
x,1/2+y,1/2+z
-x,1/2-y,1/2+z
1/2-x,1/2+y,z
1/2+x,1/2-y,z
loop_
_atom_site_type_symbol
_atom_site_label
_atom_site_fract_x
_atom_site_fract_y
_atom_site_fract_z
Si Si1 0.176415 0.929826 0.366240
Si Si2 0.071286 0.909718 0.930967
Si Si3 0.000000 0.500000 0.669632
Si Si4 0.026196 0.864080 0.616303
Si Si5 0.874025 0.681506 0.664648
Si Si6 0.385319 0.228228 0.701890
Si Si7 0.800253 0.301640 0.015928
O O1 0.306979 0.949837 0.415029
O O2 0.099403 0.908992 0.507736
O O3 0.197213 0.870318 0.256386
O O4 0.112108 0.986452 0.276903
O O5 0.008197 0.901947 0.771482
O O6 0.102014 0.841515 0.994615
O O7 0.986017 0.941701 0.054950
O O8 0.092576 0.798468 0.639878
O O9 0.896588 0.854319 0.548136
O O10 0.806928 0.745870 0.642519
O O11 0.993887 0.696258 0.752174
O O12 0.332464 0.182509 0.567354
O O13 0.304769 0.225131 0.849890
#
# Coordination Sequence:
#
# PCOD8185288 Si02
#       7
#     8   8   4   8   8   8   8
#     4  11  22  45  69  94 124 167 216 272 330 386
#     4  11  22  43  71  96 119 170 215 270 333 386
#     4  10  26  46  70  96 128 148 222 300 328 392
#     4  11  23  38  65  96 131 175 222 256 305 401
#     4  10  22  39  60  94 138 170 219 257 306 392
#     4  11  23  37  59  97 144 182 211 258 312 375
#     4  11  23  36  59  96 140 181 212 257 314 373
#
# _framework density 23.798182000000001
#
# number of rings (size 3 to 8) (size 9 to 14) (size 15 to 20)
#    0.000    1.231    3.077    3.692    4.308    0.615 
#    0.000    6.154    0.000    0.000    0.000    0.000 
#    0.000    0.000    0.000    0.000    0.000    0.000 
#
# Total GULP energy -322167.693392 kJ/mol
# GULP energy per Si atom -12391.065130 kJ/mol
# Density = 2.374402 g / cm^3
# Si number density = 23.798182 Si / 1000 Ang^3
#
#
#
# Elastic Constant Matrix: (Units=GPa)
#
#
# Indices 1 2 3 4 5 6 
#
# 1 64.8145 21.2565 15.6262 0.0000 0.0000 0.0000
# 2 21.2565 52.3526 23.9542 0.0000 0.0000 0.0000
# 3 15.6262 23.9542 123.3138 0.0000 0.0000 0.0000
# 4 0.0000 0.0000 0.0000 35.7553 0.0000 0.0000
# 5 0.0000 0.0000 0.0000 0.0000 36.1477 0.0000
# 6 0.0000 0.0000 0.0000 0.0000 0.0000 22.6019
#
#
#
# Elastic Compliance Matrix: (Units=1/GPa)
#
#
# Indices 1 2 3 4 5 6 
#
# 1 0.017897 -0.006837 -0.000940 0.000000 0.000000 0.000000
# 2 -0.006837 0.023576 -0.003713 0.000000 0.000000 0.000000
# 3 -0.000940 -0.003713 0.008950 0.000000 0.000000 0.000000
# 4 0.000000 0.000000 0.000000 0.027968 0.000000 0.000000
# 5 0.000000 0.000000 0.000000 0.000000 0.027664 0.000000
# 6 0.000000 0.000000 0.000000 0.000000 0.000000 0.044244
#
#
# Mechanical properties :
#
#
# Convention : Reuss Voigt Hill
#
# Bulk Modulus (GPa) = 36.43868 40.23941 38.33904
# Shear Modulus (GPa) = 27.40813 30.87726 29.14270
#
# Velocity S-wave (km/s) = 3.39734 3.60594 3.50319
# Velocity P-wave (km/s) = 5.54382 5.85512 5.70159
#
# Compressibility (1/GPa) = 0.02744337
#
# Stress axis : x y z
#
# Youngs Moduli (GPa) = 55.87400 42.41555 111.73384
#
# Poissons Ratio (x) = 0.28999 0.10502
# Poissons Ratio (y) = 0.38200 0.41492
# Poissons Ratio (z) = 0.05251 0.15751
#
# Static dielectric constant tensor:
#      x y z
#    x 4.464160 0.000000 0.000000 
#    y 0.000000 3.894310 0.000000 
#    z 0.000000 0.000000 4.356520 
# 
# 
# High freq. dielectric constant tensor:
#      x y z
#    x 1.947470 0.000000 0.000000 
#    y 0.000000 1.893260 0.000000 
#    z 0.000000 0.000000 1.967340 
# 
# From -- ./inp_files/2140.got.cif
#   From: 2010.03.12/outbox.cif.g09.slc.cpg/sg41_2_cif.got.tgz:2140.got - 2010.04.14 01:55:53.
