data_PCOD8185811
_publ_section_title
;
Structure prediction by ZEFSAII (Michael W. Deem and Ramdas Pophale) SiO2 
 PCOD8185811
Probable space group: F M M 2
;
_chemical_formula_sum "Si O2"
_cell_formula_units_Z 128
_cell_length_a 28.707479
_cell_length_b 9.449390
_cell_length_c 31.434173
_cell_angle_alpha 90.000000
_cell_angle_beta 90.000000
_cell_angle_gamma 90.000000
_cell_volume 8527.090428
_symmetry_space_group_name_H-M "F M M 2"
_symmetry_group_IT_number 42
_symmetry_cell_setting 'orthorhombic'
loop_
_space_group_symop_operation_xyz
x,y,z
-x,-y,z
-x,y,z
x,-y,z
x,1/2+y,1/2+z
-x,1/2-y,1/2+z
-x,1/2+y,1/2+z
x,1/2-y,1/2+z
1/2+x,y,1/2+z
1/2-x,-y,1/2+z
1/2-x,y,1/2+z
1/2+x,-y,1/2+z
1/2+x,1/2+y,z
1/2-x,1/2-y,z
1/2-x,1/2+y,z
1/2+x,1/2-y,z
loop_
_atom_site_type_symbol
_atom_site_label
_atom_site_fract_x
_atom_site_fract_y
_atom_site_fract_z
Si Si1 0.706011 0.837164 0.829540
Si Si2 0.947586 0.668450 0.780031
Si Si3 0.447430 0.330427 0.118310
Si Si4 0.607439 0.168278 0.699022
Si Si5 0.446472 0.168877 0.434839
Si Si6 0.794451 0.835210 0.231351
Si Si7 0.055007 0.154207 0.027304
Si Si8 0.106266 0.166193 0.363337
O O1 0.750000 0.750000 0.847021
O O2 0.695001 0.799434 0.780545
O O3 0.660876 0.800752 0.857575
O O4 0.719530 0.000000 0.833864
O O5 0.946822 0.500000 0.778560
O O6 0.922358 0.730585 0.738268
O O7 0.920930 0.721435 0.821863
O O8 0.000000 0.727504 0.781290
O O9 0.500000 0.280260 0.129006
O O10 0.446059 0.500000 0.116357
O O11 0.413108 0.271330 0.154803
O O12 0.430494 0.268815 0.071888
O O13 0.661113 0.214672 0.703840
O O14 0.603532 0.000000 0.700078
O O15 0.500000 0.208293 0.423923
O O16 0.432810 0.228673 0.482252
O O17 0.411686 0.246280 0.403262
O O18 0.439800 0.000000 0.432576
O O19 0.750000 0.750000 0.214303
O O20 0.784212 0.000000 0.225074
O O21 0.000000 0.133689 0.029263
O O22 0.078996 0.000000 0.026497
O O23 0.097382 0.000000 0.370774
#
# Coordination Sequence:
#
# PCOD8185811 Si02
#       8
#    16  16  16  16  16  16  16  16
#     4   9  17  29  43  58  79 105 135 171 208 243
#     4   9  15  22  33  51  79 111 134 153 187 233
#     4   8  12  18  32  56  83 107 131 161 198 237
#     4   9  14  21  34  55  81 106 131 161 195 233
#     4   9  17  28  41  58  83 113 141 169 201 239
#     4   9  16  27  41  57  79 104 132 166 201 235
#     4   7  11  21  35  52  77 106 133 165 202 232
#     4  10  18  28  41  60  83 108 137 169 203 241
#
# _framework density 15.010982
#
# number of rings (size 3 to 8) (size 9 to 14) (size 15 to 20)
#    0.000    3.250    1.250    2.250    0.000    2.750 
#    0.000    0.000    0.000    0.000    0.000    1.750 
#    0.000    6.500    0.000    0.250    0.000    0.000 
#
# Total GULP energy -396474.221354 kJ/mol
# GULP energy per Si atom -12389.819417 kJ/mol
# Density = 1.497682 g / cm^3
# Si number density = 15.010982 Si / 1000 Ang^3
#
#
#
# Elastic Constant Matrix: (Units=GPa)
#
#
# Indices 1 2 3 4 5 6 
#
# 1 111.0073 31.2494 68.8740 0.0000 0.0000 0.0001
# 2 31.2494 21.0465 27.0814 0.0000 0.0000 0.0002
# 3 68.8740 27.0814 133.9328 0.0000 0.0000 0.0000
# 4 0.0000 0.0000 0.0000 10.4876 0.0000 0.0000
# 5 0.0000 0.0000 0.0000 0.0000 12.5819 0.0000
# 6 0.0001 0.0002 0.0000 0.0000 0.0000 18.8373
#
#
#
# Elastic Compliance Matrix: (Units=1/GPa)
#
#
# Indices 1 2 3 4 5 6 
#
# 1 0.017757 -0.019755 -0.005137 0.000000 0.000000 0.000000
# 2 -0.019755 0.086202 -0.007271 0.000000 0.000000 -0.000001
# 3 -0.005137 -0.007271 0.011578 0.000000 0.000000 0.000000
# 4 0.000000 0.000000 0.000000 0.095351 0.000000 0.000000
# 5 0.000000 0.000000 0.000000 0.000000 0.079479 0.000000
# 6 0.000000 -0.000001 0.000000 0.000000 0.000000 0.053086
#
#
# Mechanical properties :
#
#
# Convention : Reuss Voigt Hill
#
# Bulk Modulus (GPa) = 19.52714 57.82181 38.67448
# Shear Modulus (GPa) = 11.76887 17.63349 14.70118
#
# Velocity S-wave (km/s) = 2.80307 3.43112 3.13287
# Velocity P-wave (km/s) = 4.84903 7.36886 6.23751
#
# Compressibility (1/GPa) = 0.05121078
#
# Stress axis : x y z
#
# Youngs Moduli (GPa) = 56.31670 11.60064 86.36910
#
# Poissons Ratio (x) = 0.22917 0.44366
# Poissons Ratio (y) = 1.11255 0.62801
# Poissons Ratio (z) = 0.28928 0.08435
#
# Static dielectric constant tensor:
#      x y z
#    x 2.859860 0.000000 0.000000 
#    y 0.000000 2.434290 0.000000 
#    z 0.000000 0.000000 3.160800 
# 
# 
# High freq. dielectric constant tensor:
#      x y z
#    x 1.560540 0.000000 0.000000 
#    y 0.000000 1.522660 0.000000 
#    z 0.000000 0.000000 1.573440 
# 
# From -- ./inp_files/32340.got.cif
#   From: 2010.03.12/outbox.cif.g09.slc.cpg/sg42_17_cif.got.tgz:32340.got - 2010.04.14 02:04:31.
