data_PCOD8185774
_publ_section_title
;
Structure prediction by ZEFSAII (Michael W. Deem and Ramdas Pophale) SiO2 
 PCOD8185774
Probable space group: F M M 2
;
_chemical_formula_sum "Si O2"
_cell_formula_units_Z 80
_cell_length_a 15.049515
_cell_length_b 8.695809
_cell_length_c 29.938992
_cell_angle_alpha 90.000000
_cell_angle_beta 90.000000
_cell_angle_gamma 90.000000
_cell_volume 3918.047262
_symmetry_space_group_name_H-M "F M M 2"
_symmetry_group_IT_number 42
_symmetry_cell_setting 'orthorhombic'
loop_
_space_group_symop_operation_xyz
x,y,z
-x,-y,z
-x,y,z
x,-y,z
x,1/2+y,1/2+z
-x,1/2-y,1/2+z
-x,1/2+y,1/2+z
x,1/2-y,1/2+z
1/2+x,y,1/2+z
1/2-x,-y,1/2+z
1/2-x,y,1/2+z
1/2+x,-y,1/2+z
1/2+x,1/2+y,z
1/2-x,1/2-y,z
1/2-x,1/2+y,z
1/2+x,1/2-y,z
loop_
_atom_site_type_symbol
_atom_site_label
_atom_site_fract_x
_atom_site_fract_y
_atom_site_fract_z
Si Si1 0.000000 0.317941 0.596350
Si Si2 0.653951 0.678050 0.339139
Si Si3 0.500000 0.817882 0.495841
Si Si4 0.152636 0.317471 0.661536
Si Si5 0.348495 0.817914 0.252373
Si Si6 0.652721 0.821125 0.937688
O O1 0.088653 0.261301 0.621754
O O2 0.000000 0.500000 0.595774
O O3 0.000000 0.252114 0.546307
O O4 0.661419 0.500000 0.326488
O O5 0.750000 0.750000 0.344364
O O6 0.601748 0.763234 0.298224
O O7 0.609823 0.701480 0.387928
O O8 0.411346 0.759348 0.472555
O O9 0.500000 0.000000 0.495167
O O10 0.159323 0.500000 0.665062
O O11 0.250000 0.250000 0.652485
O O12 0.109137 0.252748 0.707535
O O13 0.250000 0.750000 0.255844
O O14 0.349274 0.000000 0.248874
O O15 0.750000 0.750000 0.942317
O O16 0.659789 0.000000 0.949190
#
# Coordination Sequence:
#
# PCOD8185774 Si02
#       6
#     8  16   8  16  16  16
#     4   9  22  41  60  81 108 143 184 231 284 339
#     4   9  16  28  49  77 110 147 185 223 267 322
#     4  11  23  41  62  85 114 147 188 241 296 345
#     4  10  19  36  58  81 110 145 184 225 273 328
#     4  10  17  27  47  78 112 145 182 221 267 322
#     4  10  21  38  60  87 117 152 193 235 283 340
#
# _framework density 20.418334000000002
#
# number of rings (size 3 to 8) (size 9 to 14) (size 15 to 20)
#    0.000    2.200    0.000    6.300    0.000    3.200 
#    0.000    9.000    0.000    2.400    0.000    0.000 
#    0.000    0.000    0.000    0.000    0.000    0.000 
#
# Total GULP energy -247848.288615 kJ/mol
# GULP energy per Si atom -12392.414431 kJ/mol
# Density = 2.037186 g / cm^3
# Si number density = 20.418334 Si / 1000 Ang^3
#
#
#
# Elastic Constant Matrix: (Units=GPa)
#
#
# Indices 1 2 3 4 5 6 
#
# 1 88.1280 37.3404 70.7498 0.0000 0.0000 0.0000
# 2 37.3404 136.3038 71.5380 0.0000 0.0000 0.0000
# 3 70.7498 71.5380 204.2661 0.0000 0.0000 0.0000
# 4 0.0000 0.0000 0.0000 26.9313 0.0000 0.0000
# 5 0.0000 0.0000 0.0000 0.0000 135.1779 0.0000
# 6 0.0000 0.0000 0.0000 0.0000 0.0000 23.1901
#
#
#
# Elastic Compliance Matrix: (Units=1/GPa)
#
#
# Indices 1 2 3 4 5 6 
#
# 1 0.016076 -0.001815 -0.004932 0.000000 0.000000 0.000000
# 2 -0.001815 0.009194 -0.002591 0.000000 0.000000 0.000000
# 3 -0.004932 -0.002591 0.007511 0.000000 0.000000 0.000000
# 4 0.000000 0.000000 0.000000 0.037132 0.000000 0.000000
# 5 0.000000 0.000000 0.000000 0.000000 0.007398 0.000000
# 6 0.000000 0.000000 0.000000 0.000000 0.000000 0.043122
#
#
# Mechanical properties :
#
#
# Convention : Reuss Voigt Hill
#
# Bulk Modulus (GPa) = 70.90344 87.55047 79.22696
# Shear Modulus (GPa) = 34.76789 53.66451 44.21620
#
# Velocity S-wave (km/s) = 4.13095 5.13221 4.65856
# Velocity P-wave (km/s) = 7.58642 8.83690 8.23543
#
# Compressibility (1/GPa) = 0.01410369
#
# Stress axis : x y z
#
# Youngs Moduli (GPa) = 62.20450 108.76931 133.13104
#
# Poissons Ratio (x) = 0.19745 0.65665
# Poissons Ratio (y) = 0.11292 0.34495
# Poissons Ratio (z) = 0.30681 0.28183
#
# Static dielectric constant tensor:
#      x y z
#    x 3.366770 0.000000 0.000000 
#    y 0.000000 3.695400 0.000000 
#    z 0.000000 0.000000 4.734760 
# 
# 
# High freq. dielectric constant tensor:
#      x y z
#    x 1.767820 0.000000 0.000000 
#    y 0.000000 1.803530 0.000000 
#    z 0.000000 0.000000 1.815940 
# 
# From -- ./inp_files/32765.got.cif
#   From: 2010.03.12/outbox.cif.g09.slc.cpg/sg42_17_cif.got.tgz:32765.got - 2010.04.14 02:04:31.
