data_PCOD8185676
_publ_section_title
;
Structure prediction by ZEFSAII (Michael W. Deem and Ramdas Pophale) SiO2 
 PCOD8185676
Probable space group: A B A 2
;
_chemical_formula_sum "Si O2"
_cell_formula_units_Z 56
_cell_length_a 14.465666
_cell_length_b 14.444495
_cell_length_c 11.638623
_cell_angle_alpha 90.000000
_cell_angle_beta 90.000000
_cell_angle_gamma 90.000000
_cell_volume 2431.881433
_symmetry_space_group_name_H-M "A B A 2"
_symmetry_group_IT_number 41
_symmetry_cell_setting 'orthorhombic'
loop_
_space_group_symop_operation_xyz
x,y,z
-x,-y,z
1/2-x,y,1/2+z
1/2+x,-y,1/2+z
x,1/2+y,1/2+z
-x,1/2-y,1/2+z
1/2-x,1/2+y,z
1/2+x,1/2-y,z
loop_
_atom_site_type_symbol
_atom_site_label
_atom_site_fract_x
_atom_site_fract_y
_atom_site_fract_z
Si Si1 0.906193 0.443132 0.073140
Si Si2 0.453449 0.913396 0.612326
Si Si3 0.260152 0.940285 0.674182
Si Si4 0.888059 0.341739 0.468102
Si Si5 0.538291 0.278752 0.737956
Si Si6 0.709790 0.414318 0.361221
Si Si7 0.163244 0.255401 0.201005
O O1 0.827108 0.510867 0.118472
O O2 0.914265 0.353911 0.154670
O O3 0.000000 0.500000 0.068665
O O4 0.878173 0.409750 0.946126
O O5 0.346995 0.940615 0.584874
O O6 0.518789 0.899093 0.500189
O O7 0.453056 0.824133 0.691187
O O8 0.500000 0.000000 0.680527
O O9 0.240813 0.833636 0.703298
O O10 0.290673 0.989931 0.791819
O O11 0.912598 0.277761 0.360417
O O12 0.804279 0.409511 0.434695
O O13 0.856064 0.275995 0.570929
O O14 0.429676 0.300072 0.753555
O O15 0.702353 0.329660 0.273236
#
# Coordination Sequence:
#
# PCOD8185676 Si02
#       7
#     8   8   8   8   8   8   8
#     4  12  27  50  74 110 149 201 256 315 392 460
#     4  11  26  48  74 114 150 195 256 312 378 461
#     4  12  26  49  75 112 149 200 260 312 379 471
#     4  11  26  48  80 107 157 202 247 316 393 456
#     4  11  25  50  75 108 156 201 250 321 387 458
#     4  12  27  48  77 110 157 194 253 324 377 461
#     4  11  27  46  76 118 148 201 257 312 393 466
#
# _framework density 23.027439000000001
#
# number of rings (size 3 to 8) (size 9 to 14) (size 15 to 20)
#    0.000    0.571    2.857    4.286    6.000    8.000 
#    0.000    0.000    0.000    0.000    0.000    0.000 
#    0.000    0.000    0.000    0.000    0.000    0.000 
#
# Total GULP energy -347237.228579 kJ/mol
# GULP energy per Si atom -12401.329592 kJ/mol
# Density = 2.297503 g / cm^3
# Si number density = 23.027439 Si / 1000 Ang^3
#
#
#
# Elastic Constant Matrix: (Units=GPa)
#
#
# Indices 1 2 3 4 5 6 
#
# 1 171.8110 65.8144 61.3051 0.0000 0.0000 0.0000
# 2 65.8144 169.4216 74.4966 0.0000 0.0000 0.0000
# 3 61.3051 74.4966 140.1360 0.0000 0.0000 0.0000
# 4 0.0000 0.0000 0.0000 16.7799 0.0000 0.0000
# 5 0.0000 0.0000 0.0000 0.0000 45.7050 0.0000
# 6 0.0000 0.0000 0.0000 0.0000 0.0000 42.5329
#
#
#
# Elastic Compliance Matrix: (Units=1/GPa)
#
#
# Indices 1 2 3 4 5 6 
#
# 1 0.007327 -0.001875 -0.002208 0.000000 0.000000 0.000000
# 2 -0.001875 0.008183 -0.003530 0.000000 0.000000 0.000000
# 3 -0.002208 -0.003530 0.009978 0.000000 0.000000 0.000000
# 4 0.000000 0.000000 0.000000 0.059595 0.000000 0.000000
# 5 0.000000 0.000000 0.000000 0.000000 0.021879 0.000000
# 6 0.000000 0.000000 0.000000 0.000000 0.000000 0.023511
#
#
# Mechanical properties :
#
#
# Convention : Reuss Voigt Hill
#
# Bulk Modulus (GPa) = 97.45125 98.28899 97.87012
# Shear Modulus (GPa) = 33.52987 39.65373 36.59180
#
# Velocity S-wave (km/s) = 3.82001 4.15423 3.99062
# Velocity P-wave (km/s) = 7.86563 8.11087 7.98919
#
# Compressibility (1/GPa) = 0.01026154
#
# Stress axis : x y z
#
# Youngs Moduli (GPa) = 136.48884 122.20579 100.21601
#
# Poissons Ratio (x) = 0.22915 0.22131
# Poissons Ratio (y) = 0.25593 0.35374
# Poissons Ratio (z) = 0.30142 0.43136
#
# Static dielectric constant tensor:
#      x y z
#    x 4.876110 0.000000 0.000000 
#    y 0.000000 4.176870 0.000000 
#    z 0.000000 0.000000 4.075840 
# 
# 
# High freq. dielectric constant tensor:
#      x y z
#    x 1.938960 0.000000 0.000000 
#    y 0.000000 1.920150 0.000000 
#    z 0.000000 0.000000 1.897030 
# 
# From -- ./inp_files/5592.got.cif
#   From: 2010.03.12/outbox.cif.g09.slc.cpg/sg41_3_cif.got.tgz:5592.got - 2010.04.14 01:55:53.
