data_PCOD8185698
_publ_section_title
;
Structure prediction by ZEFSAII (Michael W. Deem and Ramdas Pophale) SiO2 
 PCOD8185698
Probable space group: A B A 2
;
_chemical_formula_sum "Si O2"
_cell_formula_units_Z 48
_cell_length_a 19.101534
_cell_length_b 13.034142
_cell_length_c 8.301248
_cell_angle_alpha 90.000000
_cell_angle_beta 90.000000
_cell_angle_gamma 90.000000
_cell_volume 2066.779202
_symmetry_space_group_name_H-M "A B A 2"
_symmetry_group_IT_number 41
_symmetry_cell_setting 'orthorhombic'
loop_
_space_group_symop_operation_xyz
x,y,z
-x,-y,z
1/2-x,y,1/2+z
1/2+x,-y,1/2+z
x,1/2+y,1/2+z
-x,1/2-y,1/2+z
1/2-x,1/2+y,z
1/2+x,1/2-y,z
loop_
_atom_site_type_symbol
_atom_site_label
_atom_site_fract_x
_atom_site_fract_y
_atom_site_fract_z
Si Si1 0.275266 0.007774 0.131920
Si Si2 0.944405 0.758256 0.909193
Si Si3 0.141582 0.534670 0.459604
Si Si4 0.179699 0.282630 0.093913
Si Si5 0.417701 0.823277 0.562953
Si Si6 0.697819 0.809818 0.934547
O O1 0.303907 0.023821 0.311314
O O2 0.279234 0.887868 0.101023
O O3 0.192890 0.040730 0.117238
O O4 0.318671 0.074918 0.999254
O O5 0.941151 0.691197 0.747033
O O6 0.909453 0.871343 0.918723
O O7 0.900144 0.693959 0.041608
O O8 0.025528 0.765348 0.952396
O O9 0.090112 0.438716 0.495145
O O10 0.177974 0.212809 0.252447
O O11 0.219111 0.213735 0.958671
O O12 0.343767 0.767228 0.549612
#
# Coordination Sequence:
#
# PCOD8185698 Si02
#       6
#     8   8   8   8   8   8
#     4  12  24  42  72 112 140 184 240 306 371 442
#     4  12  28  49  72 104 147 200 249 310 377 450
#     4  12  26  45  75 108 150 184 247 311 371 451
#     4  12  24  42  72 105 145 186 246 306 368 447
#     4  12  26  48  72 102 148 203 248 308 377 447
#     4  12  23  42  71 105 145 189 240 307 373 437
#
# _framework density 23.224543000000001
#
# number of rings (size 3 to 8) (size 9 to 14) (size 15 to 20)
#    0.000    0.000    6.667    3.500    2.333    0.000 
#    0.000    2.500    0.000    0.000    0.000    0.000 
#    0.000    0.000    0.000    0.000    0.000    0.000 
#
# Total GULP energy -297354.105182 kJ/mol
# GULP energy per Si atom -12389.754383 kJ/mol
# Density = 2.317168 g / cm^3
# Si number density = 23.224543 Si / 1000 Ang^3
#
#
#
# Elastic Constant Matrix: (Units=GPa)
#
#
# Indices 1 2 3 4 5 6 
#
# 1 65.1073 15.2192 15.3611 0.0000 0.0000 0.0000
# 2 15.2192 112.2920 43.2140 0.0000 0.0000 0.0000
# 3 15.3611 43.2140 122.0426 0.0000 0.0000 0.0000
# 4 0.0000 0.0000 0.0000 38.9027 0.0000 0.0000
# 5 0.0000 0.0000 0.0000 0.0000 46.0325 0.0000
# 6 0.0000 0.0000 0.0000 0.0000 0.0000 14.1969
#
#
#
# Elastic Compliance Matrix: (Units=1/GPa)
#
#
# Indices 1 2 3 4 5 6 
#
# 1 0.016080 -0.001621 -0.001450 0.000000 0.000000 0.000000
# 2 -0.001621 0.010474 -0.003505 0.000000 0.000000 0.000000
# 3 -0.001450 -0.003505 0.009617 0.000000 0.000000 0.000000
# 4 0.000000 0.000000 0.000000 0.025705 0.000000 0.000000
# 5 0.000000 0.000000 0.000000 0.000000 0.021724 0.000000
# 6 0.000000 0.000000 0.000000 0.000000 0.000000 0.070438
#
#
# Mechanical properties :
#
#
# Convention : Reuss Voigt Hill
#
# Bulk Modulus (GPa) = 43.44109 49.67007 46.55558
# Shear Modulus (GPa) = 28.59379 34.86961 31.73170
#
# Velocity S-wave (km/s) = 3.51264 3.87901 3.70036
# Velocity P-wave (km/s) = 5.93270 6.44171 6.19244
#
# Compressibility (1/GPa) = 0.02301968
#
# Stress axis : x y z
#
# Youngs Moduli (GPa) = 62.18769 95.47628 103.97953
#
# Poissons Ratio (x) = 0.15481 0.15075
# Poissons Ratio (y) = 0.10084 0.36440
# Poissons Ratio (z) = 0.09016 0.33460
#
# Static dielectric constant tensor:
#      x y z
#    x 4.416910 0.000000 0.000000 
#    y 0.000000 4.512760 0.000000 
#    z 0.000000 0.000000 4.219070 
# 
# 
# High freq. dielectric constant tensor:
#      x y z
#    x 1.913250 0.000000 0.000000 
#    y 0.000000 1.934730 0.000000 
#    z 0.000000 0.000000 1.921510 
# 
# From -- ./inp_files/3035.got.cif
#   From: 2010.03.12/outbox.cif.g09.slc.cpg/sg41_2_cif.got.tgz:3035.got - 2010.04.14 01:55:53.
