data_PCOD8185978
_publ_section_title
;
Structure prediction by ZEFSAII (Michael W. Deem and Ramdas Pophale) SiO2 
 PCOD8185978
Probable space group: F M M 2
;
_chemical_formula_sum "Si O2"
_cell_formula_units_Z 112
_cell_length_a 9.476010
_cell_length_b 18.726579
_cell_length_c 36.279771
_cell_angle_alpha 90.000000
_cell_angle_beta 90.000000
_cell_angle_gamma 90.000000
_cell_volume 6437.963268
_symmetry_space_group_name_H-M "F M M 2"
_symmetry_group_IT_number 42
_symmetry_cell_setting 'orthorhombic'
loop_
_space_group_symop_operation_xyz
x,y,z
-x,-y,z
-x,y,z
x,-y,z
x,1/2+y,1/2+z
-x,1/2-y,1/2+z
-x,1/2+y,1/2+z
x,1/2-y,1/2+z
1/2+x,y,1/2+z
1/2-x,-y,1/2+z
1/2-x,y,1/2+z
1/2+x,-y,1/2+z
1/2+x,1/2+y,z
1/2-x,1/2-y,z
1/2-x,1/2+y,z
1/2+x,1/2-y,z
loop_
_atom_site_type_symbol
_atom_site_label
_atom_site_fract_x
_atom_site_fract_y
_atom_site_fract_z
Si Si1 0.166750 0.677042 0.748130
Si Si2 0.667650 0.079360 0.029608
Si Si3 0.167468 0.420220 0.814131
Si Si4 0.836340 0.418021 0.678280
Si Si5 0.343119 0.084997 0.110227
Si Si6 0.832697 0.079455 0.396071
Si Si7 0.831658 0.176661 0.462534
O O1 0.250000 0.750000 0.744208
O O2 0.224487 0.636379 0.784464
O O3 0.206052 0.627815 0.713584
O O4 0.000000 0.692248 0.750272
O O5 0.500000 0.074069 0.029241
O O6 0.715604 0.108710 0.069928
O O7 0.730000 0.000000 0.022087
O O8 0.720347 0.132606 0.998088
O O9 0.225755 0.500000 0.805591
O O10 0.216099 0.396109 0.855131
O O11 0.000000 0.422827 0.811532
O O12 0.793422 0.500000 0.686250
O O13 0.756190 0.386032 0.642741
O O14 0.000000 0.411753 0.669214
O O15 0.500000 0.115910 0.116935
O O16 0.347122 0.000000 0.110527
O O17 0.777240 0.134869 0.426319
O O18 0.000000 0.076297 0.397921
O O19 0.773418 0.000000 0.404575
O O20 0.750000 0.250000 0.463328
O O21 0.000000 0.188710 0.462334
#
# Coordination Sequence:
#
# PCOD8185978 Si02
#       7
#    16  16  16  16  16  16  16
#     4  10  20  32  46  66  93 123 151 181 221 267
#     4   8  14  27  48  69  87 113 152 191 222 258
#     4   8  14  27  48  71  91 113 148 191 226 258
#     4   9  17  30  48  68  89 115 149 187 225 265
#     4   8  14  26  46  70  90 110 143 188 232 267
#     4   8  14  26  47  72  91 112 150 193 223 253
#     4  10  19  30  45  67  95 123 150 182 221 265
#
# _framework density 17.396805000000001
#
# number of rings (size 3 to 8) (size 9 to 14) (size 15 to 20)
#    0.000    3.286    0.000    2.571    0.000    4.571 
#    0.000    1.429    0.000    7.286    0.000    2.000 
#    0.000    0.000    0.000    0.000    0.000    0.000 
#
# Total GULP energy -347017.547447 kJ/mol
# GULP energy per Si atom -12393.483837 kJ/mol
# Density = 1.735721 g / cm^3
# Si number density = 17.396805 Si / 1000 Ang^3
#
#
#
# Elastic Constant Matrix: (Units=GPa)
#
#
# Indices 1 2 3 4 5 6 
#
# 1 28.4911 35.6647 44.6309 0.0000 0.0000 0.0000
# 2 35.6647 111.1844 90.8650 0.0000 0.0000 0.0000
# 3 44.6309 90.8650 183.3741 0.0000 0.0000 0.0000
# 4 0.0000 0.0000 0.0000 8.4164 0.0000 0.0000
# 5 0.0000 0.0000 0.0000 0.0000 18.5252 0.0000
# 6 0.0000 0.0000 0.0000 0.0000 0.0000 24.5976
#
#
#
# Elastic Compliance Matrix: (Units=1/GPa)
#
#
# Indices 1 2 3 4 5 6 
#
# 1 0.067324 -0.013788 -0.009554 0.000000 0.000000 0.000000
# 2 -0.013788 0.017939 -0.005533 0.000000 0.000000 0.000000
# 3 -0.009554 -0.005533 0.010520 0.000000 0.000000 0.000000
# 4 0.000000 0.000000 0.000000 0.118816 0.000000 0.000000
# 5 0.000000 0.000000 0.000000 0.000000 0.053981 0.000000
# 6 0.000000 0.000000 0.000000 0.000000 0.000000 0.040654
#
#
# Mechanical properties :
#
#
# Convention : Reuss Voigt Hill
#
# Bulk Modulus (GPa) = 26.29252 73.93009 50.11131
# Shear Modulus (GPa) = 13.16965 20.43376 16.80171
#
# Velocity S-wave (km/s) = 2.75438 3.43092 3.11109
# Velocity P-wave (km/s) = 5.02610 7.63437 6.46317
#
# Compressibility (1/GPa) = 0.03803363
#
# Stress axis : x y z
#
# Youngs Moduli (GPa) = 14.85359 55.74526 95.05375
#
# Poissons Ratio (x) = 0.76860 0.90811
# Poissons Ratio (y) = 0.20480 0.52595
# Poissons Ratio (z) = 0.14191 0.30845
#
# Static dielectric constant tensor:
#      x y z
#    x 2.816590 0.000000 0.000000 
#    y 0.000000 3.154030 0.000000 
#    z 0.000000 0.000000 3.766890 
# 
# 
# High freq. dielectric constant tensor:
#      x y z
#    x 1.619250 0.000000 0.000000 
#    y 0.000000 1.654590 0.000000 
#    z 0.000000 0.000000 1.693460 
# 
# From -- ./inp_files/34183.got.cif
#   From: 2010.03.12/outbox.cif.g09.slc.cpg/sg42_18_cif.got.tgz:34183.got - 2010.04.14 02:04:31.
