data_PCOD8185102
_publ_section_title
;
Structure prediction by ZEFSAII (Michael W. Deem and Ramdas Pophale) SiO2 
 PCOD8185102
Probable space group: A B A 2
;
_chemical_formula_sum "Si O2"
_cell_formula_units_Z 64
_cell_length_a 20.467753
_cell_length_b 18.018912
_cell_length_c 9.084825
_cell_angle_alpha 90.000000
_cell_angle_beta 90.000000
_cell_angle_gamma 90.000000
_cell_volume 3350.543785
_symmetry_space_group_name_H-M "A B A 2"
_symmetry_group_IT_number 41
_symmetry_cell_setting 'orthorhombic'
loop_
_space_group_symop_operation_xyz
x,y,z
-x,-y,z
1/2-x,y,1/2+z
1/2+x,-y,1/2+z
x,1/2+y,1/2+z
-x,1/2-y,1/2+z
1/2-x,1/2+y,z
1/2+x,1/2-y,z
loop_
_atom_site_type_symbol
_atom_site_label
_atom_site_fract_x
_atom_site_fract_y
_atom_site_fract_z
Si Si1 0.440323 0.444828 0.377210
Si Si2 0.308123 0.213916 0.193692
Si Si3 0.812637 0.955236 0.704497
Si Si4 0.821369 0.792128 0.350195
Si Si5 0.816662 0.961081 0.359967
Si Si6 0.051703 0.297607 0.370390
Si Si7 0.062957 0.950713 0.717562
Si Si8 0.940090 0.208710 0.217591
O O1 0.500000 0.500000 0.352625
O O2 0.375404 0.484499 0.316784
O O3 0.434084 0.423092 0.548762
O O4 0.453635 0.371793 0.283568
O O5 0.322724 0.130516 0.250058
O O6 0.238956 0.241516 0.257756
O O7 0.365549 0.267509 0.250543
O O8 0.302780 0.217018 0.019299
O O9 0.803406 0.963077 0.531947
O O10 0.748388 0.989505 0.779607
O O11 0.874698 0.000375 0.761003
O O12 0.886641 0.748186 0.309039
O O13 0.834354 0.877840 0.308317
O O14 0.061657 0.382600 0.328459
O O15 0.044935 0.289976 0.544936
O O16 0.986424 0.268224 0.294800
O O17 0.000000 0.000000 0.745618
#
# Coordination Sequence:
#
# PCOD8185102 Si02
#       8
#     8   8   8   8   8   8   8   8
#     4  10  21  38  58  79 108 145 183 226 276 326
#     4   9  19  36  57  81 109 143 182 224 271 324
#     4   9  18  34  56  79 106 141 178 219 269 323
#     4   9  19  36  57  81 109 143 182 224 271 324
#     4   9  18  34  56  79 106 141 178 219 269 323
#     4  11  23  38  57  82 112 145 185 230 275 327
#     4  10  21  38  58  79 108 145 183 226 276 326
#     4  11  23  38  57  82 112 145 185 230 275 327
#
# _framework density 19.101375999999998
#
# number of rings (size 3 to 8) (size 9 to 14) (size 15 to 20)
#    0.000    2.250    0.000    2.250    0.000    8.500 
#    0.000   10.000    0.000    0.000    0.000    0.000 
#    0.000    0.000    0.000    0.000    0.000    0.000 
#
# Total GULP energy -396925.021501 kJ/mol
# GULP energy per Si atom -12403.906922 kJ/mol
# Density = 1.905790 g / cm^3
# Si number density = 19.101376 Si / 1000 Ang^3
#
#
#
# Elastic Constant Matrix: (Units=GPa)
#
#
# Indices 1 2 3 4 5 6 
#
# 1 100.2670 23.5515 25.5874 0.0000 0.0000 0.0000
# 2 23.5515 66.2429 20.0964 0.0000 0.0000 0.0000
# 3 25.5874 20.0964 40.4509 0.0000 0.0000 0.0000
# 4 0.0000 0.0000 0.0000 33.2607 0.0000 0.0000
# 5 0.0000 0.0000 0.0000 0.0000 34.0509 0.0000
# 6 0.0000 0.0000 0.0000 0.0000 0.0000 31.3601
#
#
#
# Elastic Compliance Matrix: (Units=1/GPa)
#
#
# Indices 1 2 3 4 5 6 
#
# 1 0.012196 -0.002350 -0.006547 0.000000 0.000000 0.000000
# 2 -0.002350 0.018228 -0.007569 0.000000 0.000000 0.000000
# 3 -0.006547 -0.007569 0.032623 0.000000 0.000000 0.000000
# 4 0.000000 0.000000 0.000000 0.030065 0.000000 0.000000
# 5 0.000000 0.000000 0.000000 0.000000 0.029368 0.000000
# 6 0.000000 0.000000 0.000000 0.000000 0.000000 0.031888
#
#
# Mechanical properties :
#
#
# Convention : Reuss Voigt Hill
#
# Bulk Modulus (GPa) = 33.20678 38.38127 35.79403
# Shear Modulus (GPa) = 25.33706 28.91603 27.12654
#
# Velocity S-wave (km/s) = 3.64600 3.89500 3.77256
# Velocity P-wave (km/s) = 5.92846 6.35336 6.14458
#
# Compressibility (1/GPa) = 0.03011433
#
# Stress axis : x y z
#
# Youngs Moduli (GPa) = 81.99312 54.86147 30.65282
#
# Poissons Ratio (x) = 0.12892 0.20069
# Poissons Ratio (y) = 0.19267 0.23202
# Poissons Ratio (z) = 0.53684 0.41526
#
# Static dielectric constant tensor:
#      x y z
#    x 3.715850 0.000000 0.000000 
#    y 0.000000 3.472600 0.000000 
#    z 0.000000 0.000000 3.389590 
# 
# 
# High freq. dielectric constant tensor:
#      x y z
#    x 1.757960 0.000000 0.000000 
#    y 0.000000 1.740140 0.000000 
#    z 0.000000 0.000000 1.735690 
# 
# From -- ./inp_files/3490.got.cif
#   From: 2010.03.12/outbox.cif.g09.slc.cpg/sg41_2_cif.got.tgz:3490.got - 2010.04.14 01:55:53.
