data_PCOD8185120
_publ_section_title
;
Structure prediction by ZEFSAII (Michael W. Deem and Ramdas Pophale) SiO2 
 PCOD8185120
Probable space group: A B A 2
;
_chemical_formula_sum "Si O2"
_cell_formula_units_Z 48
_cell_length_a 13.621329
_cell_length_b 17.473182
_cell_length_c 9.143425
_cell_angle_alpha 90.000000
_cell_angle_beta 90.000000
_cell_angle_gamma 90.000000
_cell_volume 2176.207938
_symmetry_space_group_name_H-M "A B A 2"
_symmetry_group_IT_number 41
_symmetry_cell_setting 'orthorhombic'
loop_
_space_group_symop_operation_xyz
x,y,z
-x,-y,z
1/2-x,y,1/2+z
1/2+x,-y,1/2+z
x,1/2+y,1/2+z
-x,1/2-y,1/2+z
1/2-x,1/2+y,z
1/2+x,1/2-y,z
loop_
_atom_site_type_symbol
_atom_site_label
_atom_site_fract_x
_atom_site_fract_y
_atom_site_fract_z
Si Si1 0.473137 0.847082 0.025410
Si Si2 0.655439 0.027743 0.730651
Si Si3 0.534676 0.881625 0.715099
Si Si4 0.154916 0.657050 0.184367
Si Si5 0.341433 0.710682 0.009484
Si Si6 0.343234 0.484619 0.568134
O O1 0.547346 0.808613 0.143824
O O2 0.439592 0.930959 0.085209
O O3 0.544249 0.856173 0.883906
O O4 0.373893 0.799295 0.987959
O O5 0.578382 0.094835 0.699234
O O6 0.751609 0.055293 0.646878
O O7 0.610791 0.948537 0.672342
O O8 0.681373 0.012127 0.898076
O O9 0.563385 0.817170 0.599933
O O10 0.172282 0.666883 0.356764
O O11 0.147105 0.567988 0.140647
O O12 0.241940 0.701978 0.101723
#
# Coordination Sequence:
#
# PCOD8185120 Si02
#       6
#     8   8   8   8   8   8
#     4  11  25  44  68  97 138 175 231 282 345 409
#     4  10  21  38  69  92 130 168 225 279 330 400
#     4  10  21  43  63  95 131 179 221 277 342 399
#     4  12  24  44  67  98 133 179 228 279 342 417
#     4  12  26  42  69  98 135 184 222 283 352 419
#     4  11  22  41  68  99 126 178 221 285 331 407
#
# _framework density 22.056716000000002
#
# number of rings (size 3 to 8) (size 9 to 14) (size 15 to 20)
#    0.000    1.000    3.333    3.500    0.000    5.333 
#    3.000    0.000    0.000    0.000    0.000    0.000 
#    0.000    0.000    0.000    0.000    0.000    0.000 
#
# Total GULP energy -297467.236358 kJ/mol
# GULP energy per Si atom -12394.468182 kJ/mol
# Density = 2.200651 g / cm^3
# Si number density = 22.056716 Si / 1000 Ang^3
#
#
#
# Elastic Constant Matrix: (Units=GPa)
#
#
# Indices 1 2 3 4 5 6 
#
# 1 113.1529 33.6873 70.7646 0.0000 0.0000 0.0000
# 2 33.6873 75.0918 22.7484 0.0000 0.0000 0.0000
# 3 70.7646 22.7484 96.4828 0.0000 0.0000 0.0000
# 4 0.0000 0.0000 0.0000 23.1870 0.0000 0.0000
# 5 0.0000 0.0000 0.0000 0.0000 44.8524 0.0000
# 6 0.0000 0.0000 0.0000 0.0000 0.0000 31.2237
#
#
#
# Elastic Compliance Matrix: (Units=1/GPa)
#
#
# Indices 1 2 3 4 5 6 
#
# 1 0.017512 -0.004270 -0.011837 0.000000 0.000000 0.000000
# 2 -0.004270 0.015383 -0.000495 0.000000 0.000000 0.000000
# 3 -0.011837 -0.000495 0.019163 0.000000 0.000000 0.000000
# 4 0.000000 0.000000 0.000000 0.043128 0.000000 0.000000
# 5 0.000000 0.000000 0.000000 0.000000 0.022295 0.000000
# 6 0.000000 0.000000 0.000000 0.000000 0.000000 0.032027
#
#
# Mechanical properties :
#
#
# Convention : Reuss Voigt Hill
#
# Bulk Modulus (GPa) = 53.04166 59.90311 56.47239
# Shear Modulus (GPa) = 26.45568 30.35445 28.40506
#
# Velocity S-wave (km/s) = 3.46705 3.71374 3.59251
# Velocity P-wave (km/s) = 6.33461 6.75328 6.54729
#
# Compressibility (1/GPa) = 0.01885310
#
# Stress axis : x y z
#
# Youngs Moduli (GPa) = 57.10518 65.00853 52.18399
#
# Poissons Ratio (x) = 0.27759 0.61770
# Poissons Ratio (y) = 0.24384 0.02583
# Poissons Ratio (z) = 0.67595 0.03218
#
# Static dielectric constant tensor:
#      x y z
#    x 4.182970 0.000000 0.000000 
#    y 0.000000 3.850400 0.000000 
#    z 0.000000 0.000000 3.996560 
# 
# 
# High freq. dielectric constant tensor:
#      x y z
#    x 1.882260 0.000000 0.000000 
#    y 0.000000 1.863710 0.000000 
#    z 0.000000 0.000000 1.862210 
# 
# From -- ./inp_files/2521.got.cif
#   From: 2010.03.12/outbox.cif.g09.slc.cpg/sg41_2_cif.got.tgz:2521.got - 2010.04.14 01:55:53.
