data_PCOD8185040
_publ_section_title
;
Structure prediction by ZEFSAII (Michael W. Deem and Ramdas Pophale) SiO2 
 PCOD8185040
Probable space group: A B A 2
;
_chemical_formula_sum "Si O2"
_cell_formula_units_Z 44
_cell_length_a 13.001836
_cell_length_b 17.767181
_cell_length_c 8.178530
_cell_angle_alpha 90.000000
_cell_angle_beta 90.000000
_cell_angle_gamma 90.000000
_cell_volume 1889.289285
_symmetry_space_group_name_H-M "A B A 2"
_symmetry_group_IT_number 41
_symmetry_cell_setting 'orthorhombic'
loop_
_space_group_symop_operation_xyz
x,y,z
-x,-y,z
1/2-x,y,1/2+z
1/2+x,-y,1/2+z
x,1/2+y,1/2+z
-x,1/2-y,1/2+z
1/2-x,1/2+y,z
1/2+x,1/2-y,z
loop_
_atom_site_type_symbol
_atom_site_label
_atom_site_fract_x
_atom_site_fract_y
_atom_site_fract_z
Si Si1 0.097883 0.358007 0.089420
Si Si2 0.793979 0.874033 0.932914
Si Si3 0.841125 0.468430 0.725533
Si Si4 0.380578 0.209599 0.138353
Si Si5 0.000000 0.000000 0.480540
Si Si6 0.304230 0.859821 0.739804
O O1 0.180686 0.344856 0.233262
O O2 0.000800 0.302616 0.099176
O O3 0.161010 0.347119 0.923748
O O4 0.060263 0.444193 0.099491
O O5 0.863953 0.914625 0.070472
O O6 0.694858 0.832833 0.012103
O O7 0.763750 0.941413 0.810124
O O8 0.859809 0.815264 0.826889
O O9 0.928198 0.451791 0.859806
O O10 0.832527 0.556237 0.676217
O O11 0.361616 0.298955 0.125534
#
# Coordination Sequence:
#
# PCOD8185040 Si02
#       6
#     8   8   8   8   4   8
#     4  11  25  47  71 101 142 184 235 286 355 407
#     4  10  22  41  70 100 135 182 224 282 334 417
#     4  10  20  42  65  99 136 173 231 279 337 403
#     4  11  24  46  70 100 142 182 228 280 355 409
#     4  10  20  42  70 100 132 186 222 298 334 416
#     4  11  25  44  71  99 140 179 231 293 338 413
#
# _framework density 23.289182
#
# number of rings (size 3 to 8) (size 9 to 14) (size 15 to 20)
#    0.000    1.455    1.818    3.273    2.545    2.909 
#   19.636    0.000    0.000    0.000    0.000    0.000 
#    0.000    0.000    0.000    0.000    0.000    0.000 
#
# Total GULP energy -272716.911782 kJ/mol
# GULP energy per Si atom -12396.223263 kJ/mol
# Density = 2.323617 g / cm^3
# Si number density = 23.289182 Si / 1000 Ang^3
#
#
#
# Elastic Constant Matrix: (Units=GPa)
#
#
# Indices 1 2 3 4 5 6 
#
# 1 138.0147 45.2698 32.9750 0.0000 0.0000 0.0000
# 2 45.2698 144.4481 41.9272 0.0000 0.0000 0.0000
# 3 32.9750 41.9272 64.1240 0.0000 0.0000 0.0000
# 4 0.0000 0.0000 0.0000 13.3114 0.0000 0.0000
# 5 0.0000 0.0000 0.0000 0.0000 35.5494 0.0000
# 6 0.0000 0.0000 0.0000 0.0000 0.0000 35.2240
#
#
#
# Elastic Compliance Matrix: (Units=1/GPa)
#
#
# Indices 1 2 3 4 5 6 
#
# 1 0.008602 -0.001743 -0.003284 0.000000 0.000000 0.000000
# 2 -0.001743 0.008898 -0.004922 0.000000 0.000000 0.000000
# 3 -0.003284 -0.004922 0.020501 0.000000 0.000000 0.000000
# 4 0.000000 0.000000 0.000000 0.075124 0.000000 0.000000
# 5 0.000000 0.000000 0.000000 0.000000 0.028130 0.000000
# 6 0.000000 0.000000 0.000000 0.000000 0.000000 0.028390
#
#
# Mechanical properties :
#
#
# Convention : Reuss Voigt Hill
#
# Bulk Modulus (GPa) = 55.23457 65.21453 60.22455
# Shear Modulus (GPa) = 25.56561 31.91127 28.73844
#
# Velocity S-wave (km/s) = 3.31682 3.70566 3.51662
# Velocity P-wave (km/s) = 6.19973 6.80971 6.51187
#
# Compressibility (1/GPa) = 0.01810461
#
# Stress axis : x y z
#
# Youngs Moduli (GPa) = 116.25453 112.39068 48.77703
#
# Poissons Ratio (x) = 0.19585 0.16018
# Poissons Ratio (y) = 0.20258 0.24006
# Poissons Ratio (z) = 0.38178 0.55313
#
# Static dielectric constant tensor:
#      x y z
#    x 4.263770 0.000000 0.000000 
#    y 0.000000 4.522380 0.000000 
#    z 0.000000 0.000000 4.131550 
# 
# 
# High freq. dielectric constant tensor:
#      x y z
#    x 1.911910 0.000000 0.000000 
#    y 0.000000 1.931270 0.000000 
#    z 0.000000 0.000000 1.911910 
# 
# From -- ./inp_files/2483.got.cif
#   From: 2010.03.12/outbox.cif.g09.slc.cpg/sg41_2_cif.got.tgz:2483.got - 2010.04.14 01:55:53.
