data_PCOD8185852
_publ_section_title
;
Structure prediction by ZEFSAII (Michael W. Deem and Ramdas Pophale) SiO2 
 PCOD8185852
Probable space group: F M M 2
;
_chemical_formula_sum "Si O2"
_cell_formula_units_Z 88
_cell_length_a 20.521589
_cell_length_b 10.464124
_cell_length_c 21.799560
_cell_angle_alpha 90.000000
_cell_angle_beta 90.000000
_cell_angle_gamma 90.000000
_cell_volume 4681.247367
_symmetry_space_group_name_H-M "F M M 2"
_symmetry_group_IT_number 42
_symmetry_cell_setting 'orthorhombic'
loop_
_space_group_symop_operation_xyz
x,y,z
-x,-y,z
-x,y,z
x,-y,z
x,1/2+y,1/2+z
-x,1/2-y,1/2+z
-x,1/2+y,1/2+z
x,1/2-y,1/2+z
1/2+x,y,1/2+z
1/2-x,-y,1/2+z
1/2-x,y,1/2+z
1/2+x,-y,1/2+z
1/2+x,1/2+y,z
1/2-x,1/2-y,z
1/2-x,1/2+y,z
1/2+x,1/2-y,z
loop_
_atom_site_type_symbol
_atom_site_label
_atom_site_fract_x
_atom_site_fract_y
_atom_site_fract_z
Si Si1 0.874833 0.853408 0.660830
Si Si2 0.572330 0.349200 0.787319
Si Si3 0.750000 0.250000 0.097933
Si Si4 0.167930 0.639170 0.495939
Si Si5 0.699406 0.145177 0.358955
Si Si6 0.573365 0.855919 0.031925
O O1 0.903796 0.788205 0.722242
O O2 0.803830 0.803705 0.643356
O O3 0.924312 0.829452 0.604772
O O4 0.865777 0.000000 0.676313
O O5 0.500000 0.293484 0.803996
O O6 0.565472 0.500000 0.780826
O O7 0.625939 0.314697 0.838955
O O8 0.781009 0.144852 0.052173
O O9 0.132896 0.500000 0.500290
O O10 0.206007 0.648489 0.432145
O O11 0.116376 0.753710 0.496316
O O12 0.750000 0.250000 0.331510
O O13 0.715357 0.000000 0.335218
O O14 0.500000 0.840641 0.008718
O O15 0.599246 0.000000 0.018328
#
# Coordination Sequence:
#
# PCOD8185852 Si02
#       6
#    16  16   8  16  16  16
#     4   9  17  29  49  74 102 136 176 219 262 311
#     4   9  18  33  53  77 104 136 180 227 265 309
#     4  10  18  30  48  76 104 140 172 216 262 322
#     4  10  20  33  50  75 106 139 173 216 267 315
#     4  10  21  36  56  80 106 141 179 219 268 316
#     4   9  18  32  51  76 104 137 176 217 264 317
#
# _framework density 18.798407999999998
#
# number of rings (size 3 to 8) (size 9 to 14) (size 15 to 20)
#    0.000    2.545    0.909    1.091    1.273    4.727 
#    0.000    1.818    0.000    0.545    0.000    0.000 
#    0.000    0.000    0.000    0.000    0.000    0.000 
#
# Total GULP energy -272604.647574 kJ/mol
# GULP energy per Si atom -12391.120344 kJ/mol
# Density = 1.875562 g / cm^3
# Si number density = 18.798408 Si / 1000 Ang^3
#
#
#
# Elastic Constant Matrix: (Units=GPa)
#
#
# Indices 1 2 3 4 5 6 
#
# 1 129.8052 45.4260 24.8322 0.0000 0.0000 0.0000
# 2 45.4260 87.1328 12.2212 0.0000 0.0000 0.0000
# 3 24.8322 12.2212 50.5119 0.0000 0.0000 0.0000
# 4 0.0000 0.0000 0.0000 15.7967 0.0000 0.0000
# 5 0.0000 0.0000 0.0000 0.0000 20.0258 0.0000
# 6 0.0000 0.0000 0.0000 0.0000 0.0000 27.8402
#
#
#
# Elastic Compliance Matrix: (Units=1/GPa)
#
#
# Indices 1 2 3 4 5 6 
#
# 1 0.010087 -0.004723 -0.003816 0.000000 0.000000 0.000000
# 2 -0.004723 0.014092 -0.001087 0.000000 0.000000 0.000000
# 3 -0.003816 -0.001087 0.021936 0.000000 0.000000 0.000000
# 4 0.000000 0.000000 0.000000 0.063304 0.000000 0.000000
# 5 0.000000 0.000000 0.000000 0.000000 0.049936 0.000000
# 6 0.000000 0.000000 0.000000 0.000000 0.000000 0.035919
#
#
# Mechanical properties :
#
#
# Convention : Reuss Voigt Hill
#
# Bulk Modulus (GPa) = 37.22816 48.04541 42.63679
# Shear Modulus (GPa) = 22.37320 25.06390 23.71855
#
# Velocity S-wave (km/s) = 3.45362 3.65540 3.55594
# Velocity P-wave (km/s) = 5.97915 6.59012 6.29205
#
# Compressibility (1/GPa) = 0.02686139
#
# Stress axis : x y z
#
# Youngs Moduli (GPa) = 99.13880 70.96328 45.58642
#
# Poissons Ratio (x) = 0.33519 0.17396
# Poissons Ratio (y) = 0.46828 0.04957
# Poissons Ratio (z) = 0.37831 0.07716
#
# Static dielectric constant tensor:
#      x y z
#    x 3.520700 0.000000 0.000000 
#    y 0.000000 3.339400 0.000000 
#    z 0.000000 0.000000 3.390760 
# 
# 
# High freq. dielectric constant tensor:
#      x y z
#    x 1.729320 0.000000 0.000000 
#    y 0.000000 1.701460 0.000000 
#    z 0.000000 0.000000 1.723170 
# 
# From -- ./inp_files/25795.got.cif
#   From: 2010.03.12/outbox.cif.g09.slc.cpg/sg42_13_cif.got.tgz:25795.got - 2010.04.14 02:04:31.
