data_PCOD8185856
_publ_section_title
;
Structure prediction by ZEFSAII (Michael W. Deem and Ramdas Pophale) SiO2 
 PCOD8185856
Probable space group: F M M 2
;
_chemical_formula_sum "Si O2"
_cell_formula_units_Z 80
_cell_length_a 8.693681
_cell_length_b 26.096634
_cell_length_c 19.478979
_cell_angle_alpha 90.000000
_cell_angle_beta 90.000000
_cell_angle_gamma 90.000000
_cell_volume 4419.309161
_symmetry_space_group_name_H-M "F M M 2"
_symmetry_group_IT_number 42
_symmetry_cell_setting 'orthorhombic'
loop_
_space_group_symop_operation_xyz
x,y,z
-x,-y,z
-x,y,z
x,-y,z
x,1/2+y,1/2+z
-x,1/2-y,1/2+z
-x,1/2+y,1/2+z
x,1/2-y,1/2+z
1/2+x,y,1/2+z
1/2-x,-y,1/2+z
1/2-x,y,1/2+z
1/2+x,-y,1/2+z
1/2+x,1/2+y,z
1/2-x,1/2-y,z
1/2-x,1/2+y,z
1/2+x,1/2-y,z
loop_
_atom_site_type_symbol
_atom_site_label
_atom_site_fract_x
_atom_site_fract_y
_atom_site_fract_z
Si Si1 0.181927 0.303756 0.471790
Si Si2 0.317748 0.196773 0.628340
Si Si3 0.182490 0.394448 0.882866
Si Si4 0.178180 0.889614 0.226747
Si Si5 0.321074 0.500000 0.882531
Si Si6 0.822969 0.000000 0.238712
O O1 0.250000 0.250000 0.445185
O O2 0.234072 0.313284 0.550251
O O3 0.251376 0.348721 0.427105
O O4 0.000000 0.302685 0.463520
O O5 0.500000 0.199218 0.633219
O O6 0.250000 0.250000 0.656027
O O7 0.244785 0.151682 0.675791
O O8 0.242226 0.386620 0.804454
O O9 0.244946 0.448329 0.913353
O O10 0.000000 0.394896 0.886651
O O11 0.205064 0.947464 0.196182
O O12 0.000000 0.876238 0.228957
O O13 0.500000 0.500000 0.900700
O O14 0.294418 0.500000 0.801331
O O15 0.000000 0.000000 0.267441
#
# Coordination Sequence:
#
# PCOD8185856 Si02
#       6
#    16  16  16  16   8   8
#     4  10  20  34  51  71  98 132 168 206 249 296
#     4   9  18  33  50  69  95 127 163 200 241 290
#     4  10  19  33  53  75 101 131 164 203 247 294
#     4   8  15  29  50  73  94 122 161 200 239 287
#     4  10  18  30  49  74 103 131 163 201 243 292
#     4   8  14  28  49  70  95 127 159 195 245 294
#
# _framework density 18.102377000000001
#
# number of rings (size 3 to 8) (size 9 to 14) (size 15 to 20)
#    0.000    2.800    0.000    3.300    0.000    1.600 
#    0.000    8.000    0.000    3.600    0.000    0.000 
#    0.000    0.000    0.000    0.000    0.000    0.000 
#
# Total GULP energy -247861.787032 kJ/mol
# GULP energy per Si atom -12393.089352 kJ/mol
# Density = 1.806118 g / cm^3
# Si number density = 18.102377 Si / 1000 Ang^3
#
#
#
# Elastic Constant Matrix: (Units=GPa)
#
#
# Indices 1 2 3 4 5 6 
#
# 1 59.9448 43.8499 23.7148 0.0000 0.0000 0.0000
# 2 43.8499 212.8144 84.8860 0.0000 0.0000 0.0000
# 3 23.7148 84.8860 69.1251 0.0000 0.0000 0.0000
# 4 0.0000 0.0000 0.0000 -1.1974 0.0000 0.0000
# 5 0.0000 0.0000 0.0000 0.0000 15.4644 0.0000
# 6 0.0000 0.0000 0.0000 0.0000 0.0000 32.7380
#
#
#
# Elastic Compliance Matrix: (Units=1/GPa)
#
#
# Indices 1 2 3 4 5 6 
#
# 1 0.020076 -0.002723 -0.003543 0.000000 0.000000 0.000000
# 2 -0.002723 0.009580 -0.010830 0.000000 0.000000 0.000000
# 3 -0.003543 -0.010830 0.028981 0.000000 0.000000 0.000000
# 4 0.000000 0.000000 0.000000 -0.835163 0.000000 0.000000
# 5 0.000000 0.000000 0.000000 0.000000 0.064665 0.000000
# 6 0.000000 0.000000 0.000000 0.000000 0.000000 0.030546
#
#
# Mechanical properties :
#
#
# Convention : Reuss Voigt Hill
#
# Bulk Modulus (GPa) = 40.90950 71.86508 56.38729
# Shear Modulus (GPa) = -7.82502 22.02991 7.10245
#
# Velocity S-wave (km/s) = -2.08135 3.49228 1.98293
# Velocity P-wave (km/s) = 4.10755 7.48644 6.03816
#
# Compressibility (1/GPa) = 0.02444420
#
# Stress axis : x y z
#
# Youngs Moduli (GPa) = 49.81109 104.38703 34.50528
#
# Poissons Ratio (x) = 0.28427 0.12226
# Poissons Ratio (y) = 0.13565 0.37368
# Poissons Ratio (z) = 0.17649 1.13048
#
# Static dielectric constant tensor:
#      x y z
#    x 3.152800 0.000000 0.000000 
#    y 0.000000 3.821910 0.000000 
#    z 0.000000 0.000000 3.273640 
# 
# 
# High freq. dielectric constant tensor:
#      x y z
#    x 1.686090 0.000000 0.000000 
#    y 0.000000 1.724500 0.000000 
#    z 0.000000 0.000000 1.666680 
# 
# From -- ./inp_files/18240.got.cif
#   From: 2010.03.12/outbox.cif.g09.slc.cpg/sg42_10_cif.got.tgz:18240.got - 2010.04.14 02:04:31.
