data_PCOD8185469
_publ_section_title
;
Structure prediction by ZEFSAII (Michael W. Deem and Ramdas Pophale) SiO2 
 PCOD8185469
Probable space group: A B A 2
;
_chemical_formula_sum "Si O2"
_cell_formula_units_Z 64
_cell_length_a 32.693044
_cell_length_b 10.270518
_cell_length_c 9.236330
_cell_angle_alpha 90.000000
_cell_angle_beta 90.000000
_cell_angle_gamma 90.000000
_cell_volume 3101.324059
_symmetry_space_group_name_H-M "A B A 2"
_symmetry_group_IT_number 41
_symmetry_cell_setting 'orthorhombic'
loop_
_space_group_symop_operation_xyz
x,y,z
-x,-y,z
1/2-x,y,1/2+z
1/2+x,-y,1/2+z
x,1/2+y,1/2+z
-x,1/2-y,1/2+z
1/2-x,1/2+y,z
1/2+x,1/2-y,z
loop_
_atom_site_type_symbol
_atom_site_label
_atom_site_fract_x
_atom_site_fract_y
_atom_site_fract_z
Si Si1 0.577755 0.763362 0.959700
Si Si2 0.509791 0.138317 0.268260
Si Si3 0.458126 0.967307 0.971642
Si Si4 0.789593 0.580918 0.269083
Si Si5 0.576077 0.222750 0.765680
Si Si6 0.836338 0.318330 0.269783
Si Si7 0.832602 0.308929 0.933330
Si Si8 0.206062 0.418409 0.928224
O O1 0.545973 0.712629 0.845482
O O2 0.621290 0.778150 0.882300
O O3 0.563576 0.901868 0.028606
O O4 0.580806 0.670342 0.100745
O O5 0.468251 0.215808 0.285657
O O6 0.500000 0.000000 0.342045
O O7 0.525816 0.120431 0.104703
O O8 0.423652 0.898505 0.874965
O O9 0.500000 0.000000 0.881384
O O10 0.820934 0.463712 0.305620
O O11 0.803798 0.716046 0.339786
O O12 0.746524 0.545656 0.339816
O O13 0.784165 0.600161 0.097638
O O14 0.614741 0.316117 0.801109
O O15 0.814128 0.214172 0.371687
O O16 0.826398 0.280999 0.103890
O O17 0.823913 0.460025 0.900662
#
# Coordination Sequence:
#
# PCOD8185469 Si02
#       8
#     8   8   8   8   8   8   8   8
#     4  11  23  41  60  89 125 164 209 257 307 364
#     4  11  22  38  62  86 122 167 208 257 308 360
#     4  11  21  40  60  84 121 164 210 258 307 360
#     4  11  24  42  69  95 125 163 207 253 313 381
#     4  11  21  40  61  88 124 163 207 256 306 360
#     4  10  24  41  63  94 130 163 206 261 311 368
#     4  10  24  41  64  94 128 164 208 259 310 371
#     4  11  23  44  67  95 127 164 204 253 317 380
#
# _framework density 20.636347000000001
#
# number of rings (size 3 to 8) (size 9 to 14) (size 15 to 20)
#    0.000    1.250    3.750    2.250    1.750    6.500 
#    2.250    0.000    0.000    0.000    0.000    0.000 
#    0.000    0.000    0.000    0.000    0.000    0.000 
#
# Total GULP energy -396687.946525 kJ/mol
# GULP energy per Si atom -12396.498329 kJ/mol
# Density = 2.058938 g / cm^3
# Si number density = 20.636347 Si / 1000 Ang^3
#
#
#
# Elastic Constant Matrix: (Units=GPa)
#
#
# Indices 1 2 3 4 5 6 
#
# 1 100.3430 6.8861 32.6603 0.0000 0.0000 0.0000
# 2 6.8861 75.6636 40.2043 0.0000 0.0000 0.0000
# 3 32.6603 40.2043 88.3093 0.0000 0.0000 0.0000
# 4 0.0000 0.0000 0.0000 26.7685 0.0000 0.0000
# 5 0.0000 0.0000 0.0000 0.0000 34.2642 0.0000
# 6 0.0000 0.0000 0.0000 0.0000 0.0000 31.2548
#
#
#
# Elastic Compliance Matrix: (Units=1/GPa)
#
#
# Indices 1 2 3 4 5 6 
#
# 1 0.011474 0.001597 -0.004971 0.000000 0.000000 0.000000
# 2 0.001597 0.017656 -0.008629 0.000000 0.000000 0.000000
# 3 -0.004971 -0.008629 0.017091 0.000000 0.000000 0.000000
# 4 0.000000 0.000000 0.000000 0.037357 0.000000 0.000000
# 5 0.000000 0.000000 0.000000 0.000000 0.029185 0.000000
# 6 0.000000 0.000000 0.000000 0.000000 0.000000 0.031995
#
#
# Mechanical properties :
#
#
# Convention : Reuss Voigt Hill
#
# Bulk Modulus (GPa) = 45.01320 47.09080 46.05200
# Shear Modulus (GPa) = 28.38195 30.76184 29.57190
#
# Velocity S-wave (km/s) = 3.71258 3.86510 3.78961
# Velocity P-wave (km/s) = 6.34331 6.54122 6.44302
#
# Compressibility (1/GPa) = 0.02221570
#
# Stress axis : x y z
#
# Youngs Moduli (GPa) = 87.15292 56.63792 58.51190
#
# Poissons Ratio (x) = -0.09044 0.29084
# Poissons Ratio (y) = -0.13917 0.50489
# Poissons Ratio (z) = 0.43320 0.48872
#
# Static dielectric constant tensor:
#      x y z
#    x 4.030010 0.000000 0.000000 
#    y 0.000000 3.772510 0.000000 
#    z 0.000000 0.000000 3.699520 
# 
# 
# High freq. dielectric constant tensor:
#      x y z
#    x 1.826750 0.000000 0.000000 
#    y 0.000000 1.803640 0.000000 
#    z 0.000000 0.000000 1.800590 
# 
# From -- ./inp_files/3994.got.cif
#   From: 2010.03.12/outbox.cif.g09.slc.cpg/sg41_2_cif.got.tgz:3994.got - 2010.04.14 01:55:53.
