data_PCOD8185600
_publ_section_title
;
Structure prediction by ZEFSAII (Michael W. Deem and Ramdas Pophale) SiO2 
 PCOD8185600
Probable space group: A B A 2
;
_chemical_formula_sum "Si O2"
_cell_formula_units_Z 56
_cell_length_a 8.701736
_cell_length_b 18.755214
_cell_length_c 15.958141
_cell_angle_alpha 90.000000
_cell_angle_beta 90.000000
_cell_angle_gamma 90.000000
_cell_volume 2604.415223
_symmetry_space_group_name_H-M "A B A 2"
_symmetry_group_IT_number 41
_symmetry_cell_setting 'orthorhombic'
loop_
_space_group_symop_operation_xyz
x,y,z
-x,-y,z
1/2-x,y,1/2+z
1/2+x,-y,1/2+z
x,1/2+y,1/2+z
-x,1/2-y,1/2+z
1/2-x,1/2+y,z
1/2+x,1/2-y,z
loop_
_atom_site_type_symbol
_atom_site_label
_atom_site_fract_x
_atom_site_fract_y
_atom_site_fract_z
Si Si1 0.935360 0.787361 0.351960
Si Si2 0.238667 0.080895 0.909955
Si Si3 0.281772 0.800764 0.745900
Si Si4 0.090839 0.698206 0.496939
Si Si5 0.588472 0.097686 0.150744
Si Si6 0.878840 0.777831 0.598452
Si Si7 0.500000 0.000000 0.013062
Si Si8 0.000000 0.000000 0.798584
O O1 0.806800 0.848365 0.364695
O O2 0.856597 0.718319 0.308936
O O3 0.064242 0.823407 0.293454
O O4 0.025875 0.756376 0.431675
O O5 0.151744 0.022086 0.852695
O O6 0.101599 0.115244 0.967795
O O7 0.384022 0.045347 0.955963
O O8 0.242593 0.861968 0.677965
O O9 0.304403 0.730449 0.689543
O O10 0.264743 0.719821 0.519602
O O11 0.989334 0.709227 0.580523
O O12 0.467812 0.148403 0.104473
O O13 0.617019 0.041065 0.076418
O O14 0.530453 0.066826 0.238993
#
# Coordination Sequence:
#
# PCOD8185600 Si02
#       8
#     8   8   8   8   8   8   4   4
#     4  12  23  42  70 105 136 168 226 305 357 408
#     4  12  26  46  67 101 137 183 234 273 343 415
#     4  12  23  40  69 104 134 169 223 294 362 400
#     4  12  22  41  70 105 135 169 226 298 359 400
#     4  11  23  45  66  93 136 185 224 271 342 410
#     4  12  22  40  70 104 133 174 221 293 357 404
#     4  11  26  46  68  87 142 188 228 269 326 420
#     4  11  28  46  68  89 140 196 226 263 326 430
#
# _framework density 21.501947999999999
#
# number of rings (size 3 to 8) (size 9 to 14) (size 15 to 20)
#    0.000    0.286    7.143    1.714    2.000    1.143 
#    0.000    0.000    0.000    0.000    0.000    0.000 
#    0.000    0.000    0.000    0.000    0.000    0.000 
#
# Total GULP energy -346875.167626 kJ/mol
# GULP energy per Si atom -12388.398844 kJ/mol
# Density = 2.145301 g / cm^3
# Si number density = 21.501948 Si / 1000 Ang^3
#
#
#
# Elastic Constant Matrix: (Units=GPa)
#
#
# Indices 1 2 3 4 5 6 
#
# 1 92.9559 33.9906 40.1898 0.0000 0.0000 0.0000
# 2 33.9906 73.8968 36.6101 0.0000 0.0000 0.0000
# 3 40.1898 36.6101 92.8639 0.0000 0.0000 0.0000
# 4 0.0000 0.0000 0.0000 40.6603 0.0000 0.0000
# 5 0.0000 0.0000 0.0000 0.0000 35.6552 0.0000
# 6 0.0000 0.0000 0.0000 0.0000 0.0000 25.7283
#
#
#
# Elastic Compliance Matrix: (Units=1/GPa)
#
#
# Indices 1 2 3 4 5 6 
#
# 1 0.014281 -0.004358 -0.004462 0.000000 0.000000 0.000000
# 2 -0.004358 0.018147 -0.005268 0.000000 0.000000 0.000000
# 3 -0.004462 -0.005268 0.014777 0.000000 0.000000 0.000000
# 4 0.000000 0.000000 0.000000 0.024594 0.000000 0.000000
# 5 0.000000 0.000000 0.000000 0.000000 0.028046 0.000000
# 6 0.000000 0.000000 0.000000 0.000000 0.000000 0.038868
#
#
# Mechanical properties :
#
#
# Convention : Reuss Voigt Hill
#
# Bulk Modulus (GPa) = 52.55614 53.47751 53.01682
# Shear Modulus (GPa) = 28.86315 30.33719 29.60017
#
# Velocity S-wave (km/s) = 3.66779 3.76028 3.71432
# Velocity P-wave (km/s) = 6.51402 6.61649 6.56545
#
# Compressibility (1/GPa) = 0.01902727
#
# Stress axis : x y z
#
# Youngs Moduli (GPa) = 70.02479 55.10593 67.67498
#
# Poissons Ratio (x) = 0.24015 0.30199
# Poissons Ratio (y) = 0.30517 0.35652
# Poissons Ratio (z) = 0.31247 0.29030
#
# Static dielectric constant tensor:
#      x y z
#    x 4.005350 0.000000 0.000000 
#    y 0.000000 3.872010 0.000000 
#    z 0.000000 0.000000 4.111380 
# 
# 
# High freq. dielectric constant tensor:
#      x y z
#    x 1.845250 0.000000 0.000000 
#    y 0.000000 1.827980 0.000000 
#    z 0.000000 0.000000 1.864270 
# 
# From -- ./inp_files/7517.got.cif
#   From: 2010.03.12/outbox.cif.g09.slc.cpg/sg41_4_cif.got.tgz:7517.got - 2010.04.14 01:55:53.
