data_PCOD8185590
_publ_section_title
;
Structure prediction by ZEFSAII (Michael W. Deem and Ramdas Pophale) SiO2 
 PCOD8185590
Probable space group: A B A 2
;
_chemical_formula_sum "Si O2"
_cell_formula_units_Z 60
_cell_length_a 13.760627
_cell_length_b 10.846027
_cell_length_c 17.873315
_cell_angle_alpha 90.000000
_cell_angle_beta 90.000000
_cell_angle_gamma 90.000000
_cell_volume 2667.558876
_symmetry_space_group_name_H-M "A B A 2"
_symmetry_group_IT_number 41
_symmetry_cell_setting 'orthorhombic'
loop_
_space_group_symop_operation_xyz
x,y,z
-x,-y,z
1/2-x,y,1/2+z
1/2+x,-y,1/2+z
x,1/2+y,1/2+z
-x,1/2-y,1/2+z
1/2-x,1/2+y,z
1/2+x,1/2-y,z
loop_
_atom_site_type_symbol
_atom_site_label
_atom_site_fract_x
_atom_site_fract_y
_atom_site_fract_z
Si Si1 0.100856 0.048169 0.464370
Si Si2 0.831751 0.455631 0.123807
Si Si3 0.000000 0.500000 0.236496
Si Si4 0.097172 0.324545 0.449188
Si Si5 0.237673 0.989958 0.861653
Si Si6 0.927858 0.325201 0.351821
Si Si7 0.906450 0.586534 0.765520
Si Si8 0.171318 0.331476 0.614540
O O1 0.097728 0.034475 0.553042
O O2 0.121590 0.183726 0.435083
O O3 0.191093 0.973564 0.432045
O O4 0.000000 0.000000 0.430642
O O5 0.899031 0.493157 0.192685
O O6 0.751667 0.562076 0.119812
O O7 0.791219 0.312156 0.123812
O O8 0.999472 0.380194 0.288655
O O9 0.156616 0.390032 0.382761
O O10 0.117547 0.357736 0.535715
O O11 0.981825 0.345543 0.432139
O O12 0.301678 0.977952 0.784958
O O13 0.180190 0.118659 0.854596
O O14 0.917626 0.182762 0.332692
O O15 0.902769 0.647330 0.683216
O O16 0.000000 0.500000 0.767590
#
# Coordination Sequence:
#
# PCOD8185590 Si02
#       8
#     8   8   4   8   8   8   8   8
#     4  11  23  43  69 100 142 185 230 290 357 422
#     4  11  24  47  72 103 143 184 239 290 361 429
#     4  12  22  44  72 102 134 190 236 284 356 432
#     4  11  24  44  71 105 140 183 241 293 354 428
#     4  12  23  45  70 102 140 185 238 291 354 425
#     4  12  25  46  72 102 141 189 237 295 355 426
#     4  12  28  46  71 106 145 188 237 298 360 432
#     4  11  26  48  73 107 143 190 240 298 364 431
#
# _framework density 22.492476
#
# number of rings (size 3 to 8) (size 9 to 14) (size 15 to 20)
#    0.000    0.533    4.667    3.600    0.000    2.133 
#    0.000    0.000    0.000    0.000    0.000    0.000 
#    0.000    0.000    0.000    0.000    0.000    0.000 
#
# Total GULP energy -371673.318134 kJ/mol
# GULP energy per Si atom -12389.110604 kJ/mol
# Density = 2.244128 g / cm^3
# Si number density = 22.492476 Si / 1000 Ang^3
#
#
#
# Elastic Constant Matrix: (Units=GPa)
#
#
# Indices 1 2 3 4 5 6 
#
# 1 141.1586 61.3915 53.7051 0.0000 0.0000 0.0000
# 2 61.3915 114.4693 26.3012 0.0000 0.0000 0.0000
# 3 53.7051 26.3012 100.6588 0.0000 0.0000 0.0000
# 4 0.0000 0.0000 0.0000 23.9963 0.0000 0.0000
# 5 0.0000 0.0000 0.0000 0.0000 41.1054 0.0000
# 6 0.0000 0.0000 0.0000 0.0000 0.0000 35.7187
#
#
#
# Elastic Compliance Matrix: (Units=1/GPa)
#
#
# Indices 1 2 3 4 5 6 
#
# 1 0.010910 -0.004802 -0.004566 0.000000 0.000000 0.000000
# 2 -0.004802 0.011408 -0.000419 0.000000 0.000000 0.000000
# 3 -0.004566 -0.000419 0.012480 0.000000 0.000000 0.000000
# 4 0.000000 0.000000 0.000000 0.041673 0.000000 0.000000
# 5 0.000000 0.000000 0.000000 0.000000 0.024328 0.000000
# 6 0.000000 0.000000 0.000000 0.000000 0.000000 0.027997
#
#
# Mechanical properties :
#
#
# Convention : Reuss Voigt Hill
#
# Bulk Modulus (GPa) = 65.68550 71.00914 68.34732
# Shear Modulus (GPa) = 32.58540 34.49002 33.53771
#
# Velocity S-wave (km/s) = 3.81034 3.92012 3.86562
# Velocity P-wave (km/s) = 6.97316 7.22000 7.09766
#
# Compressibility (1/GPa) = 0.01522406
#
# Stress axis : x y z
#
# Youngs Moduli (GPa) = 91.65995 87.66143 80.12741
#
# Poissons Ratio (x) = 0.42095 0.36587
# Poissons Ratio (y) = 0.44015 0.03355
# Poissons Ratio (z) = 0.41853 0.03670
#
# Static dielectric constant tensor:
#      x y z
#    x 4.479770 0.000000 0.000000 
#    y 0.000000 4.159330 0.000000 
#    z 0.000000 0.000000 4.383970 
# 
# 
# High freq. dielectric constant tensor:
#      x y z
#    x 1.885980 0.000000 0.000000 
#    y 0.000000 1.892050 0.000000 
#    z 0.000000 0.000000 1.900600 
# 
# From -- ./inp_files/11414.got.cif
#   From: 2010.03.12/outbox.cif.g09.slc.cpg/sg41_6_cif.got.tgz:11414.got - 2010.04.14 01:55:53.
