data_PCOD8185560
_publ_section_title
;
Structure prediction by ZEFSAII (Michael W. Deem and Ramdas Pophale) SiO2 
 PCOD8185560
Probable space group: A B A 2
;
_chemical_formula_sum "Si O2"
_cell_formula_units_Z 64
_cell_length_a 17.681268
_cell_length_b 15.352809
_cell_length_c 10.486700
_cell_angle_alpha 90.000000
_cell_angle_beta 90.000000
_cell_angle_gamma 90.000000
_cell_volume 2846.689490
_symmetry_space_group_name_H-M "A B A 2"
_symmetry_group_IT_number 41
_symmetry_cell_setting 'orthorhombic'
loop_
_space_group_symop_operation_xyz
x,y,z
-x,-y,z
1/2-x,y,1/2+z
1/2+x,-y,1/2+z
x,1/2+y,1/2+z
-x,1/2-y,1/2+z
1/2-x,1/2+y,z
1/2+x,1/2-y,z
loop_
_atom_site_type_symbol
_atom_site_label
_atom_site_fract_x
_atom_site_fract_y
_atom_site_fract_z
Si Si1 0.579735 0.320987 0.661870
Si Si2 0.358439 0.686771 0.929009
Si Si3 0.172879 0.338546 0.572177
Si Si4 0.351336 0.029647 0.023811
Si Si5 0.910254 0.646975 0.082651
Si Si6 0.698306 0.681499 0.779897
Si Si7 0.197197 0.135409 0.313967
Si Si8 0.682248 0.972811 0.576951
O O1 0.581888 0.304827 0.813472
O O2 0.612541 0.238649 0.583419
O O3 0.626363 0.411319 0.645664
O O4 0.496025 0.331052 0.609368
O O5 0.272490 0.676404 0.880434
O O6 0.367432 0.774732 0.010500
O O7 0.372509 0.598899 0.011923
O O8 0.226954 0.329676 0.694718
O O9 0.211082 0.335713 0.430705
O O10 0.136788 0.435757 0.585362
O O11 0.261990 0.007322 0.006232
O O12 0.402339 0.943646 0.004711
O O13 0.366230 0.097002 0.908264
O O14 0.866668 0.621831 0.215390
O O15 0.663052 0.777765 0.751730
O O16 0.213471 0.060973 0.211865
#
# Coordination Sequence:
#
# PCOD8185560 Si02
#       8
#     8   8   8   8   8   8   8   8
#     4  12  27  47  68 103 147 197 242 298 369 445
#     4  11  25  45  70 106 145 185 243 309 363 439
#     4  12  27  43  75 105 145 187 245 301 368 438
#     4  11  24  43  70 104 138 183 242 299 361 442
#     4  12  28  46  72 101 145 200 242 297 369 446
#     4  12  24  46  69 105 140 188 239 302 357 434
#     4  11  22  41  74 104 139 175 234 313 364 418
#     4  11  24  41  72 111 135 178 239 311 372 420
#
# _framework density 22.482254999999999
#
# number of rings (size 3 to 8) (size 9 to 14) (size 15 to 20)
#    0.000    0.500    6.250    1.125    8.750    0.000 
#    0.000    0.625    0.000    0.000    0.000    0.000 
#    0.000    0.000    0.000    0.000    0.000    0.000 
#
# Total GULP energy -396426.109220 kJ/mol
# GULP energy per Si atom -12388.315913 kJ/mol
# Density = 2.243108 g / cm^3
# Si number density = 22.482255 Si / 1000 Ang^3
#
#
#
# Elastic Constant Matrix: (Units=GPa)
#
#
# Indices 1 2 3 4 5 6 
#
# 1 70.4171 22.8973 21.4533 0.0000 0.0000 0.0000
# 2 22.8973 183.1356 47.7164 0.0000 0.0000 0.0000
# 3 21.4533 47.7164 120.3178 0.0000 0.0000 0.0000
# 4 0.0000 0.0000 0.0000 31.4000 0.0000 0.0000
# 5 0.0000 0.0000 0.0000 0.0000 18.4811 0.0000
# 6 0.0000 0.0000 0.0000 0.0000 0.0000 22.9977
#
#
#
# Elastic Compliance Matrix: (Units=1/GPa)
#
#
# Indices 1 2 3 4 5 6 
#
# 1 0.015307 -0.001341 -0.002197 0.000000 0.000000 0.000000
# 2 -0.001341 0.006207 -0.002223 0.000000 0.000000 0.000000
# 3 -0.002197 -0.002223 0.009585 0.000000 0.000000 0.000000
# 4 0.000000 0.000000 0.000000 0.031847 0.000000 0.000000
# 5 0.000000 0.000000 0.000000 0.000000 0.054109 0.000000
# 6 0.000000 0.000000 0.000000 0.000000 0.000000 0.043483
#
#
# Mechanical properties :
#
#
# Convention : Reuss Voigt Hill
#
# Bulk Modulus (GPa) = 51.08254 62.00050 56.54152
# Shear Modulus (GPa) = 27.99783 33.36265 30.68024
#
# Velocity S-wave (km/s) = 3.53275 3.85639 3.69811
# Velocity P-wave (km/s) = 6.27782 6.88959 6.59081
#
# Compressibility (1/GPa) = 0.01957616
#
# Stress axis : x y z
#
# Youngs Moduli (GPa) = 65.33094 161.10268 104.33458
#
# Poissons Ratio (x) = 0.21608 0.22926
# Poissons Ratio (y) = 0.08763 0.23189
# Poissons Ratio (z) = 0.14355 0.35806
#
# Static dielectric constant tensor:
#      x y z
#    x 3.460000 0.000000 0.000000 
#    y 0.000000 4.542240 0.000000 
#    z 0.000000 0.000000 4.299350 
# 
# 
# High freq. dielectric constant tensor:
#      x y z
#    x 1.829160 0.000000 0.000000 
#    y 0.000000 1.915120 0.000000 
#    z 0.000000 0.000000 1.896550 
# 
# From -- ./inp_files/6042.got.cif
#   From: 2010.03.12/outbox.cif.g09.slc.cpg/sg41_4_cif.got.tgz:6042.got - 2010.04.14 01:55:53.
