data_PCOD8185758
_publ_section_title
;
Structure prediction by ZEFSAII (Michael W. Deem and Ramdas Pophale) SiO2 
 PCOD8185758
Probable space group: F M M 2
;
_chemical_formula_sum "Si O2"
_cell_formula_units_Z 92
_cell_length_a 16.574998
_cell_length_b 16.063546
_cell_length_c 20.797542
_cell_angle_alpha 90.000000
_cell_angle_beta 90.000000
_cell_angle_gamma 90.000000
_cell_volume 5537.413000
_symmetry_space_group_name_H-M "F M M 2"
_symmetry_group_IT_number 42
_symmetry_cell_setting 'orthorhombic'
loop_
_space_group_symop_operation_xyz
x,y,z
-x,-y,z
-x,y,z
x,-y,z
x,1/2+y,1/2+z
-x,1/2-y,1/2+z
-x,1/2+y,1/2+z
x,1/2-y,1/2+z
1/2+x,y,1/2+z
1/2-x,-y,1/2+z
1/2-x,y,1/2+z
1/2+x,-y,1/2+z
1/2+x,1/2+y,z
1/2-x,1/2-y,z
1/2-x,1/2+y,z
1/2+x,1/2-y,z
loop_
_atom_site_type_symbol
_atom_site_label
_atom_site_fract_x
_atom_site_fract_y
_atom_site_fract_z
Si Si1 0.846179 0.500000 0.288211
Si Si2 0.500000 0.500000 0.697727
Si Si3 0.589008 0.404929 0.365778
Si Si4 0.500000 0.593083 0.574950
Si Si5 0.094338 0.500000 0.433190
Si Si6 0.864310 0.829986 0.495739
Si Si7 0.751708 0.158309 0.316460
Si Si8 0.191851 0.347615 0.461788
O O1 0.920164 0.500000 0.239995
O O2 0.878973 0.500000 0.359929
O O3 0.794743 0.414799 0.277421
O O4 0.500000 0.582450 0.652462
O O5 0.500000 0.397148 0.334302
O O6 0.613065 0.500000 0.379441
O O7 0.586871 0.357075 0.432968
O O8 0.654343 0.366349 0.317922
O O9 0.500000 0.500000 0.542613
O O10 0.581307 0.643032 0.556245
O O11 0.128619 0.420818 0.470325
O O12 0.000000 0.500000 0.439295
O O13 0.851058 0.731102 0.494019
O O14 0.775245 0.871824 0.498215
O O15 0.750000 0.250000 0.282638
O O16 0.713465 0.169051 0.387278
#
# Coordination Sequence:
#
# PCOD8185758 Si02
#       8
#     8   4  16   8   8  16  16  16
#     4  10  20  38  54  61 107 138 178 225 252 285
#     4  10  24  42  50  78  90 132 184 232 260 284
#     4  10  17  25  43  73 112 134 160 195 246 314
#     4  10  22  32  57  74  95 126 178 216 261 296
#     4  10  20  29  47  74  98 151 169 189 239 319
#     4  10  17  31  45  76 104 141 156 205 255 303
#     4  10  17  32  49  78 102 145 170 196 251 322
#     4   9  19  29  47  72 117 133 165 193 242 325
#
# _framework density 16.614256000000001
#
# number of rings (size 3 to 8) (size 9 to 14) (size 15 to 20)
#    0.261    1.913    5.652    0.522    6.087    0.000 
#    1.565    0.000    3.826    0.000    0.000    0.000 
#    0.000    1.391    0.000    0.000    0.000    0.000 
#
# Total GULP energy -285036.051418 kJ/mol
# GULP energy per Si atom -12392.871801 kJ/mol
# Density = 1.657644 g / cm^3
# Si number density = 16.614256 Si / 1000 Ang^3
#
#
#
# Elastic Constant Matrix: (Units=GPa)
#
#
# Indices 1 2 3 4 5 6 
#
# 1 110.3589 69.0266 14.9585 0.0000 0.0000 0.0000
# 2 69.0266 113.3823 18.3042 0.0000 0.0000 0.0000
# 3 14.9585 18.3042 29.6594 0.0000 0.0000 0.0000
# 4 0.0000 0.0000 0.0000 11.8950 0.0000 0.0000
# 5 0.0000 0.0000 0.0000 0.0000 7.2388 0.0000
# 6 0.0000 0.0000 0.0000 0.0000 0.0000 31.0601
#
#
#
# Elastic Compliance Matrix: (Units=1/GPa)
#
#
# Indices 1 2 3 4 5 6 
#
# 1 0.014751 -0.008640 -0.002107 0.000000 0.000000 0.000000
# 2 -0.008640 0.014857 -0.004811 0.000000 0.000000 0.000000
# 3 -0.002107 -0.004811 0.037748 0.000000 0.000000 0.000000
# 4 0.000000 0.000000 0.000000 0.084069 0.000000 0.000000
# 5 0.000000 0.000000 0.000000 0.000000 0.138144 0.000000
# 6 0.000000 0.000000 0.000000 0.000000 0.000000 0.032196
#
#
# Mechanical properties :
#
#
# Convention : Reuss Voigt Hill
#
# Bulk Modulus (GPa) = 27.59489 50.88657 39.24073
# Shear Modulus (GPa) = 13.70008 20.11287 16.90648
#
# Velocity S-wave (km/s) = 2.87470 3.48311 3.19343
# Velocity P-wave (km/s) = 5.25963 6.84623 6.10469
#
# Compressibility (1/GPa) = 0.03623859
#
# Stress axis : x y z
#
# Youngs Moduli (GPa) = 67.79076 67.31028 26.49139
#
# Poissons Ratio (x) = 0.58158 0.05583
# Poissons Ratio (y) = 0.58573 0.12745
# Poissons Ratio (z) = 0.14286 0.32383
#
# Static dielectric constant tensor:
#      x y z
#    x 3.324700 0.000000 0.000000 
#    y 0.000000 3.328300 0.000000 
#    z 0.000000 0.000000 2.501180 
# 
# 
# High freq. dielectric constant tensor:
#      x y z
#    x 1.657760 0.000000 0.000000 
#    y 0.000000 1.653250 0.000000 
#    z 0.000000 0.000000 1.558790 
# 
# From -- ./inp_files/29581.got.cif
#   From: 2010.03.12/outbox.cif.g09.slc.cpg/sg42_15_cif.got.tgz:29581.got - 2010.04.14 02:04:31.
