data_PCOD8185924
_publ_section_title
;
Structure prediction by ZEFSAII (Michael W. Deem and Ramdas Pophale) SiO2 
 PCOD8185924
Probable space group: F M M 2
;
_chemical_formula_sum "Si O2"
_cell_formula_units_Z 112
_cell_length_a 13.204039
_cell_length_b 26.161299
_cell_length_c 19.291444
_cell_angle_alpha 90.000000
_cell_angle_beta 90.000000
_cell_angle_gamma 90.000000
_cell_volume 6663.936337
_symmetry_space_group_name_H-M "F M M 2"
_symmetry_group_IT_number 42
_symmetry_cell_setting 'orthorhombic'
loop_
_space_group_symop_operation_xyz
x,y,z
-x,-y,z
-x,y,z
x,-y,z
x,1/2+y,1/2+z
-x,1/2-y,1/2+z
-x,1/2+y,1/2+z
x,1/2-y,1/2+z
1/2+x,y,1/2+z
1/2-x,-y,1/2+z
1/2-x,y,1/2+z
1/2+x,-y,1/2+z
1/2+x,1/2+y,z
1/2-x,1/2-y,z
1/2-x,1/2+y,z
1/2+x,1/2-y,z
loop_
_atom_site_type_symbol
_atom_site_label
_atom_site_fract_x
_atom_site_fract_y
_atom_site_fract_z
Si Si1 0.885158 0.818480 0.325610
Si Si2 0.224716 0.194218 0.930613
Si Si3 0.616314 0.106398 0.486496
Si Si4 0.617682 0.206243 0.288416
Si Si5 0.882686 0.440419 0.631689
Si Si6 0.253368 0.619003 0.239365
Si Si7 0.886777 0.559988 0.340824
O O1 0.829694 0.825236 0.398775
O O2 0.853785 0.766444 0.283948
O O3 0.857229 0.866553 0.278334
O O4 0.000000 0.818161 0.345987
O O5 0.250000 0.250000 0.961440
O O6 0.184288 0.158039 0.992225
O O7 0.141916 0.190892 0.868092
O O8 0.500000 0.123266 0.485244
O O9 0.637116 0.068991 0.550520
O O10 0.649562 0.077829 0.416435
O O11 0.500000 0.196925 0.271872
O O12 0.684033 0.171058 0.235081
O O13 0.864117 0.500000 0.648417
O O14 0.796142 0.406081 0.669088
O O15 0.000000 0.425766 0.650724
O O16 0.189329 0.577729 0.281488
O O17 0.887223 0.500000 0.340677
O O18 0.000000 0.581065 0.324855
#
# Coordination Sequence:
#
# PCOD8185924 Si02
#       7
#    16  16  16  16  16  16  16
#     4   9  17  28  46  73 105 136 164 196 242 305
#     4   9  16  27  47  77 104 128 159 200 254 303
#     4  10  18  33  54  74  99 130 167 211 258 301
#     4   9  16  28  48  76 105 130 160 202 254 303
#     4  10  22  37  51  70 100 138 174 210 256 307
#     4  11  18  30  49  74 101 131 168 207 254 298
#     4  10  19  30  50  79 100 118 161 222 268 297
#
# _framework density 16.806882000000002
#
# number of rings (size 3 to 8) (size 9 to 14) (size 15 to 20)
#    0.000    2.286    2.857    3.429    0.000    2.286 
#    0.000    1.429    0.000    1.714    0.000    0.000 
#    0.000    0.000    0.000    0.000    0.000    0.000 
#
# Total GULP energy -346870.016013 kJ/mol
# GULP energy per Si atom -12388.214858 kJ/mol
# Density = 1.676863 g / cm^3
# Si number density = 16.806882 Si / 1000 Ang^3
#
#
#
# Elastic Constant Matrix: (Units=GPa)
#
#
# Indices 1 2 3 4 5 6 
#
# 1 84.4532 31.5778 31.8629 0.0000 0.0000 0.0000
# 2 31.5778 66.4040 20.9793 0.0000 0.0000 0.0000
# 3 31.8629 20.9793 51.2101 0.0000 0.0000 0.0000
# 4 0.0000 0.0000 0.0000 26.6778 0.0000 0.0000
# 5 0.0000 0.0000 0.0000 0.0000 22.6248 0.0000
# 6 0.0000 0.0000 0.0000 0.0000 0.0000 30.7534
#
#
#
# Elastic Compliance Matrix: (Units=1/GPa)
#
#
# Indices 1 2 3 4 5 6 
#
# 1 0.017038 -0.005460 -0.008364 0.000000 0.000000 0.000000
# 2 -0.005460 0.019048 -0.004406 0.000000 0.000000 0.000000
# 3 -0.008364 -0.004406 0.026537 0.000000 0.000000 0.000000
# 4 0.000000 0.000000 0.000000 0.037484 0.000000 0.000000
# 5 0.000000 0.000000 0.000000 0.000000 0.044199 0.000000
# 6 0.000000 0.000000 0.000000 0.000000 0.000000 0.032517
#
#
# Mechanical properties :
#
#
# Convention : Reuss Voigt Hill
#
# Bulk Modulus (GPa) = 38.22354 41.21194 39.71774
# Shear Modulus (GPa) = 22.52209 23.85436 23.18822
#
# Velocity S-wave (km/s) = 3.66464 3.77147 3.71844
# Velocity P-wave (km/s) = 6.37952 6.59844 6.48991
#
# Compressibility (1/GPa) = 0.02616189
#
# Stress axis : x y z
#
# Youngs Moduli (GPa) = 58.69211 52.49974 37.68349
#
# Poissons Ratio (x) = 0.28663 0.31520
# Poissons Ratio (y) = 0.32044 0.16604
# Poissons Ratio (z) = 0.49092 0.23133
#
# Static dielectric constant tensor:
#      x y z
#    x 3.267510 0.000000 0.000000 
#    y 0.000000 3.347920 0.000000 
#    z 0.000000 0.000000 2.763540 
# 
# 
# High freq. dielectric constant tensor:
#      x y z
#    x 1.652460 0.000000 0.000000 
#    y 0.000000 1.659940 0.000000 
#    z 0.000000 0.000000 1.598110 
# 
# From -- ./inp_files/14512.got.cif
#   From: 2010.03.12/outbox.cif.g09.slc.cpg/sg42_8_cif.got.tgz:14512.got - 2010.04.14 02:04:31.
