data_PCOD8185425
_publ_section_title
;
Structure prediction by ZEFSAII (Michael W. Deem and Ramdas Pophale) SiO2 
 PCOD8185425
Probable space group: A B A 2
;
_chemical_formula_sum "Si O2"
_cell_formula_units_Z 64
_cell_length_a 18.410619
_cell_length_b 17.125299
_cell_length_c 8.773929
_cell_angle_alpha 90.000000
_cell_angle_beta 90.000000
_cell_angle_gamma 90.000000
_cell_volume 2766.308869
_symmetry_space_group_name_H-M "A B A 2"
_symmetry_group_IT_number 41
_symmetry_cell_setting 'orthorhombic'
loop_
_space_group_symop_operation_xyz
x,y,z
-x,-y,z
1/2-x,y,1/2+z
1/2+x,-y,1/2+z
x,1/2+y,1/2+z
-x,1/2-y,1/2+z
1/2-x,1/2+y,z
1/2+x,1/2-y,z
loop_
_atom_site_type_symbol
_atom_site_label
_atom_site_fract_x
_atom_site_fract_y
_atom_site_fract_z
Si Si1 0.173711 0.753237 0.196150
Si Si2 0.750403 0.169468 0.951588
Si Si3 0.617790 0.558404 0.888053
Si Si4 0.534675 0.171988 0.579584
Si Si5 0.106339 0.408409 0.041962
Si Si6 0.527756 0.322710 0.390615
Si Si7 0.342822 0.566577 0.458030
Si Si8 0.195156 0.584918 0.293136
O O1 0.228022 0.810705 0.282153
O O2 0.095972 0.793232 0.191132
O O3 0.166898 0.673444 0.290178
O O4 0.212570 0.753001 0.029641
O O5 0.809323 0.101827 0.938523
O O6 0.679544 0.142046 0.043197
O O7 0.588396 0.574599 0.718490
O O8 0.639428 0.466202 0.897781
O O9 0.555074 0.587185 0.006653
O O10 0.523115 0.231631 0.438967
O O11 0.469915 0.166101 0.704969
O O12 0.114013 0.485499 0.934501
O O13 0.039161 0.363807 0.970934
O O14 0.602635 0.359549 0.454923
O O15 0.279123 0.578535 0.337465
O O16 0.305650 0.554377 0.621450
#
# Coordination Sequence:
#
# PCOD8185425 Si02
#       8
#     8   8   8   8   8   8   8   8
#     4  11  22  38  64 103 135 174 230 288 344 400
#     4  11  20  37  65 100 135 176 228 285 337 406
#     4  10  23  42  69 101 135 180 239 284 345 420
#     4  11  25  44  70  98 139 187 241 285 355 430
#     4  11  22  41  69  98 139 187 221 284 356 422
#     4  12  25  46  67  99 143 183 240 288 359 431
#     4  11  25  43  68 102 137 179 226 291 361 426
#     4  11  23  43  68 101 140 171 225 294 350 413
#
# _framework density 23.135522000000002
#
# number of rings (size 3 to 8) (size 9 to 14) (size 15 to 20)
#    0.000    1.000    5.000    1.875    1.750    2.000 
#    2.250    0.000    0.000    0.000    0.000    0.000 
#    0.000    0.000    0.000    0.000    0.000    0.000 
#
# Total GULP energy -396618.095957 kJ/mol
# GULP energy per Si atom -12394.315499 kJ/mol
# Density = 2.308286 g / cm^3
# Si number density = 23.135522 Si / 1000 Ang^3
#
#
#
# Elastic Constant Matrix: (Units=GPa)
#
#
# Indices 1 2 3 4 5 6 
#
# 1 53.0260 19.1059 24.7814 0.0000 0.0000 0.0000
# 2 19.1059 101.7913 19.6254 0.0000 0.0000 0.0000
# 3 24.7814 19.6254 87.7794 0.0000 0.0000 0.0000
# 4 0.0000 0.0000 0.0000 31.9566 0.0000 0.0000
# 5 0.0000 0.0000 0.0000 0.0000 39.8827 0.0000
# 6 0.0000 0.0000 0.0000 0.0000 0.0000 31.0127
#
#
#
# Elastic Compliance Matrix: (Units=1/GPa)
#
#
# Indices 1 2 3 4 5 6 
#
# 1 0.022655 -0.003155 -0.005690 0.000000 0.000000 0.000000
# 2 -0.003155 0.010706 -0.001503 0.000000 0.000000 0.000000
# 3 -0.005690 -0.001503 0.013335 0.000000 0.000000 0.000000
# 4 0.000000 0.000000 0.000000 0.031292 0.000000 0.000000
# 5 0.000000 0.000000 0.000000 0.000000 0.025074 0.000000
# 6 0.000000 0.000000 0.000000 0.000000 0.000000 0.032245
#
#
# Mechanical properties :
#
#
# Convention : Reuss Voigt Hill
#
# Bulk Modulus (GPa) = 38.46336 41.06912 39.76624
# Shear Modulus (GPa) = 30.36386 32.50933 31.43660
#
# Velocity S-wave (km/s) = 3.62668 3.75263 3.69019
# Velocity P-wave (km/s) = 5.84794 6.04701 5.94831
#
# Compressibility (1/GPa) = 0.02599877
#
# Stress axis : x y z
#
# Youngs Moduli (GPa) = 44.14058 93.40567 74.99244
#
# Poissons Ratio (x) = 0.29471 0.42674
# Poissons Ratio (y) = 0.13927 0.11270
# Poissons Ratio (z) = 0.25118 0.14038
#
# Static dielectric constant tensor:
#      x y z
#    x 4.062380 0.000000 0.000000 
#    y 0.000000 4.321220 0.000000 
#    z 0.000000 0.000000 4.231780 
# 
# 
# High freq. dielectric constant tensor:
#      x y z
#    x 1.909260 0.000000 0.000000 
#    y 0.000000 1.913400 0.000000 
#    z 0.000000 0.000000 1.915510 
# 
# From -- ./inp_files/3510.got.cif
#   From: 2010.03.12/outbox.cif.g09.slc.cpg/sg41_2_cif.got.tgz:3510.got - 2010.04.14 01:55:53.
