data_PCOD8185708
_publ_section_title
;
Structure prediction by ZEFSAII (Michael W. Deem and Ramdas Pophale) SiO2 
 PCOD8185708
Probable space group: A B A 2
;
_chemical_formula_sum "Si O2"
_cell_formula_units_Z 36
_cell_length_a 14.009114
_cell_length_b 17.161837
_cell_length_c 5.458395
_cell_angle_alpha 90.000000
_cell_angle_beta 90.000000
_cell_angle_gamma 90.000000
_cell_volume 1312.318958
_symmetry_space_group_name_H-M "A B A 2"
_symmetry_group_IT_number 41
_symmetry_cell_setting 'orthorhombic'
loop_
_space_group_symop_operation_xyz
x,y,z
-x,-y,z
1/2-x,y,1/2+z
1/2+x,-y,1/2+z
x,1/2+y,1/2+z
-x,1/2-y,1/2+z
1/2-x,1/2+y,z
1/2+x,1/2-y,z
loop_
_atom_site_type_symbol
_atom_site_label
_atom_site_fract_x
_atom_site_fract_y
_atom_site_fract_z
Si Si1 0.205490 0.058414 0.043150
Si Si2 0.962774 0.374902 0.329204
Si Si3 0.000000 0.000000 0.442909
Si Si4 0.302854 0.737514 0.756891
Si Si5 0.641856 0.098297 0.621320
O O1 0.258575 0.094426 0.280929
O O2 0.217163 0.964092 0.007966
O O3 0.094333 0.085409 0.058730
O O4 0.912771 0.293039 0.256004
O O5 0.072699 0.363835 0.412063
O O6 0.949212 0.434589 0.107105
O O7 0.084744 0.958458 0.300539
O O8 0.246679 0.709736 0.512087
O O9 0.305542 0.831901 0.762510
#
# Coordination Sequence:
#
# PCOD8185708 Si02
#       5
#     8   8   4   8   8
#     4  12  24  44  73 109 152 196 246 314 380 452
#     4  12  27  48  78 114 154 207 266 321 387 472
#     4  12  24  48  80 116 152 196 270 318 386 446
#     4  12  32  54  78 116 162 210 258 326 406 468
#     4  12  27  48  78 114 154 207 266 321 387 472
#
# _framework density 27.432358000000001
#
# number of rings (size 3 to 8) (size 9 to 14) (size 15 to 20)
#    0.000    0.000    4.444    4.000    9.333    0.000 
#    0.000    0.000    0.000    0.000    0.000    0.000 
#    0.000    0.000    0.000    0.000    0.000    0.000 
#
# Total GULP energy -223253.832220 kJ/mol
# GULP energy per Si atom -12402.990679 kJ/mol
# Density = 2.736992 g / cm^3
# Si number density = 27.432358 Si / 1000 Ang^3
#
#
#
# Elastic Constant Matrix: (Units=GPa)
#
#
# Indices 1 2 3 4 5 6 
#
# 1 46.4120 -16.0251 34.5546 0.0000 0.0000 0.0000
# 2 -16.0251 90.0318 44.9420 0.0000 0.0000 0.0000
# 3 34.5546 44.9420 164.4036 0.0000 0.0000 0.0000
# 4 0.0000 0.0000 0.0000 49.0244 0.0000 0.0000
# 5 0.0000 0.0000 0.0000 0.0000 24.8085 0.0000
# 6 0.0000 0.0000 0.0000 0.0000 0.0000 52.8859
#
#
#
# Elastic Compliance Matrix: (Units=1/GPa)
#
#
# Indices 1 2 3 4 5 6 
#
# 1 0.032463 0.010635 -0.009730 0.000000 0.000000 0.000000
# 2 0.010635 0.016347 -0.006704 0.000000 0.000000 0.000000
# 3 -0.009730 -0.006704 0.009960 0.000000 0.000000 0.000000
# 4 0.000000 0.000000 0.000000 0.020398 0.000000 0.000000
# 5 0.000000 0.000000 0.000000 0.000000 0.040309 0.000000
# 6 0.000000 0.000000 0.000000 0.000000 0.000000 0.018909
#
#
# Mechanical properties :
#
#
# Convention : Reuss Voigt Hill
#
# Bulk Modulus (GPa) = 21.19905 47.53226 34.36566
# Shear Modulus (GPa) = 30.17372 41.16883 35.67128
#
# Velocity S-wave (km/s) = 3.32012 3.87814 3.60993
# Velocity P-wave (km/s) = 4.73731 6.11703 5.47084
#
# Compressibility (1/GPa) = 0.04717192
#
# Stress axis : x y z
#
# Youngs Moduli (GPa) = 30.80450 61.17441 100.39800
#
# Poissons Ratio (x) = -0.65061 0.97691
# Poissons Ratio (y) = -0.32762 0.67306
# Poissons Ratio (z) = 0.29974 0.41011
#
# Static dielectric constant tensor:
#      x y z
#    x 5.161170 0.000000 0.000000 
#    y 0.000000 5.312020 0.000000 
#    z 0.000000 0.000000 4.975550 
# 
# 
# High freq. dielectric constant tensor:
#      x y z
#    x 2.098660 0.000000 0.000000 
#    y 0.000000 2.139140 0.000000 
#    z 0.000000 0.000000 2.112740 
# 
# From -- ./inp_files/192.got.cif
#   From: 2010.03.12/outbox.cif.g09.slc.cpg/sg41_1_cif.got.tgz:192.got - 2010.04.14 01:55:53.
