data_PCOD8185165
_publ_section_title
;
Structure prediction by ZEFSAII (Michael W. Deem and Ramdas Pophale) SiO2 
 PCOD8185165
Probable space group: A B A 2
;
_chemical_formula_sum "Si O2"
_cell_formula_units_Z 48
_cell_length_a 14.973278
_cell_length_b 8.664446
_cell_length_c 16.060044
_cell_angle_alpha 90.000000
_cell_angle_beta 90.000000
_cell_angle_gamma 90.000000
_cell_volume 2083.552357
_symmetry_space_group_name_H-M "A B A 2"
_symmetry_group_IT_number 41
_symmetry_cell_setting 'orthorhombic'
loop_
_space_group_symop_operation_xyz
x,y,z
-x,-y,z
1/2-x,y,1/2+z
1/2+x,-y,1/2+z
x,1/2+y,1/2+z
-x,1/2-y,1/2+z
1/2-x,1/2+y,z
1/2+x,1/2-y,z
loop_
_atom_site_type_symbol
_atom_site_label
_atom_site_fract_x
_atom_site_fract_y
_atom_site_fract_z
Si Si1 0.305168 0.173347 0.144220
Si Si2 0.791113 0.897428 0.973036
Si Si3 0.532657 0.825435 0.387815
Si Si4 0.849739 0.650755 0.218532
Si Si5 0.844979 0.703018 0.405177
Si Si6 0.527651 0.178785 0.712494
O O1 0.232201 0.232785 0.208671
O O2 0.391343 0.288675 0.147135
O O3 0.337473 0.004586 0.167990
O O4 0.255532 0.165878 0.055883
O O5 0.886502 0.816889 0.953964
O O6 0.720292 0.849900 0.900858
O O7 0.804069 0.081307 0.971936
O O8 0.445626 0.742094 0.429410
O O9 0.560792 0.737106 0.303248
O O10 0.500000 0.000000 0.369322
O O11 0.854543 0.616255 0.316654
O O12 0.940494 0.726973 0.184658
O O13 0.500000 0.000000 0.713632
#
# Coordination Sequence:
#
# PCOD8185165 Si02
#       6
#     8   8   8   8   8   8
#     4  12  24  41  64  99 139 174 216 277 345 403
#     4  11  23  39  62  93 131 169 212 271 338 400
#     4   9  20  41  66  93 129 175 224 277 332 397
#     4  11  23  42  68  96 132 178 226 278 330 400
#     4  10  21  40  65  91 124 173 223 268 324 394
#     4  11  23  41  69 102 133 179 235 283 333 400
#
# _framework density 23.037579000000001
#
# number of rings (size 3 to 8) (size 9 to 14) (size 15 to 20)
#    0.000    1.333    0.000    7.500    0.000    5.333 
#    0.000    5.000    0.000    0.000    0.000    0.000 
#    0.000    0.000    0.000    0.000    0.000    0.000 
#
# Total GULP energy -297460.348410 kJ/mol
# GULP energy per Si atom -12394.181184 kJ/mol
# Density = 2.298514 g / cm^3
# Si number density = 23.037579 Si / 1000 Ang^3
#
#
#
# Elastic Constant Matrix: (Units=GPa)
#
#
# Indices 1 2 3 4 5 6 
#
# 1 200.5713 59.1279 65.1206 0.0000 0.0000 0.0000
# 2 59.1279 89.0475 48.7573 0.0000 0.0000 0.0000
# 3 65.1206 48.7573 87.2716 0.0000 0.0000 0.0000
# 4 0.0000 0.0000 0.0000 19.1516 0.0000 0.0000
# 5 0.0000 0.0000 0.0000 0.0000 40.6706 0.0000
# 6 0.0000 0.0000 0.0000 0.0000 0.0000 46.4151
#
#
#
# Elastic Compliance Matrix: (Units=1/GPa)
#
#
# Indices 1 2 3 4 5 6 
#
# 1 0.006963 -0.002563 -0.003764 0.000000 0.000000 0.000000
# 2 -0.002563 0.017122 -0.007654 0.000000 0.000000 0.000000
# 3 -0.003764 -0.007654 0.018543 0.000000 0.000000 0.000000
# 4 0.000000 0.000000 0.000000 0.052215 0.000000 0.000000
# 5 0.000000 0.000000 0.000000 0.000000 0.024588 0.000000
# 6 0.000000 0.000000 0.000000 0.000000 0.000000 0.021545
#
#
# Mechanical properties :
#
#
# Convention : Reuss Voigt Hill
#
# Bulk Modulus (GPa) = 68.17690 80.32242 74.24966
# Shear Modulus (GPa) = 28.76422 34.83978 31.80200
#
# Velocity S-wave (km/s) = 3.53736 3.89305 3.71946
# Velocity P-wave (km/s) = 6.80749 7.42626 7.12359
#
# Compressibility (1/GPa) = 0.01466773
#
# Stress axis : x y z
#
# Youngs Moduli (GPa) = 143.60856 58.40326 53.92763
#
# Poissons Ratio (x) = 0.14967 0.20300
# Poissons Ratio (y) = 0.36801 0.41275
# Poissons Ratio (z) = 0.54058 0.44701
#
# Static dielectric constant tensor:
#      x y z
#    x 5.048110 0.000000 0.000000 
#    y 0.000000 3.957460 0.000000 
#    z 0.000000 0.000000 3.909170 
# 
# 
# High freq. dielectric constant tensor:
#      x y z
#    x 1.942530 0.000000 0.000000 
#    y 0.000000 1.903500 0.000000 
#    z 0.000000 0.000000 1.887980 
# 
# From -- ./inp_files/10294.got.cif
#   From: 2010.03.12/outbox.cif.g09.slc.cpg/sg41_6_cif.got.tgz:10294.got - 2010.04.14 01:55:53.
