data_PCOD8185301
_publ_section_title
;
Structure prediction by ZEFSAII (Michael W. Deem and Ramdas Pophale) SiO2 
 PCOD8185301
Probable space group: A B A 2
;
_chemical_formula_sum "Si O2"
_cell_formula_units_Z 60
_cell_length_a 13.820553
_cell_length_b 22.412562
_cell_length_c 8.694997
_cell_angle_alpha 90.000000
_cell_angle_beta 90.000000
_cell_angle_gamma 90.000000
_cell_volume 2693.310109
_symmetry_space_group_name_H-M "A B A 2"
_symmetry_group_IT_number 41
_symmetry_cell_setting 'orthorhombic'
loop_
_space_group_symop_operation_xyz
x,y,z
-x,-y,z
1/2-x,y,1/2+z
1/2+x,-y,1/2+z
x,1/2+y,1/2+z
-x,1/2-y,1/2+z
1/2-x,1/2+y,z
1/2+x,1/2-y,z
loop_
_atom_site_type_symbol
_atom_site_label
_atom_site_fract_x
_atom_site_fract_y
_atom_site_fract_z
Si Si1 0.905223 0.730597 0.565290
Si Si2 0.148171 0.064551 0.273009
Si Si3 0.297570 0.306716 0.620454
Si Si4 0.500000 0.000000 0.980692
Si Si5 0.851771 0.564483 0.188503
Si Si6 0.594786 0.269392 0.896472
Si Si7 0.801187 0.499961 0.480762
Si Si8 0.797582 0.806678 0.341293
O O1 0.815646 0.683364 0.572490
O O2 0.943698 0.749990 0.730887
O O3 0.863744 0.791453 0.488348
O O4 0.000007 0.703525 0.480879
O O5 0.157946 0.135716 0.259195
O O6 0.056673 0.044897 0.371073
O O7 0.240624 0.041755 0.366830
O O8 0.136641 0.040575 0.098042
O O9 0.342020 0.364356 0.702422
O O10 0.363742 0.291457 0.473440
O O11 0.303240 0.250041 0.730948
O O12 0.443212 0.955160 0.090299
O O13 0.863369 0.540464 0.363423
O O14 0.759263 0.541707 0.094784
O O15 0.684368 0.316622 0.889236
#
# Coordination Sequence:
#
# PCOD8185301 Si02
#       8
#     8   8   8   4   8   8   8   8
#     4  10  22  40  61  98 143 183 227 269 346 419
#     4  10  22  44  70  98 132 178 231 288 341 421
#     4  10  23  41  67 100 140 180 222 285 354 407
#     4  10  24  46  72 102 130 178 230 286 348 394
#     4  10  22  44  70  98 132 178 231 288 341 421
#     4  10  22  40  61  98 143 183 227 269 346 419
#     4   9  22  42  68  91 128 184 233 276 344 404
#     4  10  23  41  67 100 140 180 222 285 354 407
#
# _framework density 22.277421
#
# number of rings (size 3 to 8) (size 9 to 14) (size 15 to 20)
#    0.000    2.133    0.000    0.800   13.067    1.600 
#    0.000    0.000    0.000    0.000    0.000    0.000 
#    0.000    0.000    0.000    0.000    0.000    0.000 
#
# Total GULP energy -371799.041802 kJ/mol
# GULP energy per Si atom -12393.301393 kJ/mol
# Density = 2.222672 g / cm^3
# Si number density = 22.277421 Si / 1000 Ang^3
#
#
#
# Elastic Constant Matrix: (Units=GPa)
#
#
# Indices 1 2 3 4 5 6 
#
# 1 130.0534 49.9554 58.5571 0.0000 0.0000 0.0000
# 2 49.9554 151.7661 61.4821 0.0000 0.0000 0.0000
# 3 58.5571 61.4821 175.1151 0.0000 0.0000 0.0000
# 4 0.0000 0.0000 0.0000 32.3779 0.0000 0.0000
# 5 0.0000 0.0000 0.0000 0.0000 619.3190 0.0000
# 6 0.0000 0.0000 0.0000 0.0000 0.0000 7.0116
#
#
#
# Elastic Compliance Matrix: (Units=1/GPa)
#
#
# Indices 1 2 3 4 5 6 
#
# 1 0.009631 -0.002175 -0.002457 0.000000 0.000000 0.000000
# 2 -0.002175 0.008173 -0.002142 0.000000 0.000000 0.000000
# 3 -0.002457 -0.002142 0.007284 0.000000 0.000000 0.000000
# 4 0.000000 0.000000 0.000000 0.030885 0.000000 0.000000
# 5 0.000000 0.000000 0.000000 0.000000 0.001615 0.000000
# 6 0.000000 0.000000 0.000000 0.000000 0.000000 0.142621
#
#
# Mechanical properties :
#
#
# Convention : Reuss Voigt Hill
#
# Bulk Modulus (GPa) = 86.65495 88.54708 87.60102
# Shear Modulus (GPa) = 22.97765 150.87103 86.92434
#
# Velocity S-wave (km/s) = 3.21508 8.23837 6.25330
# Velocity P-wave (km/s) = 7.26394 11.41613 9.56799
#
# Compressibility (1/GPa) = 0.01154002
#
# Stress axis : x y z
#
# Youngs Moduli (GPa) = 103.83430 122.35782 137.28311
#
# Poissons Ratio (x) = 0.26610 0.33729
# Poissons Ratio (y) = 0.22581 0.29409
# Poissons Ratio (z) = 0.25511 0.26212
#
# Static dielectric constant tensor:
#      x y z
#    x 4.126260 0.000000 0.000000 
#    y 0.000000 3.668630 0.000000 
#    z 0.000000 0.000000 4.591000 
# 
# 
# High freq. dielectric constant tensor:
#      x y z
#    x 1.868920 0.000000 0.000000 
#    y 0.000000 1.846910 0.000000 
#    z 0.000000 0.000000 1.902070 
# 
# From -- ./inp_files/2776.got.cif
#   From: 2010.03.12/outbox.cif.g09.slc.cpg/sg41_2_cif.got.tgz:2776.got - 2010.04.14 01:55:53.
