data_PCOD8185979
_publ_section_title
;
Structure prediction by ZEFSAII (Michael W. Deem and Ramdas Pophale) SiO2 
 PCOD8185979
Probable space group: F M M 2
;
_chemical_formula_sum "Si O2"
_cell_formula_units_Z 96
_cell_length_a 26.253232
_cell_length_b 8.499135
_cell_length_c 23.473414
_cell_angle_alpha 90.000000
_cell_angle_beta 90.000000
_cell_angle_gamma 90.000000
_cell_volume 5237.617302
_symmetry_space_group_name_H-M "F M M 2"
_symmetry_group_IT_number 42
_symmetry_cell_setting 'orthorhombic'
loop_
_space_group_symop_operation_xyz
x,y,z
-x,-y,z
-x,y,z
x,-y,z
x,1/2+y,1/2+z
-x,1/2-y,1/2+z
-x,1/2+y,1/2+z
x,1/2-y,1/2+z
1/2+x,y,1/2+z
1/2-x,-y,1/2+z
1/2-x,y,1/2+z
1/2+x,-y,1/2+z
1/2+x,1/2+y,z
1/2-x,1/2-y,z
1/2-x,1/2+y,z
1/2+x,1/2-y,z
loop_
_atom_site_type_symbol
_atom_site_label
_atom_site_fract_x
_atom_site_fract_y
_atom_site_fract_z
Si Si1 0.557962 0.682961 0.528090
Si Si2 0.057733 0.183663 0.149953
Si Si3 0.125233 0.680233 0.430241
Si Si4 0.694500 0.685204 0.337754
Si Si5 0.611362 0.315109 0.751898
Si Si6 0.943198 0.326412 0.844675
O O1 0.500000 0.720393 0.505639
O O2 0.562459 0.500000 0.542661
O O3 0.569552 0.782713 0.584193
O O4 0.602966 0.725739 0.484069
O O5 0.102333 0.271581 0.185845
O O6 0.000000 0.243038 0.163976
O O7 0.062543 0.000000 0.161890
O O8 0.135644 0.500000 0.447038
O O9 0.175319 0.753960 0.400090
O O10 0.081986 0.691878 0.382483
O O11 0.696992 0.500000 0.339523
O O12 0.750000 0.750000 0.325448
O O13 0.659688 0.738942 0.284213
O O14 0.615454 0.500000 0.759451
O O15 0.560920 0.237982 0.780510
O O16 0.916481 0.500000 0.851262
O O17 0.000000 0.347316 0.864575
#
# Coordination Sequence:
#
# PCOD8185979 Si02
#       6
#    16  16  16  16  16  16
#     4  10  20  34  52  76 108 146 184 220 259 305
#     4  10  20  34  52  76 108 146 184 220 259 305
#     4  11  21  33  51  76 104 136 174 214 260 313
#     4  11  22  39  60  81 105 133 170 218 271 321
#     4  11  21  33  51  76 104 136 174 214 260 313
#     4  10  19  30  45  68 100 136 171 210 257 307
#
# _framework density 18.328944
#
# number of rings (size 3 to 8) (size 9 to 14) (size 15 to 20)
#    0.000    1.500    0.000    9.000    0.000    7.333 
#    0.000    0.000    0.000    1.000    0.000    7.000 
#    0.000    0.000    0.000    0.000    0.000    0.000 
#
# Total GULP energy -297362.455160 kJ/mol
# GULP energy per Si atom -12390.102298 kJ/mol
# Density = 1.828723 g / cm^3
# Si number density = 18.328944 Si / 1000 Ang^3
#
#
#
# Elastic Constant Matrix: (Units=GPa)
#
#
# Indices 1 2 3 4 5 6 
#
# 1 91.8161 30.0994 38.5743 0.0000 0.0000 0.0000
# 2 30.0994 112.1970 14.7116 0.0000 0.0000 0.0000
# 3 38.5743 14.7116 78.5757 0.0000 0.0000 0.0000
# 4 0.0000 0.0000 0.0000 33.7884 0.0000 0.0000
# 5 0.0000 0.0000 0.0000 0.0000 33.0235 0.0000
# 6 0.0000 0.0000 0.0000 0.0000 0.0000 25.7794
#
#
#
# Elastic Compliance Matrix: (Units=1/GPa)
#
#
# Indices 1 2 3 4 5 6 
#
# 1 0.014685 -0.003070 -0.006634 0.000000 0.000000 0.000000
# 2 -0.003070 0.009779 -0.000324 0.000000 0.000000 0.000000
# 3 -0.006634 -0.000324 0.016044 0.000000 0.000000 0.000000
# 4 0.000000 0.000000 0.000000 0.029596 0.000000 0.000000
# 5 0.000000 0.000000 0.000000 0.000000 0.030281 0.000000
# 6 0.000000 0.000000 0.000000 0.000000 0.000000 0.038791
#
#
# Mechanical properties :
#
#
# Convention : Reuss Voigt Hill
#
# Bulk Modulus (GPa) = 48.89486 49.92881 49.41183
# Shear Modulus (GPa) = 30.11154 31.79849 30.95501
#
# Velocity S-wave (km/s) = 4.05759 4.16971 4.11403
# Velocity P-wave (km/s) = 6.97756 7.10503 7.04158
#
# Compressibility (1/GPa) = 0.02045205
#
# Stress axis : x y z
#
# Youngs Moduli (GPa) = 68.09710 102.26126 62.32788
#
# Poissons Ratio (x) = 0.31391 0.41351
# Poissons Ratio (y) = 0.20903 0.02019
# Poissons Ratio (z) = 0.45178 0.03313
#
# Static dielectric constant tensor:
#      x y z
#    x 3.060730 0.000000 0.000000 
#    y 0.000000 3.537220 0.000000 
#    z 0.000000 0.000000 3.433460 
# 
# 
# High freq. dielectric constant tensor:
#      x y z
#    x 1.682000 0.000000 0.000000 
#    y 0.000000 1.730590 0.000000 
#    z 0.000000 0.000000 1.705250 
# 
# From -- ./inp_files/30604.got.cif
#   From: 2010.03.12/outbox.cif.g09.slc.cpg/sg42_16_cif.got.tgz:30604.got - 2010.04.14 02:04:31.
