data_PCOD8185909
_publ_section_title
;
Structure prediction by ZEFSAII (Michael W. Deem and Ramdas Pophale) SiO2 
 PCOD8185909
Probable space group: F M M 2
;
_chemical_formula_sum "Si O2"
_cell_formula_units_Z 96
_cell_length_a 8.691746
_cell_length_b 18.964851
_cell_length_c 31.041773
_cell_angle_alpha 90.000000
_cell_angle_beta 90.000000
_cell_angle_gamma 90.000000
_cell_volume 5116.853466
_symmetry_space_group_name_H-M "F M M 2"
_symmetry_group_IT_number 42
_symmetry_cell_setting 'orthorhombic'
loop_
_space_group_symop_operation_xyz
x,y,z
-x,-y,z
-x,y,z
x,-y,z
x,1/2+y,1/2+z
-x,1/2-y,1/2+z
-x,1/2+y,1/2+z
x,1/2-y,1/2+z
1/2+x,y,1/2+z
1/2-x,-y,1/2+z
1/2-x,y,1/2+z
1/2+x,-y,1/2+z
1/2+x,1/2+y,z
1/2-x,1/2-y,z
1/2-x,1/2+y,z
1/2+x,1/2-y,z
loop_
_atom_site_type_symbol
_atom_site_label
_atom_site_fract_x
_atom_site_fract_y
_atom_site_fract_z
Si Si1 0.317457 0.828086 0.401820
Si Si2 0.830096 0.083551 0.156795
Si Si3 0.179472 0.082013 0.061298
Si Si4 0.180319 0.673207 0.815208
Si Si5 0.319709 0.673207 0.488279
Si Si6 0.824513 0.917082 0.742674
O O1 0.500000 0.829039 0.401777
O O2 0.250000 0.750000 0.401719
O O3 0.254615 0.863513 0.357875
O O4 0.254485 0.863867 0.445637
O O5 0.776169 0.108938 0.109445
O O6 0.713564 0.108523 0.194039
O O7 0.000000 0.113887 0.167218
O O8 0.839804 0.000000 0.155046
O O9 0.285883 0.124442 0.028816
O O10 0.000000 0.096665 0.052128
O O11 0.217746 0.000000 0.055639
O O12 0.250000 0.750000 0.805947
O O13 0.213039 0.622598 0.775271
O O14 0.000000 0.681462 0.822283
O O15 0.500000 0.681087 0.481072
O O16 0.250000 0.750000 0.496751
O O17 0.000000 0.897242 0.752805
O O18 0.793917 0.000000 0.747452
#
# Coordination Sequence:
#
# PCOD8185909 Si02
#       6
#    16  16  16  16  16  16
#     4  10  18  32  53  75 101 133 171 209 251 305
#     4   8  15  30  52  75 100 134 173 209 250 304
#     4   9  18  34  55  78 105 136 170 210 257 306
#     4  11  21  35  55  78 105 135 171 212 255 304
#     4  11  21  34  53  77 105 136 173 213 254 302
#     4  10  20  34  53  78 107 137 171 211 255 303
#
# _framework density 18.761531000000002
#
# number of rings (size 3 to 8) (size 9 to 14) (size 15 to 20)
#    0.000    2.167    0.000    8.000    0.000    2.000 
#    0.000    3.333    0.000    9.000    0.000    0.000 
#    0.000    0.000    0.000    0.000    0.000    0.000 
#
# Total GULP energy -297525.807456 kJ/mol
# GULP energy per Si atom -12396.908644 kJ/mol
# Density = 1.871883 g / cm^3
# Si number density = 18.761531 Si / 1000 Ang^3
#
#
#
# Elastic Constant Matrix: (Units=GPa)
#
#
# Indices 1 2 3 4 5 6 
#
# 1 146.2538 31.4600 60.8964 0.0000 0.0000 0.0000
# 2 31.4600 38.1826 39.0514 0.0000 0.0000 0.0000
# 3 60.8964 39.0514 152.3521 0.0000 0.0000 0.0000
# 4 0.0000 0.0000 0.0000 29.2475 0.0000 0.0000
# 5 0.0000 0.0000 0.0000 0.0000 37.1333 0.0000
# 6 0.0000 0.0000 0.0000 0.0000 0.0000 23.2636
#
#
#
# Elastic Compliance Matrix: (Units=1/GPa)
#
#
# Indices 1 2 3 4 5 6 
#
# 1 0.008850 -0.004979 -0.002261 0.000000 0.000000 0.000000
# 2 -0.004979 0.038297 -0.007826 0.000000 0.000000 0.000000
# 3 -0.002261 -0.007826 0.009474 0.000000 0.000000 0.000000
# 4 0.000000 0.000000 0.000000 0.034191 0.000000 0.000000
# 5 0.000000 0.000000 0.000000 0.000000 0.026930 0.000000
# 6 0.000000 0.000000 0.000000 0.000000 0.000000 0.042986
#
#
# Mechanical properties :
#
#
# Convention : Reuss Voigt Hill
#
# Bulk Modulus (GPa) = 37.75394 66.62266 52.18830
# Shear Modulus (GPa) = 25.03899 31.62094 28.32997
#
# Velocity S-wave (km/s) = 3.65717 4.10983 3.89009
# Velocity P-wave (km/s) = 6.16441 7.62288 6.93211
#
# Compressibility (1/GPa) = 0.02648730
#
# Stress axis : x y z
#
# Youngs Moduli (GPa) = 112.99491 26.11193 105.55724
#
# Poissons Ratio (x) = 0.13002 0.23868
# Poissons Ratio (y) = 0.56263 0.82610
# Poissons Ratio (z) = 0.25549 0.20435
#
# Static dielectric constant tensor:
#      x y z
#    x 3.470660 0.000000 0.000000 
#    y 0.000000 2.968470 0.000000 
#    z 0.000000 0.000000 4.129180 
# 
# 
# High freq. dielectric constant tensor:
#      x y z
#    x 1.738350 0.000000 0.000000 
#    y 0.000000 1.677510 0.000000 
#    z 0.000000 0.000000 1.752390 
# 
# From -- ./inp_files/28044.got.cif
#   From: 2010.03.12/outbox.cif.g09.slc.cpg/sg42_15_cif.got.tgz:28044.got - 2010.04.14 02:04:31.
