data_PCOD8185259
_publ_section_title
;
Structure prediction by ZEFSAII (Michael W. Deem and Ramdas Pophale) SiO2 
 PCOD8185259
Probable space group: A B A 2
;
_chemical_formula_sum "Si O2"
_cell_formula_units_Z 40
_cell_length_a 14.272988
_cell_length_b 11.204152
_cell_length_c 10.395183
_cell_angle_alpha 90.000000
_cell_angle_beta 90.000000
_cell_angle_gamma 90.000000
_cell_volume 1662.363642
_symmetry_space_group_name_H-M "A B A 2"
_symmetry_group_IT_number 41
_symmetry_cell_setting 'orthorhombic'
loop_
_space_group_symop_operation_xyz
x,y,z
-x,-y,z
1/2-x,y,1/2+z
1/2+x,-y,1/2+z
x,1/2+y,1/2+z
-x,1/2-y,1/2+z
1/2-x,1/2+y,z
1/2+x,1/2-y,z
loop_
_atom_site_type_symbol
_atom_site_label
_atom_site_fract_x
_atom_site_fract_y
_atom_site_fract_z
Si Si1 0.068463 0.683973 0.831290
Si Si2 0.583360 0.421892 0.591308
Si Si3 0.382961 0.318906 0.198611
Si Si4 0.904177 0.569811 0.430918
Si Si5 0.791292 0.502986 0.879082
O O1 0.084134 0.825843 0.825131
O O2 0.162571 0.607706 0.799541
O O3 0.989972 0.645605 0.730487
O O4 0.032106 0.650924 0.975331
O O5 0.500000 0.500000 0.658770
O O6 0.626411 0.325984 0.691972
O O7 0.666456 0.501455 0.525910
O O8 0.315048 0.371314 0.308837
O O9 0.360930 0.375632 0.060922
O O10 0.821081 0.484622 0.377982
O O11 0.000000 0.500000 0.452815
#
# Coordination Sequence:
#
# PCOD8185259 Si02
#       5
#     8   8   8   8   8
#     4   9  20  43  68  97 143 191 226 315 364 421
#     4   9  19  41  72 107 139 185 239 297 363 442
#     4  11  21  45  77  98 137 204 231 300 395 405
#     4  11  25  43  68 107 139 190 259 293 360 462
#     4  10  21  46  67 101 151 184 239 313 355 432
#
# _framework density 24.062124000000001
#
# number of rings (size 3 to 8) (size 9 to 14) (size 15 to 20)
#    1.200    0.800    2.000    1.800    0.000    2.400 
#   14.400    0.000    0.000    0.000    0.000    0.000 
#    0.000    0.000    0.000    0.000    0.000    0.000 
#
# Total GULP energy -247822.641475 kJ/mol
# GULP energy per Si atom -12391.132074 kJ/mol
# Density = 2.400736 g / cm^3
# Si number density = 24.062124 Si / 1000 Ang^3
#
#
#
# Elastic Constant Matrix: (Units=GPa)
#
#
# Indices 1 2 3 4 5 6 
#
# 1 149.4830 43.1319 9.3669 0.0000 0.0000 0.0000
# 2 43.1319 115.7448 30.5221 0.0000 0.0000 0.0000
# 3 9.3669 30.5221 50.5166 0.0000 0.0000 0.0000
# 4 0.0000 0.0000 0.0000 47.0693 0.0000 0.0000
# 5 0.0000 0.0000 0.0000 0.0000 12.6207 0.0000
# 6 0.0000 0.0000 0.0000 0.0000 0.0000 24.1745
#
#
#
# Elastic Compliance Matrix: (Units=1/GPa)
#
#
# Indices 1 2 3 4 5 6 
#
# 1 0.007501 -0.002889 0.000355 0.000000 0.000000 0.000000
# 2 -0.002889 0.011390 -0.006346 0.000000 0.000000 0.000000
# 3 0.000355 -0.006346 0.023564 0.000000 0.000000 0.000000
# 4 0.000000 0.000000 0.000000 0.021245 0.000000 0.000000
# 5 0.000000 0.000000 0.000000 0.000000 0.079235 0.000000
# 6 0.000000 0.000000 0.000000 0.000000 0.000000 0.041366
#
#
# Mechanical properties :
#
#
# Convention : Reuss Voigt Hill
#
# Bulk Modulus (GPa) = 40.49523 53.53180 47.01352
# Shear Modulus (GPa) = 23.77637 32.28778 28.03208
#
# Velocity S-wave (km/s) = 3.14685 3.66710 3.41689
# Velocity P-wave (km/s) = 5.48357 6.34238 5.92855
#
# Compressibility (1/GPa) = 0.02469426
#
# Stress axis : x y z
#
# Youngs Moduli (GPa) = 133.31524 87.79934 42.43762
#
# Poissons Ratio (x) = 0.25363 -0.01504
# Poissons Ratio (y) = 0.38511 0.26931
# Poissons Ratio (z) = -0.04726 0.55717
#
# Static dielectric constant tensor:
#      x y z
#    x 3.888270 0.000000 0.000000 
#    y 0.000000 4.300490 0.000000 
#    z 0.000000 0.000000 4.022300 
# 
# 
# High freq. dielectric constant tensor:
#      x y z
#    x 1.935980 0.000000 0.000000 
#    y 0.000000 1.950780 0.000000 
#    z 0.000000 0.000000 1.938470 
# 
# From -- ./inp_files/5385.got.cif
#   From: 2010.03.12/outbox.cif.g09.slc.cpg/sg41_3_cif.got.tgz:5385.got - 2010.04.14 01:55:53.
