data_PCOD8185898
_publ_section_title
;
Structure prediction by ZEFSAII (Michael W. Deem and Ramdas Pophale) SiO2 
 PCOD8185898
Probable space group: F M M 2
;
_chemical_formula_sum "Si O2"
_cell_formula_units_Z 104
_cell_length_a 18.639953
_cell_length_b 13.986582
_cell_length_c 21.652388
_cell_angle_alpha 90.000000
_cell_angle_beta 90.000000
_cell_angle_gamma 90.000000
_cell_volume 5644.977427
_symmetry_space_group_name_H-M "F M M 2"
_symmetry_group_IT_number 42
_symmetry_cell_setting 'orthorhombic'
loop_
_space_group_symop_operation_xyz
x,y,z
-x,-y,z
-x,y,z
x,-y,z
x,1/2+y,1/2+z
-x,1/2-y,1/2+z
-x,1/2+y,1/2+z
x,1/2-y,1/2+z
1/2+x,y,1/2+z
1/2-x,-y,1/2+z
1/2-x,y,1/2+z
1/2+x,-y,1/2+z
1/2+x,1/2+y,z
1/2-x,1/2-y,z
1/2-x,1/2+y,z
1/2+x,1/2-y,z
loop_
_atom_site_type_symbol
_atom_site_label
_atom_site_fract_x
_atom_site_fract_y
_atom_site_fract_z
Si Si1 0.197189 0.889213 0.126160
Si Si2 0.750000 0.250000 0.027662
Si Si3 0.082113 0.207550 0.351415
Si Si4 0.296694 0.341916 0.837420
Si Si5 0.812876 0.105024 0.434993
Si Si6 0.081499 0.794710 0.208828
Si Si7 0.834719 0.104649 0.707038
O O1 0.198873 0.820736 0.066554
O O2 0.128572 0.865816 0.167934
O O3 0.269301 0.866130 0.163373
O O4 0.192897 0.000000 0.105926
O O5 0.803721 0.314089 0.986770
O O6 0.125507 0.306466 0.361718
O O7 0.116253 0.125918 0.394594
O O8 0.089222 0.174512 0.280187
O O9 0.000000 0.224746 0.370419
O O10 0.250000 0.250000 0.818158
O O11 0.257551 0.399207 0.891574
O O12 0.305537 0.405513 0.776782
O O13 0.821804 0.000000 0.465321
O O14 0.104207 0.684101 0.200251
O O15 0.000000 0.804088 0.186187
O O16 0.865473 0.000000 0.688452
#
# Coordination Sequence:
#
# PCOD8185898 Si02
#       7
#    16   8  16  16  16  16  16
#     4  11  22  37  60  82 107 143 188 234 274 323
#     4  12  22  40  56  82 108 146 190 234 268 310
#     4   9  18  34  57  84 116 145 171 218 283 336
#     4   9  16  31  53  81 112 144 179 229 278 325
#     4  11  21  35  58  83 108 143 187 230 274 320
#     4  10  20  36  58  85 118 146 175 225 284 336
#     4  10  18  31  56  85 112 145 184 226 280 332
#
# _framework density 18.423458
#
# number of rings (size 3 to 8) (size 9 to 14) (size 15 to 20)
#    0.000    1.846    3.846    3.692    0.000    2.769 
#    0.000    2.308    0.000    1.385    0.000    0.000 
#    0.000    0.000    0.000    0.000    0.000    0.000 
#
# Total GULP energy -322362.150907 kJ/mol
# GULP energy per Si atom -12398.544266 kJ/mol
# Density = 1.838152 g / cm^3
# Si number density = 18.423458 Si / 1000 Ang^3
#
#
#
# Elastic Constant Matrix: (Units=GPa)
#
#
# Indices 1 2 3 4 5 6 
#
# 1 119.5135 41.0537 38.8735 0.0000 0.0000 0.0000
# 2 41.0537 117.5356 43.3194 0.0000 0.0000 0.0000
# 3 38.8735 43.3194 78.1554 0.0000 0.0000 0.0000
# 4 0.0000 0.0000 0.0000 19.8703 0.0000 0.0000
# 5 0.0000 0.0000 0.0000 0.0000 14.1541 0.0000
# 6 0.0000 0.0000 0.0000 0.0000 0.0000 17.0070
#
#
#
# Elastic Compliance Matrix: (Units=1/GPa)
#
#
# Indices 1 2 3 4 5 6 
#
# 1 0.010405 -0.002170 -0.003972 0.000000 0.000000 0.000000
# 2 -0.002170 0.011145 -0.005098 0.000000 0.000000 0.000000
# 3 -0.003972 -0.005098 0.017596 0.000000 0.000000 0.000000
# 4 0.000000 0.000000 0.000000 0.050326 0.000000 0.000000
# 5 0.000000 0.000000 0.000000 0.000000 0.070651 0.000000
# 6 0.000000 0.000000 0.000000 0.000000 0.000000 0.058799
#
#
# Mechanical properties :
#
#
# Convention : Reuss Voigt Hill
#
# Bulk Modulus (GPa) = 60.00487 62.41084 61.20786
# Shear Modulus (GPa) = 20.24629 23.00349 21.62489
#
# Velocity S-wave (km/s) = 3.31862 3.53738 3.42975
# Velocity P-wave (km/s) = 6.87931 7.11572 6.99851
#
# Compressibility (1/GPa) = 0.01666531
#
# Stress axis : x y z
#
# Youngs Moduli (GPa) = 96.10961 89.72631 56.82965
#
# Poissons Ratio (x) = 0.19472 0.22575
# Poissons Ratio (y) = 0.20858 0.28971
# Poissons Ratio (z) = 0.38178 0.45742
#
# Static dielectric constant tensor:
#      x y z
#    x 3.403040 0.000000 0.000000 
#    y 0.000000 3.338370 0.000000 
#    z 0.000000 0.000000 3.337170 
# 
# 
# High freq. dielectric constant tensor:
#      x y z
#    x 1.696680 0.000000 0.000000 
#    y 0.000000 1.717210 0.000000 
#    z 0.000000 0.000000 1.701370 
# 
# From -- ./inp_files/25947.got.cif
#   From: 2010.03.12/outbox.cif.g09.slc.cpg/sg42_13_cif.got.tgz:25947.got - 2010.04.14 02:04:31.
