data_PCOD8185265
_publ_section_title
;
Structure prediction by ZEFSAII (Michael W. Deem and Ramdas Pophale) SiO2 
 PCOD8185265
Probable space group: A B A 2
;
_chemical_formula_sum "Si O2"
_cell_formula_units_Z 48
_cell_length_a 8.476812
_cell_length_b 10.768058
_cell_length_c 25.496155
_cell_angle_alpha 90.000000
_cell_angle_beta 90.000000
_cell_angle_gamma 90.000000
_cell_volume 2327.258516
_symmetry_space_group_name_H-M "A B A 2"
_symmetry_group_IT_number 41
_symmetry_cell_setting 'orthorhombic'
loop_
_space_group_symop_operation_xyz
x,y,z
-x,-y,z
1/2-x,y,1/2+z
1/2+x,-y,1/2+z
x,1/2+y,1/2+z
-x,1/2-y,1/2+z
1/2-x,1/2+y,z
1/2+x,1/2-y,z
loop_
_atom_site_type_symbol
_atom_site_label
_atom_site_fract_x
_atom_site_fract_y
_atom_site_fract_z
Si Si1 0.500000 0.000000 0.168360
Si Si2 0.794706 0.590840 0.988215
Si Si3 0.691537 0.903271 0.075684
Si Si4 0.500000 0.500000 0.400944
Si Si5 0.491211 0.193975 0.526860
Si Si6 0.411700 0.380689 0.768637
Si Si7 0.440068 0.872961 0.801254
O O1 0.640632 0.938517 0.134463
O O2 0.408675 0.900386 0.205388
O O3 0.859727 0.517758 0.038959
O O4 0.884516 0.723489 0.987399
O O5 0.604623 0.606535 0.990946
O O6 0.843259 0.509060 0.937339
O O7 0.879716 0.884138 0.066548
O O8 0.607052 0.774661 0.062426
O O9 0.499373 0.379476 0.362331
O O10 0.500000 0.500000 0.794614
O O11 0.500067 0.251518 0.775447
O O12 0.246869 0.371288 0.797384
O O13 0.500000 0.000000 0.772196
#
# Coordination Sequence:
#
# PCOD8185265 Si02
#       7
#     4   8   8   4   8   8   8
#     4  10  23  40  72  94 140 186 229 288 356 420
#     4  11  20  43  59 101 137 171 223 275 332 428
#     4  11  20  43  60 100 138 172 224 277 337 428
#     4  10  23  40  72  92 142 182 223 288 354 414
#     4  10  22  34  68  86 144 177 209 278 335 401
#     4  10  23  45  70  98 140 183 238 304 354 413
#     4  10  23  45  69  98 136 185 234 303 353 413
#
# _framework density 20.625124
#
# number of rings (size 3 to 8) (size 9 to 14) (size 15 to 20)
#    1.000    0.667    3.333    1.500    0.000    2.667 
#    0.000    1.667    0.000    0.000    0.000    0.000 
#    0.000    0.000    0.000    0.000    0.000    0.000 
#
# Total GULP energy -297316.959952 kJ/mol
# GULP energy per Si atom -12388.206665 kJ/mol
# Density = 2.057818 g / cm^3
# Si number density = 20.625124 Si / 1000 Ang^3
#
#
#
# Elastic Constant Matrix: (Units=GPa)
#
#
# Indices 1 2 3 4 5 6 
#
# 1 161.0118 57.7732 48.9633 0.0000 0.0000 0.0000
# 2 57.7732 114.6024 39.6624 0.0000 0.0000 0.0000
# 3 48.9633 39.6624 118.0358 0.0000 0.0000 0.0000
# 4 0.0000 0.0000 0.0000 33.8711 0.0000 0.0000
# 5 0.0000 0.0000 0.0000 0.0000 28.6140 0.0000
# 6 0.0000 0.0000 0.0000 0.0000 0.0000 49.5248
#
#
#
# Elastic Compliance Matrix: (Units=1/GPa)
#
#
# Indices 1 2 3 4 5 6 
#
# 1 0.008075 -0.003295 -0.002243 0.000000 0.000000 0.000000
# 2 -0.003295 0.011218 -0.002403 0.000000 0.000000 0.000000
# 3 -0.002243 -0.002403 0.010210 0.000000 0.000000 0.000000
# 4 0.000000 0.000000 0.000000 0.029524 0.000000 0.000000
# 5 0.000000 0.000000 0.000000 0.000000 0.034948 0.000000
# 6 0.000000 0.000000 0.000000 0.000000 0.000000 0.020192
#
#
# Mechanical properties :
#
#
# Convention : Reuss Voigt Hill
#
# Bulk Modulus (GPa) = 73.40666 76.27198 74.83932
# Shear Modulus (GPa) = 37.15063 38.88539 38.01801
#
# Velocity S-wave (km/s) = 4.24870 4.34676 4.29801
# Velocity P-wave (km/s) = 7.72895 7.89005 7.80992
#
# Compressibility (1/GPa) = 0.01362274
#
# Stress axis : x y z
#
# Youngs Moduli (GPa) = 123.84204 89.14013 97.94625
#
# Poissons Ratio (x) = 0.29368 0.21965
# Poissons Ratio (y) = 0.40800 0.23536
# Poissons Ratio (z) = 0.27772 0.21420
#
# Static dielectric constant tensor:
#      x y z
#    x 3.437330 0.000000 0.000000 
#    y 0.000000 3.635550 0.000000 
#    z 0.000000 0.000000 3.424520 
# 
# 
# High freq. dielectric constant tensor:
#      x y z
#    x 1.816530 0.000000 0.000000 
#    y 0.000000 1.812860 0.000000 
#    z 0.000000 0.000000 1.770980 
# 
# From -- ./inp_files/11971.got.cif
#   From: 2010.03.12/outbox.cif.g09.slc.cpg/sg41_6_cif.got.tgz:11971.got - 2010.04.14 01:55:53.
