data_PCOD8185992
_publ_section_title
;
Structure prediction by ZEFSAII (Michael W. Deem and Ramdas Pophale) SiO2 
 PCOD8185992
Probable space group: F M M 2
;
_chemical_formula_sum "Si O2"
_cell_formula_units_Z 112
_cell_length_a 9.597396
_cell_length_b 18.272848
_cell_length_c 36.491459
_cell_angle_alpha 90.000000
_cell_angle_beta 90.000000
_cell_angle_gamma 90.000000
_cell_volume 6399.571328
_symmetry_space_group_name_H-M "F M M 2"
_symmetry_group_IT_number 42
_symmetry_cell_setting 'orthorhombic'
loop_
_space_group_symop_operation_xyz
x,y,z
-x,-y,z
-x,y,z
x,-y,z
x,1/2+y,1/2+z
-x,1/2-y,1/2+z
-x,1/2+y,1/2+z
x,1/2-y,1/2+z
1/2+x,y,1/2+z
1/2-x,-y,1/2+z
1/2-x,y,1/2+z
1/2+x,-y,1/2+z
1/2+x,1/2+y,z
1/2-x,1/2-y,z
1/2-x,1/2+y,z
1/2+x,1/2-y,z
loop_
_atom_site_type_symbol
_atom_site_label
_atom_site_fract_x
_atom_site_fract_y
_atom_site_fract_z
Si Si1 0.834328 0.676032 0.218740
Si Si2 0.345218 0.087159 0.505837
Si Si3 0.165672 0.676032 0.357240
Si Si4 0.334388 0.918727 0.425425
Si Si5 0.335528 0.918584 0.287990
Si Si6 0.654782 0.412841 0.570143
Si Si7 0.665612 0.081273 0.150555
O O1 0.750000 0.750000 0.223155
O O2 0.786858 0.624094 0.251891
O O3 0.783580 0.637735 0.181264
O O4 0.000000 0.691190 0.219184
O O5 0.500000 0.119393 0.511258
O O6 0.284768 0.108914 0.465678
O O7 0.250000 0.120890 0.537990
O O8 0.349867 0.000000 0.508390
O O9 0.250000 0.750000 0.352825
O O10 0.216420 0.637734 0.394716
O O11 0.213142 0.624094 0.324089
O O12 0.000000 0.691190 0.356796
O O13 0.500000 0.923960 0.425488
O O14 0.274054 0.000000 0.417018
O O15 0.500000 0.925813 0.287990
O O16 0.269057 0.000000 0.287990
O O17 0.500000 0.380607 0.564722
O O18 0.650133 0.500000 0.567590
O O19 0.715232 0.391086 0.610302
O O20 0.500000 0.076040 0.150492
O O21 0.725946 0.000000 0.158962
#
# Coordination Sequence:
#
# PCOD8185992 Si02
#       7
#    16  16  16  16  16  16  16
#     4  10  19  31  48  69  94 121 149 183 222 265
#     4   8  13  22  38  61  86 110 140 181 226 265
#     4  10  19  31  48  69  94 121 149 183 222 265
#     4   8  14  26  45  66  87 116 154 189 219 258
#     4   9  17  30  51  75  92 113 152 192 218 251
#     4   8  13  22  38  61  86 110 140 181 226 265
#     4   8  14  26  45  66  87 116 154 189 219 258
#
# _framework density 17.501172
#
# number of rings (size 3 to 8) (size 9 to 14) (size 15 to 20)
#    0.000    3.286    0.000    3.000    0.000    3.429 
#    0.000    1.429    0.000    6.857    0.000    6.000 
#    0.000    0.000    0.000    0.000    0.000    0.000 
#
# Total GULP energy -347006.934129 kJ/mol
# GULP energy per Si atom -12393.104790 kJ/mol
# Density = 1.746134 g / cm^3
# Si number density = 17.501172 Si / 1000 Ang^3
#
#
#
# Elastic Constant Matrix: (Units=GPa)
#
#
# Indices 1 2 3 4 5 6 
#
# 1 37.6300 32.3831 42.7359 0.0000 0.0000 0.0000
# 2 32.3831 106.9418 75.2160 0.0000 0.0000 0.0000
# 3 42.7359 75.2160 180.1842 0.0000 0.0000 0.0000
# 4 0.0000 0.0000 0.0000 -1.8672 0.0000 0.0000
# 5 0.0000 0.0000 0.0000 0.0000 22.0280 0.0000
# 6 0.0000 0.0000 0.0000 0.0000 0.0000 19.5519
#
#
#
# Elastic Compliance Matrix: (Units=1/GPa)
#
#
# Indices 1 2 3 4 5 6 
#
# 1 0.040496 -0.007796 -0.006350 0.000000 0.000000 0.000000
# 2 -0.007796 0.014738 -0.004303 0.000000 0.000000 0.000000
# 3 -0.006350 -0.004303 0.008852 0.000000 0.000000 0.000000
# 4 0.000000 0.000000 0.000000 -0.535575 0.000000 0.000000
# 5 0.000000 0.000000 0.000000 0.000000 0.045397 0.000000
# 6 0.000000 0.000000 0.000000 0.000000 0.000000 0.051146
#
#
# Mechanical properties :
#
#
# Convention : Reuss Voigt Hill
#
# Bulk Modulus (GPa) = 36.78241 69.49177 53.13709
# Shear Modulus (GPa) = -15.19830 19.57062 2.18616
#
# Velocity S-wave (km/s) = -2.95009 3.34765 1.11887
# Velocity P-wave (km/s) = 3.07550 7.39834 5.66543
#
# Compressibility (1/GPa) = 0.02718691
#
# Stress axis : x y z
#
# Youngs Moduli (GPa) = 24.69407 67.85071 112.96393
#
# Poissons Ratio (x) = 0.52897 0.71736
# Poissons Ratio (y) = 0.19252 0.48611
# Poissons Ratio (z) = 0.15681 0.29198
#
# Static dielectric constant tensor:
#      x y z
#    x 2.911710 0.000000 0.000000 
#    y 0.000000 3.066100 0.000000 
#    z 0.000000 0.000000 3.794860 
# 
# 
# High freq. dielectric constant tensor:
#      x y z
#    x 1.624910 0.000000 0.000000 
#    y 0.000000 1.647100 0.000000 
#    z 0.000000 0.000000 1.700370 
# 
# From -- ./inp_files/34168.got.cif
#   From: 2010.03.12/outbox.cif.g09.slc.cpg/sg42_18_cif.got.tgz:34168.got - 2010.04.14 02:04:31.
