data_PCOD8185063
_publ_section_title
;
Structure prediction by ZEFSAII (Michael W. Deem and Ramdas Pophale) SiO2 
 PCOD8185063
Probable space group: A B A 2
;
_chemical_formula_sum "Si O2"
_cell_formula_units_Z 64
_cell_length_a 8.611203
_cell_length_b 19.768915
_cell_length_c 18.922542
_cell_angle_alpha 90.000000
_cell_angle_beta 90.000000
_cell_angle_gamma 90.000000
_cell_volume 3221.262667
_symmetry_space_group_name_H-M "A B A 2"
_symmetry_group_IT_number 41
_symmetry_cell_setting 'orthorhombic'
loop_
_space_group_symop_operation_xyz
x,y,z
-x,-y,z
1/2-x,y,1/2+z
1/2+x,-y,1/2+z
x,1/2+y,1/2+z
-x,1/2-y,1/2+z
1/2-x,1/2+y,z
1/2+x,1/2-y,z
loop_
_atom_site_type_symbol
_atom_site_label
_atom_site_fract_x
_atom_site_fract_y
_atom_site_fract_z
Si Si1 0.861362 0.657565 0.190340
Si Si2 0.654816 0.891828 0.954594
Si Si3 0.151154 0.702419 0.533613
Si Si4 0.322501 0.345532 0.847823
Si Si5 0.598084 0.741474 0.132246
Si Si6 0.028391 0.773949 0.400455
Si Si7 0.898992 0.561624 0.061176
Si Si8 0.323081 0.977285 0.444521
O O1 0.860336 0.627403 0.269046
O O2 0.708100 0.703259 0.186290
O O3 0.848569 0.602161 0.129777
O O4 0.017039 0.700144 0.177775
O O5 0.608806 0.830858 0.901492
O O6 0.709082 0.961549 0.916252
O O7 0.809686 0.869288 0.997657
O O8 0.504395 0.899450 0.004221
O O9 0.311518 0.729380 0.565231
O O10 0.029343 0.691503 0.597117
O O11 0.094807 0.759624 0.478651
O O12 0.462950 0.296797 0.871113
O O13 0.306294 0.411959 0.895460
O O14 0.163646 0.302759 0.850429
O O15 0.000000 0.500000 0.090749
O O16 0.739064 0.539822 0.023004
O O17 0.500000 0.000000 0.447769
#
# Coordination Sequence:
#
# PCOD8185063 Si02
#       8
#     8   8   8   8   8   8   8   8
#     4  11  23  42  61  92 132 174 206 256 320 390
#     4  11  20  39  65  95 125 162 210 269 324 368
#     4  11  18  34  63 101 123 156 214 269 322 356
#     4  12  26  41  64  94 136 172 216 257 324 387
#     4  10  21  34  63  95 128 161 207 265 317 374
#     4  12  22  37  65  98 128 171 210 272 315 381
#     4  10  22  42  66  87 121 170 213 260 320 378
#     4  11  26  41  66  97 125 164 218 275 314 378
#
# _framework density 19.867986999999999
#
# number of rings (size 3 to 8) (size 9 to 14) (size 15 to 20)
#    0.000    1.000    5.000    2.250    3.500    0.500 
#    0.000    0.000    2.750    0.000    0.000    0.000 
#    0.000    0.000    0.000    0.000    0.000    0.000 
#
# Total GULP energy -396685.632603 kJ/mol
# GULP energy per Si atom -12396.426019 kJ/mol
# Density = 1.982277 g / cm^3
# Si number density = 19.867987 Si / 1000 Ang^3
#
#
#
# Elastic Constant Matrix: (Units=GPa)
#
#
# Indices 1 2 3 4 5 6 
#
# 1 93.2307 34.7752 32.0216 0.0000 0.0000 0.0000
# 2 34.7752 105.4963 36.0602 0.0000 0.0000 0.0000
# 3 32.0216 36.0602 89.6357 0.0000 0.0000 0.0000
# 4 0.0000 0.0000 0.0000 10.5392 0.0000 0.0000
# 5 0.0000 0.0000 0.0000 0.0000 17.9054 0.0000
# 6 0.0000 0.0000 0.0000 0.0000 0.0000 35.6034
#
#
#
# Elastic Compliance Matrix: (Units=1/GPa)
#
#
# Indices 1 2 3 4 5 6 
#
# 1 0.013068 -0.003144 -0.003403 0.000000 0.000000 0.000000
# 2 -0.003144 0.011747 -0.003602 0.000000 0.000000 0.000000
# 3 -0.003403 -0.003602 0.013821 0.000000 0.000000 0.000000
# 4 0.000000 0.000000 0.000000 0.094884 0.000000 0.000000
# 5 0.000000 0.000000 0.000000 0.000000 0.055849 0.000000
# 6 0.000000 0.000000 0.000000 0.000000 0.000000 0.028087
#
#
# Mechanical properties :
#
#
# Convention : Reuss Voigt Hill
#
# Bulk Modulus (GPa) = 54.53834 54.89742 54.71788
# Shear Modulus (GPa) = 20.50281 25.17663 22.83972
#
# Velocity S-wave (km/s) = 3.21589 3.56363 3.39421
# Velocity P-wave (km/s) = 6.42644 6.68010 6.55450
#
# Compressibility (1/GPa) = 0.01833573
#
# Stress axis : x y z
#
# Youngs Moduli (GPa) = 76.52351 85.12931 72.35158
#
# Poissons Ratio (x) = 0.26767 0.24625
# Poissons Ratio (y) = 0.24061 0.26064
# Poissons Ratio (z) = 0.26045 0.30668
#
# Static dielectric constant tensor:
#      x y z
#    x 3.847840 0.000000 0.000000 
#    y 0.000000 3.786260 0.000000 
#    z 0.000000 0.000000 3.315910 
# 
# 
# High freq. dielectric constant tensor:
#      x y z
#    x 1.794270 0.000000 0.000000 
#    y 0.000000 1.774430 0.000000 
#    z 0.000000 0.000000 1.744640 
# 
# From -- ./inp_files/9843.got.cif
#   From: 2010.03.12/outbox.cif.g09.slc.cpg/sg41_5_cif.got.tgz:9843.got - 2010.04.14 01:55:53.
