data_PCOD8185065
_publ_section_title
;
Structure prediction by ZEFSAII (Michael W. Deem and Ramdas Pophale) SiO2 
 PCOD8185065
Probable space group: A B A 2
;
_chemical_formula_sum "Si O2"
_cell_formula_units_Z 40
_cell_length_a 8.532854
_cell_length_b 16.745364
_cell_length_c 14.300687
_cell_angle_alpha 90.000000
_cell_angle_beta 90.000000
_cell_angle_gamma 90.000000
_cell_volume 2043.364333
_symmetry_space_group_name_H-M "A B A 2"
_symmetry_group_IT_number 41
_symmetry_cell_setting 'orthorhombic'
loop_
_space_group_symop_operation_xyz
x,y,z
-x,-y,z
1/2-x,y,1/2+z
1/2+x,-y,1/2+z
x,1/2+y,1/2+z
-x,1/2-y,1/2+z
1/2-x,1/2+y,z
1/2+x,1/2-y,z
loop_
_atom_site_type_symbol
_atom_site_label
_atom_site_fract_x
_atom_site_fract_y
_atom_site_fract_z
Si Si1 0.552942 0.914268 0.265090
Si Si2 0.682057 0.651499 0.893021
Si Si3 0.172146 0.018609 0.953568
Si Si4 0.923331 0.748760 0.989244
Si Si5 0.674651 0.354389 0.578782
O O1 0.395837 0.862145 0.290577
O O2 0.654515 0.927731 0.359476
O O3 0.657846 0.868990 0.189364
O O4 0.500000 0.000000 0.224285
O O5 0.749369 0.566990 0.930279
O O6 0.824668 0.715068 0.898950
O O7 0.541338 0.682581 0.958774
O O8 0.279685 0.063392 0.027805
O O9 0.000000 0.000000 0.995400
O O10 0.806089 0.786991 0.064951
O O11 0.009028 0.674642 0.038003
#
# Coordination Sequence:
#
# PCOD8185065 Si02
#       5
#     8   8   8   8   8
#     4   9  20  37  60  87 116 158 207 247 295 349
#     4   9  19  38  58  82 120 158 188 249 299 348
#     4   9  18  39  62  79 120 162 191 250 296 348
#     4  10  21  35  59  90 118 158 195 240 317 353
#     4  11  21  37  61  89 119 161 205 242 303 365
#
# _framework density 19.575559999999999
#
# number of rings (size 3 to 8) (size 9 to 14) (size 15 to 20)
#    0.000    2.800    4.000    0.000    2.800    1.600 
#    0.000    0.000    8.800    0.000    0.000    0.000 
#    0.000    0.000    0.000    0.000    0.000    0.000 
#
# Total GULP energy -247828.028969 kJ/mol
# GULP energy per Si atom -12391.401448 kJ/mol
# Density = 1.953100 g / cm^3
# Si number density = 19.575560 Si / 1000 Ang^3
#
#
#
# Elastic Constant Matrix: (Units=GPa)
#
#
# Indices 1 2 3 4 5 6 
#
# 1 79.4223 39.2037 48.4550 0.0000 0.0000 0.0000
# 2 39.2037 95.4350 49.2953 0.0000 0.0000 0.0000
# 3 48.4550 49.2953 93.1864 0.0000 0.0000 0.0000
# 4 0.0000 0.0000 0.0000 26.3513 0.0000 0.0000
# 5 0.0000 0.0000 0.0000 0.0000 20.6269 0.0000
# 6 0.0000 0.0000 0.0000 0.0000 0.0000 29.9758
#
#
#
# Elastic Compliance Matrix: (Units=1/GPa)
#
#
# Indices 1 2 3 4 5 6 
#
# 1 0.019391 -0.003794 -0.008076 0.000000 0.000000 0.000000
# 2 -0.003794 0.015160 -0.006047 0.000000 0.000000 0.000000
# 3 -0.008076 -0.006047 0.018129 0.000000 0.000000 0.000000
# 4 0.000000 0.000000 0.000000 0.037949 0.000000 0.000000
# 5 0.000000 0.000000 0.000000 0.000000 0.048480 0.000000
# 6 0.000000 0.000000 0.000000 0.000000 0.000000 0.033360
#
#
# Mechanical properties :
#
#
# Convention : Reuss Voigt Hill
#
# Bulk Modulus (GPa) = 59.35862 60.21689 59.78775
# Shear Modulus (GPa) = 23.37337 24.13010 23.75173
#
# Velocity S-wave (km/s) = 3.45919 3.51474 3.48708
# Velocity P-wave (km/s) = 6.80759 6.87744 6.84261
#
# Compressibility (1/GPa) = 0.01684675
#
# Stress axis : x y z
#
# Youngs Moduli (GPa) = 51.57127 65.96157 55.15979
#
# Poissons Ratio (x) = 0.25027 0.44545
# Poissons Ratio (y) = 0.19567 0.33355
# Poissons Ratio (z) = 0.41647 0.39886
#
# Static dielectric constant tensor:
#      x y z
#    x 3.496600 0.000000 0.000000 
#    y 0.000000 3.795080 0.000000 
#    z 0.000000 0.000000 3.198340 
# 
# 
# High freq. dielectric constant tensor:
#      x y z
#    x 1.749450 0.000000 0.000000 
#    y 0.000000 1.783460 0.000000 
#    z 0.000000 0.000000 1.724370 
# 
# From -- ./inp_files/7232.got.cif
#   From: 2010.03.12/outbox.cif.g09.slc.cpg/sg41_4_cif.got.tgz:7232.got - 2010.04.14 01:55:53.
