data_PCOD8185701
_publ_section_title
;
Structure prediction by ZEFSAII (Michael W. Deem and Ramdas Pophale) SiO2 
 PCOD8185701
Probable space group: A B A 2
;
_chemical_formula_sum "Si O2"
_cell_formula_units_Z 44
_cell_length_a 13.356620
_cell_length_b 16.867580
_cell_length_c 8.704569
_cell_angle_alpha 90.000000
_cell_angle_beta 90.000000
_cell_angle_gamma 90.000000
_cell_volume 1961.085918
_symmetry_space_group_name_H-M "A B A 2"
_symmetry_group_IT_number 41
_symmetry_cell_setting 'orthorhombic'
loop_
_space_group_symop_operation_xyz
x,y,z
-x,-y,z
1/2-x,y,1/2+z
1/2+x,-y,1/2+z
x,1/2+y,1/2+z
-x,1/2-y,1/2+z
1/2-x,1/2+y,z
1/2+x,1/2-y,z
loop_
_atom_site_type_symbol
_atom_site_label
_atom_site_fract_x
_atom_site_fract_y
_atom_site_fract_z
Si Si1 0.684727 0.652270 0.112890
Si Si2 0.814494 0.999747 0.569454
Si Si3 0.701009 0.754070 0.394652
Si Si4 0.000000 0.000000 0.768002
Si Si5 0.817379 0.400452 0.769998
Si Si6 0.535986 0.865745 0.505687
O O1 0.728299 0.565867 0.077030
O O2 0.679897 0.675748 0.291588
O O3 0.577838 0.658377 0.031661
O O4 0.755730 0.721053 0.051641
O O5 0.836881 0.969296 0.396851
O O6 0.773636 0.923653 0.659053
O O7 0.913327 0.032707 0.654646
O O8 0.784290 0.816195 0.337039
O O9 0.594188 0.791875 0.433313
O O10 0.045404 0.066900 0.877056
O O11 0.917834 0.393771 0.668126
#
# Coordination Sequence:
#
# PCOD8185701 Si02
#       6
#     8   8   8   4   8   8
#     4  12  28  45  73 109 148 186 249 310 366 441
#     4  12  25  47  74 106 146 193 250 310 365 442
#     4  12  25  48  70 106 145 194 237 303 373 444
#     4  12  26  46  74 112 144 196 252 310 366 436
#     4  12  23  48  74 100 142 199 247 295 376 442
#     4  12  26  46  76 107 152 195 248 306 380 440
#
# _framework density 22.436551000000001
#
# number of rings (size 3 to 8) (size 9 to 14) (size 15 to 20)
#    0.000    0.000    5.455    4.364    2.545    5.091 
#    0.000    0.000    0.000    0.000    0.000    0.000 
#    0.000    0.000    0.000    0.000    0.000    0.000 
#
# Total GULP energy -272846.528061 kJ/mol
# GULP energy per Si atom -12402.114912 kJ/mol
# Density = 2.238548 g / cm^3
# Si number density = 22.436551 Si / 1000 Ang^3
#
#
#
# Elastic Constant Matrix: (Units=GPa)
#
#
# Indices 1 2 3 4 5 6 
#
# 1 97.2075 12.2629 21.8735 0.0000 0.0000 0.0000
# 2 12.2629 75.4650 28.1125 0.0000 0.0000 0.0000
# 3 21.8735 28.1125 113.1231 0.0000 0.0000 0.0000
# 4 0.0000 0.0000 0.0000 38.9046 0.0000 0.0000
# 5 0.0000 0.0000 0.0000 0.0000 48.0147 0.0000
# 6 0.0000 0.0000 0.0000 0.0000 0.0000 41.0104
#
#
#
# Elastic Compliance Matrix: (Units=1/GPa)
#
#
# Indices 1 2 3 4 5 6 
#
# 1 0.010835 -0.001080 -0.001827 0.000000 0.000000 0.000000
# 2 -0.001080 0.014711 -0.003447 0.000000 0.000000 0.000000
# 3 -0.001827 -0.003447 0.010050 0.000000 0.000000 0.000000
# 4 0.000000 0.000000 0.000000 0.025704 0.000000 0.000000
# 5 0.000000 0.000000 0.000000 0.000000 0.020827 0.000000
# 6 0.000000 0.000000 0.000000 0.000000 0.000000 0.024384
#
#
# Mechanical properties :
#
#
# Convention : Reuss Voigt Hill
#
# Bulk Modulus (GPa) = 43.69155 45.58818 44.63986
# Shear Modulus (GPa) = 39.41774 40.48907 39.95341
#
# Velocity S-wave (km/s) = 4.19603 4.25267 4.22445
# Velocity P-wave (km/s) = 6.55677 6.66907 6.61316
#
# Compressibility (1/GPa) = 0.02288772
#
# Stress axis : x y z
#
# Youngs Moduli (GPa) = 92.29744 67.97738 99.50530
#
# Poissons Ratio (x) = 0.07343 0.18175
# Poissons Ratio (y) = 0.09970 0.34299
# Poissons Ratio (z) = 0.16858 0.23431
#
# Static dielectric constant tensor:
#      x y z
#    x 3.961850 0.000000 0.000000 
#    y 0.000000 3.941710 0.000000 
#    z 0.000000 0.000000 4.324940 
# 
# 
# High freq. dielectric constant tensor:
#      x y z
#    x 1.884380 0.000000 0.000000 
#    y 0.000000 1.885360 0.000000 
#    z 0.000000 0.000000 1.903860 
# 
# From -- ./inp_files/2482.got.cif
#   From: 2010.03.12/outbox.cif.g09.slc.cpg/sg41_2_cif.got.tgz:2482.got - 2010.04.14 01:55:53.
