data_PCOD8185109
_publ_section_title
;
Structure prediction by ZEFSAII (Michael W. Deem and Ramdas Pophale) SiO2 
 PCOD8185109
Probable space group: A B A 2
;
_chemical_formula_sum "Si O2"
_cell_formula_units_Z 40
_cell_length_a 8.912536
_cell_length_b 13.195262
_cell_length_c 14.894208
_cell_angle_alpha 90.000000
_cell_angle_beta 90.000000
_cell_angle_gamma 90.000000
_cell_volume 1751.607231
_symmetry_space_group_name_H-M "A B A 2"
_symmetry_group_IT_number 41
_symmetry_cell_setting 'orthorhombic'
loop_
_space_group_symop_operation_xyz
x,y,z
-x,-y,z
1/2-x,y,1/2+z
1/2+x,-y,1/2+z
x,1/2+y,1/2+z
-x,1/2-y,1/2+z
1/2-x,1/2+y,z
1/2+x,1/2-y,z
loop_
_atom_site_type_symbol
_atom_site_label
_atom_site_fract_x
_atom_site_fract_y
_atom_site_fract_z
Si Si1 0.000000 0.000000 0.668751
Si Si2 0.189350 0.835566 0.761409
Si Si3 0.512563 0.349726 0.519428
Si Si4 0.487437 0.150274 0.822380
Si Si5 0.500000 0.000000 0.673058
Si Si6 0.189350 0.835566 0.080399
O O1 0.118605 0.944144 0.732929
O O2 0.921857 0.919178 0.599918
O O3 0.331442 0.853843 0.825206
O O4 0.250000 0.781038 0.670904
O O5 0.065853 0.765866 0.808534
O O6 0.568116 0.386948 0.420904
O O7 0.565854 0.234134 0.533275
O O8 0.331442 0.353842 0.516602
O O9 0.421857 0.080822 0.741891
O O10 0.618605 0.055856 0.608879
#
# Coordination Sequence:
#
# PCOD8185109 Si02
#       6
#     4   8   8   8   4   8
#     4  10  21  38  61  86 120 162 200 236 291 364
#     4  10  22  40  64  90 121 161 202 244 300 365
#     4  11  23  41  63  93 123 155 200 256 303 349
#     4  11  23  41  63  93 123 155 200 256 303 349
#     4  10  21  38  61  86 120 162 200 236 291 364
#     4  10  22  40  64  90 121 161 202 244 300 365
#
# _framework density 22.836169000000002
#
# number of rings (size 3 to 8) (size 9 to 14) (size 15 to 20)
#    0.000    1.600    0.000    6.600    0.000   14.400 
#    0.000    8.000    0.000    0.000    0.000    2.800 
#    0.000    0.000    0.000    0.000    0.000    0.000 
#
# Total GULP energy -247796.463736 kJ/mol
# GULP energy per Si atom -12389.823187 kJ/mol
# Density = 2.278419 g / cm^3
# Si number density = 22.836169 Si / 1000 Ang^3
#
#
#
# Elastic Constant Matrix: (Units=GPa)
#
#
# Indices 1 2 3 4 5 6 
#
# 1 102.5899 65.4034 30.4906 0.0000 0.0000 0.0000
# 2 65.4034 136.9885 35.9765 0.0000 0.0000 0.0000
# 3 30.4906 35.9765 86.9569 0.0000 0.0000 0.0000
# 4 0.0000 0.0000 0.0000 14.0894 0.0000 0.0000
# 5 0.0000 0.0000 0.0000 0.0000 19.2282 0.0000
# 6 0.0000 0.0000 0.0000 0.0000 0.0000 40.9927
#
#
#
# Elastic Compliance Matrix: (Units=1/GPa)
#
#
# Indices 1 2 3 4 5 6 
#
# 1 0.014477 -0.006259 -0.002487 0.000000 0.000000 0.000000
# 2 -0.006259 0.010895 -0.002313 0.000000 0.000000 0.000000
# 3 -0.002487 -0.002313 0.013329 0.000000 0.000000 0.000000
# 4 0.000000 0.000000 0.000000 0.070975 0.000000 0.000000
# 5 0.000000 0.000000 0.000000 0.000000 0.052007 0.000000
# 6 0.000000 0.000000 0.000000 0.000000 0.000000 0.024395
#
#
# Mechanical properties :
#
#
# Convention : Reuss Voigt Hill
#
# Bulk Modulus (GPa) = 60.29944 65.58626 62.94285
# Shear Modulus (GPa) = 23.39477 27.83972 25.61724
#
# Velocity S-wave (km/s) = 3.20419 3.49536 3.35294
# Velocity P-wave (km/s) = 6.33654 6.71362 6.52780
#
# Compressibility (1/GPa) = 0.01658390
#
# Stress axis : x y z
#
# Youngs Moduli (GPa) = 69.07691 91.78115 75.02469
#
# Poissons Ratio (x) = 0.57442 0.18657
# Poissons Ratio (y) = 0.43232 0.17355
# Poissons Ratio (z) = 0.17178 0.21231
#
# Static dielectric constant tensor:
#      x y z
#    x 4.055190 0.000000 0.000000 
#    y 0.000000 4.096170 0.000000 
#    z 0.000000 0.000000 4.030950 
# 
# 
# High freq. dielectric constant tensor:
#      x y z
#    x 1.882500 0.000000 0.000000 
#    y 0.000000 1.895290 0.000000 
#    z 0.000000 0.000000 1.900970 
# 
# From -- ./inp_files/7755.got.cif
#   From: 2010.03.12/outbox.cif.g09.slc.cpg/sg41_4_cif.got.tgz:7755.got - 2010.04.14 01:55:53.
