data_PCOD8185307
_publ_section_title
;
Structure prediction by ZEFSAII (Michael W. Deem and Ramdas Pophale) SiO2 
 PCOD8185307
Probable space group: A B A 2
;
_chemical_formula_sum "Si O2"
_cell_formula_units_Z 48
_cell_length_a 8.943146
_cell_length_b 14.520280
_cell_length_c 17.070368
_cell_angle_alpha 90.000000
_cell_angle_beta 90.000000
_cell_angle_gamma 90.000000
_cell_volume 2216.706504
_symmetry_space_group_name_H-M "A B A 2"
_symmetry_group_IT_number 41
_symmetry_cell_setting 'orthorhombic'
loop_
_space_group_symop_operation_xyz
x,y,z
-x,-y,z
1/2-x,y,1/2+z
1/2+x,-y,1/2+z
x,1/2+y,1/2+z
-x,1/2-y,1/2+z
1/2-x,1/2+y,z
1/2+x,1/2-y,z
loop_
_atom_site_type_symbol
_atom_site_label
_atom_site_fract_x
_atom_site_fract_y
_atom_site_fract_z
Si Si1 0.569931 0.237186 0.580270
Si Si2 0.823896 0.174974 0.685475
Si Si3 0.415939 0.408631 0.405508
Si Si4 0.334468 0.986446 0.296309
Si Si5 0.673924 0.774788 0.473572
Si Si6 0.688554 0.331589 0.314697
O O1 0.667494 0.174446 0.638235
O O2 0.463638 0.303676 0.630221
O O3 0.465450 0.177726 0.519957
O O4 0.679896 0.296595 0.525059
O O5 0.845318 0.073245 0.717811
O O6 0.818441 0.245726 0.757559
O O7 0.500000 0.500000 0.439746
O O8 0.264943 0.438691 0.362491
O O9 0.365703 0.335705 0.471943
O O10 0.522544 0.355665 0.343832
O O11 0.500000 0.000000 0.331598
O O12 0.260413 0.082536 0.269140
O O13 0.698173 0.812567 0.386886
#
# Coordination Sequence:
#
# PCOD8185307 Si02
#       6
#     8   8   8   8   8   8
#     4  10  24  38  67  93 139 188 213 270 362 414
#     4  11  22  44  65  97 135 181 228 284 339 421
#     4  10  22  40  63 102 137 170 225 297 341 395
#     4  11  24  38  69 105 129 171 235 287 337 399
#     4  11  21  42  68 100 131 185 229 283 349 413
#     4  11  23  40  76  94 132 176 237 290 342 396
#
# _framework density 21.653746999999999
#
# number of rings (size 3 to 8) (size 9 to 14) (size 15 to 20)
#    0.000    1.333    3.333    2.000    4.667    0.000 
#    0.000    6.667    7.333    0.000    0.000    0.000 
#    0.000    0.000    0.000    0.000    0.000    0.000 
#
# Total GULP energy -297505.483618 kJ/mol
# GULP energy per Si atom -12396.061817 kJ/mol
# Density = 2.160446 g / cm^3
# Si number density = 21.653747 Si / 1000 Ang^3
#
#
#
# Elastic Constant Matrix: (Units=GPa)
#
#
# Indices 1 2 3 4 5 6 
#
# 1 169.9545 39.9146 57.7654 0.0000 0.0000 0.0000
# 2 39.9146 101.2856 48.9846 0.0000 0.0000 0.0000
# 3 57.7654 48.9846 113.4930 0.0000 0.0000 0.0000
# 4 0.0000 0.0000 0.0000 25.8121 0.0000 0.0000
# 5 0.0000 0.0000 0.0000 0.0000 31.6900 0.0000
# 6 0.0000 0.0000 0.0000 0.0000 0.0000 24.8530
#
#
#
# Elastic Compliance Matrix: (Units=1/GPa)
#
#
# Indices 1 2 3 4 5 6 
#
# 1 0.007259 -0.001357 -0.003109 0.000000 0.000000 0.000000
# 2 -0.001357 0.012731 -0.004804 0.000000 0.000000 0.000000
# 3 -0.003109 -0.004804 0.012467 0.000000 0.000000 0.000000
# 4 0.000000 0.000000 0.000000 0.038742 0.000000 0.000000
# 5 0.000000 0.000000 0.000000 0.000000 0.031556 0.000000
# 6 0.000000 0.000000 0.000000 0.000000 0.000000 0.040237
#
#
# Mechanical properties :
#
#
# Convention : Reuss Voigt Hill
#
# Bulk Modulus (GPa) = 71.85483 75.34025 73.59754
# Shear Modulus (GPa) = 30.08938 32.34226 31.21582
#
# Velocity S-wave (km/s) = 3.73174 3.86892 3.80095
# Velocity P-wave (km/s) = 7.19885 7.40451 7.30240
#
# Compressibility (1/GPa) = 0.01391695
#
# Stress axis : x y z
#
# Youngs Moduli (GPa) = 137.75228 78.54637 80.21095
#
# Poissons Ratio (x) = 0.10660 0.24939
# Poissons Ratio (y) = 0.18695 0.38535
# Poissons Ratio (z) = 0.42829 0.37735
#
# Static dielectric constant tensor:
#      x y z
#    x 4.330690 0.000000 0.000000 
#    y 0.000000 3.857480 0.000000 
#    z 0.000000 0.000000 3.921050 
# 
# 
# High freq. dielectric constant tensor:
#      x y z
#    x 1.881400 0.000000 0.000000 
#    y 0.000000 1.821280 0.000000 
#    z 0.000000 0.000000 1.845280 
# 
# From -- ./inp_files/9647.got.cif
#   From: 2010.03.12/outbox.cif.g09.slc.cpg/sg41_5_cif.got.tgz:9647.got - 2010.04.14 01:55:53.
