data_PCOD8185976
_publ_section_title
;
Structure prediction by ZEFSAII (Michael W. Deem and Ramdas Pophale) SiO2 
 PCOD8185976
Probable space group: F M M 2
;
_chemical_formula_sum "Si O2"
_cell_formula_units_Z 96
_cell_length_a 8.851799
_cell_length_b 26.954681
_cell_length_c 25.985157
_cell_angle_alpha 90.000000
_cell_angle_beta 90.000000
_cell_angle_gamma 90.000000
_cell_volume 6199.991375
_symmetry_space_group_name_H-M "F M M 2"
_symmetry_group_IT_number 42
_symmetry_cell_setting 'orthorhombic'
loop_
_space_group_symop_operation_xyz
x,y,z
-x,-y,z
-x,y,z
x,-y,z
x,1/2+y,1/2+z
-x,1/2-y,1/2+z
-x,1/2+y,1/2+z
x,1/2-y,1/2+z
1/2+x,y,1/2+z
1/2-x,-y,1/2+z
1/2-x,y,1/2+z
1/2+x,-y,1/2+z
1/2+x,1/2+y,z
1/2-x,1/2-y,z
1/2-x,1/2+y,z
1/2+x,1/2-y,z
loop_
_atom_site_type_symbol
_atom_site_label
_atom_site_fract_x
_atom_site_fract_y
_atom_site_fract_z
Si Si1 0.829223 0.895795 0.701350
Si Si2 0.322865 0.942807 0.604777
Si Si3 0.670578 0.698661 0.758491
Si Si4 0.170069 0.558936 0.000845
Si Si5 0.178479 0.389043 0.802720
Si Si6 0.673433 0.441337 0.897528
O O1 0.732479 0.910447 0.652320
O O2 0.829035 0.835581 0.706814
O O3 0.752529 0.917859 0.753560
O O4 0.000000 0.916444 0.696438
O O5 0.500000 0.936296 0.597710
O O6 0.244066 0.921554 0.553533
O O7 0.278838 0.000000 0.614605
O O8 0.500000 0.708427 0.777488
O O9 0.750000 0.750000 0.745399
O O10 0.760353 0.668055 0.803038
O O11 0.171012 0.500000 0.001357
O O12 0.000000 0.579686 0.996462
O O13 0.267715 0.578103 0.952637
O O14 0.225027 0.416052 0.854540
O O15 0.000000 0.389567 0.796931
O O16 0.500000 0.425363 0.890887
O O17 0.693671 0.500000 0.892812
#
# Coordination Sequence:
#
# PCOD8185976 Si02
#       6
#    16  16  16  16  16  16
#     4   9  19  32  46  67  93 120 154 189 228 277
#     4  10  19  30  45  66  93 125 159 193 228 268
#     4   9  18  32  50  70  92 118 149 187 231 277
#     4   9  17  29  45  64  87 120 160 195 228 266
#     4  10  19  31  47  68  94 121 154 190 229 278
#     4  10  19  31  46  65  93 126 159 195 230 268
#
# _framework density 15.483893
#
# number of rings (size 3 to 8) (size 9 to 14) (size 15 to 20)
#    1.000    1.500    0.000    3.500    0.000    4.667 
#    0.000    0.000    0.000    0.000    0.000    1.167 
#    0.000    2.667    0.000    0.000    0.000    0.000 
#
# Total GULP energy -297447.474465 kJ/mol
# GULP energy per Si atom -12393.644769 kJ/mol
# Density = 1.544865 g / cm^3
# Si number density = 15.483893 Si / 1000 Ang^3
#
#
#
# Elastic Constant Matrix: (Units=GPa)
#
#
# Indices 1 2 3 4 5 6 
#
# 1 103.7444 26.2513 32.3640 0.0000 0.0000 0.0000
# 2 26.2513 37.3398 26.0265 0.0000 0.0000 0.0000
# 3 32.3640 26.0265 102.8672 0.0000 0.0000 0.0000
# 4 0.0000 0.0000 0.0000 -3.3017 0.0000 0.0000
# 5 0.0000 0.0000 0.0000 0.0000 34.0500 0.0000
# 6 0.0000 0.0000 0.0000 0.0000 0.0000 22.5938
#
#
#
# Elastic Compliance Matrix: (Units=1/GPa)
#
#
# Indices 1 2 3 4 5 6 
#
# 1 0.012055 -0.007080 -0.002001 0.000000 0.000000 0.000000
# 2 -0.007080 0.036673 -0.007051 0.000000 0.000000 0.000000
# 3 -0.002001 -0.007051 0.012135 0.000000 0.000000 0.000000
# 4 0.000000 0.000000 0.000000 -0.302878 0.000000 0.000000
# 5 0.000000 0.000000 0.000000 0.000000 0.029369 0.000000
# 6 0.000000 0.000000 0.000000 0.000000 0.000000 0.044260
#
#
# Mechanical properties :
#
#
# Convention : Reuss Voigt Hill
#
# Bulk Modulus (GPa) = 34.96751 45.91501 40.44126
# Shear Modulus (GPa) = -39.49816 21.28907 -9.10454
#
# Velocity S-wave (km/s) = -5.05614 3.71201 -2.42750
# Velocity P-wave (km/s) = 3.38436 6.93468 4.27995
#
# Compressibility (1/GPa) = 0.02859797
#
# Stress axis : x y z
#
# Youngs Moduli (GPa) = 82.95346 27.26767 82.40628
#
# Poissons Ratio (x) = 0.19306 0.16493
# Poissons Ratio (y) = 0.58732 0.58107
# Poissons Ratio (z) = 0.16602 0.19227
#
# Static dielectric constant tensor:
#      x y z
#    x 3.129680 0.000000 0.000000 
#    y 0.000000 2.592380 0.000000 
#    z 0.000000 0.000000 2.914150 
# 
# 
# High freq. dielectric constant tensor:
#      x y z
#    x 1.618950 0.000000 0.000000 
#    y 0.000000 1.546270 0.000000 
#    z 0.000000 0.000000 1.588030 
# 
# From -- ./inp_files/31439.got.cif
#   From: 2010.03.12/outbox.cif.g09.slc.cpg/sg42_16_cif.got.tgz:31439.got - 2010.04.14 02:04:31.
