data_PCOD8185263
_publ_section_title
;
Structure prediction by ZEFSAII (Michael W. Deem and Ramdas Pophale) SiO2 
 PCOD8185263
Probable space group: A B A 2
;
_chemical_formula_sum "Si O2"
_cell_formula_units_Z 52
_cell_length_a 21.098899
_cell_length_b 22.105663
_cell_length_c 5.584827
_cell_angle_alpha 90.000000
_cell_angle_beta 90.000000
_cell_angle_gamma 90.000000
_cell_volume 2604.792080
_symmetry_space_group_name_H-M "A B A 2"
_symmetry_group_IT_number 41
_symmetry_cell_setting 'orthorhombic'
loop_
_space_group_symop_operation_xyz
x,y,z
-x,-y,z
1/2-x,y,1/2+z
1/2+x,-y,1/2+z
x,1/2+y,1/2+z
-x,1/2-y,1/2+z
1/2-x,1/2+y,z
1/2+x,1/2-y,z
loop_
_atom_site_type_symbol
_atom_site_label
_atom_site_fract_x
_atom_site_fract_y
_atom_site_fract_z
Si Si1 0.540987 0.190622 0.557880
Si Si2 0.996219 0.394123 0.940397
Si Si3 0.580850 0.811040 0.247719
Si Si4 0.287375 0.633858 0.828099
Si Si5 0.500000 0.000000 0.627611
Si Si6 0.285234 0.494810 0.825512
Si Si7 0.589888 0.574572 0.814726
O O1 0.528375 0.163982 0.819636
O O2 0.471077 0.202542 0.451059
O O3 0.581238 0.252414 0.574205
O O4 0.582717 0.143692 0.404536
O O5 0.966819 0.443915 0.764441
O O6 0.053039 0.430457 0.066166
O O7 0.939952 0.372174 0.111328
O O8 0.650793 0.823254 0.349272
O O9 0.252059 0.648005 0.573180
O O10 0.309083 0.564035 0.820400
O O11 0.559130 0.025473 0.486449
O O12 0.241572 0.482981 0.592503
O O13 0.338285 0.444292 0.782993
#
# Coordination Sequence:
#
# PCOD8185263 Si02
#       7
#     8   8   8   8   4   8   8
#     4  10  22  39  62 100 120 172 211 264 338 385
#     4  10  22  36  61  94 127 161 206 265 334 388
#     4  11  22  40  67  89 135 167 216 273 326 385
#     4  10  25  43  64  95 126 175 224 266 322 395
#     4  10  22  34  60  96 126 156 202 272 330 390
#     4  10  24  43  66  91 129 177 216 267 331 396
#     4  10  23  39  59  95 127 160 218 264 323 401
#
# _framework density 19.963204999999999
#
# number of rings (size 3 to 8) (size 9 to 14) (size 15 to 20)
#    0.000    1.846    1.538    0.462   15.077    1.231 
#    0.000    1.538    0.000    0.000    0.000    0.000 
#    0.000    0.000    0.000    0.000    0.000    0.000 
#
# Total GULP energy -322203.620471 kJ/mol
# GULP energy per Si atom -12392.446941 kJ/mol
# Density = 1.991777 g / cm^3
# Si number density = 19.963205 Si / 1000 Ang^3
#
#
#
# Elastic Constant Matrix: (Units=GPa)
#
#
# Indices 1 2 3 4 5 6 
#
# 1 107.2411 62.0453 32.5446 0.0000 0.0000 0.0000
# 2 62.0453 101.1219 30.3883 0.0000 0.0000 0.0000
# 3 32.5446 30.3883 104.3356 0.0000 0.0000 0.0000
# 4 0.0000 0.0000 0.0000 220.8200 0.0000 0.0000
# 5 0.0000 0.0000 0.0000 0.0000 95.3768 0.0000
# 6 0.0000 0.0000 0.0000 0.0000 0.0000 36.0604
#
#
#
# Elastic Compliance Matrix: (Units=1/GPa)
#
#
# Indices 1 2 3 4 5 6 
#
# 1 0.014894 -0.008485 -0.002174 0.000000 0.000000 0.000000
# 2 -0.008485 0.015671 -0.001918 0.000000 0.000000 0.000000
# 3 -0.002174 -0.001918 0.010821 0.000000 0.000000 0.000000
# 4 0.000000 0.000000 0.000000 0.004529 0.000000 0.000000
# 5 0.000000 0.000000 0.000000 0.000000 0.010485 0.000000
# 6 0.000000 0.000000 0.000000 0.000000 0.000000 0.027731
#
#
# Mechanical properties :
#
#
# Convention : Reuss Voigt Hill
#
# Bulk Modulus (GPa) = 61.60566 62.51721 62.06144
# Shear Modulus (GPa) = 43.59365 82.96614 63.27990
#
# Velocity S-wave (km/s) = 4.67808 6.45366 5.63623
# Velocity P-wave (km/s) = 7.75279 9.32294 8.57389
#
# Compressibility (1/GPa) = 0.01623227
#
# Stress axis : x y z
#
# Youngs Moduli (GPa) = 67.14281 63.81051 92.41072
#
# Poissons Ratio (x) = 0.54142 0.20094
# Poissons Ratio (y) = 0.56970 0.17722
# Poissons Ratio (z) = 0.14599 0.12237
#
# Static dielectric constant tensor:
#      x y z
#    x 3.234460 0.000000 0.000000 
#    y 0.000000 3.655800 0.000000 
#    z 0.000000 0.000000 3.922570 
# 
# 
# High freq. dielectric constant tensor:
#      x y z
#    x 1.747420 0.000000 0.000000 
#    y 0.000000 1.785460 0.000000 
#    z 0.000000 0.000000 1.795990 
# 
# From -- ./inp_files/723.got.cif
#   From: 2010.03.12/outbox.cif.g09.slc.cpg/sg41_1_cif.got.tgz:723.got - 2010.04.14 01:55:53.
