data_PCOD8185692
_publ_section_title
;
Structure prediction by ZEFSAII (Michael W. Deem and Ramdas Pophale) SiO2 
 PCOD8185692
Probable space group: A B A 2
;
_chemical_formula_sum "Si O2"
_cell_formula_units_Z 48
_cell_length_a 11.747337
_cell_length_b 8.164145
_cell_length_c 21.680697
_cell_angle_alpha 90.000000
_cell_angle_beta 90.000000
_cell_angle_gamma 90.000000
_cell_volume 2079.329797
_symmetry_space_group_name_H-M "A B A 2"
_symmetry_group_IT_number 41
_symmetry_cell_setting 'orthorhombic'
loop_
_space_group_symop_operation_xyz
x,y,z
-x,-y,z
1/2-x,y,1/2+z
1/2+x,-y,1/2+z
x,1/2+y,1/2+z
-x,1/2-y,1/2+z
1/2-x,1/2+y,z
1/2+x,1/2-y,z
loop_
_atom_site_type_symbol
_atom_site_label
_atom_site_fract_x
_atom_site_fract_y
_atom_site_fract_z
Si Si1 0.629508 0.980472 0.930150
Si Si2 0.500000 0.500000 0.045314
Si Si3 0.727015 0.438963 0.702805
Si Si4 0.191411 0.816459 0.111868
Si Si5 0.912518 0.353140 0.799537
Si Si6 0.193599 0.221809 0.995281
Si Si7 0.000000 0.500000 0.276056
O O1 0.677156 0.165001 0.935149
O O2 0.500000 0.000000 0.949506
O O3 0.650085 0.906448 0.862634
O O4 0.689873 0.873733 0.982522
O O5 0.431760 0.376007 0.089369
O O6 0.413596 0.600159 0.001976
O O7 0.695932 0.369851 0.634504
O O8 0.781274 0.607526 0.679475
O O9 0.818408 0.342272 0.745646
O O10 0.609509 0.459449 0.736984
O O11 0.285478 0.829032 0.057274
O O12 0.000000 0.500000 0.783043
O O13 0.970886 0.172782 0.811716
#
# Coordination Sequence:
#
# PCOD8185692 Si02
#       7
#     8   4   8   8   8   8   4
#     4  11  27  50  75 108 150 196 260 324 372 466
#     4  12  26  44  79 116 152 205 256 312 404 462
#     4  12  26  46  73 112 151 198 255 314 386 465
#     4  12  25  44  71 109 154 196 247 317 374 465
#     4  11  28  52  76 114 150 202 266 326 383 464
#     4  12  25  49  76 111 148 204 253 318 394 458
#     4  12  28  48  83 112 154 215 252 318 406 454
#
# _framework density 23.084361000000001
#
# number of rings (size 3 to 8) (size 9 to 14) (size 15 to 20)
#    0.000    0.333    5.000    2.000    8.167    1.333 
#    1.500    0.833    0.000    0.000    0.000    0.000 
#    0.000    0.000    0.000    0.000    0.000    0.000 
#
# Total GULP energy -297319.424544 kJ/mol
# GULP energy per Si atom -12388.309356 kJ/mol
# Density = 2.303182 g / cm^3
# Si number density = 23.084361 Si / 1000 Ang^3
#
#
#
# Elastic Constant Matrix: (Units=GPa)
#
#
# Indices 1 2 3 4 5 6 
#
# 1 126.6547 52.4407 52.9489 0.0000 0.0000 0.0000
# 2 52.4407 111.9891 61.2407 0.0000 0.0000 0.0000
# 3 52.9489 61.2407 123.5311 0.0000 0.0000 0.0000
# 4 0.0000 0.0000 0.0000 66.1262 0.0000 0.0000
# 5 0.0000 0.0000 0.0000 0.0000 38.3673 0.0000
# 6 0.0000 0.0000 0.0000 0.0000 0.0000 34.0477
#
#
#
# Elastic Compliance Matrix: (Units=1/GPa)
#
#
# Indices 1 2 3 4 5 6 
#
# 1 0.010465 -0.003358 -0.002821 0.000000 0.000000 0.000000
# 2 -0.003358 0.013328 -0.005168 0.000000 0.000000 0.000000
# 3 -0.002821 -0.005168 0.011866 0.000000 0.000000 0.000000
# 4 0.000000 0.000000 0.000000 0.015123 0.000000 0.000000
# 5 0.000000 0.000000 0.000000 0.000000 0.026064 0.000000
# 6 0.000000 0.000000 0.000000 0.000000 0.000000 0.029371
#
#
# Mechanical properties :
#
#
# Convention : Reuss Voigt Hill
#
# Bulk Modulus (GPa) = 77.12702 77.27059 77.19881
# Shear Modulus (GPa) = 37.52851 40.74457 39.13654
#
# Velocity S-wave (km/s) = 4.03639 4.20578 4.12195
# Velocity P-wave (km/s) = 7.43012 7.55848 7.49457
#
# Compressibility (1/GPa) = 0.01296562
#
# Stress axis : x y z
#
# Youngs Moduli (GPa) = 95.55566 75.03037 84.27173
#
# Poissons Ratio (x) = 0.25194 0.23773
# Poissons Ratio (y) = 0.32086 0.43552
# Poissons Ratio (z) = 0.26956 0.38776
#
# Static dielectric constant tensor:
#      x y z
#    x 4.221540 0.000000 0.000000 
#    y 0.000000 4.591660 0.000000 
#    z 0.000000 0.000000 3.931380 
# 
# 
# High freq. dielectric constant tensor:
#      x y z
#    x 1.913120 0.000000 0.000000 
#    y 0.000000 1.935040 0.000000 
#    z 0.000000 0.000000 1.907740 
# 
# From -- ./inp_files/12121.got.cif
#   From: 2010.03.12/outbox.cif.g09.slc.cpg/sg41_7_cif.got.tgz:12121.got - 2010.04.14 01:55:53.
