data_PCOD8185342
_publ_section_title
;
Structure prediction by ZEFSAII (Michael W. Deem and Ramdas Pophale) SiO2 
 PCOD8185342
Probable space group: A B A 2
;
_chemical_formula_sum "Si O2"
_cell_formula_units_Z 48
_cell_length_a 15.334161
_cell_length_b 10.698101
_cell_length_c 13.180925
_cell_angle_alpha 90.000000
_cell_angle_beta 90.000000
_cell_angle_gamma 90.000000
_cell_volume 2162.283336
_symmetry_space_group_name_H-M "A B A 2"
_symmetry_group_IT_number 41
_symmetry_cell_setting 'orthorhombic'
loop_
_space_group_symop_operation_xyz
x,y,z
-x,-y,z
1/2-x,y,1/2+z
1/2+x,-y,1/2+z
x,1/2+y,1/2+z
-x,1/2-y,1/2+z
1/2-x,1/2+y,z
1/2+x,1/2-y,z
loop_
_atom_site_type_symbol
_atom_site_label
_atom_site_fract_x
_atom_site_fract_y
_atom_site_fract_z
Si Si1 0.028927 0.775481 0.289460
Si Si2 0.843199 0.511291 0.074051
Si Si3 0.701348 0.328883 0.755034
Si Si4 0.174922 0.047138 0.968551
Si Si5 0.000000 0.000000 0.440089
Si Si6 0.127515 0.226638 0.150154
Si Si7 0.000000 0.500000 0.381256
O O1 0.960668 0.819869 0.204369
O O2 0.128015 0.780013 0.247453
O O3 0.014435 0.628534 0.318901
O O4 0.026368 0.876324 0.378452
O O5 0.754420 0.537953 0.009694
O O6 0.917460 0.449180 0.004353
O O7 0.821818 0.432739 0.172920
O O8 0.889191 0.636224 0.110186
O O9 0.707455 0.384878 0.867305
O O10 0.794821 0.268968 0.732166
O O11 0.086406 0.969757 0.947566
O O12 0.151252 0.145801 0.053977
#
# Coordination Sequence:
#
# PCOD8185342 Si02
#       7
#     8   8   8   8   4   8   4
#     4  11  24  42  66  93 127 166 208 262 316 375
#     4  11  23  40  64  92 126 168 213 259 314 377
#     4  10  23  41  61  89 125 166 211 259 311 372
#     4  10  23  40  61  92 125 163 211 261 312 370
#     4  12  26  42  66  96 128 164 210 266 316 374
#     4  11  23  39  64  93 125 165 210 260 315 375
#     4  10  22  42  66  88 124 170 208 256 316 374
#
# _framework density 22.198754000000001
#
# number of rings (size 3 to 8) (size 9 to 14) (size 15 to 20)
#    0.000    1.333    0.000    6.000    0.000   13.333 
#    0.000    0.000    0.000    0.000    0.000    0.000 
#    0.000    0.000    0.000    0.000    0.000    0.000 
#
# Total GULP energy -297508.400845 kJ/mol
# GULP energy per Si atom -12396.183369 kJ/mol
# Density = 2.214823 g / cm^3
# Si number density = 22.198754 Si / 1000 Ang^3
#
#
#
# Elastic Constant Matrix: (Units=GPa)
#
#
# Indices 1 2 3 4 5 6 
#
# 1 95.6691 -5.6496 46.3478 0.0000 0.0000 0.0000
# 2 -5.6496 53.6132 9.9371 0.0000 0.0000 0.0000
# 3 46.3478 9.9371 119.4605 0.0000 0.0000 0.0000
# 4 0.0000 0.0000 0.0000 17.9086 0.0000 0.0000
# 5 0.0000 0.0000 0.0000 0.0000 69.4816 0.0000
# 6 0.0000 0.0000 0.0000 0.0000 0.0000 29.2857
#
#
#
# Elastic Compliance Matrix: (Units=1/GPa)
#
#
# Indices 1 2 3 4 5 6 
#
# 1 0.013162 0.002370 -0.005304 0.000000 0.000000 0.000000
# 2 0.002370 0.019371 -0.002531 0.000000 0.000000 0.000000
# 3 -0.005304 -0.002531 0.010639 0.000000 0.000000 0.000000
# 4 0.000000 0.000000 0.000000 0.055839 0.000000 0.000000
# 5 0.000000 0.000000 0.000000 0.000000 0.014392 0.000000
# 6 0.000000 0.000000 0.000000 0.000000 0.000000 0.034146
#
#
# Mechanical properties :
#
#
# Convention : Reuss Voigt Hill
#
# Bulk Modulus (GPa) = 31.01434 41.11260 36.06347
# Shear Modulus (GPa) = 29.54615 37.87567 33.71091
#
# Velocity S-wave (km/s) = 3.65222 4.13511 3.90114
# Velocity P-wave (km/s) = 5.63795 6.43112 6.04755
#
# Compressibility (1/GPa) = 0.03224315
#
# Stress axis : x y z
#
# Youngs Moduli (GPa) = 75.97580 51.62368 93.99192
#
# Poissons Ratio (x) = -0.12235 0.49851
# Poissons Ratio (y) = -0.18006 0.23788
# Poissons Ratio (z) = 0.40295 0.13065
#
# Static dielectric constant tensor:
#      x y z
#    x 4.375150 0.000000 0.000000 
#    y 0.000000 3.673470 0.000000 
#    z 0.000000 0.000000 4.187580 
# 
# 
# High freq. dielectric constant tensor:
#      x y z
#    x 1.900760 0.000000 0.000000 
#    y 0.000000 1.850840 0.000000 
#    z 0.000000 0.000000 1.886890 
# 
# From -- ./inp_files/5949.got.cif
#   From: 2010.03.12/outbox.cif.g09.slc.cpg/sg41_3_cif.got.tgz:5949.got - 2010.04.14 01:55:53.
