data_PCOD8185672
_publ_section_title
;
Structure prediction by ZEFSAII (Michael W. Deem and Ramdas Pophale) SiO2 
 PCOD8185672
Probable space group: A B A 2
;
_chemical_formula_sum "Si O2"
_cell_formula_units_Z 60
_cell_length_a 11.194125
_cell_length_b 25.582954
_cell_length_c 9.353137
_cell_angle_alpha 90.000000
_cell_angle_beta 90.000000
_cell_angle_gamma 90.000000
_cell_volume 2678.540009
_symmetry_space_group_name_H-M "A B A 2"
_symmetry_group_IT_number 41
_symmetry_cell_setting 'orthorhombic'
loop_
_space_group_symop_operation_xyz
x,y,z
-x,-y,z
1/2-x,y,1/2+z
1/2+x,-y,1/2+z
x,1/2+y,1/2+z
-x,1/2-y,1/2+z
1/2-x,1/2+y,z
1/2+x,1/2-y,z
loop_
_atom_site_type_symbol
_atom_site_label
_atom_site_fract_x
_atom_site_fract_y
_atom_site_fract_z
Si Si1 0.019855 0.868930 0.627880
Si Si2 0.000000 0.500000 0.335988
Si Si3 0.065949 0.313383 0.842004
Si Si4 0.129324 0.194841 0.844798
Si Si5 0.681086 0.942368 0.129552
Si Si6 0.239564 0.396318 0.769941
Si Si7 0.662980 0.843165 0.668903
Si Si8 0.690204 0.540563 0.019816
O O1 0.052208 0.826737 0.508942
O O2 0.132156 0.899679 0.692484
O O3 0.962970 0.843409 0.768522
O O4 0.924443 0.908763 0.553752
O O5 0.889794 0.473344 0.253336
O O6 0.936555 0.541088 0.439957
O O7 0.069703 0.251497 0.837772
O O8 0.188496 0.337615 0.777815
O O9 0.964516 0.338864 0.743752
O O10 0.251709 0.196656 0.754987
O O11 0.154846 0.174906 0.004660
O O12 0.783384 0.902043 0.184531
O O13 0.744107 0.984108 0.025735
O O14 0.229059 0.418775 0.929950
O O15 0.160632 0.435929 0.674883
#
# Coordination Sequence:
#
# PCOD8185672 Si02
#       8
#     8   4   8   8   8   8   8   8
#     4  11  25  49  71 104 147 191 240 305 367 434
#     4  12  26  46  74 102 154 200 238 312 374 436
#     4  12  28  45  75 105 150 188 251 302 369 450
#     4  11  27  47  76 104 147 189 243 304 375 442
#     4  11  25  46  76 102 150 186 245 303 368 449
#     4  12  27  46  70 107 144 190 244 299 365 441
#     4  11  27  47  75 115 138 196 243 305 375 446
#     4  12  26  47  71 107 141 197 242 296 377 436
#
# _framework density 22.400262000000001
#
# number of rings (size 3 to 8) (size 9 to 14) (size 15 to 20)
#    0.000    0.533    4.000    2.400   13.067    0.000 
#    0.000    0.000    0.000    0.000    0.000    0.000 
#    0.000    0.000    0.000    0.000    0.000    0.000 
#
# Total GULP energy -371864.729504 kJ/mol
# GULP energy per Si atom -12395.490983 kJ/mol
# Density = 2.234928 g / cm^3
# Si number density = 22.400262 Si / 1000 Ang^3
#
#
#
# Elastic Constant Matrix: (Units=GPa)
#
#
# Indices 1 2 3 4 5 6 
#
# 1 87.9185 35.8999 43.9061 0.0000 0.0000 0.0000
# 2 35.8999 110.5839 38.7044 0.0000 0.0000 0.0000
# 3 43.9061 38.7044 134.5124 0.0000 0.0000 0.0000
# 4 0.0000 0.0000 0.0000 24.4283 0.0000 0.0000
# 5 0.0000 0.0000 0.0000 0.0000 34.0845 0.0000
# 6 0.0000 0.0000 0.0000 0.0000 0.0000 35.5108
#
#
#
# Elastic Compliance Matrix: (Units=1/GPa)
#
#
# Indices 1 2 3 4 5 6 
#
# 1 0.014675 -0.003433 -0.003802 0.000000 0.000000 0.000000
# 2 -0.003433 0.010859 -0.002004 0.000000 0.000000 0.000000
# 3 -0.003802 -0.002004 0.009252 0.000000 0.000000 0.000000
# 4 0.000000 0.000000 0.000000 0.040936 0.000000 0.000000
# 5 0.000000 0.000000 0.000000 0.000000 0.029339 0.000000
# 6 0.000000 0.000000 0.000000 0.000000 0.000000 0.028160
#
#
# Mechanical properties :
#
#
# Convention : Reuss Voigt Hill
#
# Bulk Modulus (GPa) = 61.32310 63.33727 62.33018
# Shear Modulus (GPa) = 31.81974 33.10503 32.46239
#
# Velocity S-wave (km/s) = 3.77305 3.84850 3.81096
# Velocity P-wave (km/s) = 6.81298 6.93430 6.87391
#
# Compressibility (1/GPa) = 0.01630707
#
# Stress axis : x y z
#
# Youngs Moduli (GPa) = 68.14379 92.09090 108.08604
#
# Poissons Ratio (x) = 0.31617 0.41096
# Poissons Ratio (y) = 0.23396 0.21659
# Poissons Ratio (z) = 0.25909 0.18454
#
# Static dielectric constant tensor:
#      x y z
#    x 4.171230 0.000000 0.000000 
#    y 0.000000 4.002470 0.000000 
#    z 0.000000 0.000000 4.081210 
# 
# 
# High freq. dielectric constant tensor:
#      x y z
#    x 1.888910 0.000000 0.000000 
#    y 0.000000 1.887000 0.000000 
#    z 0.000000 0.000000 1.890420 
# 
# From -- ./inp_files/2166.got.cif
#   From: 2010.03.12/outbox.cif.g09.slc.cpg/sg41_2_cif.got.tgz:2166.got - 2010.04.14 01:55:53.
