data_PCOD8185678
_publ_section_title
;
Structure prediction by ZEFSAII (Michael W. Deem and Ramdas Pophale) SiO2 
 PCOD8185678
Probable space group: A B A 2
;
_chemical_formula_sum "Si O2"
_cell_formula_units_Z 56
_cell_length_a 27.380909
_cell_length_b 14.868365
_cell_length_c 5.769762
_cell_angle_alpha 90.000000
_cell_angle_beta 90.000000
_cell_angle_gamma 90.000000
_cell_volume 2348.924052
_symmetry_space_group_name_H-M "A B A 2"
_symmetry_group_IT_number 41
_symmetry_cell_setting 'orthorhombic'
loop_
_space_group_symop_operation_xyz
x,y,z
-x,-y,z
1/2-x,y,1/2+z
1/2+x,-y,1/2+z
x,1/2+y,1/2+z
-x,1/2-y,1/2+z
1/2-x,1/2+y,z
1/2+x,1/2-y,z
loop_
_atom_site_type_symbol
_atom_site_label
_atom_site_fract_x
_atom_site_fract_y
_atom_site_fract_z
Si Si1 0.505072 0.370321 0.923980
Si Si2 0.428076 0.571587 0.576864
Si Si3 0.277439 0.667939 0.925372
Si Si4 0.563850 0.270376 0.272355
Si Si5 0.149967 0.323687 0.058568
Si Si6 0.839539 0.002625 0.830502
Si Si7 0.087327 0.932515 0.210635
O O1 0.530091 0.449190 0.769225
O O2 0.483126 0.294095 0.757210
O O3 0.552821 0.339514 0.065818
O O4 0.458113 0.396337 0.069987
O O5 0.432287 0.676549 0.514327
O O6 0.373275 0.553411 0.657936
O O7 0.438569 0.510120 0.357121
O O8 0.249575 0.678512 0.174863
O O9 0.315338 0.750802 0.936039
O O10 0.297721 0.565529 0.917812
O O11 0.616518 0.223223 0.252761
O O12 0.178446 0.407687 0.186077
O O13 0.110664 0.356394 0.870750
O O14 0.868969 0.031443 0.055308
#
# Coordination Sequence:
#
# PCOD8185678 Si02
#       7
#     8   8   8   8   8   8   8
#     4  12  24  40  66 106 147 206 266 311 367 440
#     4  11  26  44  69 102 154 203 261 321 375 456
#     4  12  32  54  88 125 153 197 260 338 422 512
#     4  12  24  43  68 101 151 204 261 315 368 456
#     4  11  27  50  80 110 154 206 257 323 414 480
#     4  11  27  51  79 110 157 205 254 328 406 493
#     4  11  26  47  72 105 151 208 258 322 386 470
#
# _framework density 23.840700999999999
#
# number of rings (size 3 to 8) (size 9 to 14) (size 15 to 20)
#    0.000    0.571    2.857    3.429   10.000    4.571 
#    0.000    0.000    0.000    0.000    0.000    0.000 
#    0.000    0.000    0.000    0.000    0.000    0.000 
#
# Total GULP energy -346904.651334 kJ/mol
# GULP energy per Si atom -12389.451833 kJ/mol
# Density = 2.378644 g / cm^3
# Si number density = 23.840701 Si / 1000 Ang^3
#
#
#
# Elastic Constant Matrix: (Units=GPa)
#
#
# Indices 1 2 3 4 5 6 
#
# 1 79.9988 58.6991 35.2898 0.0000 0.0000 0.0000
# 2 58.6991 120.5041 48.4622 0.0000 0.0000 0.0000
# 3 35.2898 48.4622 118.6230 0.0000 0.0000 0.0000
# 4 0.0000 0.0000 0.0000 36.6140 0.0000 0.0000
# 5 0.0000 0.0000 0.0000 0.0000 41.5111 0.0000
# 6 0.0000 0.0000 0.0000 0.0000 0.0000 43.4196
#
#
#
# Elastic Compliance Matrix: (Units=1/GPa)
#
#
# Indices 1 2 3 4 5 6 
#
# 1 0.019989 -0.008789 -0.002356 0.000000 0.000000 0.000000
# 2 -0.008789 0.013795 -0.003021 0.000000 0.000000 0.000000
# 3 -0.002356 -0.003021 0.010365 0.000000 0.000000 0.000000
# 4 0.000000 0.000000 0.000000 0.027312 0.000000 0.000000
# 5 0.000000 0.000000 0.000000 0.000000 0.024090 0.000000
# 6 0.000000 0.000000 0.000000 0.000000 0.000000 0.023031
#
#
# Mechanical properties :
#
#
# Convention : Reuss Voigt Hill
#
# Bulk Modulus (GPa) = 63.22532 67.11424 65.16978
# Shear Modulus (GPa) = 32.85468 36.08725 34.47096
#
# Velocity S-wave (km/s) = 3.71629 3.89483 3.80661
# Velocity P-wave (km/s) = 6.70760 6.95978 6.83485
#
# Compressibility (1/GPa) = 0.01581645
#
# Stress axis : x y z
#
# Youngs Moduli (GPa) = 50.02873 72.49131 96.47799
#
# Poissons Ratio (x) = 0.63715 0.22728
# Poissons Ratio (y) = 0.43972 0.29145
# Poissons Ratio (z) = 0.11785 0.21899
#
# Static dielectric constant tensor:
#      x y z
#    x 4.101200 0.000000 0.000000 
#    y 0.000000 4.873930 0.000000 
#    z 0.000000 0.000000 4.615770 
# 
# 
# High freq. dielectric constant tensor:
#      x y z
#    x 1.922340 0.000000 0.000000 
#    y 0.000000 1.967260 0.000000 
#    z 0.000000 0.000000 1.967020 
# 
# From -- ./inp_files/1356.got.cif
#   From: 2010.03.12/outbox.cif.g09.slc.cpg/sg41_1_cif.got.tgz:1356.got - 2010.04.14 01:55:53.
