data_PCOD8185240
_publ_section_title
;
Structure prediction by ZEFSAII (Michael W. Deem and Ramdas Pophale) SiO2 
 PCOD8185240
Probable space group: A B A 2
;
_chemical_formula_sum "Si O2"
_cell_formula_units_Z 64
_cell_length_a 8.907763
_cell_length_b 14.789989
_cell_length_c 21.781981
_cell_angle_alpha 90.000000
_cell_angle_beta 90.000000
_cell_angle_gamma 90.000000
_cell_volume 2869.682700
_symmetry_space_group_name_H-M "A B A 2"
_symmetry_group_IT_number 41
_symmetry_cell_setting 'orthorhombic'
loop_
_space_group_symop_operation_xyz
x,y,z
-x,-y,z
1/2-x,y,1/2+z
1/2+x,-y,1/2+z
x,1/2+y,1/2+z
-x,1/2-y,1/2+z
1/2-x,1/2+y,z
1/2+x,1/2-y,z
loop_
_atom_site_type_symbol
_atom_site_label
_atom_site_fract_x
_atom_site_fract_y
_atom_site_fract_z
Si Si1 0.668834 0.807593 0.841820
Si Si2 0.647935 0.649831 0.392911
Si Si3 0.272517 0.258680 0.216098
Si Si4 0.325404 0.513871 0.839795
Si Si5 0.417543 0.404492 0.526101
Si Si6 0.886653 0.573781 0.593794
Si Si7 0.509285 0.229796 0.128208
Si Si8 0.656776 0.543253 0.229750
O O1 0.720292 0.722296 0.882008
O O2 0.493965 0.826972 0.850438
O O3 0.685158 0.795259 0.768277
O O4 0.778022 0.887766 0.863526
O O5 0.718214 0.553498 0.376820
O O6 0.587353 0.648545 0.462088
O O7 0.409288 0.201022 0.187381
O O8 0.335463 0.350616 0.246411
O O9 0.177082 0.277916 0.154248
O O10 0.500000 0.500000 0.853718
O O11 0.291633 0.504907 0.766833
O O12 0.500000 0.500000 0.519856
O O13 0.246189 0.416533 0.545844
O O14 0.510101 0.341085 0.573016
O O15 0.971768 0.668388 0.606229
O O16 0.822524 0.530261 0.657016
O O17 0.000000 0.500000 0.565004
O O18 0.500000 0.500000 0.252635
#
# Coordination Sequence:
#
# PCOD8185240 Si02
#       8
#     8   8   8   8   8   8   8   8
#     4  12  26  45  79 100 147 192 236 305 367 439
#     4  12  28  52  71 108 139 194 252 297 365 424
#     4  11  24  42  74 108 144 187 236 293 371 437
#     4  12  27  45  70 107 144 187 244 300 363 442
#     4  12  28  48  74 103 145 193 247 304 354 432
#     4  10  25  45  72 105 143 195 237 297 369 429
#     4  11  24  46  68 109 149 183 243 298 358 437
#     4  10  21  43  69 104 150 185 231 297 367 436
#
# _framework density 22.302116000000002
#
# number of rings (size 3 to 8) (size 9 to 14) (size 15 to 20)
#    0.000    0.750    3.750    3.375   12.250    1.000 
#    2.250    0.000    0.000    0.000    0.000    0.000 
#    0.000    0.000    0.000    0.000    0.000    0.000 
#
# Total GULP energy -396850.498566 kJ/mol
# GULP energy per Si atom -12401.578080 kJ/mol
# Density = 2.225136 g / cm^3
# Si number density = 22.302116 Si / 1000 Ang^3
#
#
#
# Elastic Constant Matrix: (Units=GPa)
#
#
# Indices 1 2 3 4 5 6 
#
# 1 105.6316 33.6435 25.8883 0.0000 0.0000 0.0000
# 2 33.6435 95.5419 54.0628 0.0000 0.0000 0.0000
# 3 25.8883 54.0628 83.8204 0.0000 0.0000 0.0000
# 4 0.0000 0.0000 0.0000 31.8508 0.0000 0.0000
# 5 0.0000 0.0000 0.0000 0.0000 35.5358 0.0000
# 6 0.0000 0.0000 0.0000 0.0000 0.0000 38.2855
#
#
#
# Elastic Compliance Matrix: (Units=1/GPa)
#
#
# Indices 1 2 3 4 5 6 
#
# 1 0.010764 -0.003006 -0.001385 0.000000 0.000000 0.000000
# 2 -0.003006 0.017322 -0.010244 0.000000 0.000000 0.000000
# 3 -0.001385 -0.010244 0.018965 0.000000 0.000000 0.000000
# 4 0.000000 0.000000 0.000000 0.031396 0.000000 0.000000
# 5 0.000000 0.000000 0.000000 0.000000 0.028141 0.000000
# 6 0.000000 0.000000 0.000000 0.000000 0.000000 0.026120
#
#
# Mechanical properties :
#
#
# Convention : Reuss Voigt Hill
#
# Bulk Modulus (GPa) = 56.24353 56.90924 56.57638
# Shear Modulus (GPa) = 29.77876 32.56103 31.16989
#
# Velocity S-wave (km/s) = 3.65806 3.82514 3.74253
# Velocity P-wave (km/s) = 6.56624 6.71429 6.64068
#
# Compressibility (1/GPa) = 0.01777982
#
# Stress axis : x y z
#
# Youngs Moduli (GPa) = 92.90286 57.73113 52.72828
#
# Poissons Ratio (x) = 0.17356 0.07305
# Poissons Ratio (y) = 0.27930 0.54013
# Poissons Ratio (z) = 0.12871 0.59138
#
# Static dielectric constant tensor:
#      x y z
#    x 3.988650 0.000000 0.000000 
#    y 0.000000 4.146080 0.000000 
#    z 0.000000 0.000000 3.969390 
# 
# 
# High freq. dielectric constant tensor:
#      x y z
#    x 1.884260 0.000000 0.000000 
#    y 0.000000 1.885230 0.000000 
#    z 0.000000 0.000000 1.871400 
# 
# From -- ./inp_files/12056.got.cif
#   From: 2010.03.12/outbox.cif.g09.slc.cpg/sg41_7_cif.got.tgz:12056.got - 2010.04.14 01:55:53.
