data_PCOD8185568
_publ_section_title
;
Structure prediction by ZEFSAII (Michael W. Deem and Ramdas Pophale) SiO2 
 PCOD8185568
Probable space group: A B A 2
;
_chemical_formula_sum "Si O2"
_cell_formula_units_Z 64
_cell_length_a 26.851588
_cell_length_b 11.509697
_cell_length_c 9.358009
_cell_angle_alpha 90.000000
_cell_angle_beta 90.000000
_cell_angle_gamma 90.000000
_cell_volume 2892.126762
_symmetry_space_group_name_H-M "A B A 2"
_symmetry_group_IT_number 41
_symmetry_cell_setting 'orthorhombic'
loop_
_space_group_symop_operation_xyz
x,y,z
-x,-y,z
1/2-x,y,1/2+z
1/2+x,-y,1/2+z
x,1/2+y,1/2+z
-x,1/2-y,1/2+z
1/2-x,1/2+y,z
1/2+x,1/2-y,z
loop_
_atom_site_type_symbol
_atom_site_label
_atom_site_fract_x
_atom_site_fract_y
_atom_site_fract_z
Si Si1 0.661495 0.987124 0.819970
Si Si2 0.200234 0.214474 0.498090
Si Si3 0.021334 0.372043 0.611336
Si Si4 0.210169 0.762648 0.321518
Si Si5 0.647884 0.909756 0.504490
Si Si6 0.443789 0.451027 0.386270
Si Si7 0.108354 0.849583 0.912233
Si Si8 0.425724 0.270155 0.616647
O O1 0.675459 0.123313 0.833372
O O2 0.602899 0.961553 0.859496
O O3 0.695360 0.915320 0.931760
O O4 0.671160 0.946861 0.657174
O O5 0.219554 0.216945 0.660799
O O6 0.236631 0.289909 0.395471
O O7 0.146366 0.273253 0.502833
O O8 0.058715 0.368999 0.746608
O O9 0.052788 0.332959 0.474194
O O10 0.000000 0.500000 0.582817
O O11 0.979480 0.280162 0.653216
O O12 0.189360 0.654098 0.411554
O O13 0.601884 0.823360 0.520735
O O14 0.626119 0.017621 0.416292
O O15 0.500000 0.500000 0.389425
O O16 0.433349 0.389098 0.533548
O O17 0.107733 0.801868 0.752094
#
# Coordination Sequence:
#
# PCOD8185568 Si02
#       8
#     8   8   8   8   8   8   8   8
#     4  12  25  51  76 106 154 191 247 307 367 443
#     4  12  29  48  79 108 143 194 242 310 373 440
#     4  11  22  44  69 101 149 198 239 298 365 424
#     4  12  29  50  76 111 142 196 247 303 383 437
#     4  12  24  49  73 106 149 188 247 305 362 433
#     4  11  24  44  69 104 150 200 240 303 367 431
#     4  12  26  46  75 108 147 195 247 302 368 436
#     4  12  25  43  70 111 147 195 247 299 361 444
#
# _framework density 22.129044
#
# number of rings (size 3 to 8) (size 9 to 14) (size 15 to 20)
#    0.000    0.250    6.250    2.250    5.250    1.500 
#    2.250    0.000    0.000    0.000    0.000    0.000 
#    0.000    0.000    0.000    0.000    0.000    0.000 
#
# Total GULP energy -396802.436971 kJ/mol
# GULP energy per Si atom -12400.076155 kJ/mol
# Density = 2.207868 g / cm^3
# Si number density = 22.129044 Si / 1000 Ang^3
#
#
#
# Elastic Constant Matrix: (Units=GPa)
#
#
# Indices 1 2 3 4 5 6 
#
# 1 95.9893 30.2989 43.4000 0.0000 0.0000 0.0000
# 2 30.2989 91.8960 48.9644 0.0000 0.0000 0.0000
# 3 43.4000 48.9644 122.1935 0.0000 0.0000 0.0000
# 4 0.0000 0.0000 0.0000 38.0854 0.0000 0.0000
# 5 0.0000 0.0000 0.0000 0.0000 35.0258 0.0000
# 6 0.0000 0.0000 0.0000 0.0000 0.0000 38.6052
#
#
#
# Elastic Compliance Matrix: (Units=1/GPa)
#
#
# Indices 1 2 3 4 5 6 
#
# 1 0.012776 -0.002282 -0.003623 0.000000 0.000000 0.000000
# 2 -0.002282 0.014243 -0.004897 0.000000 0.000000 0.000000
# 3 -0.003623 -0.004897 0.011433 0.000000 0.000000 0.000000
# 4 0.000000 0.000000 0.000000 0.026257 0.000000 0.000000
# 5 0.000000 0.000000 0.000000 0.000000 0.028550 0.000000
# 6 0.000000 0.000000 0.000000 0.000000 0.000000 0.025903
#
#
# Mechanical properties :
#
#
# Convention : Reuss Voigt Hill
#
# Bulk Modulus (GPa) = 59.35380 61.71170 60.53275
# Shear Modulus (GPa) = 34.15671 34.83765 34.49718
#
# Velocity S-wave (km/s) = 3.93303 3.97204 3.95259
# Velocity P-wave (km/s) = 6.89238 6.99885 6.94582
#
# Compressibility (1/GPa) = 0.01684812
#
# Stress axis : x y z
#
# Youngs Moduli (GPa) = 78.26945 70.20752 87.46583
#
# Poissons Ratio (x) = 0.16020 0.31693
# Poissons Ratio (y) = 0.17860 0.42833
# Poissons Ratio (z) = 0.28361 0.34381
#
# Static dielectric constant tensor:
#      x y z
#    x 4.123180 0.000000 0.000000 
#    y 0.000000 3.982610 0.000000 
#    z 0.000000 0.000000 4.129440 
# 
# 
# High freq. dielectric constant tensor:
#      x y z
#    x 1.883570 0.000000 0.000000 
#    y 0.000000 1.865970 0.000000 
#    z 0.000000 0.000000 1.875810 
# 
# From -- ./inp_files/3971.got.cif
#   From: 2010.03.12/outbox.cif.g09.slc.cpg/sg41_2_cif.got.tgz:3971.got - 2010.04.14 01:55:53.
