data_PCOD8185945
_publ_section_title
;
Structure prediction by ZEFSAII (Michael W. Deem and Ramdas Pophale) SiO2 
 PCOD8185945
Probable space group: F M M 2
;
_chemical_formula_sum "Si O2"
_cell_formula_units_Z 104
_cell_length_a 11.647192
_cell_length_b 23.823915
_cell_length_c 18.499872
_cell_angle_alpha 90.000000
_cell_angle_beta 90.000000
_cell_angle_gamma 90.000000
_cell_volume 5133.376158
_symmetry_space_group_name_H-M "F M M 2"
_symmetry_group_IT_number 42
_symmetry_cell_setting 'orthorhombic'
loop_
_space_group_symop_operation_xyz
x,y,z
-x,-y,z
-x,y,z
x,-y,z
x,1/2+y,1/2+z
-x,1/2-y,1/2+z
-x,1/2+y,1/2+z
x,1/2-y,1/2+z
1/2+x,y,1/2+z
1/2-x,-y,1/2+z
1/2-x,y,1/2+z
1/2+x,-y,1/2+z
1/2+x,1/2+y,z
1/2-x,1/2-y,z
1/2-x,1/2+y,z
1/2+x,1/2-y,z
loop_
_atom_site_type_symbol
_atom_site_label
_atom_site_fract_x
_atom_site_fract_y
_atom_site_fract_z
Si Si1 0.214913 0.000000 0.524850
Si Si2 0.872558 0.500000 0.660769
Si Si3 0.776613 0.381470 0.351892
Si Si4 0.871111 0.378496 0.717464
Si Si5 0.134648 0.000000 0.883880
Si Si6 0.127211 0.216754 0.929523
Si Si7 0.208470 0.690295 0.580920
Si Si8 0.627859 0.616197 0.492626
O O1 0.278900 0.000000 0.599759
O O2 0.132642 0.946800 0.521756
O O3 0.310006 0.000000 0.462706
O O4 0.856085 0.445203 0.709575
O O5 0.000000 0.500000 0.625947
O O6 0.719421 0.359362 0.277948
O O7 0.828251 0.443872 0.340799
O O8 0.873520 0.337023 0.376185
O O9 0.681845 0.380759 0.413948
O O10 0.851348 0.345786 0.642867
O O11 0.000000 0.364739 0.743604
O O12 0.000000 0.000000 0.894770
O O13 0.250000 0.250000 0.916556
O O14 0.000000 0.246251 0.915240
O O15 0.122313 0.198187 0.013385
O O16 0.250000 0.750000 0.612845
O O17 0.318100 0.657352 0.551217
O O18 0.500000 0.637224 0.484060
#
# Coordination Sequence:
#
# PCOD8185945 Si02
#       8
#     8   8  16  16   8  16  16  16
#     4  10  18  34  58  88 115 146 195 245 298 355
#     4  10  20  34  58  86 117 153 195 245 300 361
#     4  10  22  37  59  88 121 154 199 241 297 367
#     4  11  22  38  60  86 120 159 198 246 301 360
#     4  10  20  36  60  86 118 151 186 242 300 358
#     4  10  22  41  66  93 121 158 206 257 305 359
#     4  10  22  38  60  87 118 157 202 252 299 357
#     4  10  20  36  58  85 118 155 197 249 302 358
#
# _framework density 20.259571000000001
#
# number of rings (size 3 to 8) (size 9 to 14) (size 15 to 20)
#    0.000    1.846    1.538    2.308    0.000    7.385 
#    0.000    3.846    0.000    0.000    0.000    0.000 
#    0.000    0.000    0.000    0.000    0.000    0.000 
#
# Total GULP energy -322209.703792 kJ/mol
# GULP energy per Si atom -12392.680915 kJ/mol
# Density = 2.021346 g / cm^3
# Si number density = 20.259571 Si / 1000 Ang^3
#
#
#
# Elastic Constant Matrix: (Units=GPa)
#
#
# Indices 1 2 3 4 5 6 
#
# 1 125.5336 33.3318 20.0067 0.0000 0.0000 0.0000
# 2 33.3318 118.0565 24.7044 0.0000 0.0000 0.0000
# 3 20.0067 24.7044 68.0742 0.0000 0.0000 0.0000
# 4 0.0000 0.0000 0.0000 17.2005 0.0000 0.0000
# 5 0.0000 0.0000 0.0000 0.0000 6.6330 0.0000
# 6 0.0000 0.0000 0.0000 0.0000 0.0000 16.3751
#
#
#
# Elastic Compliance Matrix: (Units=1/GPa)
#
#
# Indices 1 2 3 4 5 6 
#
# 1 0.008817 -0.002107 -0.001826 0.000000 0.000000 0.000000
# 2 -0.002107 0.009670 -0.002890 0.000000 0.000000 0.000000
# 3 -0.001826 -0.002890 0.016275 0.000000 0.000000 0.000000
# 4 0.000000 0.000000 0.000000 0.058138 0.000000 0.000000
# 5 0.000000 0.000000 0.000000 0.000000 0.150762 0.000000
# 6 0.000000 0.000000 0.000000 0.000000 0.000000 0.061068
#
#
# Mechanical properties :
#
#
# Convention : Reuss Voigt Hill
#
# Bulk Modulus (GPa) = 47.35979 51.97224 49.66601
# Shear Modulus (GPa) = 15.36495 23.61646 19.49071
#
# Velocity S-wave (km/s) = 2.75690 3.41793 3.10506
# Velocity P-wave (km/s) = 5.79321 6.42536 6.11745
#
# Compressibility (1/GPa) = 0.02111496
#
# Stress axis : x y z
#
# Youngs Moduli (GPa) = 113.42302 103.41052 61.44209
#
# Poissons Ratio (x) = 0.21789 0.11222
# Poissons Ratio (y) = 0.23899 0.17757
# Poissons Ratio (z) = 0.20717 0.29887
#
# Static dielectric constant tensor:
#      x y z
#    x 3.623490 0.000000 0.000000 
#    y 0.000000 4.001660 0.000000 
#    z 0.000000 0.000000 3.412690 
# 
# 
# High freq. dielectric constant tensor:
#      x y z
#    x 1.791570 0.000000 0.000000 
#    y 0.000000 1.803970 0.000000 
#    z 0.000000 0.000000 1.769390 
# 
# From -- ./inp_files/19322.got.cif
#   From: 2010.03.12/outbox.cif.g09.slc.cpg/sg42_10_cif.got.tgz:19322.got - 2010.04.14 02:04:31.
