data_PCOD8185987
_publ_section_title
;
Structure prediction by ZEFSAII (Michael W. Deem and Ramdas Pophale) SiO2 
 PCOD8185987
Probable space group: F M M 2
;
_chemical_formula_sum "Si O2"
_cell_formula_units_Z 96
_cell_length_a 20.628621
_cell_length_b 22.183539
_cell_length_c 11.396183
_cell_angle_alpha 90.000000
_cell_angle_beta 90.000000
_cell_angle_gamma 90.000000
_cell_volume 5215.073611
_symmetry_space_group_name_H-M "F M M 2"
_symmetry_group_IT_number 42
_symmetry_cell_setting 'orthorhombic'
loop_
_space_group_symop_operation_xyz
x,y,z
-x,-y,z
-x,y,z
x,-y,z
x,1/2+y,1/2+z
-x,1/2-y,1/2+z
-x,1/2+y,1/2+z
x,1/2-y,1/2+z
1/2+x,y,1/2+z
1/2-x,-y,1/2+z
1/2-x,y,1/2+z
1/2+x,-y,1/2+z
1/2+x,1/2+y,z
1/2-x,1/2-y,z
1/2-x,1/2+y,z
1/2+x,1/2-y,z
loop_
_atom_site_type_symbol
_atom_site_label
_atom_site_fract_x
_atom_site_fract_y
_atom_site_fract_z
Si Si1 0.306932 0.353969 0.610080
Si Si2 0.424916 0.069597 0.544699
Si Si3 0.229970 0.932531 0.415940
Si Si4 0.829570 0.633508 0.720087
Si Si5 0.676508 0.232923 0.904924
Si Si6 0.356512 0.361787 0.860256
O O1 0.311419 0.414478 0.530844
O O2 0.233062 0.343324 0.649901
O O3 0.328846 0.296147 0.534180
O O4 0.355850 0.363629 0.718707
O O5 0.500000 0.074392 0.576217
O O6 0.386260 0.112718 0.633723
O O7 0.412852 0.095654 0.413092
O O8 0.401680 0.000000 0.551219
O O9 0.187780 0.925322 0.298362
O O10 0.288640 0.885484 0.411661
O O11 0.256060 0.000000 0.427564
O O12 0.851792 0.687296 0.806698
O O13 0.750000 0.250000 0.870751
O O14 0.633239 0.293200 0.903601
#
# Coordination Sequence:
#
# PCOD8185987 Si02
#       6
#    16  16  16  16  16  16
#     4  10  20  31  52  84 117 145 174 227 289 347
#     4  11  24  42  60  78 110 156 202 240 278 334
#     4  10  19  30  50  82 117 143 175 230 284 336
#     4  10  20  34  54  82 110 147 187 228 277 338
#     4  11  19  32  54  86 120 150 175 221 294 354
#     4  11  22  32  54  83 112 149 187 228 281 340
#
# _framework density 18.408176999999998
#
# number of rings (size 3 to 8) (size 9 to 14) (size 15 to 20)
#    0.000    1.500    6.667    1.000    4.667    3.333 
#    0.000    0.833    0.000    4.000    0.000    9.333 
#    0.000    0.000    0.000    0.000    0.000    0.000 
#
# Total GULP energy -297518.096638 kJ/mol
# GULP energy per Si atom -12396.587360 kJ/mol
# Density = 1.836628 g / cm^3
# Si number density = 18.408177 Si / 1000 Ang^3
#
#
#
# Elastic Constant Matrix: (Units=GPa)
#
#
# Indices 1 2 3 4 5 6 
#
# 1 42.2915 18.2253 25.5944 0.0000 0.0000 0.0000
# 2 18.2253 130.4542 52.8956 0.0000 0.0000 0.0000
# 3 25.5944 52.8956 128.8889 0.0000 0.0000 0.0000
# 4 0.0000 0.0000 0.0000 22.2386 0.0000 0.0000
# 5 0.0000 0.0000 0.0000 0.0000 19.0316 0.0000
# 6 0.0000 0.0000 0.0000 0.0000 0.0000 17.1580
#
#
#
# Elastic Compliance Matrix: (Units=1/GPa)
#
#
# Indices 1 2 3 4 5 6 
#
# 1 0.027277 -0.001937 -0.004622 0.000000 0.000000 0.000000
# 2 -0.001937 0.009333 -0.003446 0.000000 0.000000 0.000000
# 3 -0.004622 -0.003446 0.010091 0.000000 0.000000 0.000000
# 4 0.000000 0.000000 0.000000 0.044967 0.000000 0.000000
# 5 0.000000 0.000000 0.000000 0.000000 0.052544 0.000000
# 6 0.000000 0.000000 0.000000 0.000000 0.000000 0.058282
#
#
# Mechanical properties :
#
#
# Convention : Reuss Voigt Hill
#
# Bulk Modulus (GPa) = 37.46397 55.00724 46.23561
# Shear Modulus (GPa) = 21.60760 25.34691 23.47726
#
# Velocity S-wave (km/s) = 3.42980 3.71474 3.57511
# Velocity P-wave (km/s) = 6.00672 6.95312 6.49717
#
# Compressibility (1/GPa) = 0.02669231
#
# Stress axis : x y z
#
# Youngs Moduli (GPa) = 36.66077 107.14366 99.10289
#
# Poissons Ratio (x) = 0.20751 0.45803
# Poissons Ratio (y) = 0.07100 0.34148
# Poissons Ratio (z) = 0.16944 0.36919
#
# Static dielectric constant tensor:
#      x y z
#    x 2.839610 0.000000 0.000000 
#    y 0.000000 3.598050 0.000000 
#    z 0.000000 0.000000 3.760610 
# 
# 
# High freq. dielectric constant tensor:
#      x y z
#    x 1.637560 0.000000 0.000000 
#    y 0.000000 1.728560 0.000000 
#    z 0.000000 0.000000 1.735110 
# 
# From -- ./inp_files/9607.got.cif
#   From: 2010.03.12/outbox.cif.g09.slc.cpg/sg42_5_cif.got.tgz:9607.got - 2010.04.14 02:04:31.
