data_PCOD8185841
_publ_section_title
;
Structure prediction by ZEFSAII (Michael W. Deem and Ramdas Pophale) SiO2 
 PCOD8185841
Probable space group: F M M 2
;
_chemical_formula_sum "Si O2"
_cell_formula_units_Z 104
_cell_length_a 8.934806
_cell_length_b 25.805571
_cell_length_c 24.546955
_cell_angle_alpha 90.000000
_cell_angle_beta 90.000000
_cell_angle_gamma 90.000000
_cell_volume 5659.736689
_symmetry_space_group_name_H-M "F M M 2"
_symmetry_group_IT_number 42
_symmetry_cell_setting 'orthorhombic'
loop_
_space_group_symop_operation_xyz
x,y,z
-x,-y,z
-x,y,z
x,-y,z
x,1/2+y,1/2+z
-x,1/2-y,1/2+z
-x,1/2+y,1/2+z
x,1/2-y,1/2+z
1/2+x,y,1/2+z
1/2-x,-y,1/2+z
1/2-x,y,1/2+z
1/2+x,-y,1/2+z
1/2+x,1/2+y,z
1/2-x,1/2-y,z
1/2-x,1/2+y,z
1/2+x,1/2-y,z
loop_
_atom_site_type_symbol
_atom_site_label
_atom_site_fract_x
_atom_site_fract_y
_atom_site_fract_z
Si Si1 0.172776 0.196925 0.639870
Si Si2 0.338848 0.500000 0.942081
Si Si3 0.333215 0.000000 0.207936
Si Si4 0.828017 0.197453 0.511470
Si Si5 0.321640 0.892594 0.707592
Si Si6 0.821398 0.112588 0.938814
Si Si7 0.835864 0.888584 0.328966
Si Si8 0.752643 0.000000 0.826530
O O1 0.250000 0.250000 0.659439
O O2 0.189003 0.190177 0.575542
O O3 0.258302 0.149201 0.666195
O O4 0.000000 0.197687 0.658062
O O5 0.500000 0.500000 0.971433
O O6 0.257297 0.554831 0.955489
O O7 0.366593 0.500000 0.876961
O O8 0.244643 0.948358 0.189917
O O9 0.353383 0.000000 0.272807
O O10 0.500000 0.000000 0.181885
O O11 0.750000 0.250000 0.491534
O O12 0.744340 0.150222 0.483478
O O13 0.000000 0.198808 0.493076
O O14 0.500000 0.896069 0.703402
O O15 0.273132 0.874146 0.768738
O O16 0.771895 0.130024 0.877892
O O17 0.000000 0.112786 0.940339
O O18 0.000000 0.863835 0.338468
O O19 0.855255 0.950515 0.328936
#
# Coordination Sequence:
#
# PCOD8185841 Si02
#       8
#    16   8   8  16  16  16  16   8
#     4  10  21  38  60  81 101 131 173 221 269 318
#     4   8  15  27  44  71 105 137 169 204 247 297
#     4  10  18  29  49  76 108 144 180 218 259 307
#     4  10  21  38  59  80 101 130 171 218 265 313
#     4  10  20  34  53  79 111 144 178 217 262 312
#     4  10  19  32  52  78 108 141 176 214 256 305
#     4   9  17  29  47  73 106 141 175 212 255 304
#     4   8  14  24  43  69  99 137 179 214 248 292
#
# _framework density 18.375413000000002
#
# number of rings (size 3 to 8) (size 9 to 14) (size 15 to 20)
#    0.000    2.462    0.000    2.538    0.000    8.000 
#    0.000    2.692    0.000    7.385    0.000    0.000 
#    0.000    0.000    0.000    0.000    0.000    0.000 
#
# Total GULP energy -322188.184798 kJ/mol
# GULP energy per Si atom -12391.853261 kJ/mol
# Density = 1.833359 g / cm^3
# Si number density = 18.375413 Si / 1000 Ang^3
#
#
#
# Elastic Constant Matrix: (Units=GPa)
#
#
# Indices 1 2 3 4 5 6 
#
# 1 110.3971 51.0666 29.6644 0.0000 0.0000 0.0000
# 2 51.0666 130.1425 41.1167 0.0000 0.0000 0.0000
# 3 29.6644 41.1167 35.6201 0.0000 0.0000 0.0000
# 4 0.0000 0.0000 0.0000 39.0644 0.0000 0.0000
# 5 0.0000 0.0000 0.0000 0.0000 27.3289 0.0000
# 6 0.0000 0.0000 0.0000 0.0000 0.0000 29.3921
#
#
#
# Elastic Compliance Matrix: (Units=1/GPa)
#
#
# Indices 1 2 3 4 5 6 
#
# 1 0.012155 -0.002473 -0.007268 0.000000 0.000000 0.000000
# 2 -0.002473 0.012598 -0.012482 0.000000 0.000000 0.000000
# 3 -0.007268 -0.012482 0.048535 0.000000 0.000000 0.000000
# 4 0.000000 0.000000 0.000000 0.025599 0.000000 0.000000
# 5 0.000000 0.000000 0.000000 0.000000 0.036591 0.000000
# 6 0.000000 0.000000 0.000000 0.000000 0.000000 0.034023
#
#
# Mechanical properties :
#
#
# Convention : Reuss Voigt Hill
#
# Bulk Modulus (GPa) = 34.67232 57.76169 46.21700
# Shear Modulus (GPa) = 22.36524 29.44456 25.90490
#
# Velocity S-wave (km/s) = 3.49252 4.00733 3.75875
# Velocity P-wave (km/s) = 5.93072 7.27420 6.63655
#
# Compressibility (1/GPa) = 0.02884145
#
# Stress axis : x y z
#
# Youngs Moduli (GPa) = 82.26894 79.37782 20.60376
#
# Poissons Ratio (x) = 0.19634 0.14974
# Poissons Ratio (y) = 0.20349 0.25718
# Poissons Ratio (z) = 0.59791 0.99080
#
# Static dielectric constant tensor:
#      x y z
#    x 3.355660 0.000000 0.000000 
#    y 0.000000 3.404330 0.000000 
#    z 0.000000 0.000000 3.247230 
# 
# 
# High freq. dielectric constant tensor:
#      x y z
#    x 1.716850 0.000000 0.000000 
#    y 0.000000 1.706090 0.000000 
#    z 0.000000 0.000000 1.692160 
# 
# From -- ./inp_files/31714.got.cif
#   From: 2010.03.12/outbox.cif.g09.slc.cpg/sg42_16_cif.got.tgz:31714.got - 2010.04.14 02:04:31.
