data_PCOD8185428
_publ_section_title
;
Structure prediction by ZEFSAII (Michael W. Deem and Ramdas Pophale) SiO2 
 PCOD8185428
Probable space group: A B A 2
;
_chemical_formula_sum "Si O2"
_cell_formula_units_Z 64
_cell_length_a 28.560162
_cell_length_b 8.451311
_cell_length_c 12.085938
_cell_angle_alpha 90.000000
_cell_angle_beta 90.000000
_cell_angle_gamma 90.000000
_cell_volume 2917.192660
_symmetry_space_group_name_H-M "A B A 2"
_symmetry_group_IT_number 41
_symmetry_cell_setting 'orthorhombic'
loop_
_space_group_symop_operation_xyz
x,y,z
-x,-y,z
1/2-x,y,1/2+z
1/2+x,-y,1/2+z
x,1/2+y,1/2+z
-x,1/2-y,1/2+z
1/2-x,1/2+y,z
1/2+x,1/2-y,z
loop_
_atom_site_type_symbol
_atom_site_label
_atom_site_fract_x
_atom_site_fract_y
_atom_site_fract_z
Si Si1 0.464893 0.147330 0.658640
Si Si2 0.196916 0.120465 0.621213
Si Si3 0.759434 0.658818 0.997708
Si Si4 0.945459 0.511805 0.863949
Si Si5 0.901079 0.318064 0.045310
Si Si6 0.811877 0.932626 0.879414
Si Si7 0.581719 0.479303 0.955645
Si Si8 0.455882 0.163717 0.255641
O O1 0.432160 0.107716 0.763325
O O2 0.434843 0.155428 0.545631
O O3 0.494064 0.306145 0.693444
O O4 0.500000 0.000000 0.646764
O O5 0.239327 0.242613 0.602401
O O6 0.153447 0.208490 0.563661
O O7 0.189226 0.071039 0.747060
O O8 0.205244 0.965039 0.549501
O O9 0.790060 0.768301 0.918493
O O10 0.718492 0.579228 0.924494
O O11 0.934927 0.688133 0.823966
O O12 0.000000 0.500000 0.899701
O O13 0.911357 0.461048 0.961669
O O14 0.920136 0.381764 0.160917
O O15 0.925169 0.153579 0.007996
O O16 0.864950 0.948449 0.921832
O O17 0.546538 0.474150 0.849021
#
# Coordination Sequence:
#
# PCOD8185428 Si02
#       8
#     8   8   8   8   8   8   8   8
#     4   9  20  41  65  88 128 177 217 264 340 385
#     4  11  23  43  67  98 133 170 225 271 337 403
#     4  10  24  44  69  95 134 183 211 278 338 411
#     4   9  22  44  63  87 132 173 217 272 331 389
#     4  12  23  42  66  97 133 168 222 281 327 403
#     4  11  23  44  68 100 135 175 224 274 341 401
#     4  12  23  42  71  97 136 176 228 278 339 399
#     4  10  23  43  65  91 132 178 214 279 329 390
#
# _framework density 21.938901000000001
#
# number of rings (size 3 to 8) (size 9 to 14) (size 15 to 20)
#    0.000    1.750    5.000    0.750    5.250    0.000 
#    4.500    1.875    0.000    0.000    0.000    0.000 
#    0.000    0.000    0.000    0.000    0.000    0.000 
#
# Total GULP energy -396625.092753 kJ/mol
# GULP energy per Si atom -12394.534149 kJ/mol
# Density = 2.188897 g / cm^3
# Si number density = 21.938901 Si / 1000 Ang^3
#
#
#
# Elastic Constant Matrix: (Units=GPa)
#
#
# Indices 1 2 3 4 5 6 
#
# 1 64.0799 9.1180 44.4896 0.0000 0.0000 0.0000
# 2 9.1180 49.5704 28.8473 0.0000 0.0000 0.0000
# 3 44.4896 28.8473 150.5241 0.0000 0.0000 0.0000
# 4 0.0000 0.0000 0.0000-1519.8805 0.0000 0.0000
# 5 0.0000 0.0000 0.0000 0.0000 24.4574 0.0000
# 6 0.0000 0.0000 0.0000 0.0000 0.0000 29.5682
#
#
#
# Elastic Compliance Matrix: (Units=1/GPa)
#
#
# Indices 1 2 3 4 5 6 
#
# 1 0.019638 -0.000264 -0.005754 0.000000 0.000000 0.000000
# 2 -0.000264 0.022709 -0.004274 0.000000 0.000000 0.000000
# 3 -0.005754 -0.004274 0.009163 0.000000 0.000000 0.000000
# 4 0.000000 0.000000 0.000000 -0.000658 0.000000 0.000000
# 5 0.000000 0.000000 0.000000 0.000000 0.040887 0.000000
# 6 0.000000 0.000000 0.000000 0.000000 0.000000 0.033820
#
#
# Mechanical properties :
#
#
# Convention : Reuss Voigt Hill
#
# Bulk Modulus (GPa) = 32.33441 47.67600 40.00521
# Shear Modulus (GPa) = 31.95870 -281.05635 -124.54882
#
# Velocity S-wave (km/s) = 3.82083 -11.33079 -7.54281
# Velocity P-wave (km/s) = 5.85110 12.22309 7.58843
#
# Compressibility (1/GPa) = 0.03092681
#
# Stress axis : x y z
#
# Youngs Moduli (GPa) = 50.92237 44.03503 109.13277
#
# Poissons Ratio (x) = 0.01162 0.62791
# Poissons Ratio (y) = 0.01344 0.46645
# Poissons Ratio (z) = 0.29299 0.18821
#
# Static dielectric constant tensor:
#      x y z
#    x 3.985110 0.000000 0.000000 
#    y 0.000000 4.597620 0.000000 
#    z 0.000000 0.000000 4.227430 
# 
# 
# High freq. dielectric constant tensor:
#      x y z
#    x 1.848830 0.000000 0.000000 
#    y 0.000000 1.858880 0.000000 
#    z 0.000000 0.000000 1.879500 
# 
# From -- ./inp_files/6650.got.cif
#   From: 2010.03.12/outbox.cif.g09.slc.cpg/sg41_4_cif.got.tgz:6650.got - 2010.04.14 01:55:53.
