data_PCOD8185917
_publ_section_title
;
Structure prediction by ZEFSAII (Michael W. Deem and Ramdas Pophale) SiO2 
 PCOD8185917
Probable space group: F M M 2
;
_chemical_formula_sum "Si O2"
_cell_formula_units_Z 96
_cell_length_a 28.215702
_cell_length_b 8.621320
_cell_length_c 20.742397
_cell_angle_alpha 90.000000
_cell_angle_beta 90.000000
_cell_angle_gamma 90.000000
_cell_volume 5045.724886
_symmetry_space_group_name_H-M "F M M 2"
_symmetry_group_IT_number 42
_symmetry_cell_setting 'orthorhombic'
loop_
_space_group_symop_operation_xyz
x,y,z
-x,-y,z
-x,y,z
x,-y,z
x,1/2+y,1/2+z
-x,1/2-y,1/2+z
-x,1/2+y,1/2+z
x,1/2-y,1/2+z
1/2+x,y,1/2+z
1/2-x,-y,1/2+z
1/2-x,y,1/2+z
1/2+x,-y,1/2+z
1/2+x,1/2+y,z
1/2-x,1/2-y,z
1/2-x,1/2+y,z
1/2+x,1/2-y,z
loop_
_atom_site_type_symbol
_atom_site_label
_atom_site_fract_x
_atom_site_fract_y
_atom_site_fract_z
Si Si1 0.391077 0.817029 0.798580
Si Si2 0.699987 0.816877 0.349559
Si Si3 0.944588 0.182810 0.677966
Si Si4 0.947027 0.684951 0.922853
Si Si5 0.395849 0.682727 0.548650
Si Si6 0.299319 0.317362 0.489547
O O1 0.339676 0.735871 0.798204
O O2 0.421746 0.771870 0.737183
O O3 0.418534 0.754025 0.861226
O O4 0.383784 0.000000 0.800415
O O5 0.750000 0.750000 0.325382
O O6 0.687245 0.752964 0.420365
O O7 0.703318 0.000000 0.352518
O O8 0.917763 0.248570 0.614604
O O9 0.000000 0.224041 0.672690
O O10 0.936800 0.000000 0.686631
O O11 0.946612 0.500000 0.923919
O O12 0.000000 0.750401 0.918037
O O13 0.923735 0.753695 0.987688
O O14 0.403463 0.500000 0.548275
O O15 0.340172 0.724776 0.541270
O O16 0.294574 0.500000 0.479751
O O17 0.250000 0.250000 0.516437
#
# Coordination Sequence:
#
# PCOD8185917 Si02
#       6
#    16  16  16  16  16  16
#     4  11  21  36  56  82 114 149 190 232 281 340
#     4  11  21  35  57  85 115 147 184 230 286 339
#     4  10  21  37  57  81 112 151 193 237 287 340
#     4   9  16  28  51  80 105 135 184 237 277 322
#     4   9  17  32  54  80 109 144 189 235 280 332
#     4  10  18  32  54  83 114 146 184 230 283 339
#
# _framework density 19.026007
#
# number of rings (size 3 to 8) (size 9 to 14) (size 15 to 20)
#    0.000    2.000    1.667    4.500    0.000    3.000 
#    0.000    2.500    0.000    2.000    0.000    0.000 
#    0.000    0.000    0.000    0.000    0.000    0.000 
#
# Total GULP energy -297604.226013 kJ/mol
# GULP energy per Si atom -12400.176084 kJ/mol
# Density = 1.898270 g / cm^3
# Si number density = 19.026007 Si / 1000 Ang^3
#
#
#
# Elastic Constant Matrix: (Units=GPa)
#
#
# Indices 1 2 3 4 5 6 
#
# 1 157.6038 46.0401 67.1025 0.0000 0.0000 -0.0001
# 2 46.0401 77.4483 26.5373 0.0000 0.0000 -0.0001
# 3 67.1025 26.5373 120.3132 0.0000 0.0000 0.0000
# 4 0.0000 0.0000 0.0000 23.5935 0.0000 0.0000
# 5 0.0000 0.0000 0.0000 0.0000 37.1966 0.0000
# 6 -0.0001 -0.0001 0.0000 0.0000 0.0000 23.0436
#
#
#
# Elastic Compliance Matrix: (Units=1/GPa)
#
#
# Indices 1 2 3 4 5 6 
#
# 1 0.009385 -0.004095 -0.004331 0.000000 0.000000 0.000000
# 2 -0.004095 0.015754 -0.001191 0.000000 0.000000 0.000000
# 3 -0.004331 -0.001191 0.010990 0.000000 0.000000 0.000000
# 4 0.000000 0.000000 0.000000 0.042384 0.000000 0.000000
# 5 0.000000 0.000000 0.000000 0.000000 0.026884 0.000000
# 6 0.000000 0.000000 0.000000 0.000000 0.000000 0.043396
#
#
# Mechanical properties :
#
#
# Convention : Reuss Voigt Hill
#
# Bulk Modulus (GPa) = 59.18900 70.52501 64.85701
# Shear Modulus (GPa) = 28.79174 31.14577 29.96875
#
# Velocity S-wave (km/s) = 3.89431 4.05039 3.97312
# Velocity P-wave (km/s) = 7.16924 7.68260 7.43035
#
# Compressibility (1/GPa) = 0.01689503
#
# Stress axis : x y z
#
# Youngs Moduli (GPa) = 106.54784 63.47463 90.99170
#
# Poissons Ratio (x) = 0.25994 0.39411
# Poissons Ratio (y) = 0.43633 0.10836
# Poissons Ratio (z) = 0.46149 0.07559
#
# Static dielectric constant tensor:
#      x y z
#    x 3.778880 0.000000 0.000000 
#    y 0.000000 3.183050 0.000000 
#    z 0.000000 0.000000 3.457160 
# 
# 
# High freq. dielectric constant tensor:
#      x y z
#    x 1.760150 0.000000 0.000000 
#    y 0.000000 1.714030 0.000000 
#    z 0.000000 0.000000 1.723320 
# 
# From -- ./inp_files/23734.got.cif
#   From: 2010.03.12/outbox.cif.g09.slc.cpg/sg42_12_cif.got.tgz:23734.got - 2010.04.14 02:04:31.
