data_PCOD8185044
_publ_section_title
;
Structure prediction by ZEFSAII (Michael W. Deem and Ramdas Pophale) SiO2 
 PCOD8185044
Probable space group: A B A 2
;
_chemical_formula_sum "Si O2"
_cell_formula_units_Z 52
_cell_length_a 13.405034
_cell_length_b 17.479791
_cell_length_c 9.276841
_cell_angle_alpha 90.000000
_cell_angle_beta 90.000000
_cell_angle_gamma 90.000000
_cell_volume 2173.723340
_symmetry_space_group_name_H-M "A B A 2"
_symmetry_group_IT_number 41
_symmetry_cell_setting 'orthorhombic'
loop_
_space_group_symop_operation_xyz
x,y,z
-x,-y,z
1/2-x,y,1/2+z
1/2+x,-y,1/2+z
x,1/2+y,1/2+z
-x,1/2-y,1/2+z
1/2-x,1/2+y,z
1/2+x,1/2-y,z
loop_
_atom_site_type_symbol
_atom_site_label
_atom_site_fract_x
_atom_site_fract_y
_atom_site_fract_z
Si Si1 0.454049 0.837618 0.698330
Si Si2 0.652960 0.708565 0.785882
Si Si3 0.000000 0.000000 0.121821
Si Si4 0.753255 0.364410 0.297417
Si Si5 0.049599 0.214156 0.919035
Si Si6 0.718071 0.968146 0.537001
Si Si7 0.747386 0.139301 0.541530
O O1 0.537451 0.794893 0.593894
O O2 0.448860 0.801118 0.857894
O O3 0.350643 0.826313 0.616886
O O4 0.479562 0.926705 0.722208
O O5 0.667994 0.799632 0.812576
O O6 0.548534 0.677174 0.845076
O O7 0.663156 0.687335 0.616015
O O8 0.740009 0.661004 0.872633
O O9 0.097441 0.019980 0.025520
O O10 0.857904 0.331656 0.353962
O O11 0.752211 0.397715 0.137300
O O12 0.732829 0.441436 0.387642
O O13 0.766361 0.050001 0.572327
#
# Coordination Sequence:
#
# PCOD8185044 Si02
#       7
#     8   8   4   8   8   8   8
#     4  10  21  40  64  93 126 171 219 267 328 405
#     4  11  23  40  66  93 129 168 218 271 329 395
#     4  10  20  42  68  94 128 186 216 264 352 408
#     4  12  24  44  67 102 129 175 225 279 325 404
#     4  11  24  40  67  97 130 174 221 273 335 394
#     4  11  24  42  69  92 135 173 223 275 336 395
#     4  10  22  40  60  93 124 169 211 265 332 391
#
# _framework density 23.922089
#
# number of rings (size 3 to 8) (size 9 to 14) (size 15 to 20)
#    0.000    1.231    3.077    2.769    4.308    0.000 
#    0.000    0.000    0.000    0.923    0.000    0.000 
#    0.000    0.000    0.000    0.000    0.000    0.000 
#
# Total GULP energy -322231.508864 kJ/mol
# GULP energy per Si atom -12393.519572 kJ/mol
# Density = 2.386764 g / cm^3
# Si number density = 23.922089 Si / 1000 Ang^3
#
#
#
# Elastic Constant Matrix: (Units=GPa)
#
#
# Indices 1 2 3 4 5 6 
#
# 1 48.8542 12.3869 -9.9392 0.0000 0.0000 0.0000
# 2 12.3869 128.2085 14.0054 0.0000 0.0000 0.0000
# 3 -9.9392 14.0054 56.7292 0.0000 0.0000 0.0000
# 4 0.0000 0.0000 0.0000 30.2537 0.0000 0.0000
# 5 0.0000 0.0000 0.0000 0.0000 20.6243 0.0000
# 6 0.0000 0.0000 0.0000 0.0000 0.0000 34.5984
#
#
#
# Elastic Compliance Matrix: (Units=1/GPa)
#
#
# Indices 1 2 3 4 5 6 
#
# 1 0.022052 -0.002623 0.004511 0.000000 0.000000 0.000000
# 2 -0.002623 0.008328 -0.002516 0.000000 0.000000 0.000000
# 3 0.004511 -0.002516 0.019039 0.000000 0.000000 0.000000
# 4 0.000000 0.000000 0.000000 0.033054 0.000000 0.000000
# 5 0.000000 0.000000 0.000000 0.000000 0.048487 0.000000
# 6 0.000000 0.000000 0.000000 0.000000 0.000000 0.028903
#
#
# Mechanical properties :
#
#
# Convention : Reuss Voigt Hill
#
# Bulk Modulus (GPa) = 20.76257 29.63313 25.19785
# Shear Modulus (GPa) = 28.22105 31.58452 29.90279
#
# Velocity S-wave (km/s) = 3.43841 3.63755 3.53938
# Velocity P-wave (km/s) = 4.94587 5.48239 5.22103
#
# Compressibility (1/GPa) = 0.04816359
#
# Stress axis : x y z
#
# Youngs Moduli (GPa) = 45.34728 120.07596 52.52362
#
# Poissons Ratio (x) = 0.31500 -0.23695
# Poissons Ratio (y) = 0.11896 0.13213
# Poissons Ratio (z) = -0.20457 0.30207
#
# Static dielectric constant tensor:
#      x y z
#    x 4.534060 0.000000 0.000000 
#    y 0.000000 4.387170 0.000000 
#    z 0.000000 0.000000 4.428390 
# 
# 
# High freq. dielectric constant tensor:
#      x y z
#    x 1.953210 0.000000 0.000000 
#    y 0.000000 1.954460 0.000000 
#    z 0.000000 0.000000 1.941600 
# 
# From -- ./inp_files/3138.got.cif
#   From: 2010.03.12/outbox.cif.g09.slc.cpg/sg41_2_cif.got.tgz:3138.got - 2010.04.14 01:55:53.
