data_PCOD8185162
_publ_section_title
;
Structure prediction by ZEFSAII (Michael W. Deem and Ramdas Pophale) SiO2 
 PCOD8185162
Probable space group: A B A 2
;
_chemical_formula_sum "Si O2"
_cell_formula_units_Z 52
_cell_length_a 25.349729
_cell_length_b 11.910831
_cell_length_c 8.293131
_cell_angle_alpha 90.000000
_cell_angle_beta 90.000000
_cell_angle_gamma 90.000000
_cell_volume 2503.997605
_symmetry_space_group_name_H-M "A B A 2"
_symmetry_group_IT_number 41
_symmetry_cell_setting 'orthorhombic'
loop_
_space_group_symop_operation_xyz
x,y,z
-x,-y,z
1/2-x,y,1/2+z
1/2+x,-y,1/2+z
x,1/2+y,1/2+z
-x,1/2-y,1/2+z
1/2-x,1/2+y,z
1/2+x,1/2-y,z
loop_
_atom_site_type_symbol
_atom_site_label
_atom_site_fract_x
_atom_site_fract_y
_atom_site_fract_z
Si Si1 0.576511 0.428878 0.001680
Si Si2 0.935344 0.659286 0.673149
Si Si3 0.000000 0.500000 0.228270
Si Si4 0.194026 0.560923 0.562329
Si Si5 0.269037 0.188980 0.855857
Si Si6 0.980055 0.709463 0.016430
Si Si7 0.685415 0.686956 0.152918
O O1 0.561259 0.528560 0.124314
O O2 0.638844 0.430260 0.967873
O O3 0.560179 0.307938 0.074826
O O4 0.546622 0.445348 0.832731
O O5 0.875646 0.699155 0.702082
O O6 0.961178 0.737012 0.533315
O O7 0.969811 0.675865 0.832783
O O8 0.026675 0.402298 0.122387
O O9 0.242211 0.581586 0.440628
O O10 0.194664 0.651701 0.707112
O O11 0.202800 0.440651 0.638865
O O12 0.220623 0.265318 0.796592
O O13 0.306040 0.253189 0.981406
#
# Coordination Sequence:
#
# PCOD8185162 Si02
#       7
#     8   8   4   8   8   8   8
#     4  11  23  44  62  93 129 168 209 261 313 379
#     4  11  23  42  66  91 129 168 210 261 316 376
#     4  12  26  40  64  92 124 176 210 264 318 370
#     4  10  22  39  66  91 125 164 206 256 315 367
#     4  10  21  40  64  91 124 163 201 261 313 366
#     4  12  24  42  64  91 129 166 214 261 314 380
#     4  10  22  41  62  93 123 157 211 254 311 375
#
# _framework density 20.766794000000001
#
# number of rings (size 3 to 8) (size 9 to 14) (size 15 to 20)
#    0.000    1.231    3.077    1.846    2.154    3.692 
#    2.769    1.538    0.000    0.000    0.000    0.000 
#    0.000    0.000    0.000    0.000    0.000    0.000 
#
# Total GULP energy -322446.321425 kJ/mol
# GULP energy per Si atom -12401.781593 kJ/mol
# Density = 2.071953 g / cm^3
# Si number density = 20.766794 Si / 1000 Ang^3
#
#
#
# Elastic Constant Matrix: (Units=GPa)
#
#
# Indices 1 2 3 4 5 6 
#
# 1 80.9549 38.6774 46.4615 0.0000 0.0000 0.0000
# 2 38.6774 113.0748 34.4801 0.0000 0.0000 0.0000
# 3 46.4615 34.4801 103.6391 0.0000 0.0000 0.0000
# 4 0.0000 0.0000 0.0000 19.8279 0.0000 0.0000
# 5 0.0000 0.0000 0.0000 0.0000 12.0775 0.0000
# 6 0.0000 0.0000 0.0000 0.0000 0.0000 4.6714
#
#
#
# Elastic Compliance Matrix: (Units=1/GPa)
#
#
# Indices 1 2 3 4 5 6 
#
# 1 0.018242 -0.004169 -0.006791 0.000000 0.000000 0.000000
# 2 -0.004169 0.010795 -0.001723 0.000000 0.000000 0.000000
# 3 -0.006791 -0.001723 0.013266 0.000000 0.000000 0.000000
# 4 0.000000 0.000000 0.000000 0.050434 0.000000 0.000000
# 5 0.000000 0.000000 0.000000 0.000000 0.082799 0.000000
# 6 0.000000 0.000000 0.000000 0.000000 0.000000 0.214067
#
#
# Mechanical properties :
#
#
# Convention : Reuss Voigt Hill
#
# Bulk Modulus (GPa) = 59.03703 59.65629 59.34666
# Shear Modulus (GPa) = 11.88741 19.18535 15.53638
#
# Velocity S-wave (km/s) = 2.39513 3.04278 2.73817
# Velocity P-wave (km/s) = 6.01159 6.41357 6.21583
#
# Compressibility (1/GPa) = 0.01693852
#
# Stress axis : x y z
#
# Youngs Moduli (GPa) = 54.81968 92.63629 75.37930
#
# Poissons Ratio (x) = 0.38619 0.51188
# Poissons Ratio (y) = 0.22853 0.12984
# Poissons Ratio (z) = 0.37227 0.15957
#
# Static dielectric constant tensor:
#      x y z
#    x 3.777880 0.000000 0.000000 
#    y 0.000000 4.001650 0.000000 
#    z 0.000000 0.000000 3.630150 
# 
# 
# High freq. dielectric constant tensor:
#      x y z
#    x 1.810800 0.000000 0.000000 
#    y 0.000000 1.829590 0.000000 
#    z 0.000000 0.000000 1.808710 
# 
# From -- ./inp_files/3782.got.cif
#   From: 2010.03.12/outbox.cif.g09.slc.cpg/sg41_2_cif.got.tgz:3782.got - 2010.04.14 01:55:53.
