data_PCOD8185023
_publ_section_title
;
Structure prediction by ZEFSAII (Michael W. Deem and Ramdas Pophale) SiO2 
 PCOD8185023
Probable space group: A B A 2
;
_chemical_formula_sum "Si O2"
_cell_formula_units_Z 64
_cell_length_a 12.890650
_cell_length_b 9.564594
_cell_length_c 25.579490
_cell_angle_alpha 90.000000
_cell_angle_beta 90.000000
_cell_angle_gamma 90.000000
_cell_volume 3153.793385
_symmetry_space_group_name_H-M "A B A 2"
_symmetry_group_IT_number 41
_symmetry_cell_setting 'orthorhombic'
loop_
_space_group_symop_operation_xyz
x,y,z
-x,-y,z
1/2-x,y,1/2+z
1/2+x,-y,1/2+z
x,1/2+y,1/2+z
-x,1/2-y,1/2+z
1/2-x,1/2+y,z
1/2+x,1/2-y,z
loop_
_atom_site_type_symbol
_atom_site_label
_atom_site_fract_x
_atom_site_fract_y
_atom_site_fract_z
Si Si1 0.048645 0.857999 0.198540
Si Si2 0.595690 0.407867 0.521854
Si Si3 0.901162 0.908202 0.641154
Si Si4 0.860862 0.663204 0.389986
Si Si5 0.773895 0.888480 0.941143
Si Si6 0.372699 0.764104 0.272015
Si Si7 0.749807 0.990676 0.228523
Si Si8 0.512682 0.344391 0.980227
O O1 0.066302 0.752482 0.150704
O O2 0.156880 0.899704 0.224275
O O3 0.977133 0.786375 0.242967
O O4 0.000000 0.000000 0.175105
O O5 0.500000 0.500000 0.502343
O O6 0.628838 0.438168 0.581223
O O7 0.690647 0.442739 0.483586
O O8 0.551896 0.250182 0.520310
O O9 0.796172 0.940856 0.672999
O O10 0.000000 0.000000 0.658274
O O11 0.772274 0.771487 0.404544
O O12 0.814464 0.509541 0.402153
O O13 0.895769 0.706227 0.332299
O O14 0.965234 0.679516 0.422816
O O15 0.865099 0.815022 0.974919
O O16 0.341194 0.919552 0.254313
O O17 0.284224 0.645379 0.262150
O O18 0.500000 0.500000 0.001764
#
# Coordination Sequence:
#
# PCOD8185023 Si02
#       8
#     8   8   8   8   8   8   8   8
#     4  10  23  42  61  88 132 166 214 270 317 380
#     4  10  22  40  65  89 123 165 208 260 327 372
#     4  11  22  43  64  93 124 171 213 267 327 381
#     4  10  21  37  62  91 122 161 204 251 315 369
#     4  10  20  41  61  92 125 158 206 259 305 386
#     4  11  22  39  63  94 125 173 209 263 317 379
#     4  11  22  41  62  90 133 163 217 264 315 385
#     4   9  20  40  58  89 127 153 202 258 305 375
#
# _framework density 20.293023000000002
#
# number of rings (size 3 to 8) (size 9 to 14) (size 15 to 20)
#    0.000    1.750    2.500    1.500    0.000    1.500 
#   22.500    8.750    0.000    0.000    0.000    0.000 
#    0.000    0.000    0.000    0.000    0.000    0.000 
#
# Total GULP energy -396601.052442 kJ/mol
# GULP energy per Si atom -12393.782889 kJ/mol
# Density = 2.024683 g / cm^3
# Si number density = 20.293023 Si / 1000 Ang^3
#
#
#
# Elastic Constant Matrix: (Units=GPa)
#
#
# Indices 1 2 3 4 5 6 
#
# 1 100.3077 21.6067 18.5236 0.0000 0.0000 0.0000
# 2 21.6067 85.3881 15.9042 0.0000 0.0000 0.0000
# 3 18.5236 15.9042 39.8548 0.0000 0.0000 0.0000
# 4 0.0000 0.0000 0.0000 17.7317 0.0000 0.0000
# 5 0.0000 0.0000 0.0000 0.0000 12.7248 0.0000
# 6 0.0000 0.0000 0.0000 0.0000 0.0000 27.8240
#
#
#
# Elastic Compliance Matrix: (Units=1/GPa)
#
#
# Indices 1 2 3 4 5 6 
#
# 1 0.011218 -0.002017 -0.004409 0.000000 0.000000 0.000000
# 2 -0.002017 0.013014 -0.004256 0.000000 0.000000 0.000000
# 3 -0.004409 -0.004256 0.028838 0.000000 0.000000 0.000000
# 4 0.000000 0.000000 0.000000 0.056396 0.000000 0.000000
# 5 0.000000 0.000000 0.000000 0.000000 0.078587 0.000000
# 6 0.000000 0.000000 0.000000 0.000000 0.000000 0.035940
#
#
# Mechanical properties :
#
#
# Convention : Reuss Voigt Hill
#
# Bulk Modulus (GPa) = 31.53895 37.51330 34.52612
# Shear Modulus (GPa) = 19.53681 22.95718 21.24699
#
# Velocity S-wave (km/s) = 3.10616 3.36711 3.23926
# Velocity P-wave (km/s) = 5.33290 5.80021 5.57146
#
# Compressibility (1/GPa) = 0.03170683
#
# Stress axis : x y z
#
# Youngs Moduli (GPa) = 89.14201 76.83794 34.67589
#
# Poissons Ratio (x) = 0.15502 0.15288
# Poissons Ratio (y) = 0.17984 0.14757
# Poissons Ratio (z) = 0.39301 0.32701
#
# Static dielectric constant tensor:
#      x y z
#    x 3.818340 0.000000 0.000000 
#    y 0.000000 4.567500 0.000000 
#    z 0.000000 0.000000 3.382750 
# 
# 
# High freq. dielectric constant tensor:
#      x y z
#    x 1.802720 0.000000 0.000000 
#    y 0.000000 1.809430 0.000000 
#    z 0.000000 0.000000 1.771650 
# 
# From -- ./inp_files/12719.got.cif
#   From: 2010.03.12/outbox.cif.g09.slc.cpg/sg41_7_cif.got.tgz:12719.got - 2010.04.14 01:55:53.
