data_PCOD8185119
_publ_section_title
;
Structure prediction by ZEFSAII (Michael W. Deem and Ramdas Pophale) SiO2 
 PCOD8185119
Probable space group: A B A 2
;
_chemical_formula_sum "Si O2"
_cell_formula_units_Z 52
_cell_length_a 17.173792
_cell_length_b 14.953333
_cell_length_c 10.310590
_cell_angle_alpha 90.000000
_cell_angle_beta 90.000000
_cell_angle_gamma 90.000000
_cell_volume 2647.815505
_symmetry_space_group_name_H-M "A B A 2"
_symmetry_group_IT_number 41
_symmetry_cell_setting 'orthorhombic'
loop_
_space_group_symop_operation_xyz
x,y,z
-x,-y,z
1/2-x,y,1/2+z
1/2+x,-y,1/2+z
x,1/2+y,1/2+z
-x,1/2-y,1/2+z
1/2-x,1/2+y,z
1/2+x,1/2-y,z
loop_
_atom_site_type_symbol
_atom_site_label
_atom_site_fract_x
_atom_site_fract_y
_atom_site_fract_z
Si Si1 0.078318 0.153654 0.642800
Si Si2 0.821562 0.417527 0.562732
Si Si3 0.961155 0.308042 0.656794
Si Si4 0.867500 0.773097 0.401632
Si Si5 0.277092 0.148210 0.292205
Si Si6 0.500000 0.500000 0.787520
Si Si7 0.913497 0.091175 0.016796
O O1 0.124935 0.146893 0.506916
O O2 0.140409 0.192085 0.749383
O O3 0.002892 0.215744 0.614705
O O4 0.054805 0.056246 0.692282
O O5 0.883035 0.334997 0.578198
O O6 0.756032 0.411999 0.673965
O O7 0.787142 0.413560 0.418551
O O8 0.860431 0.514656 0.578533
O O9 0.940139 0.291287 0.806447
O O10 0.021621 0.388523 0.627186
O O11 0.785352 0.775008 0.326652
O O12 0.866973 0.680861 0.481697
O O13 0.549729 0.564132 0.879117
#
# Coordination Sequence:
#
# PCOD8185119 Si02
#       7
#     8   8   8   8   8   4   8
#     4  11  22  39  63  92 123 165 211 258 316 370
#     4  11  22  41  65  88 131 168 212 253 325 371
#     4  10  21  38  66  89 119 162 215 259 306 378
#     4  10  23  41  61  94 126 161 214 255 319 377
#     4  11  22  42  62  87 129 174 198 263 315 381
#     4  12  20  38  64  90 122 158 208 264 312 368
#     4  11  20  40  66  90 116 169 210 255 313 377
#
# _framework density 19.638829999999999
#
# number of rings (size 3 to 8) (size 9 to 14) (size 15 to 20)
#    0.000    1.231    6.154    0.000    2.154    0.000 
#   11.077    1.538    0.000    0.000    0.000    0.000 
#    0.000    0.000    0.000    0.000    0.000    0.000 
#
# Total GULP energy -322140.911573 kJ/mol
# GULP energy per Si atom -12390.035060 kJ/mol
# Density = 1.959413 g / cm^3
# Si number density = 19.638830 Si / 1000 Ang^3
#
#
#
# Elastic Constant Matrix: (Units=GPa)
#
#
# Indices 1 2 3 4 5 6 
#
# 1 93.3827 42.7527 41.0821 0.0000 0.0000 0.0000
# 2 42.7527 75.0612 35.5929 0.0000 0.0000 0.0000
# 3 41.0821 35.5929 105.8673 0.0000 0.0000 0.0000
# 4 0.0000 0.0000 0.0000 34.1294 0.0000 0.0000
# 5 0.0000 0.0000 0.0000 0.0000 39.1672 0.0000
# 6 0.0000 0.0000 0.0000 0.0000 0.0000 22.5812
#
#
#
# Elastic Compliance Matrix: (Units=1/GPa)
#
#
# Indices 1 2 3 4 5 6 
#
# 1 0.015585 -0.007148 -0.003644 0.000000 0.000000 0.000000
# 2 -0.007148 0.019128 -0.003657 0.000000 0.000000 0.000000
# 3 -0.003644 -0.003657 0.012089 0.000000 0.000000 0.000000
# 4 0.000000 0.000000 0.000000 0.029300 0.000000 0.000000
# 5 0.000000 0.000000 0.000000 0.000000 0.025532 0.000000
# 6 0.000000 0.000000 0.000000 0.000000 0.000000 0.044285
#
#
# Mechanical properties :
#
#
# Convention : Reuss Voigt Hill
#
# Bulk Modulus (GPa) = 55.85750 57.01854 56.43802
# Shear Modulus (GPa) = 27.65708 29.50113 28.57910
#
# Velocity S-wave (km/s) = 3.75678 3.88001 3.81889
# Velocity P-wave (km/s) = 6.87910 7.01208 6.94591
#
# Compressibility (1/GPa) = 0.01790270
#
# Stress axis : x y z
#
# Youngs Moduli (GPa) = 64.16592 52.27912 82.71681
#
# Poissons Ratio (x) = 0.37372 0.30145
# Poissons Ratio (y) = 0.45869 0.30249
# Poissons Ratio (z) = 0.23384 0.19118
#
# Static dielectric constant tensor:
#      x y z
#    x 3.826240 0.000000 0.000000 
#    y 0.000000 3.336550 0.000000 
#    z 0.000000 0.000000 3.789010 
# 
# 
# High freq. dielectric constant tensor:
#      x y z
#    x 1.774950 0.000000 0.000000 
#    y 0.000000 1.735330 0.000000 
#    z 0.000000 0.000000 1.776150 
# 
# From -- ./inp_files/5989.got.cif
#   From: 2010.03.12/outbox.cif.g09.slc.cpg/sg41_3_cif.got.tgz:5989.got - 2010.04.14 01:55:53.
