data_PCOD8185918
_publ_section_title
;
Structure prediction by ZEFSAII (Michael W. Deem and Ramdas Pophale) SiO2 
 PCOD8185918
Probable space group: F M M 2
;
_chemical_formula_sum "Si O2"
_cell_formula_units_Z 88
_cell_length_a 13.841101
_cell_length_b 13.918611
_cell_length_c 24.086261
_cell_angle_alpha 90.000000
_cell_angle_beta 90.000000
_cell_angle_gamma 90.000000
_cell_volume 4640.191702
_symmetry_space_group_name_H-M "F M M 2"
_symmetry_group_IT_number 42
_symmetry_cell_setting 'orthorhombic'
loop_
_space_group_symop_operation_xyz
x,y,z
-x,-y,z
-x,y,z
x,-y,z
x,1/2+y,1/2+z
-x,1/2-y,1/2+z
-x,1/2+y,1/2+z
x,1/2-y,1/2+z
1/2+x,y,1/2+z
1/2-x,-y,1/2+z
1/2-x,y,1/2+z
1/2+x,-y,1/2+z
1/2+x,1/2+y,z
1/2-x,1/2-y,z
1/2-x,1/2+y,z
1/2+x,1/2-y,z
loop_
_atom_site_type_symbol
_atom_site_label
_atom_site_fract_x
_atom_site_fract_y
_atom_site_fract_z
Si Si1 0.614420 0.394340 0.353940
Si Si2 0.387502 0.199834 0.963795
Si Si3 0.107946 0.395133 0.514183
Si Si4 0.750000 0.250000 0.158289
Si Si5 0.702962 0.392779 0.571594
Si Si6 0.113127 0.613234 0.729655
O O1 0.500000 0.399397 0.357207
O O2 0.658272 0.500000 0.363673
O O3 0.655224 0.327654 0.403489
O O4 0.642403 0.357847 0.292655
O O5 0.500000 0.176557 0.967314
O O6 0.364926 0.312967 0.969908
O O7 0.339511 0.138764 0.012677
O O8 0.115368 0.500000 0.484732
O O9 0.180197 0.391824 0.566315
O O10 0.000000 0.377799 0.537916
O O11 0.679525 0.182389 0.120501
O O12 0.819712 0.181126 0.192899
O O13 0.665332 0.500000 0.586349
O O14 0.134672 0.500000 0.718771
O O15 0.000000 0.634295 0.718228
#
# Coordination Sequence:
#
# PCOD8185918 Si02
#       6
#    16  16  16   8  16  16
#     4   8  15  31  56  82 105 134 179 230 273 320
#     4  10  18  32  55  82 111 141 173 216 276 334
#     4   9  18  33  51  73 105 145 185 219 257 316
#     4  12  22  36  54  84 110 148 188 236 274 326
#     4  11  22  35  51  76 112 144 176 220 272 331
#     4   9  20  40  63  84 107 144 195 242 279 321
#
# _framework density 18.964732999999999
#
# number of rings (size 3 to 8) (size 9 to 14) (size 15 to 20)
#    0.000    2.364    1.818    2.182    0.000    2.545 
#    3.273    1.818    0.000    2.727    0.000    2.545 
#    0.000    0.000    0.000    0.000    0.000    0.000 
#
# Total GULP energy -272592.100635 kJ/mol
# GULP energy per Si atom -12390.550029 kJ/mol
# Density = 1.892157 g / cm^3
# Si number density = 18.964733 Si / 1000 Ang^3
#
#
#
# Elastic Constant Matrix: (Units=GPa)
#
#
# Indices 1 2 3 4 5 6 
#
# 1 40.7842 32.4419 31.5006 0.0000 0.0000 0.0000
# 2 32.4419 141.7738 73.7988 0.0000 0.0000 0.0000
# 3 31.5006 73.7988 129.2591 0.0000 0.0000 0.0000
# 4 0.0000 0.0000 0.0000 33.4048 0.0000 0.0000
# 5 0.0000 0.0000 0.0000 0.0000 23.7254 0.0000
# 6 0.0000 0.0000 0.0000 0.0000 0.0000 27.0490
#
#
#
# Elastic Compliance Matrix: (Units=1/GPa)
#
#
# Indices 1 2 3 4 5 6 
#
# 1 0.032248 -0.004679 -0.005187 0.000000 0.000000 0.000000
# 2 -0.004679 0.010715 -0.004977 0.000000 0.000000 0.000000
# 3 -0.005187 -0.004977 0.011842 0.000000 0.000000 0.000000
# 4 0.000000 0.000000 0.000000 0.029936 0.000000 0.000000
# 5 0.000000 0.000000 0.000000 0.000000 0.042149 0.000000
# 6 0.000000 0.000000 0.000000 0.000000 0.000000 0.036970
#
#
# Mechanical properties :
#
#
# Convention : Reuss Voigt Hill
#
# Bulk Modulus (GPa) = 39.81255 65.25553 52.53404
# Shear Modulus (GPa) = 24.76227 28.44089 26.60158
#
# Velocity S-wave (km/s) = 3.61737 3.87676 3.74931
# Velocity P-wave (km/s) = 6.20368 7.38394 6.81939
#
# Compressibility (1/GPa) = 0.02511771
#
# Stress axis : x y z
#
# Youngs Moduli (GPa) = 31.00986 93.32643 84.44258
#
# Poissons Ratio (x) = 0.43667 0.43804
# Poissons Ratio (y) = 0.14509 0.42030
# Poissons Ratio (z) = 0.16086 0.46452
#
# Static dielectric constant tensor:
#      x y z
#    x 3.351720 0.000000 0.000000 
#    y 0.000000 3.782680 0.000000 
#    z 0.000000 0.000000 3.535760 
# 
# 
# High freq. dielectric constant tensor:
#      x y z
#    x 1.716300 0.000000 0.000000 
#    y 0.000000 1.749640 0.000000 
#    z 0.000000 0.000000 1.723380 
# 
# From -- ./inp_files/24986.got.cif
#   From: 2010.03.12/outbox.cif.g09.slc.cpg/sg42_13_cif.got.tgz:24986.got - 2010.04.14 02:04:31.
