data_PCOD8185494
_publ_section_title
;
Structure prediction by ZEFSAII (Michael W. Deem and Ramdas Pophale) SiO2 
 PCOD8185494
Probable space group: A B A 2
;
_chemical_formula_sum "Si O2"
_cell_formula_units_Z 60
_cell_length_a 12.072739
_cell_length_b 8.708121
_cell_length_c 26.463867
_cell_angle_alpha 90.000000
_cell_angle_beta 90.000000
_cell_angle_gamma 90.000000
_cell_volume 2782.169415
_symmetry_space_group_name_H-M "A B A 2"
_symmetry_group_IT_number 41
_symmetry_cell_setting 'orthorhombic'
loop_
_space_group_symop_operation_xyz
x,y,z
-x,-y,z
1/2-x,y,1/2+z
1/2+x,-y,1/2+z
x,1/2+y,1/2+z
-x,1/2-y,1/2+z
1/2-x,1/2+y,z
1/2+x,1/2-y,z
loop_
_atom_site_type_symbol
_atom_site_label
_atom_site_fract_x
_atom_site_fract_y
_atom_site_fract_z
Si Si1 0.500000 0.500000 0.960420
Si Si2 0.335908 0.362515 0.883170
Si Si3 0.840876 0.561840 0.543198
Si Si4 0.625573 0.514356 0.774342
Si Si5 0.878493 0.020027 0.157628
Si Si6 0.245288 0.731800 0.215171
Si Si7 0.621094 0.959763 0.905018
Si Si8 0.887866 0.418683 0.021625
O O1 0.437364 0.380282 0.923668
O O2 0.598180 0.453791 0.000259
O O3 0.361644 0.459791 0.833788
O O4 0.331423 0.181417 0.871851
O O5 0.213029 0.405714 0.903329
O O6 0.880367 0.506183 0.597471
O O7 0.710291 0.531518 0.538954
O O8 0.870850 0.742852 0.539283
O O9 0.500000 0.500000 0.758533
O O10 0.684079 0.354542 0.760847
O O11 0.671408 0.652537 0.741379
O O12 0.838508 0.183685 0.177710
O O13 0.805140 0.884414 0.178621
O O14 0.000000 0.000000 0.179806
O O15 0.500000 0.000000 0.881886
O O16 0.604493 0.907017 0.961851
O O17 0.000000 0.500000 0.043025
#
# Coordination Sequence:
#
# PCOD8185494 Si02
#       8
#     4   8   8   8   8   8   8   8
#     4  12  24  40  68  96 142 178 220 266 322 390
#     4  12  25  42  68  98 135 181 221 268 333 398
#     4  12  25  42  68  98 135 181 221 268 333 398
#     4  11  23  43  69  95 130 169 215 273 336 389
#     4  11  23  43  69  95 130 169 215 273 336 389
#     4  10  24  44  66  98 126 164 222 280 326 390
#     4  11  25  41  63  93 135 179 227 268 319 386
#     4  11  25  41  63  93 135 179 227 268 319 386
#
# _framework density 21.565905000000001
#
# number of rings (size 3 to 8) (size 9 to 14) (size 15 to 20)
#    0.000    0.800    4.000    2.400    3.733    2.133 
#    0.000    6.667    0.000    0.000    0.000    0.000 
#    0.000    0.000    0.000    0.000    0.000    0.000 
#
# Total GULP energy -371822.767366 kJ/mol
# GULP energy per Si atom -12394.092246 kJ/mol
# Density = 2.151682 g / cm^3
# Si number density = 21.565905 Si / 1000 Ang^3
#
#
#
# Elastic Constant Matrix: (Units=GPa)
#
#
# Indices 1 2 3 4 5 6 
#
# 1 178.7404 78.3496 33.6539 0.0000 0.0000 0.0000
# 2 78.3496 94.6749 25.6528 0.0000 0.0000 0.0000
# 3 33.6539 25.6528 110.8643 0.0000 0.0000 0.0000
# 4 0.0000 0.0000 0.0000 30.0846 0.0000 0.0000
# 5 0.0000 0.0000 0.0000 0.0000 64.1656 0.0000
# 6 0.0000 0.0000 0.0000 0.0000 0.0000 9.2647
#
#
#
# Elastic Compliance Matrix: (Units=1/GPa)
#
#
# Indices 1 2 3 4 5 6 
#
# 1 0.008896 -0.007073 -0.001064 0.000000 0.000000 0.000000
# 2 -0.007073 0.016894 -0.001762 0.000000 0.000000 0.000000
# 3 -0.001064 -0.001762 0.009751 0.000000 0.000000 0.000000
# 4 0.000000 0.000000 0.000000 0.033240 0.000000 0.000000
# 5 0.000000 0.000000 0.000000 0.000000 0.015585 0.000000
# 6 0.000000 0.000000 0.000000 0.000000 0.000000 0.107937
#
#
# Mechanical properties :
#
#
# Convention : Reuss Voigt Hill
#
# Bulk Modulus (GPa) = 63.52432 73.28805 68.40619
# Shear Modulus (GPa) = 23.00479 37.14453 30.07466
#
# Velocity S-wave (km/s) = 3.26961 4.15465 3.73841
# Velocity P-wave (km/s) = 6.61617 7.55459 7.10090
#
# Compressibility (1/GPa) = 0.01574200
#
# Stress axis : x y z
#
# Youngs Moduli (GPa) = 112.41541 59.19406 102.55818
#
# Poissons Ratio (x) = 0.41871 0.10908
# Poissons Ratio (y) = 0.79517 0.18068
# Poissons Ratio (z) = 0.11957 0.10429
#
# Static dielectric constant tensor:
#      x y z
#    x 4.219320 0.000000 0.000000 
#    y 0.000000 3.883290 0.000000 
#    z 0.000000 0.000000 3.837880 
# 
# 
# High freq. dielectric constant tensor:
#      x y z
#    x 1.864720 0.000000 0.000000 
#    y 0.000000 1.845670 0.000000 
#    z 0.000000 0.000000 1.844950 
# 
# From -- ./inp_files/12526.got.cif
#   From: 2010.03.12/outbox.cif.g09.slc.cpg/sg41_7_cif.got.tgz:12526.got - 2010.04.14 01:55:53.
