data_PCOD8185057
_publ_section_title
;
Structure prediction by ZEFSAII (Michael W. Deem and Ramdas Pophale) SiO2 
 PCOD8185057
Probable space group: A B A 2
;
_chemical_formula_sum "Si O2"
_cell_formula_units_Z 40
_cell_length_a 12.624627
_cell_length_b 13.967198
_cell_length_c 9.353971
_cell_angle_alpha 90.000000
_cell_angle_beta 90.000000
_cell_angle_gamma 90.000000
_cell_volume 1649.391927
_symmetry_space_group_name_H-M "A B A 2"
_symmetry_group_IT_number 41
_symmetry_cell_setting 'orthorhombic'
loop_
_space_group_symop_operation_xyz
x,y,z
-x,-y,z
1/2-x,y,1/2+z
1/2+x,-y,1/2+z
x,1/2+y,1/2+z
-x,1/2-y,1/2+z
1/2-x,1/2+y,z
1/2+x,1/2-y,z
loop_
_atom_site_type_symbol
_atom_site_label
_atom_site_fract_x
_atom_site_fract_y
_atom_site_fract_z
Si Si1 0.616056 0.959192 0.686590
Si Si2 0.372034 0.266977 0.701471
Si Si3 0.309075 0.551751 0.877842
Si Si4 0.714985 0.272230 0.479515
Si Si5 0.052645 0.089781 0.624641
O O1 0.602920 0.844797 0.688248
O O2 0.660784 0.994137 0.531633
O O3 0.700121 0.992067 0.809035
O O4 0.500000 0.000000 0.718360
O O5 0.269075 0.291455 0.602774
O O6 0.471522 0.325222 0.650706
O O7 0.347819 0.295220 0.867522
O O8 0.404716 0.536750 0.767105
O O9 0.302335 0.668517 0.888719
O O10 0.647556 0.362478 0.538281
O O11 0.000000 0.000000 0.538206
#
# Coordination Sequence:
#
# PCOD8185057 Si02
#       5
#     8   8   8   8   8
#     4  10  21  43  72  98 138 187 229 291 351 413
#     4  10  24  44  72  98 141 181 229 290 348 416
#     4  10  20  44  65  95 142 170 231 287 333 422
#     4  10  21  45  68  98 137 174 232 290 336 416
#     4  12  25  44  69 103 140 186 229 287 355 415
#
# _framework density 24.251360999999999
#
# number of rings (size 3 to 8) (size 9 to 14) (size 15 to 20)
#    0.000    1.600    6.000    0.600    5.600    3.200 
#    7.200    0.000    0.000    0.000    0.000    0.000 
#    0.000    0.000    0.000    0.000    0.000    0.000 
#
# Total GULP energy -247853.223310 kJ/mol
# GULP energy per Si atom -12392.661165 kJ/mol
# Density = 2.419616 g / cm^3
# Si number density = 24.251361 Si / 1000 Ang^3
#
#
#
# Elastic Constant Matrix: (Units=GPa)
#
#
# Indices 1 2 3 4 5 6 
#
# 1 144.8423 38.9300 54.2326 0.0000 0.0000 0.0000
# 2 38.9300 31.4379 9.6972 0.0000 0.0000 0.0000
# 3 54.2326 9.6972 133.7400 0.0000 0.0000 0.0000
# 4 0.0000 0.0000 0.0000 13.0565 0.0000 0.0000
# 5 0.0000 0.0000 0.0000 0.0000 15.6669 0.0000
# 6 0.0000 0.0000 0.0000 0.0000 0.0000 37.8093
#
#
#
# Elastic Compliance Matrix: (Units=1/GPa)
#
#
# Indices 1 2 3 4 5 6 
#
# 1 0.012048 -0.013719 -0.003891 0.000000 0.000000 0.000000
# 2 -0.013719 0.048159 0.002071 0.000000 0.000000 0.000000
# 3 -0.003891 0.002071 0.008905 0.000000 0.000000 0.000000
# 4 0.000000 0.000000 0.000000 0.076590 0.000000 0.000000
# 5 0.000000 0.000000 0.000000 0.000000 0.063829 0.000000
# 6 0.000000 0.000000 0.000000 0.000000 0.000000 0.026448
#
#
# Mechanical properties :
#
#
# Convention : Reuss Voigt Hill
#
# Bulk Modulus (GPa) = 26.29222 57.30440 41.79831
# Shear Modulus (GPa) = 17.87406 27.11726 22.49566
#
# Velocity S-wave (km/s) = 2.71778 3.34754 3.04896
# Velocity P-wave (km/s) = 4.55121 6.21466 5.44681
#
# Compressibility (1/GPa) = 0.03803407
#
# Stress axis : x y z
#
# Youngs Moduli (GPa) = 82.99875 20.76465 112.29891
#
# Poissons Ratio (x) = 0.28488 0.43695
# Poissons Ratio (y) = 1.13870 -0.23262
# Poissons Ratio (z) = 0.32294 -0.04301
#
# Static dielectric constant tensor:
#      x y z
#    x 4.405740 0.000000 0.000000 
#    y 0.000000 3.764600 0.000000 
#    z 0.000000 0.000000 4.798040 
# 
# 
# High freq. dielectric constant tensor:
#      x y z
#    x 1.969710 0.000000 0.000000 
#    y 0.000000 1.926140 0.000000 
#    z 0.000000 0.000000 1.978670 
# 
# From -- ./inp_files/2413.got.cif
#   From: 2010.03.12/outbox.cif.g09.slc.cpg/sg41_2_cif.got.tgz:2413.got - 2010.04.14 01:55:53.
