data_PCOD8185403
_publ_section_title
;
Structure prediction by ZEFSAII (Michael W. Deem and Ramdas Pophale) SiO2 
 PCOD8185403
Probable space group: A B A 2
;
_chemical_formula_sum "Si O2"
_cell_formula_units_Z 64
_cell_length_a 8.269468
_cell_length_b 26.517449
_cell_length_c 14.093977
_cell_angle_alpha 90.000000
_cell_angle_beta 90.000000
_cell_angle_gamma 90.000000
_cell_volume 3090.600508
_symmetry_space_group_name_H-M "A B A 2"
_symmetry_group_IT_number 41
_symmetry_cell_setting 'orthorhombic'
loop_
_space_group_symop_operation_xyz
x,y,z
-x,-y,z
1/2-x,y,1/2+z
1/2+x,-y,1/2+z
x,1/2+y,1/2+z
-x,1/2-y,1/2+z
1/2-x,1/2+y,z
1/2+x,1/2-y,z
loop_
_atom_site_type_symbol
_atom_site_label
_atom_site_fract_x
_atom_site_fract_y
_atom_site_fract_z
Si Si1 0.184778 0.104879 0.123870
Si Si2 0.412505 0.637111 0.779837
Si Si3 0.823897 0.817726 0.972427
Si Si4 0.189928 0.996101 0.194165
Si Si5 0.325806 0.408426 0.060696
Si Si6 0.852173 0.181536 0.642921
Si Si7 0.097488 0.257212 0.559726
Si Si8 0.592903 0.547058 0.862591
O O1 0.263311 0.139128 0.206188
O O2 0.990558 0.105426 0.117385
O O3 0.250633 0.048949 0.148080
O O4 0.244095 0.131840 0.025973
O O5 0.342601 0.670553 0.863355
O O6 0.581511 0.661755 0.743190
O O7 0.459075 0.580199 0.807927
O O8 0.715626 0.767504 0.981259
O O9 0.000184 0.803931 0.015252
O O10 0.239225 0.958489 0.110529
O O11 0.275279 0.976575 0.290691
O O12 0.000000 0.000000 0.217664
O O13 0.194009 0.364961 0.074572
O O14 0.338459 0.418554 0.947849
O O15 0.699697 0.219702 0.648766
O O16 0.997031 0.210527 0.594531
O O17 0.500000 0.500000 0.910645
#
# Coordination Sequence:
#
# PCOD8185403 Si02
#       8
#     8   8   8   8   8   8   8   8
#     4  11  21  42  65  96 135 173 216 272 331 395
#     4  12  24  39  68  99 131 175 227 276 332 402
#     4  11  23  44  65  97 132 175 220 276 337 398
#     4  10  23  40  64  99 135 174 217 267 326 393
#     4  11  23  43  67  92 137 179 213 272 338 386
#     4  11  22  42  67  97 127 173 220 276 335 397
#     4  10  23  44  68  90 132 171 221 278 339 395
#     4  12  22  41  66  98 136 178 226 264 323 404
#
# _framework density 20.707951000000001
#
# number of rings (size 3 to 8) (size 9 to 14) (size 15 to 20)
#    0.000    1.000    6.250    1.125    0.000    1.000 
#    4.500    4.375    0.000    0.000    0.000    0.000 
#    0.000    0.000    0.000    0.000    0.000    0.000 
#
# Total GULP energy -396469.828652 kJ/mol
# GULP energy per Si atom -12389.682145 kJ/mol
# Density = 2.066082 g / cm^3
# Si number density = 20.707951 Si / 1000 Ang^3
#
#
#
# Elastic Constant Matrix: (Units=GPa)
#
#
# Indices 1 2 3 4 5 6 
#
# 1 68.0083 46.9003 44.2640 0.0000 0.0000 0.0000
# 2 46.9003 115.9647 53.9288 0.0000 0.0000 0.0000
# 3 44.2640 53.9288 125.1002 0.0000 0.0000 0.0000
# 4 0.0000 0.0000 0.0000 27.5541 0.0000 0.0000
# 5 0.0000 0.0000 0.0000 0.0000 31.6833 0.0000
# 6 0.0000 0.0000 0.0000 0.0000 0.0000 33.1442
#
#
#
# Elastic Compliance Matrix: (Units=1/GPa)
#
#
# Indices 1 2 3 4 5 6 
#
# 1 0.022727 -0.006819 -0.005102 0.000000 0.000000 0.000000
# 2 -0.006819 0.012832 -0.003119 0.000000 0.000000 0.000000
# 3 -0.005102 -0.003119 0.011143 0.000000 0.000000 0.000000
# 4 0.000000 0.000000 0.000000 0.036292 0.000000 0.000000
# 5 0.000000 0.000000 0.000000 0.000000 0.031562 0.000000
# 6 0.000000 0.000000 0.000000 0.000000 0.000000 0.030171
#
#
# Mechanical properties :
#
#
# Convention : Reuss Voigt Hill
#
# Bulk Modulus (GPa) = 60.15906 66.58439 63.37172
# Shear Modulus (GPa) = 27.72412 29.40833 28.56622
#
# Velocity S-wave (km/s) = 3.66295 3.77257 3.71817
# Velocity P-wave (km/s) = 6.85594 7.15543 7.00729
#
# Compressibility (1/GPa) = 0.01662260
#
# Stress axis : x y z
#
# Youngs Moduli (GPa) = 43.99975 77.93297 89.74059
#
# Poissons Ratio (x) = 0.53143 0.45785
# Poissons Ratio (y) = 0.30004 0.27987
# Poissons Ratio (z) = 0.22449 0.24305
#
# Static dielectric constant tensor:
#      x y z
#    x 3.874980 0.000000 0.000000 
#    y 0.000000 4.102260 0.000000 
#    z 0.000000 0.000000 3.546740 
# 
# 
# High freq. dielectric constant tensor:
#      x y z
#    x 1.804260 0.000000 0.000000 
#    y 0.000000 1.838380 0.000000 
#    z 0.000000 0.000000 1.788240 
# 
# From -- ./inp_files/7597.got.cif
#   From: 2010.03.12/outbox.cif.g09.slc.cpg/sg41_4_cif.got.tgz:7597.got - 2010.04.14 01:55:53.
