data_PCOD8185440
_publ_section_title
;
Structure prediction by ZEFSAII (Michael W. Deem and Ramdas Pophale) SiO2 
 PCOD8185440
Probable space group: A B A 2
;
_chemical_formula_sum "Si O2"
_cell_formula_units_Z 64
_cell_length_a 8.424510
_cell_length_b 12.914947
_cell_length_c 24.755714
_cell_angle_alpha 90.000000
_cell_angle_beta 90.000000
_cell_angle_gamma 90.000000
_cell_volume 2693.473674
_symmetry_space_group_name_H-M "A B A 2"
_symmetry_group_IT_number 41
_symmetry_cell_setting 'orthorhombic'
loop_
_space_group_symop_operation_xyz
x,y,z
-x,-y,z
1/2-x,y,1/2+z
1/2+x,-y,1/2+z
x,1/2+y,1/2+z
-x,1/2-y,1/2+z
1/2-x,1/2+y,z
1/2+x,1/2-y,z
loop_
_atom_site_type_symbol
_atom_site_label
_atom_site_fract_x
_atom_site_fract_y
_atom_site_fract_z
Si Si1 0.303029 0.178701 0.701200
Si Si2 0.165846 0.884438 0.025108
Si Si3 0.684217 0.357426 0.857998
Si Si4 0.989705 0.375025 0.036397
Si Si5 0.683254 0.496277 0.273311
Si Si6 0.569942 0.716856 0.126919
Si Si7 0.162739 0.617180 0.483716
Si Si8 0.864684 0.692648 0.300739
O O1 0.234509 0.070880 0.725097
O O2 0.163109 0.252297 0.680950
O O3 0.413239 0.160031 0.648981
O O4 0.399252 0.226819 0.752560
O O5 0.341554 0.841309 0.006586
O O6 0.162290 0.866813 0.089898
O O7 0.002928 0.826204 0.003450
O O8 0.154586 0.002844 0.008285
O O9 0.791757 0.447881 0.832929
O O10 0.520773 0.358329 0.824969
O O11 0.771157 0.247228 0.850491
O O12 0.656904 0.384708 0.919689
O O13 0.000000 0.500000 0.042999
O O14 0.975872 0.321782 0.094693
O O15 0.831525 0.335354 0.003701
O O16 0.500000 0.500000 0.259007
O O17 0.754909 0.608925 0.272477
#
# Coordination Sequence:
#
# PCOD8185440 Si02
#       8
#     8   8   8   8   8   8   8   8
#     4  11  24  42  70 105 142 191 245 296 375 436
#     4  10  23  44  68 101 148 187 246 311 355 441
#     4  11  25  47  74 106 145 190 244 304 377 441
#     4  10  23  45  67 101 149 189 249 306 359 444
#     4  11  24  45  71 107 149 187 241 306 362 452
#     4  12  22  43  68 100 145 193 243 302 373 438
#     4  10  24  46  70 105 141 192 247 302 374 439
#     4  11  24  47  71 107 149 183 247 309 363 457
#
# _framework density 23.761139
#
# number of rings (size 3 to 8) (size 9 to 14) (size 15 to 20)
#    0.000    1.250    1.250    4.875    3.500    3.500 
#   13.500    0.000    0.000    0.000    0.000    0.000 
#    0.000    0.000    0.000    0.000    0.000    0.000 
#
# Total GULP energy -396585.796210 kJ/mol
# GULP energy per Si atom -12393.306132 kJ/mol
# Density = 2.370706 g / cm^3
# Si number density = 23.761139 Si / 1000 Ang^3
#
#
#
# Elastic Constant Matrix: (Units=GPa)
#
#
# Indices 1 2 3 4 5 6 
#
# 1 152.3182 29.7896 40.4659 0.0000 0.0000 0.0000
# 2 29.7896 64.9439 28.9511 0.0000 0.0000 0.0000
# 3 40.4659 28.9511 107.8278 0.0000 0.0000 0.0000
# 4 0.0000 0.0000 0.0000 22.6772 0.0000 0.0000
# 5 0.0000 0.0000 0.0000 0.0000 38.2356 0.0000
# 6 0.0000 0.0000 0.0000 0.0000 0.0000 38.6138
#
#
#
# Elastic Compliance Matrix: (Units=1/GPa)
#
#
# Indices 1 2 3 4 5 6 
#
# 1 0.007641 -0.002529 -0.002189 0.000000 0.000000 0.000000
# 2 -0.002529 0.018329 -0.003972 0.000000 0.000000 0.000000
# 3 -0.002189 -0.003972 0.011162 0.000000 0.000000 0.000000
# 4 0.000000 0.000000 0.000000 0.044097 0.000000 0.000000
# 5 0.000000 0.000000 0.000000 0.000000 0.026154 0.000000
# 6 0.000000 0.000000 0.000000 0.000000 0.000000 0.025897
#
#
# Mechanical properties :
#
#
# Convention : Reuss Voigt Hill
#
# Bulk Modulus (GPa) = 50.62741 58.16703 54.39722
# Shear Modulus (GPa) = 31.79773 34.96421 33.38097
#
# Velocity S-wave (km/s) = 3.66214 3.84016 3.75221
# Velocity P-wave (km/s) = 6.26377 6.64797 6.45873
#
# Compressibility (1/GPa) = 0.01975214
#
# Stress axis : x y z
#
# Youngs Moduli (GPa) = 130.86752 54.55904 89.59136
#
# Poissons Ratio (x) = 0.13800 0.19607
# Poissons Ratio (y) = 0.33102 0.35585
# Poissons Ratio (z) = 0.28641 0.21670
#
# Static dielectric constant tensor:
#      x y z
#    x 5.024810 0.000000 0.000000 
#    y 0.000000 4.592340 0.000000 
#    z 0.000000 0.000000 4.014650 
# 
# 
# High freq. dielectric constant tensor:
#      x y z
#    x 1.964230 0.000000 0.000000 
#    y 0.000000 1.948660 0.000000 
#    z 0.000000 0.000000 1.924650 
# 
# From -- ./inp_files/12023.got.cif
#   From: 2010.03.12/outbox.cif.g09.slc.cpg/sg41_7_cif.got.tgz:12023.got - 2010.04.14 01:55:53.
