data_PCOD8185731
_publ_section_title
;
Structure prediction by ZEFSAII (Michael W. Deem and Ramdas Pophale) SiO2 
 PCOD8185731
Probable space group: A B A 2
;
_chemical_formula_sum "Si O2"
_cell_formula_units_Z 36
_cell_length_a 27.850859
_cell_length_b 6.974242
_cell_length_c 7.329729
_cell_angle_alpha 90.000000
_cell_angle_beta 90.000000
_cell_angle_gamma 90.000000
_cell_volume 1423.716523
_symmetry_space_group_name_H-M "A B A 2"
_symmetry_group_IT_number 41
_symmetry_cell_setting 'orthorhombic'
loop_
_space_group_symop_operation_xyz
x,y,z
-x,-y,z
1/2-x,y,1/2+z
1/2+x,-y,1/2+z
x,1/2+y,1/2+z
-x,1/2-y,1/2+z
1/2-x,1/2+y,z
1/2+x,1/2-y,z
loop_
_atom_site_type_symbol
_atom_site_label
_atom_site_fract_x
_atom_site_fract_y
_atom_site_fract_z
Si Si1 0.062976 0.785308 0.712020
Si Si2 0.201823 0.297960 0.090690
Si Si3 0.190844 0.377712 0.502807
Si Si4 0.625980 0.946923 0.964156
Si Si5 0.000000 0.500000 0.494769
O O1 0.019745 0.673939 0.616037
O O2 0.042898 0.910192 0.878119
O O3 0.086457 0.939807 0.578265
O O4 0.101736 0.627693 0.777907
O O5 0.189062 0.396080 0.282838
O O6 0.172954 0.415597 0.932772
O O7 0.258185 0.285398 0.054819
O O8 0.182436 0.081696 0.094570
O O9 0.147469 0.240219 0.569547
#
# Coordination Sequence:
#
# PCOD8185731 Si02
#       5
#     8   8   8   8   4
#     4  12  28  50  82 110 150 188 256 316 388 468
#     4  12  27  46  73 110 160 210 255 306 366 432
#     4  12  27  46  73 110 160 210 255 306 366 432
#     4  12  28  49  79 120 148 204 259 307 366 462
#     4  12  28  56  78 112 146 194 238 330 412 446
#
# _framework density 25.285931999999999
#
# number of rings (size 3 to 8) (size 9 to 14) (size 15 to 20)
#    0.000    0.000    4.444    4.000    3.111    3.556 
#    0.000    0.000    0.000    0.000    0.000    0.000 
#    0.000    0.000    0.000    0.000    0.000    0.000 
#
# Total GULP energy -223242.470425 kJ/mol
# GULP energy per Si atom -12402.359468 kJ/mol
# Density = 2.522838 g / cm^3
# Si number density = 25.285932 Si / 1000 Ang^3
#
#
#
# Elastic Constant Matrix: (Units=GPa)
#
#
# Indices 1 2 3 4 5 6 
#
# 1 97.9805 23.1069 8.3512 0.0000 0.0000 0.0000
# 2 23.1069 107.5868 14.6389 0.0000 0.0000 0.0000
# 3 8.3512 14.6389 54.5823 0.0000 0.0000 0.0000
# 4 0.0000 0.0000 0.0000 39.9854 0.0000 0.0000
# 5 0.0000 0.0000 0.0000 0.0000 39.4589 0.0000
# 6 0.0000 0.0000 0.0000 0.0000 0.0000 63.0594
#
#
#
# Elastic Compliance Matrix: (Units=1/GPa)
#
#
# Indices 1 2 3 4 5 6 
#
# 1 0.010811 -0.002176 -0.001070 0.000000 0.000000 0.000000
# 2 -0.002176 0.010085 -0.002372 0.000000 0.000000 0.000000
# 3 -0.001070 -0.002372 0.019121 0.000000 0.000000 0.000000
# 4 0.000000 0.000000 0.000000 0.025009 0.000000 0.000000
# 5 0.000000 0.000000 0.000000 0.000000 0.025343 0.000000
# 6 0.000000 0.000000 0.000000 0.000000 0.000000 0.015858
#
#
# Mechanical properties :
#
#
# Convention : Reuss Voigt Hill
#
# Bulk Modulus (GPa) = 34.74687 39.14929 36.94808
# Shear Modulus (GPa) = 39.35264 42.77092 41.06178
#
# Velocity S-wave (km/s) = 3.94928 4.11724 4.03413
# Velocity P-wave (km/s) = 5.87939 6.17401 6.02850
#
# Compressibility (1/GPa) = 0.02877957
#
# Stress axis : x y z
#
# Youngs Moduli (GPa) = 92.50213 99.15785 52.29897
#
# Poissons Ratio (x) = 0.21579 0.05598
# Poissons Ratio (y) = 0.20130 0.12404
# Poissons Ratio (z) = 0.09901 0.23518
#
# Static dielectric constant tensor:
#      x y z
#    x 4.730030 0.000000 0.000000 
#    y 0.000000 4.762830 0.000000 
#    z 0.000000 0.000000 4.322680 
# 
# 
# High freq. dielectric constant tensor:
#      x y z
#    x 2.024590 0.000000 0.000000 
#    y 0.000000 2.028730 0.000000 
#    z 0.000000 0.000000 1.999630 
# 
# From -- ./inp_files/3886.got.cif
#   From: 2010.03.12/outbox.cif.g09.slc.cpg/sg41_2_cif.got.tgz:3886.got - 2010.04.14 01:55:53.
