data_PCOD8185439
_publ_section_title
;
Structure prediction by ZEFSAII (Michael W. Deem and Ramdas Pophale) SiO2 
 PCOD8185439
Probable space group: A B A 2
;
_chemical_formula_sum "Si O2"
_cell_formula_units_Z 36
_cell_length_a 7.722041
_cell_length_b 14.188203
_cell_length_c 14.708850
_cell_angle_alpha 90.000000
_cell_angle_beta 90.000000
_cell_angle_gamma 90.000000
_cell_volume 1611.529336
_symmetry_space_group_name_H-M "A B A 2"
_symmetry_group_IT_number 41
_symmetry_cell_setting 'orthorhombic'
loop_
_space_group_symop_operation_xyz
x,y,z
-x,-y,z
1/2-x,y,1/2+z
1/2+x,-y,1/2+z
x,1/2+y,1/2+z
-x,1/2-y,1/2+z
1/2-x,1/2+y,z
1/2+x,1/2-y,z
loop_
_atom_site_type_symbol
_atom_site_label
_atom_site_fract_x
_atom_site_fract_y
_atom_site_fract_z
Si Si1 0.075354 0.339678 0.102620
Si Si2 0.190963 0.977228 0.752717
Si Si3 0.336614 0.934023 0.931471
Si Si4 0.183874 0.638159 0.642288
Si Si5 0.000000 0.000000 0.020281
O O1 0.173851 0.423026 0.156711
O O2 0.116980 0.244247 0.157500
O O3 0.871776 0.358337 0.095924
O O4 0.143193 0.342155 0.997227
O O5 0.302566 0.913451 0.824136
O O6 0.294111 0.075929 0.734532
O O7 0.000000 0.000000 0.791646
O O8 0.500000 0.000000 0.947520
O O9 0.166824 0.990706 0.958309
O O10 0.034155 0.592051 0.581367
#
# Coordination Sequence:
#
# PCOD8185439 Si02
#       5
#     8   8   8   8   4
#     4  11  23  46  66 105 138 180 235 286 339 422
#     4  10  23  44  68 100 140 182 230 284 348 414
#     4  12  23  42  70 100 137 181 231 280 347 410
#     4  11  24  44  73  98 141 182 230 287 350 410
#     4  12  22  44  70  96 130 190 212 290 334 414
#
# _framework density 22.339027999999999
#
# number of rings (size 3 to 8) (size 9 to 14) (size 15 to 20)
#    0.000    0.889    5.556    2.000    1.556    0.000 
#    4.000    2.222    0.000    0.000    0.000    0.000 
#    0.000    0.000    0.000    0.000    0.000    0.000 
#
# Total GULP energy -223057.793740 kJ/mol
# GULP energy per Si atom -12392.099652 kJ/mol
# Density = 2.228818 g / cm^3
# Si number density = 22.339028 Si / 1000 Ang^3
#
#
#
# Elastic Constant Matrix: (Units=GPa)
#
#
# Indices 1 2 3 4 5 6 
#
# 1 117.5703 27.2362 40.8779 0.0000 0.0000 0.0000
# 2 27.2362 109.7817 33.9892 0.0000 0.0000 0.0000
# 3 40.8779 33.9892 107.1864 0.0000 0.0000 0.0000
# 4 0.0000 0.0000 0.0000 19.8111 0.0000 0.0000
# 5 0.0000 0.0000 0.0000 0.0000 22.3915 0.0000
# 6 0.0000 0.0000 0.0000 0.0000 0.0000 37.6027
#
#
#
# Elastic Compliance Matrix: (Units=1/GPa)
#
#
# Indices 1 2 3 4 5 6 
#
# 1 0.010008 -0.001443 -0.003359 0.000000 0.000000 0.000000
# 2 -0.001443 0.010309 -0.002719 0.000000 0.000000 0.000000
# 3 -0.003359 -0.002719 0.011473 0.000000 0.000000 0.000000
# 4 0.000000 0.000000 0.000000 0.050477 0.000000 0.000000
# 5 0.000000 0.000000 0.000000 0.000000 0.044660 0.000000
# 6 0.000000 0.000000 0.000000 0.000000 0.000000 0.026594
#
#
# Mechanical properties :
#
#
# Convention : Reuss Voigt Hill
#
# Bulk Modulus (GPa) = 59.70921 59.86056 59.78489
# Shear Modulus (GPa) = 28.71197 31.45673 30.08435
#
# Velocity S-wave (km/s) = 3.58897 3.75661 3.67375
# Velocity P-wave (km/s) = 6.63031 6.75801 6.69446
#
# Compressibility (1/GPa) = 0.01674784
#
# Stress axis : x y z
#
# Youngs Moduli (GPa) = 99.92273 97.00585 87.16335
#
# Poissons Ratio (x) = 0.13996 0.29279
# Poissons Ratio (y) = 0.14417 0.23697
# Poissons Ratio (z) = 0.33565 0.26372
#
# Static dielectric constant tensor:
#      x y z
#    x 4.334880 0.000000 0.000000 
#    y 0.000000 3.856660 0.000000 
#    z 0.000000 0.000000 3.982000 
# 
# 
# High freq. dielectric constant tensor:
#      x y z
#    x 1.911290 0.000000 0.000000 
#    y 0.000000 1.846910 0.000000 
#    z 0.000000 0.000000 1.866370 
# 
# From -- ./inp_files/7145.got.cif
#   From: 2010.03.12/outbox.cif.g09.slc.cpg/sg41_4_cif.got.tgz:7145.got - 2010.04.14 01:55:53.
