data_PCOD8185751
_publ_section_title
;
Structure prediction by ZEFSAII (Michael W. Deem and Ramdas Pophale) SiO2 
 PCOD8185751
Probable space group: F M M 2
;
_chemical_formula_sum "Si O2"
_cell_formula_units_Z 88
_cell_length_a 23.475648
_cell_length_b 14.173080
_cell_length_c 13.754226
_cell_angle_alpha 90.000000
_cell_angle_beta 90.000000
_cell_angle_gamma 90.000000
_cell_volume 4576.336845
_symmetry_space_group_name_H-M "F M M 2"
_symmetry_group_IT_number 42
_symmetry_cell_setting 'orthorhombic'
loop_
_space_group_symop_operation_xyz
x,y,z
-x,-y,z
-x,y,z
x,-y,z
x,1/2+y,1/2+z
-x,1/2-y,1/2+z
-x,1/2+y,1/2+z
x,1/2-y,1/2+z
1/2+x,y,1/2+z
1/2-x,-y,1/2+z
1/2-x,y,1/2+z
1/2+x,-y,1/2+z
1/2+x,1/2+y,z
1/2-x,1/2-y,z
1/2-x,1/2+y,z
1/2+x,1/2-y,z
loop_
_atom_site_type_symbol
_atom_site_label
_atom_site_fract_x
_atom_site_fract_y
_atom_site_fract_z
Si Si1 0.622406 0.268055 0.710220
Si Si2 0.183150 0.759139 0.511719
Si Si3 0.123245 0.889132 0.364974
Si Si4 0.122023 0.891857 0.889655
Si Si5 0.500000 0.729700 0.157656
Si Si6 0.500000 0.894197 0.469221
Si Si7 0.500000 0.392941 0.344092
O O1 0.667069 0.275707 0.623254
O O2 0.630017 0.165904 0.762396
O O3 0.639372 0.349849 0.785666
O O4 0.558510 0.288636 0.669678
O O5 0.250000 0.750000 0.501582
O O6 0.164614 0.848873 0.447103
O O7 0.153651 0.663044 0.475878
O O8 0.058026 0.869128 0.402975
O O9 0.135766 0.000000 0.348519
O O10 0.054349 0.878254 0.900821
O O11 0.141205 0.000000 0.895240
O O12 0.500000 0.652461 0.239751
O O13 0.500000 0.681778 0.053255
O O14 0.500000 0.000000 0.513382
O O15 0.500000 0.500000 0.314796
#
# Coordination Sequence:
#
# PCOD8185751 Si02
#       7
#    16  16  16  16   8   8   8
#     4  10  21  36  59  88 118 154 192 236 292 352
#     4  11  24  40  57  82 115 156 206 246 283 339
#     4   9  20  38  61  87 117 147 186 239 297 350
#     4  10  22  40  61  89 121 154 190 241 297 353
#     4  10  16  30  56  89 119 155 180 227 292 348
#     4  10  18  32  60  92 121 151 188 233 292 359
#     4   8  15  30  55  89 118 140 178 230 284 351
#
# _framework density 19.229354000000001
#
# number of rings (size 3 to 8) (size 9 to 14) (size 15 to 20)
#    0.000    2.182    1.818    0.818    0.000    8.727 
#    0.000    0.000    0.000    3.273    0.000    0.000 
#    0.000    0.000    0.000    0.000    0.000    0.000 
#
# Total GULP energy -272731.471328 kJ/mol
# GULP energy per Si atom -12396.885060 kJ/mol
# Density = 1.918559 g / cm^3
# Si number density = 19.229354 Si / 1000 Ang^3
#
#
#
# Elastic Constant Matrix: (Units=GPa)
#
#
# Indices 1 2 3 4 5 6 
#
# 1 114.1353 20.5017 30.8928 0.0000 0.0000 0.0000
# 2 20.5017 97.7390 29.5640 0.0000 0.0000 0.0000
# 3 30.8928 29.5640 88.0356 0.0000 0.0000 0.0000
# 4 0.0000 0.0000 0.0000 -14.8687 0.0000 0.0000
# 5 0.0000 0.0000 0.0000 0.0000 20.0087 0.0000
# 6 0.0000 0.0000 0.0000 0.0000 0.0000 19.0013
#
#
#
# Elastic Compliance Matrix: (Units=1/GPa)
#
#
# Indices 1 2 3 4 5 6 
#
# 1 0.009792 -0.001129 -0.003057 0.000000 0.000000 0.000000
# 2 -0.001129 0.011518 -0.003472 0.000000 0.000000 0.000000
# 3 -0.003057 -0.003472 0.013598 0.000000 0.000000 0.000000
# 4 0.000000 0.000000 0.000000 -0.067256 0.000000 0.000000
# 5 0.000000 0.000000 0.000000 0.000000 0.049978 0.000000
# 6 0.000000 0.000000 0.000000 0.000000 0.000000 0.052628
#
#
# Mechanical properties :
#
#
# Convention : Reuss Voigt Hill
#
# Bulk Modulus (GPa) = 51.04145 51.31410 51.17778
# Shear Modulus (GPa) = 54.28605 19.42503 36.85554
#
# Velocity S-wave (km/s) = 5.31903 3.18177 4.38268
# Velocity P-wave (km/s) = 8.02022 6.34362 7.23068
#
# Compressibility (1/GPa) = 0.01959192
#
# Stress axis : x y z
#
# Youngs Moduli (GPa) = 102.12658 86.81791 73.54230
#
# Poissons Ratio (x) = 0.09804 0.22481
# Poissons Ratio (y) = 0.11533 0.25532
# Poissons Ratio (z) = 0.31218 0.30141
#
# Static dielectric constant tensor:
#      x y z
#    x 3.634090 0.000000 0.000000 
#    y 0.000000 3.795860 0.000000 
#    z 0.000000 0.000000 3.325960 
# 
# 
# High freq. dielectric constant tensor:
#      x y z
#    x 1.743960 0.000000 0.000000 
#    y 0.000000 1.743010 0.000000 
#    z 0.000000 0.000000 1.741370 
# 
# From -- ./inp_files/7876.got.cif
#   From: 2010.03.12/outbox.cif.g09.slc.cpg/sg42_4_cif.got.tgz:7876.got - 2010.04.14 02:04:31.
