data_PCOD8185794
_publ_section_title
;
Structure prediction by ZEFSAII (Michael W. Deem and Ramdas Pophale) SiO2 
 PCOD8185794
Probable space group: F M M 2
;
_chemical_formula_sum "Si O2"
_cell_formula_units_Z 80
_cell_length_a 12.361138
_cell_length_b 18.428573
_cell_length_c 20.364323
_cell_angle_alpha 90.000000
_cell_angle_beta 90.000000
_cell_angle_gamma 90.000000
_cell_volume 4638.954779
_symmetry_space_group_name_H-M "F M M 2"
_symmetry_group_IT_number 42
_symmetry_cell_setting 'orthorhombic'
loop_
_space_group_symop_operation_xyz
x,y,z
-x,-y,z
-x,y,z
x,-y,z
x,1/2+y,1/2+z
-x,1/2-y,1/2+z
-x,1/2+y,1/2+z
x,1/2-y,1/2+z
1/2+x,y,1/2+z
1/2-x,-y,1/2+z
1/2-x,y,1/2+z
1/2+x,-y,1/2+z
1/2+x,1/2+y,z
1/2-x,1/2-y,z
1/2-x,1/2+y,z
1/2+x,1/2-y,z
loop_
_atom_site_type_symbol
_atom_site_label
_atom_site_fract_x
_atom_site_fract_y
_atom_site_fract_z
Si Si1 0.000000 0.912618 0.069520
Si Si2 0.195998 0.177203 0.006143
Si Si3 0.881019 0.417693 0.956736
Si Si4 0.000000 0.082847 0.224195
Si Si5 0.838486 0.646463 0.820223
Si Si6 0.119206 0.692382 0.358903
O O1 0.000000 0.907047 0.147098
O O2 0.894860 0.867271 0.046085
O O3 0.000000 0.000000 0.048195
O O4 0.250000 0.250000 0.039077
O O5 0.297160 0.125171 0.000048
O O6 0.147786 0.198511 0.935552
O O7 0.850701 0.500000 0.968188
O O8 0.879138 0.402954 0.879283
O O9 0.000000 0.398756 0.983703
O O10 0.109971 0.118302 0.252728
O O11 0.000000 0.000000 0.245212
O O12 0.880585 0.727430 0.830493
O O13 0.706861 0.644027 0.819270
O O14 0.000000 0.657466 0.349920
#
# Coordination Sequence:
#
# PCOD8185794 Si02
#       6
#     8  16  16   8  16  16
#     4  11  26  43  56  78 119 164 196 233 283 340
#     4  11  21  35  58  82 114 148 192 228 283 347
#     4  10  18  29  52  84 111 135 172 233 291 334
#     4  11  22  39  58  74 108 156 196 229 268 334
#     4  10  18  30  53  83 109 140 181 227 277 340
#     4  10  17  31  55  84 116 140 169 236 303 333
#
# _framework density 17.245265
#
# number of rings (size 3 to 8) (size 9 to 14) (size 15 to 20)
#    0.000    1.600    7.000    1.200    1.400    0.000 
#    3.600    0.000    0.000    1.200    0.000    2.800 
#    0.000    0.000    0.000    0.000    0.000    0.000 
#
# Total GULP energy -247805.525571 kJ/mol
# GULP energy per Si atom -12390.276279 kJ/mol
# Density = 1.720601 g / cm^3
# Si number density = 17.245265 Si / 1000 Ang^3
#
#
#
# Elastic Constant Matrix: (Units=GPa)
#
#
# Indices 1 2 3 4 5 6 
#
# 1 209.3066 57.7940 47.9394 0.0000 0.0000 0.0000
# 2 57.7940 116.1959 38.4551 0.0000 0.0000 0.0000
# 3 47.9394 38.4551 65.9572 0.0000 0.0000 0.0000
# 4 0.0000 0.0000 0.0000 19.2580 0.0000 0.0000
# 5 0.0000 0.0000 0.0000 0.0000 123.1291 0.0000
# 6 0.0000 0.0000 0.0000 0.0000 0.0000 103.8172
#
#
#
# Elastic Compliance Matrix: (Units=1/GPa)
#
#
# Indices 1 2 3 4 5 6 
#
# 1 0.006062 -0.001929 -0.003281 0.000000 0.000000 0.000000
# 2 -0.001929 0.011278 -0.005173 0.000000 0.000000 0.000000
# 3 -0.003281 -0.005173 0.020562 0.000000 0.000000 0.000000
# 4 0.000000 0.000000 0.000000 0.051927 0.000000 0.000000
# 5 0.000000 0.000000 0.000000 0.000000 0.008122 0.000000
# 6 0.000000 0.000000 0.000000 0.000000 0.000000 0.009632
#
#
# Mechanical properties :
#
#
# Convention : Reuss Voigt Hill
#
# Bulk Modulus (GPa) = 58.36009 75.53743 66.94876
# Shear Modulus (GPa) = 37.29651 65.72559 51.51105
#
# Velocity S-wave (km/s) = 4.65554 6.18021 5.47125
# Velocity P-wave (km/s) = 7.92549 9.73774 8.87798
#
# Compressibility (1/GPa) = 0.01713500
#
# Stress axis : x y z
#
# Youngs Moduli (GPa) = 164.96527 88.67028 48.63284
#
# Poissons Ratio (x) = 0.17106 0.15957
# Poissons Ratio (y) = 0.31825 0.25158
# Poissons Ratio (z) = 0.54128 0.45870
#
# Static dielectric constant tensor:
#      x y z
#    x 3.613500 0.000000 0.000000 
#    y 0.000000 3.399540 0.000000 
#    z 0.000000 0.000000 2.803620 
# 
# 
# High freq. dielectric constant tensor:
#      x y z
#    x 1.688940 0.000000 0.000000 
#    y 0.000000 1.671940 0.000000 
#    z 0.000000 0.000000 1.616460 
# 
# From -- ./inp_files/18955.got.cif
#   From: 2010.03.12/outbox.cif.g09.slc.cpg/sg42_10_cif.got.tgz:18955.got - 2010.04.14 02:04:31.
