data_PCOD8185844
_publ_section_title
;
Structure prediction by ZEFSAII (Michael W. Deem and Ramdas Pophale) SiO2 
 PCOD8185844
Probable space group: F M M 2
;
_chemical_formula_sum "Si O2"
_cell_formula_units_Z 104
_cell_length_a 8.870400
_cell_length_b 23.399921
_cell_length_c 28.641243
_cell_angle_alpha 90.000000
_cell_angle_beta 90.000000
_cell_angle_gamma 90.000000
_cell_volume 5944.967126
_symmetry_space_group_name_H-M "F M M 2"
_symmetry_group_IT_number 42
_symmetry_cell_setting 'orthorhombic'
loop_
_space_group_symop_operation_xyz
x,y,z
-x,-y,z
-x,y,z
x,-y,z
x,1/2+y,1/2+z
-x,1/2-y,1/2+z
-x,1/2+y,1/2+z
x,1/2-y,1/2+z
1/2+x,y,1/2+z
1/2-x,-y,1/2+z
1/2-x,y,1/2+z
1/2+x,-y,1/2+z
1/2+x,1/2+y,z
1/2-x,1/2-y,z
1/2-x,1/2+y,z
1/2+x,1/2-y,z
loop_
_atom_site_type_symbol
_atom_site_label
_atom_site_fract_x
_atom_site_fract_y
_atom_site_fract_z
Si Si1 0.819755 0.186663 0.279790
Si Si2 0.166933 0.152317 0.461700
Si Si3 0.678090 0.688160 0.871671
Si Si4 0.823075 0.311474 0.188363
Si Si5 0.172418 0.065474 0.024466
Si Si6 0.663796 0.344698 0.100241
Si Si7 0.250000 0.250000 0.529500
O O1 0.750000 0.250000 0.278970
O O2 0.754148 0.156582 0.326645
O O3 0.756594 0.156520 0.232561
O O4 0.000000 0.187404 0.280418
O O5 0.284758 0.155815 0.419330
O O6 0.215571 0.095620 0.488653
O O7 0.157079 0.208133 0.495232
O O8 0.000000 0.143358 0.441224
O O9 0.500000 0.692374 0.864434
O O10 0.750000 0.750000 0.876753
O O11 0.750000 0.250000 0.181634
O O12 0.792381 0.343397 0.139653
O O13 0.000000 0.306903 0.197574
O O14 0.191339 0.095632 0.074378
O O15 0.000000 0.071435 0.006890
O O16 0.221381 0.000000 0.029808
O O17 0.500000 0.344441 0.124877
O O18 0.656861 0.291933 0.063406
#
# Coordination Sequence:
#
# PCOD8185844 Si02
#       7
#    16  16  16  16  16  16   8
#     4  10  18  30  46  65  95 132 167 201 240 290
#     4  11  21  32  50  75 102 133 169 208 251 299
#     4  11  20  31  47  70 101 134 168 203 245 297
#     4  11  20  30  45  68  99 132 166 201 243 294
#     4   9  20  38  55  72  98 132 171 213 256 300
#     4  10  19  31  49  72  98 130 166 203 247 296
#     4  10  20  30  48  68 104 130 164 200 252 294
#
# _framework density 17.493787999999999
#
# number of rings (size 3 to 8) (size 9 to 14) (size 15 to 20)
#    0.000    1.692    1.538    6.923    0.000    4.000 
#    0.000    0.000    0.000    0.000    0.000    1.077 
#    0.000    6.154    0.000    0.000    0.000    0.000 
#
# Total GULP energy -322190.638231 kJ/mol
# GULP energy per Si atom -12391.947624 kJ/mol
# Density = 1.745397 g / cm^3
# Si number density = 17.493788 Si / 1000 Ang^3
#
#
#
# Elastic Constant Matrix: (Units=GPa)
#
#
# Indices 1 2 3 4 5 6 
#
# 1 148.3366 25.1741 52.3476 0.0000 0.0000 0.0000
# 2 25.1741 82.0439 31.9022 0.0000 0.0000 0.0000
# 3 52.3476 31.9022 121.0320 0.0000 0.0000 0.0000
# 4 0.0000 0.0000 0.0000 11.1595 0.0000 0.0000
# 5 0.0000 0.0000 0.0000 0.0000 28.1193 0.0000
# 6 0.0000 0.0000 0.0000 0.0000 0.0000 13.8859
#
#
#
# Elastic Compliance Matrix: (Units=1/GPa)
#
#
# Indices 1 2 3 4 5 6 
#
# 1 0.008069 -0.001247 -0.003161 0.000000 0.000000 0.000000
# 2 -0.001247 0.013773 -0.003091 0.000000 0.000000 0.000000
# 3 -0.003161 -0.003091 0.010444 0.000000 0.000000 0.000000
# 4 0.000000 0.000000 0.000000 0.089610 0.000000 0.000000
# 5 0.000000 0.000000 0.000000 0.000000 0.035563 0.000000
# 6 0.000000 0.000000 0.000000 0.000000 0.000000 0.072016
#
#
# Mechanical properties :
#
#
# Convention : Reuss Voigt Hill
#
# Bulk Modulus (GPa) = 57.84333 63.36225 60.60279
# Shear Modulus (GPa) = 19.98127 26.76552 23.37340
#
# Velocity S-wave (km/s) = 3.38330 3.91577 3.65923
# Velocity P-wave (km/s) = 6.95695 7.53278 7.25058
#
# Compressibility (1/GPa) = 0.01728808
#
# Stress axis : x y z
#
# Youngs Moduli (GPa) = 123.93818 72.60543 95.74592
#
# Poissons Ratio (x) = 0.09051 0.30267
# Poissons Ratio (y) = 0.15449 0.29597
# Poissons Ratio (z) = 0.39179 0.22444
#
# Static dielectric constant tensor:
#      x y z
#    x 3.323000 0.000000 0.000000 
#    y 0.000000 2.812330 0.000000 
#    z 0.000000 0.000000 4.094070 
# 
# 
# High freq. dielectric constant tensor:
#      x y z
#    x 1.689130 0.000000 0.000000 
#    y 0.000000 1.608860 0.000000 
#    z 0.000000 0.000000 1.693220 
# 
# From -- ./inp_files/31694.got.cif
#   From: 2010.03.12/outbox.cif.g09.slc.cpg/sg42_16_cif.got.tgz:31694.got - 2010.04.14 02:04:31.
