data_PCOD8185199
_publ_section_title
;
Structure prediction by ZEFSAII (Michael W. Deem and Ramdas Pophale) SiO2 
 PCOD8185199
Probable space group: A B A 2
;
_chemical_formula_sum "Si O2"
_cell_formula_units_Z 60
_cell_length_a 16.263340
_cell_length_b 16.427404
_cell_length_c 9.705276
_cell_angle_alpha 90.000000
_cell_angle_beta 90.000000
_cell_angle_gamma 90.000000
_cell_volume 2592.904788
_symmetry_space_group_name_H-M "A B A 2"
_symmetry_group_IT_number 41
_symmetry_cell_setting 'orthorhombic'
loop_
_space_group_symop_operation_xyz
x,y,z
-x,-y,z
1/2-x,y,1/2+z
1/2+x,-y,1/2+z
x,1/2+y,1/2+z
-x,1/2-y,1/2+z
1/2-x,1/2+y,z
1/2+x,1/2-y,z
loop_
_atom_site_type_symbol
_atom_site_label
_atom_site_fract_x
_atom_site_fract_y
_atom_site_fract_z
Si Si1 0.845505 0.208167 0.070890
Si Si2 0.362930 0.421166 0.850669
Si Si3 0.320528 0.373896 0.578511
Si Si4 0.925761 0.713105 0.864051
Si Si5 0.615247 0.364376 0.050522
Si Si6 0.000000 0.500000 0.485591
Si Si7 0.612104 0.838812 0.855867
Si Si8 0.268471 0.529583 0.452091
O O1 0.752675 0.188259 0.113259
O O2 0.901782 0.225109 0.204177
O O3 0.879757 0.131484 0.987919
O O4 0.840596 0.283204 0.965609
O O5 0.377810 0.366906 0.714399
O O6 0.431234 0.487827 0.869370
O O7 0.273387 0.464756 0.845868
O O8 0.364216 0.349561 0.437113
O O9 0.297167 0.470038 0.575263
O O10 0.918347 0.800606 0.937731
O O11 0.015102 0.672667 0.881597
O O12 0.540064 0.428542 0.079104
O O13 0.700783 0.405395 0.003775
O O14 0.631491 0.318441 0.195771
O O15 0.650872 0.928545 0.884879
#
# Coordination Sequence:
#
# PCOD8185199 Si02
#       8
#     8   8   8   8   8   4   8   8
#     4  11  24  44  66  92 131 175 219 270 330 398
#     4  10  21  41  66  93 127 174 221 269 334 403
#     4  11  24  44  68  98 133 175 222 272 332 401
#     4  12  26  42  68 102 135 173 224 278 336 397
#     4  11  25  46  69  98 133 180 226 273 337 404
#     4  10  22  40  68  96 134 170 214 276 336 392
#     4  12  25  43  67  98 135 172 221 282 335 396
#     4  10  24  41  66  97 131 173 224 277 336 404
#
# _framework density 23.140070000000001
#
# number of rings (size 3 to 8) (size 9 to 14) (size 15 to 20)
#    0.000    1.067    0.000    6.400    0.000   11.200 
#    0.000    0.000    0.000    0.800    0.000    0.000 
#    0.000    0.000    0.000    0.000    0.000    0.000 
#
# Total GULP energy -371688.177700 kJ/mol
# GULP energy per Si atom -12389.605923 kJ/mol
# Density = 2.308740 g / cm^3
# Si number density = 23.140070 Si / 1000 Ang^3
#
#
#
# Elastic Constant Matrix: (Units=GPa)
#
#
# Indices 1 2 3 4 5 6 
#
# 1 78.4254 43.8434 28.2987 0.0000 0.0000 0.0000
# 2 43.8434 113.7405 53.3337 0.0000 0.0000 0.0000
# 3 28.2987 53.3337 159.1014 0.0000 0.0000 0.0000
# 4 0.0000 0.0000 0.0000 7.9250 0.0000 0.0000
# 5 0.0000 0.0000 0.0000 0.0000 27.6116 0.0000
# 6 0.0000 0.0000 0.0000 0.0000 0.0000 39.3666
#
#
#
# Elastic Compliance Matrix: (Units=1/GPa)
#
#
# Indices 1 2 3 4 5 6 
#
# 1 0.016372 -0.005868 -0.000945 0.000000 0.000000 0.000000
# 2 -0.005868 0.012535 -0.003158 0.000000 0.000000 0.000000
# 3 -0.000945 -0.003158 0.007512 0.000000 0.000000 0.000000
# 4 0.000000 0.000000 0.000000 0.126182 0.000000 0.000000
# 5 0.000000 0.000000 0.000000 0.000000 0.036217 0.000000
# 6 0.000000 0.000000 0.000000 0.000000 0.000000 0.025402
#
#
# Mechanical properties :
#
#
# Convention : Reuss Voigt Hill
#
# Bulk Modulus (GPa) = 60.69092 66.91322 63.80207
# Shear Modulus (GPa) = 20.02762 30.03341 25.03051
#
# Velocity S-wave (km/s) = 2.94512 3.60654 3.29248
# Velocity P-wave (km/s) = 6.15220 6.80604 6.48736
#
# Compressibility (1/GPa) = 0.01647693
#
# Stress axis : x y z
#
# Youngs Moduli (GPa) = 61.07833 79.77834 133.11910
#
# Poissons Ratio (x) = 0.46813 0.12581
# Poissons Ratio (y) = 0.35840 0.42041
# Poissons Ratio (z) = 0.05772 0.25195
#
# Static dielectric constant tensor:
#      x y z
#    x 4.204600 0.000000 0.000000 
#    y 0.000000 4.320730 0.000000 
#    z 0.000000 0.000000 4.077010 
# 
# 
# High freq. dielectric constant tensor:
#      x y z
#    x 1.919630 0.000000 0.000000 
#    y 0.000000 1.919830 0.000000 
#    z 0.000000 0.000000 1.915090 
# 
# From -- ./inp_files/3171.got.cif
#   From: 2010.03.12/outbox.cif.g09.slc.cpg/sg41_2_cif.got.tgz:3171.got - 2010.04.14 01:55:53.
