data_PCOD8185867
_publ_section_title
;
Structure prediction by ZEFSAII (Michael W. Deem and Ramdas Pophale) SiO2 
 PCOD8185867
Probable space group: F M M 2
;
_chemical_formula_sum "Si O2"
_cell_formula_units_Z 80
_cell_length_a 25.533860
_cell_length_b 8.680728
_cell_length_c 19.277427
_cell_angle_alpha 90.000000
_cell_angle_beta 90.000000
_cell_angle_gamma 90.000000
_cell_volume 4272.889762
_symmetry_space_group_name_H-M "F M M 2"
_symmetry_group_IT_number 42
_symmetry_cell_setting 'orthorhombic'
loop_
_space_group_symop_operation_xyz
x,y,z
-x,-y,z
-x,y,z
x,-y,z
x,1/2+y,1/2+z
-x,1/2-y,1/2+z
-x,1/2+y,1/2+z
x,1/2-y,1/2+z
1/2+x,y,1/2+z
1/2-x,-y,1/2+z
1/2-x,y,1/2+z
1/2+x,-y,1/2+z
1/2+x,1/2+y,z
1/2-x,1/2-y,z
1/2-x,1/2+y,z
1/2+x,1/2-y,z
loop_
_atom_site_type_symbol
_atom_site_label
_atom_site_fract_x
_atom_site_fract_y
_atom_site_fract_z
Si Si1 0.000000 0.324482 0.347510
Si Si2 0.194291 0.181331 0.106506
Si Si3 0.386711 0.826763 0.364411
Si Si4 0.892341 0.178028 0.700616
Si Si5 0.194972 0.179697 0.460216
Si Si6 0.000000 0.179027 0.204081
O O1 0.946735 0.303001 0.392119
O O2 0.000000 0.199514 0.286774
O O3 0.000000 0.500000 0.315277
O O4 0.250000 0.250000 0.128750
O O5 0.152837 0.224989 0.164617
O O6 0.199608 0.000000 0.101025
O O7 0.176137 0.245803 0.032129
O O8 0.386411 0.795356 0.282539
O O9 0.348692 0.707873 0.401948
O O10 0.367548 0.000000 0.380814
O O11 0.948128 0.240584 0.673059
O O12 0.887011 0.000000 0.680259
O O13 0.250000 0.250000 0.434971
O O14 0.202684 0.000000 0.471631
O O15 0.000000 0.000000 0.184444
#
# Coordination Sequence:
#
# PCOD8185867 Si02
#       6
#     8  16  16  16  16   8
#     4   8  16  32  53  76 107 144 175 211 263 317
#     4  11  22  38  58  79 106 140 179 221 270 324
#     4   9  18  34  56  81 108 139 176 218 262 310
#     4  10  20  36  57  81 110 143 180 221 265 314
#     4  11  22  37  56  77 105 141 179 219 267 320
#     4  10  18  30  51  80 111 142 177 217 265 317
#
# _framework density 18.722691999999999
#
# number of rings (size 3 to 8) (size 9 to 14) (size 15 to 20)
#    0.000    2.000    0.000    7.500    0.000    4.800 
#    0.000    1.000    0.000    1.200    0.000    0.000 
#    0.000    0.000    0.000    0.000    0.000    0.000 
#
# Total GULP energy -247997.727199 kJ/mol
# GULP energy per Si atom -12399.886360 kJ/mol
# Density = 1.868008 g / cm^3
# Si number density = 18.722692 Si / 1000 Ang^3
#
#
#
# Elastic Constant Matrix: (Units=GPa)
#
#
# Indices 1 2 3 4 5 6 
#
# 1 136.0635 55.3346 54.3688 0.0000 0.0000 0.0000
# 2 55.3346 144.7016 33.9694 0.0000 0.0000 0.0000
# 3 54.3688 33.9694 50.1048 0.0000 0.0000 0.0000
# 4 0.0000 0.0000 0.0000 27.1473 0.0000 0.0000
# 5 0.0000 0.0000 0.0000 0.0000 -5.7011 0.0000
# 6 0.0000 0.0000 0.0000 0.0000 0.0000 34.3537
#
#
#
# Elastic Compliance Matrix: (Units=1/GPa)
#
#
# Indices 1 2 3 4 5 6 
#
# 1 0.013466 -0.002045 -0.013225 0.000000 0.000000 0.000000
# 2 -0.002045 0.008529 -0.003564 0.000000 0.000000 0.000000
# 3 -0.013225 -0.003564 0.036725 0.000000 0.000000 0.000000
# 4 0.000000 0.000000 0.000000 0.036836 0.000000 0.000000
# 5 0.000000 0.000000 0.000000 0.000000 -0.175404 0.000000
# 6 0.000000 0.000000 0.000000 0.000000 0.000000 0.029109
#
#
# Mechanical properties :
#
#
# Convention : Reuss Voigt Hill
#
# Bulk Modulus (GPa) = 47.50076 68.69061 58.09569
# Shear Modulus (GPa) = -826.09910 23.63978 -401.22966
#
# Velocity S-wave (km/s) = -21.02823 3.55720 -14.65491
# Velocity P-wave (km/s) = 23.75198 7.32391 15.97681
#
# Compressibility (1/GPa) = 0.02105229
#
# Stress axis : x y z
#
# Youngs Moduli (GPa) = 74.26273 117.24291 27.22911
#
# Poissons Ratio (x) = 0.23972 0.36012
# Poissons Ratio (y) = 0.15184 0.09704
# Poissons Ratio (z) = 0.98216 0.41785
#
# Static dielectric constant tensor:
#      x y z
#    x 3.671380 0.000000 0.000000 
#    y 0.000000 3.468300 0.000000 
#    z 0.000000 0.000000 3.078220 
# 
# 
# High freq. dielectric constant tensor:
#      x y z
#    x 1.743570 0.000000 0.000000 
#    y 0.000000 1.738540 0.000000 
#    z 0.000000 0.000000 1.690640 
# 
# From -- ./inp_files/18318.got.cif
#   From: 2010.03.12/outbox.cif.g09.slc.cpg/sg42_10_cif.got.tgz:18318.got - 2010.04.14 02:04:31.
