data_PCOD8185797
_publ_section_title
;
Structure prediction by ZEFSAII (Michael W. Deem and Ramdas Pophale) SiO2 
 PCOD8185797
Probable space group: F M M 2
;
_chemical_formula_sum "Si O2"
_cell_formula_units_Z 112
_cell_length_a 17.597853
_cell_length_b 16.168688
_cell_length_c 22.773869
_cell_angle_alpha 90.000000
_cell_angle_beta 90.000000
_cell_angle_gamma 90.000000
_cell_volume 6479.944474
_symmetry_space_group_name_H-M "F M M 2"
_symmetry_group_IT_number 42
_symmetry_cell_setting 'orthorhombic'
loop_
_space_group_symop_operation_xyz
x,y,z
-x,-y,z
-x,y,z
x,-y,z
x,1/2+y,1/2+z
-x,1/2-y,1/2+z
-x,1/2+y,1/2+z
x,1/2-y,1/2+z
1/2+x,y,1/2+z
1/2-x,-y,1/2+z
1/2-x,y,1/2+z
1/2+x,-y,1/2+z
1/2+x,1/2+y,z
1/2-x,1/2-y,z
1/2-x,1/2+y,z
1/2+x,1/2-y,z
loop_
_atom_site_type_symbol
_atom_site_label
_atom_site_fract_x
_atom_site_fract_y
_atom_site_fract_z
Si Si1 0.278427 0.658561 0.799660
Si Si2 0.735092 0.407229 0.177964
Si Si3 0.087259 0.403161 0.990788
Si Si4 0.086235 0.687787 0.664413
Si Si5 0.583219 0.253213 0.292267
Si Si6 0.145568 0.403863 0.862132
Si Si7 0.679016 0.700356 0.583901
O O1 0.250000 0.750000 0.781617
O O2 0.264633 0.599204 0.744575
O O3 0.366319 0.675945 0.815966
O O4 0.235619 0.617609 0.855666
O O5 0.746471 0.500000 0.155918
O O6 0.645406 0.386984 0.173359
O O7 0.786792 0.349162 0.138452
O O8 0.094111 0.500000 0.002697
O O9 0.142006 0.358409 0.036060
O O10 0.000000 0.373876 0.997361
O O11 0.116774 0.380327 0.926290
O O12 0.087679 0.745708 0.721835
O O13 0.112607 0.740543 0.608066
O O14 0.000000 0.654688 0.653646
O O15 0.500000 0.231813 0.315256
O O16 0.604513 0.345033 0.315074
O O17 0.128331 0.500000 0.847740
O O18 0.750000 0.750000 0.554880
#
# Coordination Sequence:
#
# PCOD8185797 Si02
#       7
#    16  16  16  16  16  16  16
#     4  10  17  32  49  70 102 133 173 206 251 307
#     4  11  19  31  50  74 102 134 173 215 256 308
#     4  10  21  37  54  77 109 139 173 220 265 306
#     4  10  19  32  50  73 102 136 171 214 257 303
#     4  10  19  31  50  73 103 137 170 211 257 305
#     4  10  20  33  53  78 104 135 171 212 263 312
#     4  10  20  35  54  75 103 138 182 212 253 306
#
# _framework density 17.284098
#
# number of rings (size 3 to 8) (size 9 to 14) (size 15 to 20)
#    0.000    1.857    4.286    2.143    0.000    2.857 
#    0.000    1.429    0.000    2.571    0.000    0.000 
#    0.000    5.714    0.000    0.000    0.000    0.000 
#
# Total GULP energy -347052.163606 kJ/mol
# GULP energy per Si atom -12394.720129 kJ/mol
# Density = 1.724476 g / cm^3
# Si number density = 17.284098 Si / 1000 Ang^3
#
#
#
# Elastic Constant Matrix: (Units=GPa)
#
#
# Indices 1 2 3 4 5 6 
#
# 1 134.8462 37.1475 39.3424 0.0000 0.0000 0.0000
# 2 37.1475 52.3893 19.3889 0.0000 0.0000 0.0000
# 3 39.3424 19.3889 68.4414 0.0000 0.0000 0.0000
# 4 0.0000 0.0000 0.0000 24.8697 0.0000 0.0000
# 5 0.0000 0.0000 0.0000 0.0000 21.6117 0.0000
# 6 0.0000 0.0000 0.0000 0.0000 0.0000 23.8112
#
#
#
# Elastic Compliance Matrix: (Units=1/GPa)
#
#
# Indices 1 2 3 4 5 6 
#
# 1 0.010224 -0.005668 -0.004271 0.000000 0.000000 0.000000
# 2 -0.005668 0.024466 -0.003673 0.000000 0.000000 0.000000
# 3 -0.004271 -0.003673 0.018107 0.000000 0.000000 0.000000
# 4 0.000000 0.000000 0.000000 0.040210 0.000000 0.000000
# 5 0.000000 0.000000 0.000000 0.000000 0.046271 0.000000
# 6 0.000000 0.000000 0.000000 0.000000 0.000000 0.041997
#
#
# Mechanical properties :
#
#
# Convention : Reuss Voigt Hill
#
# Bulk Modulus (GPa) = 39.10496 49.71496 44.40996
# Shear Modulus (GPa) = 23.03906 24.71173 23.87540
#
# Velocity S-wave (km/s) = 3.65494 3.78529 3.72068
# Velocity P-wave (km/s) = 6.36281 6.92318 6.64890
#
# Compressibility (1/GPa) = 0.02557220
#
# Stress axis : x y z
#
# Youngs Moduli (GPa) = 97.81380 40.87230 55.22855
#
# Poissons Ratio (x) = 0.23168 0.23588
# Poissons Ratio (y) = 0.55446 0.20284
# Poissons Ratio (z) = 0.41776 0.15011
#
# Static dielectric constant tensor:
#      x y z
#    x 3.743190 0.000000 0.000000 
#    y 0.000000 3.073980 0.000000 
#    z 0.000000 0.000000 3.034790 
# 
# 
# High freq. dielectric constant tensor:
#      x y z
#    x 1.679180 0.000000 0.000000 
#    y 0.000000 1.650940 0.000000 
#    z 0.000000 0.000000 1.648180 
# 
# From -- ./inp_files/26065.got.cif
#   From: 2010.03.12/outbox.cif.g09.slc.cpg/sg42_14_cif.got.tgz:26065.got - 2010.04.14 02:04:31.
