data_PCOD8185004
_publ_section_title
;
Structure prediction by ZEFSAII (Michael W. Deem and Ramdas Pophale) SiO2 
 PCOD8185004
Probable space group: A B A 2
;
_chemical_formula_sum "Si O2"
_cell_formula_units_Z 56
_cell_length_a 10.216249
_cell_length_b 21.611229
_cell_length_c 11.631940
_cell_angle_alpha 90.000000
_cell_angle_beta 90.000000
_cell_angle_gamma 90.000000
_cell_volume 2568.165976
_symmetry_space_group_name_H-M "A B A 2"
_symmetry_group_IT_number 41
_symmetry_cell_setting 'orthorhombic'
loop_
_space_group_symop_operation_xyz
x,y,z
-x,-y,z
1/2-x,y,1/2+z
1/2+x,-y,1/2+z
x,1/2+y,1/2+z
-x,1/2-y,1/2+z
1/2-x,1/2+y,z
1/2+x,1/2-y,z
loop_
_atom_site_type_symbol
_atom_site_label
_atom_site_fract_x
_atom_site_fract_y
_atom_site_fract_z
Si Si1 0.401705 0.445725 0.140220
Si Si2 0.365943 0.340414 0.305784
Si Si3 0.852051 0.990863 0.720336
Si Si4 0.833940 0.747274 0.604550
Si Si5 0.902795 0.856796 0.761119
Si Si6 0.865243 0.089759 0.891583
Si Si7 0.420625 0.234339 0.457866
O O1 0.500000 0.500000 0.164244
O O2 0.436871 0.396787 0.240722
O O3 0.253020 0.472492 0.141421
O O4 0.428300 0.413322 0.017649
O O5 0.299195 0.298610 0.207950
O O6 0.262927 0.368031 0.396516
O O7 0.457373 0.295801 0.382702
O O8 0.815744 0.917961 0.733695
O O9 0.839837 0.019460 0.849026
O O10 0.000000 0.000000 0.669533
O O11 0.893882 0.812125 0.650616
O O12 0.694067 0.755706 0.547655
O O13 0.942752 0.716672 0.519839
O O14 0.862974 0.819745 0.876451
O O15 0.048203 0.880504 0.789336
#
# Coordination Sequence:
#
# PCOD8185004 Si02
#       7
#     8   8   8   8   8   8   8
#     4  11  22  37  63  92 119 158 203 247 298 356
#     4  10  22  39  60  85 120 159 202 241 292 370
#     4   9  21  39  58  85 119 157 199 246 298 355
#     4  11  24  39  62  89 119 158 201 247 301 357
#     4  10  21  37  61  89 120 151 200 258 297 343
#     4  10  20  40  63  84 117 166 203 237 299 370
#     4  11  23  39  60  88 119 159 199 248 304 353
#
# _framework density 21.805446
#
# number of rings (size 3 to 8) (size 9 to 14) (size 15 to 20)
#    0.000    1.714    0.000    4.714    0.000   10.286 
#    0.000    4.286    0.000    1.714    0.000    0.000 
#    0.000    0.000    0.000    0.000    0.000    0.000 
#
# Total GULP energy -346973.207920 kJ/mol
# GULP energy per Si atom -12391.900283 kJ/mol
# Density = 2.175582 g / cm^3
# Si number density = 21.805446 Si / 1000 Ang^3
#
#
#
# Elastic Constant Matrix: (Units=GPa)
#
#
# Indices 1 2 3 4 5 6 
#
# 1 68.1482 12.7390 11.2867 0.0000 0.0000 0.0000
# 2 12.7390 134.2828 33.4407 0.0000 0.0000 0.0000
# 3 11.2867 33.4407 76.7454 0.0000 0.0000 0.0000
# 4 0.0000 0.0000 0.0000 26.5659 0.0000 0.0000
# 5 0.0000 0.0000 0.0000 0.0000 26.1753 0.0000
# 6 0.0000 0.0000 0.0000 0.0000 0.0000 27.0630
#
#
#
# Elastic Compliance Matrix: (Units=1/GPa)
#
#
# Indices 1 2 3 4 5 6 
#
# 1 0.015157 -0.000990 -0.001798 0.000000 0.000000 0.000000
# 2 -0.000990 0.008418 -0.003522 0.000000 0.000000 0.000000
# 3 -0.001798 -0.003522 0.014829 0.000000 0.000000 0.000000
# 4 0.000000 0.000000 0.000000 0.037642 0.000000 0.000000
# 5 0.000000 0.000000 0.000000 0.000000 0.038204 0.000000
# 6 0.000000 0.000000 0.000000 0.000000 0.000000 0.036951
#
#
# Mechanical properties :
#
#
# Convention : Reuss Voigt Hill
#
# Bulk Modulus (GPa) = 38.78424 43.78992 41.28708
# Shear Modulus (GPa) = 28.99961 30.74151 29.87056
#
# Velocity S-wave (km/s) = 3.65077 3.75882 3.70519
# Velocity P-wave (km/s) = 5.96623 6.24211 6.10573
#
# Compressibility (1/GPa) = 0.02578367
#
# Stress axis : x y z
#
# Youngs Moduli (GPa) = 65.97734 118.79153 67.43394
#
# Poissons Ratio (x) = 0.11763 0.12122
# Poissons Ratio (y) = 0.06533 0.23753
# Poissons Ratio (z) = 0.11860 0.41844
#
# Static dielectric constant tensor:
#      x y z
#    x 3.607430 0.000000 0.000000 
#    y 0.000000 4.455770 0.000000 
#    z 0.000000 0.000000 3.860820 
# 
# 
# High freq. dielectric constant tensor:
#      x y z
#    x 1.824060 0.000000 0.000000 
#    y 0.000000 1.884770 0.000000 
#    z 0.000000 0.000000 1.851660 
# 
# From -- ./inp_files/5059.got.cif
#   From: 2010.03.12/outbox.cif.g09.slc.cpg/sg41_3_cif.got.tgz:5059.got - 2010.04.14 01:55:53.
