data_PCOD8185483
_publ_section_title
;
Structure prediction by ZEFSAII (Michael W. Deem and Ramdas Pophale) SiO2 
 PCOD8185483
Probable space group: A B A 2
;
_chemical_formula_sum "Si O2"
_cell_formula_units_Z 56
_cell_length_a 20.240856
_cell_length_b 16.848441
_cell_length_c 7.792127
_cell_angle_alpha 90.000000
_cell_angle_beta 90.000000
_cell_angle_gamma 90.000000
_cell_volume 2657.324667
_symmetry_space_group_name_H-M "A B A 2"
_symmetry_group_IT_number 41
_symmetry_cell_setting 'orthorhombic'
loop_
_space_group_symop_operation_xyz
x,y,z
-x,-y,z
1/2-x,y,1/2+z
1/2+x,-y,1/2+z
x,1/2+y,1/2+z
-x,1/2-y,1/2+z
1/2-x,1/2+y,z
1/2+x,1/2-y,z
loop_
_atom_site_type_symbol
_atom_site_label
_atom_site_fract_x
_atom_site_fract_y
_atom_site_fract_z
Si Si1 0.058487 0.715431 0.752400
Si Si2 0.598855 0.559539 0.031186
Si Si3 0.674313 0.716095 0.961468
Si Si4 0.680085 0.241175 0.849078
Si Si5 0.989218 0.610197 0.232456
Si Si6 0.392229 0.114185 0.450904
Si Si7 0.938874 0.125411 0.392498
O O1 0.129169 0.726382 0.845550
O O2 0.034676 0.801205 0.696158
O O3 0.061164 0.655867 0.592266
O O4 0.002433 0.682006 0.876426
O O5 0.573604 0.571015 0.225924
O O6 0.651105 0.625073 0.971989
O O7 0.538130 0.565253 0.899794
O O8 0.631326 0.472223 0.015924
O O9 0.747419 0.709851 0.887692
O O10 0.671182 0.753125 0.148209
O O11 0.671246 0.329006 0.929188
O O12 0.626267 0.179745 0.926689
O O13 0.067902 0.608819 0.268800
O O14 0.959492 0.569613 0.057403
#
# Coordination Sequence:
#
# PCOD8185483 Si02
#       7
#     8   8   8   8   8   8   8
#     4  11  20  38  67  96 131 168 227 271 317 395
#     4  10  25  43  61  98 137 170 209 283 339 387
#     4  10  24  43  67  95 128 180 225 271 337 400
#     4  11  22  41  69  95 127 177 231 273 322 404
#     4  11  20  38  65  96 130 174 214 261 328 395
#     4  12  22  41  67  98 137 168 221 285 332 384
#     4  11  22  40  67  94 129 182 218 265 337 398
#
# _framework density 21.073827999999999
#
# number of rings (size 3 to 8) (size 9 to 14) (size 15 to 20)
#    0.000    1.143    4.286    2.143    4.000    0.000 
#    7.714    5.714    0.000    0.000    0.000    0.000 
#    0.000    0.000    0.000    0.000    0.000    0.000 
#
# Total GULP energy -347032.834292 kJ/mol
# GULP energy per Si atom -12394.029796 kJ/mol
# Density = 2.102586 g / cm^3
# Si number density = 21.073828 Si / 1000 Ang^3
#
#
#
# Elastic Constant Matrix: (Units=GPa)
#
#
# Indices 1 2 3 4 5 6 
#
# 1 124.0820 22.0346 31.6407 0.0000 0.0000 0.0000
# 2 22.0346 90.8562 31.8537 0.0000 0.0000 0.0000
# 3 31.6407 31.8537 113.3454 0.0000 0.0000 0.0000
# 4 0.0000 0.0000 0.0000 9.4328 0.0000 0.0000
# 5 0.0000 0.0000 0.0000 0.0000 27.0250 0.0000
# 6 0.0000 0.0000 0.0000 0.0000 0.0000 10.2657
#
#
#
# Elastic Compliance Matrix: (Units=1/GPa)
#
#
# Indices 1 2 3 4 5 6 
#
# 1 0.008839 -0.001418 -0.002069 0.000000 0.000000 0.000000
# 2 -0.001418 0.012437 -0.003099 0.000000 0.000000 0.000000
# 3 -0.002069 -0.003099 0.010271 0.000000 0.000000 0.000000
# 4 0.000000 0.000000 0.000000 0.106013 0.000000 0.000000
# 5 0.000000 0.000000 0.000000 0.000000 0.037003 0.000000
# 6 0.000000 0.000000 0.000000 0.000000 0.000000 0.097411
#
#
# Mechanical properties :
#
#
# Convention : Reuss Voigt Hill
#
# Bulk Modulus (GPa) = 54.42456 55.48243 54.95349
# Shear Modulus (GPa) = 17.16616 25.52835 21.34726
#
# Velocity S-wave (km/s) = 2.85717 3.48426 3.18618
# Velocity P-wave (km/s) = 6.06352 6.52469 6.29833
#
# Compressibility (1/GPa) = 0.01837406
#
# Stress axis : x y z
#
# Youngs Moduli (GPa) = 113.14055 80.40557 97.36074
#
# Poissons Ratio (x) = 0.11404 0.20141
# Poissons Ratio (y) = 0.16046 0.30175
# Poissons Ratio (z) = 0.23406 0.24920
#
# Static dielectric constant tensor:
#      x y z
#    x 11.421110 0.000000 0.000000 
#    y 0.000000 3.747300 0.000000 
#    z 0.000000 0.000000 4.171890 
# 
# 
# High freq. dielectric constant tensor:
#      x y z
#    x 1.806900 0.000000 0.000000 
#    y 0.000000 1.815230 0.000000 
#    z 0.000000 0.000000 1.845400 
# 
# From -- ./inp_files/3434.got.cif
#   From: 2010.03.12/outbox.cif.g09.slc.cpg/sg41_2_cif.got.tgz:3434.got - 2010.04.14 01:55:53.
