data_PCOD8185864
_publ_section_title
;
Structure prediction by ZEFSAII (Michael W. Deem and Ramdas Pophale) SiO2 
 PCOD8185864
Probable space group: F M M 2
;
_chemical_formula_sum "Si O2"
_cell_formula_units_Z 96
_cell_length_a 29.920320
_cell_length_b 7.828363
_cell_length_c 23.086749
_cell_angle_alpha 90.000000
_cell_angle_beta 90.000000
_cell_angle_gamma 90.000000
_cell_volume 5407.542868
_symmetry_space_group_name_H-M "F M M 2"
_symmetry_group_IT_number 42
_symmetry_cell_setting 'orthorhombic'
loop_
_space_group_symop_operation_xyz
x,y,z
-x,-y,z
-x,y,z
x,-y,z
x,1/2+y,1/2+z
-x,1/2-y,1/2+z
-x,1/2+y,1/2+z
x,1/2-y,1/2+z
1/2+x,y,1/2+z
1/2-x,-y,1/2+z
1/2-x,y,1/2+z
1/2+x,-y,1/2+z
1/2+x,1/2+y,z
1/2-x,1/2-y,z
1/2-x,1/2+y,z
1/2+x,1/2-y,z
loop_
_atom_site_type_symbol
_atom_site_label
_atom_site_fract_x
_atom_site_fract_y
_atom_site_fract_z
Si Si1 0.796067 0.800826 0.905510
Si Si2 0.893284 0.194796 0.901599
Si Si3 0.796332 0.699707 0.534651
Si Si4 0.052664 0.805433 0.636791
Si Si5 0.889385 0.306430 0.029325
Si Si6 0.447063 0.000000 0.716769
Si Si7 0.446777 0.500000 0.348007
O O1 0.750000 0.750000 0.871003
O O2 0.843803 0.744457 0.877858
O O3 0.798264 0.000000 0.911742
O O4 0.793042 0.720872 0.969748
O O5 0.929654 0.326526 0.877891
O O6 0.904396 0.000000 0.881385
O O7 0.893010 0.191765 0.971709
O O8 0.803327 0.500000 0.536714
O O9 0.750000 0.750000 0.567604
O O10 0.840992 0.784587 0.561136
O O11 0.073481 0.750067 0.575492
O O12 0.070221 0.672754 0.685322
O O13 0.000000 0.791035 0.629244
O O14 0.066738 0.000000 0.653888
O O15 0.897432 0.500000 0.009966
O O16 0.500000 0.000000 0.716997
O O17 0.429176 0.000000 0.782175
O O18 0.500000 0.500000 0.352764
#
# Coordination Sequence:
#
# PCOD8185864 Si02
#       7
#    16  16  16  16  16   8   8
#     4   8  15  25  43  69 100 137 171 208 257 306
#     4  10  21  35  50  78 115 146 176 215 264 326
#     4   9  16  25  39  64 101 141 175 206 252 308
#     4   9  19  34  53  78 103 130 170 222 268 307
#     4  10  18  30  50  76 111 142 170 213 261 320
#     4   9  20  38  58  76  95 128 181 229 262 300
#     4  11  24  40  56  76 105 146 187 221 261 316
#
# _framework density 17.752979
#
# number of rings (size 3 to 8) (size 9 to 14) (size 15 to 20)
#    0.000    2.667    0.833    2.000    3.500    3.667 
#    0.000    1.667    0.000    0.000    0.000    1.167 
#    0.000    0.000    0.000    0.000    0.000    0.000 
#
# Total GULP energy -297322.452603 kJ/mol
# GULP energy per Si atom -12388.435525 kJ/mol
# Density = 1.771257 g / cm^3
# Si number density = 17.752979 Si / 1000 Ang^3
#
#
#
# Elastic Constant Matrix: (Units=GPa)
#
#
# Indices 1 2 3 4 5 6 
#
# 1 94.3237 43.0065 33.3097 0.0000 0.0001 -0.0005
# 2 43.0065 85.7967 35.6683 0.0000 0.0001 -0.0005
# 3 33.3097 35.6683 59.6732 0.0000 0.0000 0.0000
# 4 0.0000 0.0000 0.0000 15.5131 0.0000 0.0000
# 5 0.0001 0.0001 0.0000 0.0000 1.7403 -0.0001
# 6 -0.0005 -0.0005 0.0000 0.0000 -0.0001 28.1973
#
#
#
# Elastic Compliance Matrix: (Units=1/GPa)
#
#
# Indices 1 2 3 4 5 6 
#
# 1 0.014824 -0.005310 -0.005101 0.000000 0.000000 0.000000
# 2 -0.005310 0.017412 -0.007443 0.000000 -0.000001 0.000000
# 3 -0.005101 -0.007443 0.024054 0.000000 0.000001 0.000000
# 4 0.000000 0.000000 0.000000 0.064462 -0.000001 0.000000
# 5 0.000000 -0.000001 0.000001 -0.000001 0.574620 0.000001
# 6 0.000000 0.000000 0.000000 0.000000 0.000001 0.035464
#
#
# Mechanical properties :
#
#
# Convention : Reuss Voigt Hill
#
# Bulk Modulus (GPa) = 48.58725 51.52919 50.05822
# Shear Modulus (GPa) = 6.46492 17.61074 12.03783
#
# Velocity S-wave (km/s) = 1.91037 3.15300 2.60681
# Velocity P-wave (km/s) = 5.68277 6.50722 6.10892
#
# Compressibility (1/GPa) = 0.02058153
#
# Stress axis : x y z
#
# Youngs Moduli (GPa) = 67.45669 57.43280 41.57263
#
# Poissons Ratio (x) = 0.30498 0.21206
# Poissons Ratio (y) = 0.35821 0.30943
# Poissons Ratio (z) = 0.34409 0.42749
#
# Static dielectric constant tensor:
#      x y z
#    x 3.807160 0.000000 0.000000 
#    y 0.000000 3.333470 0.000000 
#    z 0.000000 0.000000 2.888540 
# 
# 
# High freq. dielectric constant tensor:
#      x y z
#    x 1.696460 0.000000 0.000000 
#    y 0.000000 1.700160 0.000000 
#    z 0.000000 0.000000 1.613610 
# 
# From -- ./inp_files/30633.got.cif
#   From: 2010.03.12/outbox.cif.g09.slc.cpg/sg42_16_cif.got.tgz:30633.got - 2010.04.14 02:04:31.
