data_PCOD8185756
_publ_section_title
;
Structure prediction by ZEFSAII (Michael W. Deem and Ramdas Pophale) SiO2 
 PCOD8185756
Probable space group: F M M 2
;
_chemical_formula_sum "Si O2"
_cell_formula_units_Z 96
_cell_length_a 18.719355
_cell_length_b 18.952144
_cell_length_c 15.973954
_cell_angle_alpha 90.000000
_cell_angle_beta 90.000000
_cell_angle_gamma 90.000000
_cell_volume 5667.110196
_symmetry_space_group_name_H-M "F M M 2"
_symmetry_group_IT_number 42
_symmetry_cell_setting 'orthorhombic'
loop_
_space_group_symop_operation_xyz
x,y,z
-x,-y,z
-x,y,z
x,-y,z
x,1/2+y,1/2+z
-x,1/2-y,1/2+z
-x,1/2+y,1/2+z
x,1/2-y,1/2+z
1/2+x,y,1/2+z
1/2-x,-y,1/2+z
1/2-x,y,1/2+z
1/2+x,-y,1/2+z
1/2+x,1/2+y,z
1/2-x,1/2-y,z
1/2-x,1/2+y,z
1/2+x,1/2-y,z
loop_
_atom_site_type_symbol
_atom_site_label
_atom_site_fract_x
_atom_site_fract_y
_atom_site_fract_z
Si Si1 0.217417 0.674168 0.542750
Si Si2 0.076854 0.789256 0.106732
Si Si3 0.821362 0.782405 0.861523
Si Si4 0.581632 0.835996 0.224273
Si Si5 0.421031 0.317880 0.453214
Si Si6 0.649225 0.916828 0.073098
O O1 0.250000 0.750000 0.568910
O O2 0.144019 0.658796 0.594339
O O3 0.202410 0.673540 0.443486
O O4 0.270614 0.613236 0.571091
O O5 0.084934 0.743977 0.190720
O O6 0.000000 0.829818 0.107518
O O7 0.078104 0.735257 0.030267
O O8 0.750000 0.750000 0.817976
O O9 0.864572 0.837226 0.803258
O O10 0.871033 0.714920 0.882181
O O11 0.500000 0.854961 0.250659
O O12 0.607597 0.892485 0.156171
O O13 0.500000 0.329594 0.415758
O O14 0.391035 0.391691 0.488663
O O15 0.653058 0.000000 0.072803
#
# Coordination Sequence:
#
# PCOD8185756 Si02
#       6
#    16  16  16  16  16  16
#     4  10  16  33  52  74 101 137 180 222 258 299
#     4   8  15  27  48  74  99 128 171 222 259 294
#     4  10  18  30  52  78 104 135 170 221 266 302
#     4  10  20  31  49  80 109 137 170 214 269 318
#     4   9  16  30  50  74 103 135 174 215 256 306
#     4  11  21  34  53  79 108 141 177 217 265 320
#
# _framework density 16.939848999999999
#
# number of rings (size 3 to 8) (size 9 to 14) (size 15 to 20)
#    0.000    2.333    6.667    2.000    2.333    2.000 
#    0.000    0.833    0.000    0.500    0.000    0.000 
#    0.000    0.000    0.000    0.000    0.000    0.000 
#
# Total GULP energy -297433.691732 kJ/mol
# GULP energy per Si atom -12393.070489 kJ/mol
# Density = 1.690129 g / cm^3
# Si number density = 16.939849 Si / 1000 Ang^3
#
#
#
# Elastic Constant Matrix: (Units=GPa)
#
#
# Indices 1 2 3 4 5 6 
#
# 1 155.5701 41.5091 24.8594 0.0000 0.0000 0.0000
# 2 41.5091 74.6285 22.0044 0.0000 0.0000 0.0000
# 3 24.8594 22.0044 36.3975 0.0000 0.0000 0.0000
# 4 0.0000 0.0000 0.0000 11.5661 0.0000 0.0000
# 5 0.0000 0.0000 0.0000 0.0000 24.8356 0.0000
# 6 0.0000 0.0000 0.0000 0.0000 0.0000 16.6488
#
#
#
# Elastic Compliance Matrix: (Units=1/GPa)
#
#
# Indices 1 2 3 4 5 6 
#
# 1 0.007864 -0.003396 -0.003318 0.000000 0.000000 0.000000
# 2 -0.003396 0.017773 -0.008425 0.000000 0.000000 0.000000
# 3 -0.003318 -0.008425 0.034835 0.000000 0.000000 0.000000
# 4 0.000000 0.000000 0.000000 0.086460 0.000000 0.000000
# 5 0.000000 0.000000 0.000000 0.000000 0.040265 0.000000
# 6 0.000000 0.000000 0.000000 0.000000 0.000000 0.060064
#
#
# Mechanical properties :
#
#
# Convention : Reuss Voigt Hill
#
# Bulk Modulus (GPa) = 33.12075 49.26020 41.19048
# Shear Modulus (GPa) = 17.38503 22.49163 19.93833
#
# Velocity S-wave (km/s) = 3.20704 3.64776 3.43448
# Velocity P-wave (km/s) = 5.77130 6.84720 6.33214
#
# Compressibility (1/GPa) = 0.03019255
#
# Stress axis : x y z
#
# Youngs Moduli (GPa) = 127.15713 56.26598 28.70717
#
# Poissons Ratio (x) = 0.19107 0.09526
# Poissons Ratio (y) = 0.43180 0.24187
# Poissons Ratio (z) = 0.42195 0.47406
#
# Static dielectric constant tensor:
#      x y z
#    x 4.059870 0.000000 0.000000 
#    y 0.000000 2.616300 0.000000 
#    z 0.000000 0.000000 3.063480 
# 
# 
# High freq. dielectric constant tensor:
#      x y z
#    x 1.686960 0.000000 0.000000 
#    y 0.000000 1.581630 0.000000 
#    z 0.000000 0.000000 1.635470 
# 
# From -- ./inp_files/21748.got.cif
#   From: 2010.03.12/outbox.cif.g09.slc.cpg/sg42_11_cif.got.tgz:21748.got - 2010.04.14 02:04:31.
