data_PCOD8185499
_publ_section_title
;
Structure prediction by ZEFSAII (Michael W. Deem and Ramdas Pophale) SiO2 
 PCOD8185499
Probable space group: A B A 2
;
_chemical_formula_sum "Si O2"
_cell_formula_units_Z 60
_cell_length_a 12.188184
_cell_length_b 8.817087
_cell_length_c 25.287219
_cell_angle_alpha 90.000000
_cell_angle_beta 90.000000
_cell_angle_gamma 90.000000
_cell_volume 2717.472750
_symmetry_space_group_name_H-M "A B A 2"
_symmetry_group_IT_number 41
_symmetry_cell_setting 'orthorhombic'
loop_
_space_group_symop_operation_xyz
x,y,z
-x,-y,z
1/2-x,y,1/2+z
1/2+x,-y,1/2+z
x,1/2+y,1/2+z
-x,1/2-y,1/2+z
1/2-x,1/2+y,z
1/2+x,1/2-y,z
loop_
_atom_site_type_symbol
_atom_site_label
_atom_site_fract_x
_atom_site_fract_y
_atom_site_fract_z
Si Si1 0.878467 0.990083 0.479040
Si Si2 0.120490 0.979204 0.113572
Si Si3 0.120455 0.482840 0.227385
Si Si4 0.238286 0.229857 0.170121
Si Si5 0.837975 0.149284 0.001468
Si Si6 0.660961 0.372499 0.835718
Si Si7 0.500000 0.000000 0.419660
Si Si8 0.620227 0.537215 0.355707
O O1 0.831845 0.828277 0.495373
O O2 0.790007 0.105112 0.502686
O O3 0.888119 0.041052 0.418613
O O4 0.000000 0.000000 0.505171
O O5 0.179453 0.850957 0.146924
O O6 0.178778 0.143301 0.121237
O O7 0.109247 0.921666 0.053744
O O8 0.000000 0.000000 0.137392
O O9 0.157677 0.313139 0.211795
O O10 0.200550 0.605436 0.203542
O O11 0.115624 0.518502 0.289722
O O12 0.000000 0.500000 0.202825
O O13 0.914855 0.098564 0.953243
O O14 0.580035 0.394074 0.885495
O O15 0.788983 0.409553 0.844225
O O16 0.658387 0.191772 0.826650
O O17 0.500000 0.500000 0.331702
#
# Coordination Sequence:
#
# PCOD8185499 Si02
#       8
#     8   8   8   8   8   8   4   8
#     4  11  25  42  63  93 137 185 235 280 330 402
#     4  11  23  44  69  99 132 175 221 281 347 406
#     4  11  23  44  69  99 132 175 221 281 347 406
#     4  10  24  44  68  98 132 168 228 288 336 404
#     4  12  25  42  68  99 137 185 229 277 347 412
#     4  12  25  42  68  99 137 185 229 277 347 412
#     4  12  24  40  68  96 144 180 222 286 324 414
#     4  11  25  42  63  93 137 185 235 280 330 402
#
# _framework density 22.079339000000001
#
# number of rings (size 3 to 8) (size 9 to 14) (size 15 to 20)
#    0.000    0.800    2.667    4.800    3.733    2.133 
#    0.000    6.667    0.000    0.000    0.000    0.000 
#    0.000    0.000    0.000    0.000    0.000    0.000 
#
# Total GULP energy -371853.024466 kJ/mol
# GULP energy per Si atom -12395.100816 kJ/mol
# Density = 2.202909 g / cm^3
# Si number density = 22.079339 Si / 1000 Ang^3
#
#
#
# Elastic Constant Matrix: (Units=GPa)
#
#
# Indices 1 2 3 4 5 6 
#
# 1 136.9946 31.3725 -7.3443 0.0000 0.0000 0.0000
# 2 31.3725 115.6481 13.7288 0.0000 0.0000 0.0000
# 3 -7.3443 13.7288 70.0489 0.0000 0.0000 0.0000
# 4 0.0000 0.0000 0.0000 10.0882 0.0000 0.0000
# 5 0.0000 0.0000 0.0000 0.0000 28.8214 0.0000
# 6 0.0000 0.0000 0.0000 0.0000 0.0000 4.3124
#
#
#
# Elastic Compliance Matrix: (Units=1/GPa)
#
#
# Indices 1 2 3 4 5 6 
#
# 1 0.007893 -0.002293 0.001277 0.000000 0.000000 0.000000
# 2 -0.002293 0.009519 -0.002106 0.000000 0.000000 0.000000
# 3 0.001277 -0.002106 0.014822 0.000000 0.000000 0.000000
# 4 0.000000 0.000000 0.000000 0.099125 0.000000 0.000000
# 5 0.000000 0.000000 0.000000 0.000000 0.034696 0.000000
# 6 0.000000 0.000000 0.000000 0.000000 0.000000 0.231890
#
#
# Mechanical properties :
#
#
# Convention : Reuss Voigt Hill
#
# Bulk Modulus (GPa) = 38.47541 44.24509 41.36025
# Shear Modulus (GPa) = 12.11084 27.64004 19.87544
#
# Velocity S-wave (km/s) = 2.34458 3.54199 3.00356
# Velocity P-wave (km/s) = 4.97928 6.06714 5.54993
#
# Compressibility (1/GPa) = 0.02599063
#
# Stress axis : x y z
#
# Youngs Moduli (GPa) = 126.69337 105.05413 67.46559
#
# Poissons Ratio (x) = 0.24087 -0.08615
# Poissons Ratio (y) = 0.29048 0.14208
# Poissons Ratio (z) = -0.16178 0.22124
#
# Static dielectric constant tensor:
#      x y z
#    x 4.468800 0.000000 0.000000 
#    y 0.000000 3.641880 0.000000 
#    z 0.000000 0.000000 4.012330 
# 
# 
# High freq. dielectric constant tensor:
#      x y z
#    x 1.893790 0.000000 0.000000 
#    y 0.000000 1.877900 0.000000 
#    z 0.000000 0.000000 1.851930 
# 
# From -- ./inp_files/2169.got.cif
#   From: 2010.03.12/outbox.cif.g09.slc.cpg/sg41_2_cif.got.tgz:2169.got - 2010.04.14 01:55:53.
