data_PCOD8185140
_publ_section_title
;
Structure prediction by ZEFSAII (Michael W. Deem and Ramdas Pophale) SiO2 
 PCOD8185140
Probable space group: A B A 2
;
_chemical_formula_sum "Si O2"
_cell_formula_units_Z 64
_cell_length_a 8.789123
_cell_length_b 12.994578
_cell_length_c 27.829705
_cell_angle_alpha 90.000000
_cell_angle_beta 90.000000
_cell_angle_gamma 90.000000
_cell_volume 3178.456890
_symmetry_space_group_name_H-M "A B A 2"
_symmetry_group_IT_number 41
_symmetry_cell_setting 'orthorhombic'
loop_
_space_group_symop_operation_xyz
x,y,z
-x,-y,z
1/2-x,y,1/2+z
1/2+x,-y,1/2+z
x,1/2+y,1/2+z
-x,1/2-y,1/2+z
1/2-x,1/2+y,z
1/2+x,1/2-y,z
loop_
_atom_site_type_symbol
_atom_site_label
_atom_site_fract_x
_atom_site_fract_y
_atom_site_fract_z
Si Si1 0.032381 0.698144 0.351690
Si Si2 0.077434 0.899462 0.410088
Si Si3 0.273781 0.749256 0.069646
Si Si4 0.532381 0.801856 0.002559
Si Si5 0.726219 0.750744 0.784604
Si Si6 0.422566 0.899462 0.444162
Si Si7 0.479257 0.382079 0.233622
Si Si8 0.520743 0.117921 0.620628
O O1 0.060860 0.815090 0.368920
O O2 0.171588 0.670076 0.316285
O O3 0.878544 0.687598 0.321446
O O4 0.027410 0.625492 0.397751
O O5 0.972590 0.874508 0.456499
O O6 0.250000 0.913540 0.427125
O O7 0.000000 0.000000 0.387412
O O8 0.378545 0.812402 0.032803
O O9 0.169542 0.832689 0.096516
O O10 0.370434 0.682266 0.106991
O O11 0.171588 0.670076 0.037965
O O12 0.560860 0.684910 0.985329
O O13 0.830458 0.667311 0.757733
O O14 0.629567 0.817734 0.747258
O O15 0.500000 0.000000 0.466837
O O16 0.500000 0.500000 0.250479
O O17 0.455737 0.375630 0.177125
O O18 0.500000 0.000000 0.603770
#
# Coordination Sequence:
#
# PCOD8185140 Si02
#       8
#     8   8   8   8   8   8   8   8
#     4  10  22  40  56  82 122 155 205 245 293 356
#     4  11  24  37  58  84 119 164 201 251 300 350
#     4  10  21  39  64  87 121 161 196 256 302 358
#     4  10  22  40  56  82 122 155 205 245 293 356
#     4  10  21  39  64  87 121 161 196 256 302 358
#     4  11  24  37  58  84 119 164 201 251 300 350
#     4  10  22  41  66  93 122 156 199 249 310 374
#     4  10  22  41  66  93 122 156 199 249 310 374
#
# _framework density 20.135556999999999
#
# number of rings (size 3 to 8) (size 9 to 14) (size 15 to 20)
#    0.000    1.750    2.500    0.750    3.500    6.000 
#    0.000    3.750    0.000   13.500    0.000    0.000 
#    0.000    0.000    0.000    0.000    0.000    0.000 
#
# Total GULP energy -396757.211770 kJ/mol
# GULP energy per Si atom -12398.662868 kJ/mol
# Density = 2.008973 g / cm^3
# Si number density = 20.135557 Si / 1000 Ang^3
#
#
#
# Elastic Constant Matrix: (Units=GPa)
#
#
# Indices 1 2 3 4 5 6 
#
# 1 121.9361 39.1197 34.5069 0.0000 0.0000 0.0000
# 2 39.1197 101.1669 21.0256 0.0000 0.0000 0.0000
# 3 34.5069 21.0256 73.9731 0.0000 0.0000 0.0000
# 4 0.0000 0.0000 0.0000 14.8220 0.0000 0.0000
# 5 0.0000 0.0000 0.0000 0.0000 28.1555 0.0000
# 6 0.0000 0.0000 0.0000 0.0000 0.0000 27.0559
#
#
#
# Elastic Compliance Matrix: (Units=1/GPa)
#
#
# Indices 1 2 3 4 5 6 
#
# 1 0.010329 -0.003181 -0.003914 0.000000 0.000000 0.000000
# 2 -0.003181 0.011485 -0.001781 0.000000 0.000000 0.000000
# 3 -0.003914 -0.001781 0.015850 0.000000 0.000000 0.000000
# 4 0.000000 0.000000 0.000000 0.067468 0.000000 0.000000
# 5 0.000000 0.000000 0.000000 0.000000 0.035517 0.000000
# 6 0.000000 0.000000 0.000000 0.000000 0.000000 0.036960
#
#
# Mechanical properties :
#
#
# Convention : Reuss Voigt Hill
#
# Bulk Modulus (GPa) = 50.21800 54.04228 52.13014
# Shear Modulus (GPa) = 24.75271 27.50159 26.12715
#
# Velocity S-wave (km/s) = 3.50995 3.69971 3.60608
# Velocity P-wave (km/s) = 6.43587 6.71923 6.57907
#
# Compressibility (1/GPa) = 0.01991318
#
# Stress axis : x y z
#
# Youngs Moduli (GPa) = 96.81350 87.07302 63.08959
#
# Poissons Ratio (x) = 0.27695 0.24695
# Poissons Ratio (y) = 0.30793 0.11234
# Poissons Ratio (z) = 0.37896 0.15504
#
# Static dielectric constant tensor:
#      x y z
#    x 3.831570 0.000000 0.000000 
#    y 0.000000 3.435240 0.000000 
#    z 0.000000 0.000000 3.748250 
# 
# 
# High freq. dielectric constant tensor:
#      x y z
#    x 1.802560 0.000000 0.000000 
#    y 0.000000 1.764600 0.000000 
#    z 0.000000 0.000000 1.798260 
# 
# From -- ./inp_files/12692.got.cif
#   From: 2010.03.12/outbox.cif.g09.slc.cpg/sg41_7_cif.got.tgz:12692.got - 2010.04.14 01:55:53.
