data_PCOD8185904
_publ_section_title
;
Structure prediction by ZEFSAII (Michael W. Deem and Ramdas Pophale) SiO2 
 PCOD8185904
Probable space group: F M M 2
;
_chemical_formula_sum "Si O2"
_cell_formula_units_Z 128
_cell_length_a 23.339434
_cell_length_b 17.109823
_cell_length_c 19.200863
_cell_angle_alpha 90.000000
_cell_angle_beta 90.000000
_cell_angle_gamma 90.000000
_cell_volume 7667.549450
_symmetry_space_group_name_H-M "F M M 2"
_symmetry_group_IT_number 42
_symmetry_cell_setting 'orthorhombic'
loop_
_space_group_symop_operation_xyz
x,y,z
-x,-y,z
-x,y,z
x,-y,z
x,1/2+y,1/2+z
-x,1/2-y,1/2+z
-x,1/2+y,1/2+z
x,1/2-y,1/2+z
1/2+x,y,1/2+z
1/2-x,-y,1/2+z
1/2-x,y,1/2+z
1/2+x,-y,1/2+z
1/2+x,1/2+y,z
1/2-x,1/2-y,z
1/2-x,1/2+y,z
1/2+x,1/2-y,z
loop_
_atom_site_type_symbol
_atom_site_label
_atom_site_fract_x
_atom_site_fract_y
_atom_site_fract_z
Si Si1 0.113702 0.092954 0.150370
Si Si2 0.434064 0.091444 0.796487
Si Si3 0.163789 0.340733 0.884676
Si Si4 0.663789 0.840733 0.416064
Si Si5 0.767567 0.091671 0.800451
Si Si6 0.258071 0.091936 0.650370
Si Si7 0.232433 0.591671 0.000289
Si Si8 0.065936 0.408556 0.504253
O O1 0.081370 0.123353 0.219452
O O2 0.177960 0.127741 0.150370
O O3 0.081370 0.123353 0.081288
O O4 0.112994 0.000000 0.150370
O O5 0.500000 0.109471 0.812024
O O6 0.397887 0.135749 0.855321
O O7 0.419955 0.000000 0.801518
O O8 0.165469 0.250000 0.900370
O O9 0.212780 0.362152 0.829368
O O10 0.175600 0.386432 0.957220
O O11 0.675600 0.886432 0.343520
O O12 0.712780 0.862152 0.471372
O O13 0.602113 0.864250 0.445419
O O14 0.776184 0.117586 0.719861
O O15 0.754383 0.000000 0.807226
O O16 0.223816 0.117586 0.580879
O O17 0.265639 0.000000 0.650370
O O18 0.245617 0.500000 0.993514
O O19 0.080045 0.500000 0.499222
O O20 0.000000 0.390529 0.488716
#
# Coordination Sequence:
#
# PCOD8185904 Si02
#       8
#    16  16  16  16  16  16  16  16
#     4   9  15  28  48  76 101 116 149 200 245 287
#     4  10  19  32  52  74  95 125 162 198 239 285
#     4  11  21  32  45  69 102 131 162 192 233 285
#     4  11  21  32  45  69 102 131 162 192 233 285
#     4  10  18  32  52  71  95 127 161 200 238 280
#     4   9  16  27  50  76  95 118 155 198 243 283
#     4  10  18  32  52  71  95 127 161 200 238 280
#     4  10  19  32  52  74  95 125 162 198 239 285
#
# _framework density 16.693729999999999
#
# number of rings (size 3 to 8) (size 9 to 14) (size 15 to 20)
#    0.000    2.000    2.500    4.875    0.000    2.000 
#    0.000    3.750    0.000    0.000    0.000    0.875 
#    0.000    5.000    0.000    0.000    0.000    0.500 
#
# Total GULP energy -396721.869662 kJ/mol
# GULP energy per Si atom -12397.558427 kJ/mol
# Density = 1.665573 g / cm^3
# Si number density = 16.693730 Si / 1000 Ang^3
#
#
#
# Elastic Constant Matrix: (Units=GPa)
#
#
# Indices 1 2 3 4 5 6 
#
# 1 87.7283 34.2768 69.5053 0.0000 0.0000 0.0000
# 2 34.2768 68.7769 50.3708 0.0000 0.0000 0.0000
# 3 69.5053 50.3708 162.1199 0.0000 0.0000 0.0000
# 4 0.0000 0.0000 0.0000 3.2471 0.0000 0.0000
# 5 0.0000 0.0000 0.0000 0.0000 26.6058 0.0000
# 6 0.0000 0.0000 0.0000 0.0000 0.0000 40.9903
#
#
#
# Elastic Compliance Matrix: (Units=1/GPa)
#
#
# Indices 1 2 3 4 5 6 
#
# 1 0.018214 -0.004348 -0.006458 0.000000 0.000000 0.000000
# 2 -0.004348 0.019861 -0.004307 0.000000 0.000000 0.000000
# 3 -0.006458 -0.004307 0.010275 0.000000 0.000000 0.000000
# 4 0.000000 0.000000 0.000000 0.307966 0.000000 0.000000
# 5 0.000000 0.000000 0.000000 0.000000 0.037586 0.000000
# 6 0.000000 0.000000 0.000000 0.000000 0.000000 0.024396
#
#
# Mechanical properties :
#
#
# Convention : Reuss Voigt Hill
#
# Bulk Modulus (GPa) = 55.17271 69.65899 62.41585
# Shear Modulus (GPa) = 10.99954 25.13345 18.06649
#
# Velocity S-wave (km/s) = 2.56969 3.88437 3.29330
# Velocity P-wave (km/s) = 6.47504 7.86994 7.20632
#
# Compressibility (1/GPa) = 0.01812490
#
# Stress axis : x y z
#
# Youngs Moduli (GPa) = 54.90237 50.35056 97.32237
#
# Poissons Ratio (x) = 0.21891 0.62851
# Poissons Ratio (y) = 0.23870 0.41914
# Poissons Ratio (z) = 0.35456 0.21685
#
# Static dielectric constant tensor:
#      x y z
#    x 2.993950 0.000000 0.000000 
#    y 0.000000 2.877350 0.000000 
#    z 0.000000 0.000000 3.558920 
# 
# 
# High freq. dielectric constant tensor:
#      x y z
#    x 1.618890 0.000000 0.000000 
#    y 0.000000 1.614190 0.000000 
#    z 0.000000 0.000000 1.656500 
# 
# From -- ./inp_files/26615.got.cif
#   From: 2010.03.12/outbox.cif.g09.slc.cpg/sg42_14_cif.got.tgz:26615.got - 2010.04.14 02:04:31.
