data_PCOD8185459
_publ_section_title
;
Structure prediction by ZEFSAII (Michael W. Deem and Ramdas Pophale) SiO2 
 PCOD8185459
Probable space group: A B A 2
;
_chemical_formula_sum "Si O2"
_cell_formula_units_Z 60
_cell_length_a 26.403468
_cell_length_b 8.741327
_cell_length_c 11.913390
_cell_angle_alpha 90.000000
_cell_angle_beta 90.000000
_cell_angle_gamma 90.000000
_cell_volume 2749.626468
_symmetry_space_group_name_H-M "A B A 2"
_symmetry_group_IT_number 41
_symmetry_cell_setting 'orthorhombic'
loop_
_space_group_symop_operation_xyz
x,y,z
-x,-y,z
1/2-x,y,1/2+z
1/2+x,-y,1/2+z
x,1/2+y,1/2+z
-x,1/2-y,1/2+z
1/2-x,1/2+y,z
1/2+x,1/2-y,z
loop_
_atom_site_type_symbol
_atom_site_label
_atom_site_fract_x
_atom_site_fract_y
_atom_site_fract_z
Si Si1 0.582253 0.909476 0.430390
Si Si2 0.186321 0.705723 0.450167
Si Si3 0.736175 0.901949 0.244523
Si Si4 0.000000 0.000000 0.098165
Si Si5 0.135723 0.799542 0.994075
Si Si6 0.161956 0.514844 0.845350
Si Si7 0.081924 0.312075 0.721856
Si Si8 0.761612 0.152397 0.095185
O O1 0.629342 0.824374 0.490876
O O2 0.571726 0.828630 0.309573
O O3 0.535276 0.897617 0.515529
O O4 0.599036 0.088166 0.422041
O O5 0.202556 0.577694 0.356870
O O6 0.228113 0.705305 0.547251
O O7 0.191188 0.882389 0.411971
O O8 0.796700 0.905680 0.265252
O O9 0.716874 0.733111 0.207880
O O10 0.725194 0.017820 0.141251
O O11 0.970870 0.116444 0.179997
O O12 0.111328 0.750894 0.112964
O O13 0.190091 0.888190 0.016130
O O14 0.141325 0.643016 0.928788
O O15 0.114206 0.447689 0.778034
#
# Coordination Sequence:
#
# PCOD8185459 Si02
#       8
#     8   8   8   4   8   8   8   8
#     4  10  24  45  72  99 132 176 227 290 339 411
#     4  11  24  40  59  92 135 173 229 269 328 407
#     4  12  23  37  56  91 130 182 223 268 326 399
#     4  10  24  46  76 100 134 172 228 296 356 394
#     4  11  22  42  65  96 138 177 222 272 332 402
#     4  11  23  41  60  92 133 180 222 277 335 398
#     4  10  23  48  70 100 135 172 224 284 346 406
#     4  12  23  35  60  89 132 181 223 263 329 396
#
# _framework density 21.821147
#
# number of rings (size 3 to 8) (size 9 to 14) (size 15 to 20)
#    0.000    1.067    4.000    2.400    5.600    2.133 
#    0.000    4.000    0.000    0.000    0.000    0.000 
#    0.000    0.000    0.000    0.000    0.000    0.000 
#
# Total GULP energy -371697.655823 kJ/mol
# GULP energy per Si atom -12389.921861 kJ/mol
# Density = 2.177148 g / cm^3
# Si number density = 21.821147 Si / 1000 Ang^3
#
#
#
# Elastic Constant Matrix: (Units=GPa)
#
#
# Indices 1 2 3 4 5 6 
#
# 1 118.7060 24.6026 47.3752 0.0000 0.0000 0.0000
# 2 24.6026 75.3073 50.1477 0.0000 0.0000 0.0000
# 3 47.3752 50.1477 111.9733 0.0000 0.0000 0.0000
# 4 0.0000 0.0000 0.0000 52.8536 0.0000 0.0000
# 5 0.0000 0.0000 0.0000 0.0000 37.6391 0.0000
# 6 0.0000 0.0000 0.0000 0.0000 0.0000 31.7247
#
#
#
# Elastic Compliance Matrix: (Units=1/GPa)
#
#
# Indices 1 2 3 4 5 6 
#
# 1 0.010158 -0.000651 -0.004006 0.000000 0.000000 0.000000
# 2 -0.000651 0.018964 -0.008218 0.000000 0.000000 0.000000
# 3 -0.004006 -0.008218 0.014306 0.000000 0.000000 0.000000
# 4 0.000000 0.000000 0.000000 0.018920 0.000000 0.000000
# 5 0.000000 0.000000 0.000000 0.000000 0.026568 0.000000
# 6 0.000000 0.000000 0.000000 0.000000 0.000000 0.031521
#
#
# Mechanical properties :
#
#
# Convention : Reuss Voigt Hill
#
# Bulk Modulus (GPa) = 56.56651 61.13752 58.85201
# Shear Modulus (GPa) = 32.87754 36.70088 34.78921
#
# Velocity S-wave (km/s) = 3.88581 4.10554 3.99719
# Velocity P-wave (km/s) = 6.79057 7.11002 6.95213
#
# Compressibility (1/GPa) = 0.01767830
#
# Stress axis : x y z
#
# Youngs Moduli (GPa) = 98.44500 52.73226 69.90037
#
# Poissons Ratio (x) = 0.03431 0.28004
# Poissons Ratio (y) = 0.06406 0.57442
# Poissons Ratio (z) = 0.39440 0.43334
#
# Static dielectric constant tensor:
#      x y z
#    x 3.884690 0.000000 0.000000 
#    y 0.000000 3.894330 0.000000 
#    z 0.000000 0.000000 4.108160 
# 
# 
# High freq. dielectric constant tensor:
#      x y z
#    x 1.841820 0.000000 0.000000 
#    y 0.000000 1.860230 0.000000 
#    z 0.000000 0.000000 1.870040 
# 
# From -- ./inp_files/6574.got.cif
#   From: 2010.03.12/outbox.cif.g09.slc.cpg/sg41_4_cif.got.tgz:6574.got - 2010.04.14 01:55:53.
