data_PCOD8185635
_publ_section_title
;
Structure prediction by ZEFSAII (Michael W. Deem and Ramdas Pophale) SiO2 
 PCOD8185635
Probable space group: A B A 2
;
_chemical_formula_sum "Si O2"
_cell_formula_units_Z 56
_cell_length_a 14.584606
_cell_length_b 14.356901
_cell_length_c 11.403739
_cell_angle_alpha 90.000000
_cell_angle_beta 90.000000
_cell_angle_gamma 90.000000
_cell_volume 2387.825995
_symmetry_space_group_name_H-M "A B A 2"
_symmetry_group_IT_number 41
_symmetry_cell_setting 'orthorhombic'
loop_
_space_group_symop_operation_xyz
x,y,z
-x,-y,z
1/2-x,y,1/2+z
1/2+x,-y,1/2+z
x,1/2+y,1/2+z
-x,1/2-y,1/2+z
1/2-x,1/2+y,z
1/2+x,1/2-y,z
loop_
_atom_site_type_symbol
_atom_site_label
_atom_site_fract_x
_atom_site_fract_y
_atom_site_fract_z
Si Si1 0.625478 0.562021 0.121420
Si Si2 0.000000 0.500000 0.429618
Si Si3 0.373562 0.602003 0.474185
Si Si4 0.068509 0.844781 0.768549
Si Si5 0.500000 0.000000 0.824071
Si Si6 0.752406 0.240861 0.876250
Si Si7 0.099069 0.239439 0.679543
Si Si8 0.320501 0.407558 0.556289
O O1 0.585929 0.530908 0.245436
O O2 0.599009 0.670219 0.095557
O O3 0.734331 0.555931 0.131805
O O4 0.588948 0.497389 0.014964
O O5 0.995479 0.588490 0.346124
O O6 0.467521 0.592355 0.397808
O O7 0.289598 0.658579 0.416346
O O8 0.393689 0.646175 0.601121
O O9 0.347026 0.493083 0.474243
O O10 0.159182 0.817139 0.837202
O O11 0.096213 0.888826 0.644236
O O12 0.999282 0.759394 0.744649
O O13 0.683967 0.255934 0.768733
O O14 0.702865 0.185077 0.981245
#
# Coordination Sequence:
#
# PCOD8185635 Si02
#       8
#     8   4   8   8   4   8   8   8
#     4  11  24  47  71 108 150 192 252 315 384 455
#     4  11  24  43  74 106 140 201 250 315 374 466
#     4  12  26  45  73 109 148 200 251 310 388 463
#     4  12  25  46  75 106 148 195 256 313 383 460
#     4  11  26  45  74 108 148 203 252 319 390 452
#     4  12  26  49  73 112 150 204 249 320 390 463
#     4  12  26  48  73 113 148 195 256 315 386 468
#     4  12  26  48  73 106 158 193 252 319 384 460
#
# _framework density 23.452294999999999
#
# number of rings (size 3 to 8) (size 9 to 14) (size 15 to 20)
#    0.000    0.286    4.286    3.429    4.000    2.286 
#    2.571    0.000    0.000    0.000    0.000    0.000 
#    0.000    0.000    0.000    0.000    0.000    0.000 
#
# Total GULP energy -347163.608061 kJ/mol
# GULP energy per Si atom -12398.700288 kJ/mol
# Density = 2.339892 g / cm^3
# Si number density = 23.452295 Si / 1000 Ang^3
#
#
#
# Elastic Constant Matrix: (Units=GPa)
#
#
# Indices 1 2 3 4 5 6 
#
# 1 116.6600 36.8682 57.5605 0.0000 0.0000 0.0000
# 2 36.8682 102.6779 50.6990 0.0000 0.0000 0.0000
# 3 57.5605 50.6990 136.9634 0.0000 0.0000 0.0000
# 4 0.0000 0.0000 0.0000 34.6233 0.0000 0.0000
# 5 0.0000 0.0000 0.0000 0.0000 29.5633 0.0000
# 6 0.0000 0.0000 0.0000 0.0000 0.0000 44.0034
#
#
#
# Elastic Compliance Matrix: (Units=1/GPa)
#
#
# Indices 1 2 3 4 5 6 
#
# 1 0.011163 -0.002070 -0.003925 0.000000 0.000000 0.000000
# 2 -0.002070 0.012301 -0.003684 0.000000 0.000000 0.000000
# 3 -0.003925 -0.003684 0.010314 0.000000 0.000000 0.000000
# 4 0.000000 0.000000 0.000000 0.028882 0.000000 0.000000
# 5 0.000000 0.000000 0.000000 0.000000 0.033826 0.000000
# 6 0.000000 0.000000 0.000000 0.000000 0.000000 0.022726
#
#
# Mechanical properties :
#
#
# Convention : Reuss Voigt Hill
#
# Bulk Modulus (GPa) = 69.34315 71.83965 70.59140
# Shear Modulus (GPa) = 34.87331 35.71624 35.29478
#
# Velocity S-wave (km/s) = 3.86033 3.90671 3.88359
# Velocity P-wave (km/s) = 7.03573 7.14483 7.09049
#
# Compressibility (1/GPa) = 0.01442103
#
# Stress axis : x y z
#
# Youngs Moduli (GPa) = 89.58369 81.29213 96.95329
#
# Poissons Ratio (x) = 0.16829 0.38054
# Poissons Ratio (y) = 0.18545 0.35713
# Poissons Ratio (z) = 0.35161 0.29944
#
# Static dielectric constant tensor:
#      x y z
#    x 4.499780 0.000000 0.000000 
#    y 0.000000 4.243610 0.000000 
#    z 0.000000 0.000000 4.298720 
# 
# 
# High freq. dielectric constant tensor:
#      x y z
#    x 1.940640 0.000000 0.000000 
#    y 0.000000 1.920150 0.000000 
#    z 0.000000 0.000000 1.942150 
# 
# From -- ./inp_files/5634.got.cif
#   From: 2010.03.12/outbox.cif.g09.slc.cpg/sg41_3_cif.got.tgz:5634.got - 2010.04.14 01:55:53.
