data_PCOD8185349
_publ_section_title
;
Structure prediction by ZEFSAII (Michael W. Deem and Ramdas Pophale) SiO2 
 PCOD8185349
Probable space group: A B A 2
;
_chemical_formula_sum "Si O2"
_cell_formula_units_Z 64
_cell_length_a 13.020187
_cell_length_b 17.263550
_cell_length_c 13.526055
_cell_angle_alpha 90.000000
_cell_angle_beta 90.000000
_cell_angle_gamma 90.000000
_cell_volume 3040.314269
_symmetry_space_group_name_H-M "A B A 2"
_symmetry_group_IT_number 41
_symmetry_cell_setting 'orthorhombic'
loop_
_space_group_symop_operation_xyz
x,y,z
-x,-y,z
1/2-x,y,1/2+z
1/2+x,-y,1/2+z
x,1/2+y,1/2+z
-x,1/2-y,1/2+z
1/2-x,1/2+y,z
1/2+x,1/2-y,z
loop_
_atom_site_type_symbol
_atom_site_label
_atom_site_fract_x
_atom_site_fract_y
_atom_site_fract_z
Si Si1 0.227000 0.521604 0.459710
Si Si2 0.549873 0.424518 0.455944
Si Si3 0.036875 0.860874 0.636435
Si Si4 0.263368 0.856503 0.025473
Si Si5 0.921994 0.709556 0.643804
Si Si6 0.083256 0.938851 0.830468
Si Si7 0.947423 0.855848 0.980720
Si Si8 0.099008 0.301538 0.871664
O O1 0.328131 0.572399 0.440995
O O2 0.246788 0.449846 0.536295
O O3 0.189181 0.482949 0.356445
O O4 0.140200 0.580016 0.498706
O O5 0.500000 0.500000 0.404107
O O6 0.518521 0.428029 0.572465
O O7 0.503013 0.346336 0.409951
O O8 0.131717 0.826429 0.575166
O O9 0.092877 0.882776 0.738045
O O10 0.945847 0.799945 0.653168
O O11 0.173751 0.805132 0.071453
O O12 0.290828 0.835619 0.910657
O O13 0.898869 0.682163 0.754491
O O14 0.020456 0.669723 0.591229
O O15 0.047889 0.894291 0.929927
O O16 0.000000 0.000000 0.795354
O O17 0.910166 0.787743 0.906849
#
# Coordination Sequence:
#
# PCOD8185349 Si02
#       8
#     8   8   8   8   8   8   8   8
#     4  11  24  44  70  99 135 186 234 292 346 411
#     4  11  22  44  68  96 143 184 228 293 348 411
#     4  11  23  42  69 102 138 186 232 276 358 421
#     4  11  25  43  67  99 140 181 227 295 342 410
#     4  12  25  45  72 100 138 191 227 282 356 423
#     4  10  22  42  68  97 135 183 230 280 342 413
#     4  11  23  46  68  97 138 177 234 288 342 412
#     4  11  25  47  68 102 141 184 233 287 356 415
#
# _framework density 21.050456000000001
#
# number of rings (size 3 to 8) (size 9 to 14) (size 15 to 20)
#    0.000    1.000    7.500    0.375    3.500    0.000 
#    6.750    0.000    0.000    0.000    0.000    0.000 
#    0.000    0.000    0.000    0.000    0.000    0.000 
#
# Total GULP energy -396537.548913 kJ/mol
# GULP energy per Si atom -12391.798404 kJ/mol
# Density = 2.100254 g / cm^3
# Si number density = 21.050456 Si / 1000 Ang^3
#
#
#
# Elastic Constant Matrix: (Units=GPa)
#
#
# Indices 1 2 3 4 5 6 
#
# 1 123.6666 37.0145 52.4442 0.0000 0.0000 0.0000
# 2 37.0145 95.1014 31.0931 0.0000 0.0000 0.0000
# 3 52.4442 31.0931 130.8831 0.0000 0.0000 0.0000
# 4 0.0000 0.0000 0.0000 27.1704 0.0000 0.0000
# 5 0.0000 0.0000 0.0000 0.0000 22.4366 0.0000
# 6 0.0000 0.0000 0.0000 0.0000 0.0000 43.6137
#
#
#
# Elastic Compliance Matrix: (Units=1/GPa)
#
#
# Indices 1 2 3 4 5 6 
#
# 1 0.010441 -0.002923 -0.003489 0.000000 0.000000 0.000000
# 2 -0.002923 0.012219 -0.001732 0.000000 0.000000 0.000000
# 3 -0.003489 -0.001732 0.009450 0.000000 0.000000 0.000000
# 4 0.000000 0.000000 0.000000 0.036805 0.000000 0.000000
# 5 0.000000 0.000000 0.000000 0.000000 0.044570 0.000000
# 6 0.000000 0.000000 0.000000 0.000000 0.000000 0.022929
#
#
# Mechanical properties :
#
#
# Convention : Reuss Voigt Hill
#
# Bulk Modulus (GPa) = 63.20237 65.63942 64.42090
# Shear Modulus (GPa) = 31.65072 33.91742 32.78407
#
# Velocity S-wave (km/s) = 3.88179 4.01839 3.95068
# Velocity P-wave (km/s) = 7.08382 7.26495 7.17496
#
# Compressibility (1/GPa) = 0.01582219
#
# Stress axis : x y z
#
# Youngs Moduli (GPa) = 95.77817 81.84077 105.82155
#
# Poissons Ratio (x) = 0.23921 0.36923
# Poissons Ratio (y) = 0.27995 0.18324
# Poissons Ratio (z) = 0.33419 0.14171
#
# Static dielectric constant tensor:
#      x y z
#    x 3.807350 0.000000 0.000000 
#    y 0.000000 3.864890 0.000000 
#    z 0.000000 0.000000 3.767810 
# 
# 
# High freq. dielectric constant tensor:
#      x y z
#    x 1.827420 0.000000 0.000000 
#    y 0.000000 1.831440 0.000000 
#    z 0.000000 0.000000 1.810090 
# 
# From -- ./inp_files/8103.got.cif
#   From: 2010.03.12/outbox.cif.g09.slc.cpg/sg41_5_cif.got.tgz:8103.got - 2010.04.14 01:55:53.
