data_PCOD8185281
_publ_section_title
;
Structure prediction by ZEFSAII (Michael W. Deem and Ramdas Pophale) SiO2 
 PCOD8185281
Probable space group: A B A 2
;
_chemical_formula_sum "Si O2"
_cell_formula_units_Z 60
_cell_length_a 10.569065
_cell_length_b 14.638542
_cell_length_c 19.013333
_cell_angle_alpha 90.000000
_cell_angle_beta 90.000000
_cell_angle_gamma 90.000000
_cell_volume 2941.661161
_symmetry_space_group_name_H-M "A B A 2"
_symmetry_group_IT_number 41
_symmetry_cell_setting 'orthorhombic'
loop_
_space_group_symop_operation_xyz
x,y,z
-x,-y,z
1/2-x,y,1/2+z
1/2+x,-y,1/2+z
x,1/2+y,1/2+z
-x,1/2-y,1/2+z
1/2-x,1/2+y,z
1/2+x,1/2-y,z
loop_
_atom_site_type_symbol
_atom_site_label
_atom_site_fract_x
_atom_site_fract_y
_atom_site_fract_z
Si Si1 0.829388 0.350544 0.668910
Si Si2 0.093810 0.782338 0.953887
Si Si3 0.767175 0.540936 0.809717
Si Si4 0.500000 0.000000 0.727474
Si Si5 0.907458 0.918686 0.724133
Si Si6 0.361011 0.484817 0.947583
Si Si7 0.332130 0.178816 0.513438
Si Si8 0.605048 0.709484 0.788444
O O1 0.925520 0.434696 0.674602
O O2 0.682144 0.382444 0.661445
O O3 0.854530 0.299303 0.595784
O O4 0.852169 0.291580 0.738878
O O5 0.194926 0.713806 0.988294
O O6 0.094400 0.763891 0.870210
O O7 0.946989 0.766542 0.975920
O O8 0.130870 0.884028 0.982128
O O9 0.908909 0.550154 0.782658
O O10 0.693478 0.453886 0.780422
O O11 0.754401 0.525501 0.892975
O O12 0.710849 0.633747 0.780844
O O13 0.974870 0.832722 0.759918
O O14 0.000000 0.000000 0.697906
O O15 0.500000 0.500000 0.910096
O O16 0.335149 0.568392 0.000713
#
# Coordination Sequence:
#
# PCOD8185281 Si02
#       8
#     8   8   8   4   8   8   8   8
#     4  11  26  39  65  96 134 173 215 276 334 396
#     4  10  24  42  68  95 126 176 227 274 331 402
#     4   9  18  38  62  95 120 162 213 266 319 385
#     4  10  24  36  58  96 132 166 210 264 334 388
#     4   9  19  40  62  90 122 166 210 257 321 386
#     4   9  19  41  67  87 122 176 218 264 332 400
#     4  11  25  44  65  95 137 176 222 273 342 410
#     4  10  22  38  69  94 125 164 222 273 324 390
#
# _framework density 20.396637999999999
#
# number of rings (size 3 to 8) (size 9 to 14) (size 15 to 20)
#    0.000    2.133    0.000    2.800   12.133    1.067 
#    4.800    0.000    0.000    0.000    0.000    0.000 
#    0.000    0.000    0.000    0.000    0.000    0.000 
#
# Total GULP energy -371691.575927 kJ/mol
# GULP energy per Si atom -12389.719198 kJ/mol
# Density = 2.035021 g / cm^3
# Si number density = 20.396638 Si / 1000 Ang^3
#
#
#
# Elastic Constant Matrix: (Units=GPa)
#
#
# Indices 1 2 3 4 5 6 
#
# 1 121.0262 29.9912 49.0927 0.0000 0.0000 0.0000
# 2 29.9912 83.3128 37.9680 0.0000 0.0000 0.0000
# 3 49.0927 37.9680 103.8270 0.0000 0.0000 0.0000
# 4 0.0000 0.0000 0.0000 20.5061 0.0000 0.0000
# 5 0.0000 0.0000 0.0000 0.0000 14.2493 0.0000
# 6 0.0000 0.0000 0.0000 0.0000 0.0000 21.8362
#
#
#
# Elastic Compliance Matrix: (Units=1/GPa)
#
#
# Indices 1 2 3 4 5 6 
#
# 1 0.010446 -0.001811 -0.004277 0.000000 0.000000 0.000000
# 2 -0.001811 0.014717 -0.004525 0.000000 0.000000 0.000000
# 3 -0.004277 -0.004525 0.013309 0.000000 0.000000 0.000000
# 4 0.000000 0.000000 0.000000 0.048766 0.000000 0.000000
# 5 0.000000 0.000000 0.000000 0.000000 0.070179 0.000000
# 6 0.000000 0.000000 0.000000 0.000000 0.000000 0.045795
#
#
# Mechanical properties :
#
#
# Convention : Reuss Voigt Hill
#
# Bulk Modulus (GPa) = 57.98869 60.25221 59.12045
# Shear Modulus (GPa) = 21.72131 24.05927 22.89029
#
# Velocity S-wave (km/s) = 3.26689 3.43821 3.35365
# Velocity P-wave (km/s) = 6.53623 6.73544 6.63658
#
# Compressibility (1/GPa) = 0.01724474
#
# Stress axis : x y z
#
# Youngs Moduli (GPa) = 95.72614 67.94678 75.13925
#
# Poissons Ratio (x) = 0.12308 0.32137
# Poissons Ratio (y) = 0.17340 0.34004
# Poissons Ratio (z) = 0.40942 0.30749
#
# Static dielectric constant tensor:
#      x y z
#    x 4.046150 0.000000 0.000000 
#    y 0.000000 3.810060 0.000000 
#    z 0.000000 0.000000 3.463950 
# 
# 
# High freq. dielectric constant tensor:
#      x y z
#    x 1.806820 0.000000 0.000000 
#    y 0.000000 1.794490 0.000000 
#    z 0.000000 0.000000 1.775250 
# 
# From -- ./inp_files/11446.got.cif
#   From: 2010.03.12/outbox.cif.g09.slc.cpg/sg41_6_cif.got.tgz:11446.got - 2010.04.14 01:55:53.
