data_PCOD8185182
_publ_section_title
;
Structure prediction by ZEFSAII (Michael W. Deem and Ramdas Pophale) SiO2 
 PCOD8185182
Probable space group: A B A 2
;
_chemical_formula_sum "Si O2"
_cell_formula_units_Z 60
_cell_length_a 28.856901
_cell_length_b 11.458275
_cell_length_c 8.331977
_cell_angle_alpha 90.000000
_cell_angle_beta 90.000000
_cell_angle_gamma 90.000000
_cell_volume 2754.970756
_symmetry_space_group_name_H-M "A B A 2"
_symmetry_group_IT_number 41
_symmetry_cell_setting 'orthorhombic'
loop_
_space_group_symop_operation_xyz
x,y,z
-x,-y,z
1/2-x,y,1/2+z
1/2+x,-y,1/2+z
x,1/2+y,1/2+z
-x,1/2-y,1/2+z
1/2-x,1/2+y,z
1/2+x,1/2-y,z
loop_
_atom_site_type_symbol
_atom_site_label
_atom_site_fract_x
_atom_site_fract_y
_atom_site_fract_z
Si Si1 0.687041 0.359501 0.757920
Si Si2 0.114085 0.031851 0.953192
Si Si3 0.925251 0.614933 0.177341
Si Si4 0.194356 0.866910 0.038850
Si Si5 0.849760 0.011087 0.481773
Si Si6 0.756921 0.537388 0.808902
Si Si7 0.920967 0.376018 0.776824
Si Si8 0.000000 0.500000 0.975079
O O1 0.647311 0.359652 0.896202
O O2 0.691344 0.245649 0.650813
O O3 0.671850 0.463743 0.643643
O O4 0.735626 0.406424 0.835651
O O5 0.082027 0.988185 0.807411
O O6 0.081365 0.075387 0.095894
O O7 0.143956 0.922656 0.020036
O O8 0.924842 0.736791 0.270403
O O9 0.885983 0.610835 0.037192
O O10 0.973885 0.592564 0.088973
O O11 0.232943 0.951761 0.119895
O O12 0.220337 0.860038 0.865441
O O13 0.808043 0.064203 0.379724
O O14 0.875213 0.909877 0.378116
O O15 0.966032 0.426492 0.862607
#
# Coordination Sequence:
#
# PCOD8185182 Si02
#       8
#     8   8   8   8   8   8   8   4
#     4  10  23  38  56  85 127 172 209 261 309 344
#     4  10  23  41  62  95 120 160 218 251 298 386
#     4  10  24  44  66  91 128 162 190 257 323 367
#     4  11  23  37  57  86 126 169 214 260 307 347
#     4  10  21  41  57  88 127 157 214 256 294 374
#     4  11  22  36  54  87 124 164 217 260 290 359
#     4  11  23  42  71  92 120 162 199 253 320 371
#     4  10  26  44  62 100 124 144 202 252 306 406
#
# _framework density 21.778815000000002
#
# number of rings (size 3 to 8) (size 9 to 14) (size 15 to 20)
#    0.000    1.600    2.667    0.800    3.733    3.733 
#    0.000    0.000    0.000    0.000    0.000    0.000 
#    0.000    0.000    0.000    0.000    0.000    0.000 
#
# Total GULP energy -371729.541553 kJ/mol
# GULP energy per Si atom -12390.984718 kJ/mol
# Density = 2.172925 g / cm^3
# Si number density = 21.778815 Si / 1000 Ang^3
#
#
#
# Elastic Constant Matrix: (Units=GPa)
#
#
# Indices 1 2 3 4 5 6 
#
# 1 103.1844 28.5903 32.4016 0.0000 0.0000 0.0000
# 2 28.5903 76.7723 17.3070 0.0000 0.0000 0.0000
# 3 32.4016 17.3070 84.8878 0.0000 0.0000 0.0000
# 4 0.0000 0.0000 0.0000 45.1175 0.0000 0.0000
# 5 0.0000 0.0000 0.0000 0.0000 50.6406 0.0000
# 6 0.0000 0.0000 0.0000 0.0000 0.0000 15.0981
#
#
#
# Elastic Compliance Matrix: (Units=1/GPa)
#
#
# Indices 1 2 3 4 5 6 
#
# 1 0.011874 -0.003564 -0.003806 0.000000 0.000000 0.000000
# 2 -0.003564 0.014723 -0.001641 0.000000 0.000000 0.000000
# 3 -0.003806 -0.001641 0.013567 0.000000 0.000000 0.000000
# 4 0.000000 0.000000 0.000000 0.022164 0.000000 0.000000
# 5 0.000000 0.000000 0.000000 0.000000 0.019747 0.000000
# 6 0.000000 0.000000 0.000000 0.000000 0.000000 0.066234
#
#
# Mechanical properties :
#
#
# Convention : Reuss Voigt Hill
#
# Bulk Modulus (GPa) = 45.16240 46.82693 45.99466
# Shear Modulus (GPa) = 28.78332 34.60762 31.69547
#
# Velocity S-wave (km/s) = 3.63935 3.99061 3.81902
# Velocity P-wave (km/s) = 6.20014 6.54073 6.37271
#
# Compressibility (1/GPa) = 0.02214231
#
# Stress axis : x y z
#
# Youngs Moduli (GPa) = 84.21819 67.92196 73.70555
#
# Poissons Ratio (x) = 0.24207 0.28050
# Poissons Ratio (y) = 0.30015 0.12098
# Poissons Ratio (z) = 0.32050 0.11148
#
# Static dielectric constant tensor:
#      x y z
#    x 4.019710 0.000000 0.000000 
#    y 0.000000 3.519930 0.000000 
#    z 0.000000 0.000000 4.316160 
# 
# 
# High freq. dielectric constant tensor:
#      x y z
#    x 1.854660 0.000000 0.000000 
#    y 0.000000 1.826550 0.000000 
#    z 0.000000 0.000000 1.881850 
# 
# From -- ./inp_files/3818.got.cif
#   From: 2010.03.12/outbox.cif.g09.slc.cpg/sg41_2_cif.got.tgz:3818.got - 2010.04.14 01:55:53.
