data_PCOD8185422
_publ_section_title
;
Structure prediction by ZEFSAII (Michael W. Deem and Ramdas Pophale) SiO2 
 PCOD8185422
Probable space group: A B A 2
;
_chemical_formula_sum "Si O2"
_cell_formula_units_Z 64
_cell_length_a 10.720610
_cell_length_b 29.276485
_cell_length_c 8.998381
_cell_angle_alpha 90.000000
_cell_angle_beta 90.000000
_cell_angle_gamma 90.000000
_cell_volume 2824.247858
_symmetry_space_group_name_H-M "A B A 2"
_symmetry_group_IT_number 41
_symmetry_cell_setting 'orthorhombic'
loop_
_space_group_symop_operation_xyz
x,y,z
-x,-y,z
1/2-x,y,1/2+z
1/2+x,-y,1/2+z
x,1/2+y,1/2+z
-x,1/2-y,1/2+z
1/2-x,1/2+y,z
1/2+x,1/2-y,z
loop_
_atom_site_type_symbol
_atom_site_label
_atom_site_fract_x
_atom_site_fract_y
_atom_site_fract_z
Si Si1 0.630475 0.239049 0.619300
Si Si2 0.859711 0.995245 0.918489
Si Si3 0.126564 0.723824 0.787012
Si Si4 0.379116 0.122968 0.683649
Si Si5 0.367017 0.863654 0.544892
Si Si6 0.751429 0.585081 0.305069
Si Si7 0.996786 0.447962 0.894788
Si Si8 0.309794 0.054830 0.135128
O O1 0.744255 0.259035 0.715183
O O2 0.619556 0.263773 0.460458
O O3 0.497163 0.243752 0.704572
O O4 0.668128 0.186738 0.595582
O O5 0.833615 0.039923 0.818433
O O6 0.835189 0.952977 0.808791
O O7 0.000000 0.000000 0.978322
O O8 0.772601 0.986345 0.061400
O O9 0.131716 0.669102 0.777679
O O10 0.484881 0.128728 0.558238
O O11 0.250880 0.105535 0.608455
O O12 0.406404 0.079453 0.786301
O O13 0.290883 0.901564 0.639724
O O14 0.326235 0.871846 0.375216
O O15 0.628819 0.576417 0.402946
O O16 0.945256 0.445435 0.061251
O O17 0.000000 0.500000 0.836178
#
# Coordination Sequence:
#
# PCOD8185422 Si02
#       8
#     8   8   8   8   8   8   8   8
#     4  11  24  47  72 108 141 185 236 297 374 443
#     4  12  26  39  64  94 130 179 233 279 337 401
#     4  11  25  45  76 104 144 184 240 297 374 446
#     4  10  24  44  66  96 136 179 221 285 347 411
#     4  10  23  42  66  94 135 172 222 277 347 415
#     4  11  22  40  64  92 130 177 225 275 335 407
#     4  11  22  41  63  89 132 180 219 274 338 396
#     4  12  23  43  61  92 135 168 228 281 332 402
#
# _framework density 22.660899000000001
#
# number of rings (size 3 to 8) (size 9 to 14) (size 15 to 20)
#    0.000    1.000    2.500    3.375    3.500    4.500 
#    0.000    0.000    0.000    0.000    0.000    0.000 
#    0.000    0.000    0.000    0.000    0.000    0.000 
#
# Total GULP energy -396723.694198 kJ/mol
# GULP energy per Si atom -12397.615444 kJ/mol
# Density = 2.260932 g / cm^3
# Si number density = 22.660899 Si / 1000 Ang^3
#
#
#
# Elastic Constant Matrix: (Units=GPa)
#
#
# Indices 1 2 3 4 5 6 
#
# 1 95.4721 21.1893 25.7172 0.0000 0.0000 0.0000
# 2 21.1893 103.3733 12.7909 0.0000 0.0000 0.0000
# 3 25.7172 12.7909 67.2626 0.0000 0.0000 0.0000
# 4 0.0000 0.0000 0.0000 33.2370 0.0000 0.0000
# 5 0.0000 0.0000 0.0000 0.0000 22.5199 0.0000
# 6 0.0000 0.0000 0.0000 0.0000 0.0000 36.1021
#
#
#
# Elastic Compliance Matrix: (Units=1/GPa)
#
#
# Indices 1 2 3 4 5 6 
#
# 1 0.012047 -0.001945 -0.004236 0.000000 0.000000 0.000000
# 2 -0.001945 0.010221 -0.001200 0.000000 0.000000 0.000000
# 3 -0.004236 -0.001200 0.016715 0.000000 0.000000 0.000000
# 4 0.000000 0.000000 0.000000 0.030087 0.000000 0.000000
# 5 0.000000 0.000000 0.000000 0.000000 0.044405 0.000000
# 6 0.000000 0.000000 0.000000 0.000000 0.000000 0.027699
#
#
# Mechanical properties :
#
#
# Convention : Reuss Voigt Hill
#
# Bulk Modulus (GPa) = 41.28771 42.83367 42.06069
# Shear Modulus (GPa) = 30.48588 32.13249 31.30918
#
# Velocity S-wave (km/s) = 3.67182 3.76968 3.72107
# Velocity P-wave (km/s) = 6.01961 6.15552 6.08794
#
# Compressibility (1/GPa) = 0.02422028
#
# Stress axis : x y z
#
# Youngs Moduli (GPa) = 83.00760 97.83895 59.82670
#
# Poissons Ratio (x) = 0.19032 0.25344
# Poissons Ratio (y) = 0.16147 0.07179
# Poissons Ratio (z) = 0.35164 0.11740
#
# Static dielectric constant tensor:
#      x y z
#    x 4.341380 0.000000 0.000000 
#    y 0.000000 4.113910 0.000000 
#    z 0.000000 0.000000 3.976210 
# 
# 
# High freq. dielectric constant tensor:
#      x y z
#    x 1.909190 0.000000 0.000000 
#    y 0.000000 1.890910 0.000000 
#    z 0.000000 0.000000 1.888810 
# 
# From -- ./inp_files/2219.got.cif
#   From: 2010.03.12/outbox.cif.g09.slc.cpg/sg41_2_cif.got.tgz:2219.got - 2010.04.14 01:55:53.
