data_PCOD8185296
_publ_section_title
;
Structure prediction by ZEFSAII (Michael W. Deem and Ramdas Pophale) SiO2 
 PCOD8185296
Probable space group: A B A 2
;
_chemical_formula_sum "Si O2"
_cell_formula_units_Z 56
_cell_length_a 20.826510
_cell_length_b 9.424190
_cell_length_c 12.679800
_cell_angle_alpha 90.000000
_cell_angle_beta 90.000000
_cell_angle_gamma 90.000000
_cell_volume 2488.702224
_symmetry_space_group_name_H-M "A B A 2"
_symmetry_group_IT_number 41
_symmetry_cell_setting 'orthorhombic'
loop_
_space_group_symop_operation_xyz
x,y,z
-x,-y,z
1/2-x,y,1/2+z
1/2+x,-y,1/2+z
x,1/2+y,1/2+z
-x,1/2-y,1/2+z
1/2-x,1/2+y,z
1/2+x,1/2-y,z
loop_
_atom_site_type_symbol
_atom_site_label
_atom_site_fract_x
_atom_site_fract_y
_atom_site_fract_z
Si Si1 0.441173 0.402021 0.237520
Si Si2 0.692503 0.446965 0.192186
Si Si3 0.823908 0.981992 0.791537
Si Si4 0.173458 0.237023 0.382826
Si Si5 0.444627 0.087197 0.168711
Si Si6 0.803277 0.779312 0.980150
Si Si7 0.097980 0.468658 0.960903
O O1 0.500000 0.500000 0.198830
O O2 0.370695 0.456024 0.203602
O O3 0.457397 0.254189 0.179940
O O4 0.441474 0.393736 0.365504
O O5 0.756948 0.529099 0.233404
O O6 0.694069 0.309625 0.265876
O O7 0.693125 0.394705 0.072432
O O8 0.872346 0.940627 0.701094
O O9 0.820454 0.847847 0.868231
O O10 0.855460 0.107831 0.861549
O O11 0.229275 0.266082 0.468560
O O12 0.125513 0.119688 0.424548
O O13 0.500000 0.000000 0.233017
O O14 0.449584 0.014886 0.053154
O O15 0.846863 0.640664 0.000016
#
# Coordination Sequence:
#
# PCOD8185296 Si02
#       7
#     8   8   8   8   8   8   8
#     4  11  26  50  72 103 145 189 244 301 361 429
#     4  10  24  41  73 100 144 187 233 300 364 424
#     4  11  24  43  71 105 145 183 242 299 358 433
#     4  10  22  39  67 103 141 184 234 291 361 422
#     4  12  28  48  72 106 142 193 246 294 366 436
#     4  11  21  41  66 107 142 184 238 292 360 433
#     4  11  24  46  71 100 145 190 238 301 361 429
#
# _framework density 22.501688999999999
#
# number of rings (size 3 to 8) (size 9 to 14) (size 15 to 20)
#    0.000    1.143    1.429    4.714   10.000    1.143 
#    0.000    0.714    0.000    0.000    0.000    0.000 
#    0.000    0.000    0.000    0.000    0.000    0.000 
#
# Total GULP energy -346902.841136 kJ/mol
# GULP energy per Si atom -12389.387183 kJ/mol
# Density = 2.245047 g / cm^3
# Si number density = 22.501689 Si / 1000 Ang^3
#
#
#
# Elastic Constant Matrix: (Units=GPa)
#
#
# Indices 1 2 3 4 5 6 
#
# 1 119.0894 51.8801 31.0035 0.0000 0.0000 0.0000
# 2 51.8801 127.2738 18.1824 0.0000 0.0000 0.0000
# 3 31.0035 18.1824 92.7952 0.0000 0.0000 0.0000
# 4 0.0000 0.0000 0.0000 29.1837 0.0000 0.0000
# 5 0.0000 0.0000 0.0000 0.0000 17.8730 0.0000
# 6 0.0000 0.0000 0.0000 0.0000 0.0000 35.7734
#
#
#
# Elastic Compliance Matrix: (Units=1/GPa)
#
#
# Indices 1 2 3 4 5 6 
#
# 1 0.010897 -0.004035 -0.002850 0.000000 0.000000 0.000000
# 2 -0.004035 0.009577 -0.000529 0.000000 0.000000 0.000000
# 3 -0.002850 -0.000529 0.011832 0.000000 0.000000 0.000000
# 4 0.000000 0.000000 0.000000 0.034266 0.000000 0.000000
# 5 0.000000 0.000000 0.000000 0.000000 0.055950 0.000000
# 6 0.000000 0.000000 0.000000 0.000000 0.000000 0.027954
#
#
# Mechanical properties :
#
#
# Convention : Reuss Voigt Hill
#
# Bulk Modulus (GPa) = 57.20979 60.14337 58.67658
# Shear Modulus (GPa) = 29.21776 32.43886 30.82831
#
# Velocity S-wave (km/s) = 3.60734 3.80098 3.70543
# Velocity P-wave (km/s) = 6.54449 6.78599 6.66634
#
# Compressibility (1/GPa) = 0.01747953
#
# Stress axis : x y z
#
# Youngs Moduli (GPa) = 91.77117 104.41470 84.51492
#
# Poissons Ratio (x) = 0.42127 0.24088
# Poissons Ratio (y) = 0.37026 0.04467
# Poissons Ratio (z) = 0.26156 0.05519
#
# Static dielectric constant tensor:
#      x y z
#    x 4.075090 0.000000 0.000000 
#    y 0.000000 4.059090 0.000000 
#    z 0.000000 0.000000 4.154870 
# 
# 
# High freq. dielectric constant tensor:
#      x y z
#    x 1.887050 0.000000 0.000000 
#    y 0.000000 1.892180 0.000000 
#    z 0.000000 0.000000 1.884270 
# 
# From -- ./inp_files/9018.got.cif
#   From: 2010.03.12/outbox.cif.g09.slc.cpg/sg41_5_cif.got.tgz:9018.got - 2010.04.14 01:55:53.
