data_PCOD8185369
_publ_section_title
;
Structure prediction by ZEFSAII (Michael W. Deem and Ramdas Pophale) SiO2 
 PCOD8185369
Probable space group: A B A 2
;
_chemical_formula_sum "Si O2"
_cell_formula_units_Z 64
_cell_length_a 24.317282
_cell_length_b 10.383557
_cell_length_c 11.882734
_cell_angle_alpha 90.000000
_cell_angle_beta 90.000000
_cell_angle_gamma 90.000000
_cell_volume 3000.388953
_symmetry_space_group_name_H-M "A B A 2"
_symmetry_group_IT_number 41
_symmetry_cell_setting 'orthorhombic'
loop_
_space_group_symop_operation_xyz
x,y,z
-x,-y,z
1/2-x,y,1/2+z
1/2+x,-y,1/2+z
x,1/2+y,1/2+z
-x,1/2-y,1/2+z
1/2-x,1/2+y,z
1/2+x,1/2-y,z
loop_
_atom_site_type_symbol
_atom_site_label
_atom_site_fract_x
_atom_site_fract_y
_atom_site_fract_z
Si Si1 0.602824 0.546943 0.498330
Si Si2 0.929663 0.743729 0.169464
Si Si3 0.116182 0.831803 0.903218
Si Si4 0.321341 0.084010 0.421319
Si Si5 0.853307 0.461107 0.666322
Si Si6 0.613922 0.202003 0.795729
Si Si7 0.305777 0.110209 0.890451
Si Si8 0.052700 0.207970 0.592717
O O1 0.610196 0.646597 0.600719
O O2 0.578399 0.616482 0.385014
O O3 0.663882 0.500281 0.462993
O O4 0.563731 0.427770 0.531168
O O5 0.923560 0.713160 0.301711
O O6 0.912999 0.892801 0.150245
O O7 0.988436 0.724531 0.112281
O O8 0.170698 0.747215 0.933058
O O9 0.139001 0.972611 0.872635
O O10 0.077546 0.824017 0.015384
O O11 0.319456 0.062252 0.554086
O O12 0.343880 0.218136 0.372914
O O13 0.258109 0.081297 0.388997
O O14 0.856177 0.609465 0.704687
O O15 0.821298 0.382614 0.760228
O O16 0.577128 0.295353 0.719300
#
# Coordination Sequence:
#
# PCOD8185369 Si02
#       8
#     8   8   8   8   8   8   8   8
#     4  10  22  44  66 101 140 172 238 280 341 427
#     4  11  23  43  70  97 139 189 225 291 357 409
#     4  10  24  43  65 104 140 169 247 291 337 443
#     4  12  23  43  73  96 137 186 227 293 357 418
#     4  10  23  45  60 101 139 172 236 291 336 432
#     4  11  24  44  68 102 137 180 237 288 348 432
#     4   9  24  42  67  98 136 183 228 289 361 408
#     4  11  24  44  69 102 138 186 230 293 351 406
#
# _framework density 21.330569000000001
#
# number of rings (size 3 to 8) (size 9 to 14) (size 15 to 20)
#    0.000    1.500    2.500    1.875    5.250    3.500 
#    6.750    1.250    0.000    0.000    0.000    0.000 
#    0.000    0.000    0.000    0.000    0.000    0.000 
#
# Total GULP energy -396486.932215 kJ/mol
# GULP energy per Si atom -12390.216632 kJ/mol
# Density = 2.128202 g / cm^3
# Si number density = 21.330569 Si / 1000 Ang^3
#
#
#
# Elastic Constant Matrix: (Units=GPa)
#
#
# Indices 1 2 3 4 5 6 
#
# 1 105.6142 44.1046 36.2834 0.0000 0.0000 0.0000
# 2 44.1046 110.7977 38.4986 0.0000 0.0000 0.0000
# 3 36.2834 38.4986 114.4735 0.0000 0.0000 0.0000
# 4 0.0000 0.0000 0.0000 45.0844 0.0000 0.0000
# 5 0.0000 0.0000 0.0000 0.0000 24.0256 0.0000
# 6 0.0000 0.0000 0.0000 0.0000 0.0000 19.7972
#
#
#
# Elastic Compliance Matrix: (Units=1/GPa)
#
#
# Indices 1 2 3 4 5 6 
#
# 1 0.011946 -0.003895 -0.002476 0.000000 0.000000 0.000000
# 2 -0.003895 0.011489 -0.002630 0.000000 0.000000 0.000000
# 3 -0.002476 -0.002630 0.010405 0.000000 0.000000 0.000000
# 4 0.000000 0.000000 0.000000 0.022181 0.000000 0.000000
# 5 0.000000 0.000000 0.000000 0.000000 0.041622 0.000000
# 6 0.000000 0.000000 0.000000 0.000000 0.000000 0.050512
#
#
# Mechanical properties :
#
#
# Convention : Reuss Voigt Hill
#
# Bulk Modulus (GPa) = 63.13666 63.18428 63.16047
# Shear Modulus (GPa) = 29.16543 31.91470 30.54006
#
# Velocity S-wave (km/s) = 3.70172 3.87227 3.78795
# Velocity P-wave (km/s) = 6.92342 7.04829 6.98613
#
# Compressibility (1/GPa) = 0.01583866
#
# Stress axis : x y z
#
# Youngs Moduli (GPa) = 83.71276 87.03628 96.10824
#
# Poissons Ratio (x) = 0.33897 0.23801
# Poissons Ratio (y) = 0.32603 0.25272
# Poissons Ratio (z) = 0.20731 0.22887
#
# Static dielectric constant tensor:
#      x y z
#    x 3.616740 0.000000 0.000000 
#    y 0.000000 4.129390 0.000000 
#    z 0.000000 0.000000 4.138360 
# 
# 
# High freq. dielectric constant tensor:
#      x y z
#    x 1.805890 0.000000 0.000000 
#    y 0.000000 1.844790 0.000000 
#    z 0.000000 0.000000 1.858400 
# 
# From -- ./inp_files/6469.got.cif
#   From: 2010.03.12/outbox.cif.g09.slc.cpg/sg41_4_cif.got.tgz:6469.got - 2010.04.14 01:55:53.
