data_PCOD8185419
_publ_section_title
;
Structure prediction by ZEFSAII (Michael W. Deem and Ramdas Pophale) SiO2 
 PCOD8185419
Probable space group: A B A 2
;
_chemical_formula_sum "Si O2"
_cell_formula_units_Z 40
_cell_length_a 12.179235
_cell_length_b 5.057757
_cell_length_c 26.818985
_cell_angle_alpha 90.000000
_cell_angle_beta 90.000000
_cell_angle_gamma 90.000000
_cell_volume 1652.039045
_symmetry_space_group_name_H-M "A B A 2"
_symmetry_group_IT_number 41
_symmetry_cell_setting 'orthorhombic'
loop_
_space_group_symop_operation_xyz
x,y,z
-x,-y,z
1/2-x,y,1/2+z
1/2+x,-y,1/2+z
x,1/2+y,1/2+z
-x,1/2-y,1/2+z
1/2-x,1/2+y,z
1/2+x,1/2-y,z
loop_
_atom_site_type_symbol
_atom_site_label
_atom_site_fract_x
_atom_site_fract_y
_atom_site_fract_z
Si Si1 0.683183 0.015009 0.757950
Si Si2 0.316817 0.015002 0.872382
Si Si3 0.321306 0.737189 0.006867
Si Si4 0.000000 0.500000 0.945228
Si Si5 0.178694 0.762808 0.623464
Si Si6 0.000000 0.500000 0.685105
O O1 0.716497 0.713319 0.746213
O O2 0.644408 0.000003 0.815166
O O3 0.588176 0.128126 0.722451
O O4 0.283504 0.713311 0.884119
O O5 0.411823 0.128122 0.907882
O O6 0.268812 0.457840 0.991472
O O7 0.347391 0.749997 0.065166
O O8 0.437960 0.782776 0.979475
O O9 0.268813 0.542158 0.638859
O O10 0.062041 0.717221 0.650858
#
# Coordination Sequence:
#
# PCOD8185419 Si02
#       6
#     8   8   8   4   8   4
#     4  10  23  42  63  94 133 167 207 262 320 381
#     4  10  23  42  63  94 133 167 207 262 320 381
#     4  10  24  43  61  88 126 163 206 261 316 372
#     4  12  23  40  70  96 122 170 221 260 316 384
#     4  10  24  43  61  88 126 163 206 261 316 372
#     4  12  23  40  70  96 122 170 221 260 316 384
#
# _framework density 24.212503999999999
#
# number of rings (size 3 to 8) (size 9 to 14) (size 15 to 20)
#    0.000    1.600    0.000    3.000    0.000   11.200 
#    0.000    6.000    0.000    0.000    0.000    0.000 
#    0.000    0.000    0.000    0.000    0.000    0.000 
#
# Total GULP energy -247902.673270 kJ/mol
# GULP energy per Si atom -12395.133664 kJ/mol
# Density = 2.415740 g / cm^3
# Si number density = 24.212504 Si / 1000 Ang^3
#
#
#
# Elastic Constant Matrix: (Units=GPa)
#
#
# Indices 1 2 3 4 5 6 
#
# 1 126.4807 24.1704 96.0183 0.0000 0.0000 0.0000
# 2 24.1704 97.9758 51.5898 0.0000 0.0000 0.0000
# 3 96.0183 51.5898 115.0179 0.0000 0.0000 0.0000
# 4 0.0000 0.0000 0.0000 32.9279 0.0000 0.0000
# 5 0.0000 0.0000 0.0000 0.0000 53.5251 0.0000
# 6 0.0000 0.0000 0.0000 0.0000 0.0000 21.7303
#
#
#
# Elastic Compliance Matrix: (Units=1/GPa)
#
#
# Indices 1 2 3 4 5 6 
#
# 1 0.024067 0.006077 -0.022817 0.000000 0.000000 0.000000
# 2 0.006077 0.014897 -0.011755 0.000000 0.000000 0.000000
# 3 -0.022817 -0.011755 0.033015 0.000000 0.000000 0.000000
# 4 0.000000 0.000000 0.000000 0.030369 0.000000 0.000000
# 5 0.000000 0.000000 0.000000 0.000000 0.018683 0.000000
# 6 0.000000 0.000000 0.000000 0.000000 0.000000 0.046019
#
#
# Mechanical properties :
#
#
# Convention : Reuss Voigt Hill
#
# Bulk Modulus (GPa) = 66.71730 75.89239 71.30484
# Shear Modulus (GPa) = 21.83066 32.81637 27.32351
#
# Velocity S-wave (km/s) = 3.00597 3.68550 3.36294
# Velocity P-wave (km/s) = 6.29782 7.03725 6.67778
#
# Compressibility (1/GPa) = 0.01498862
#
# Stress axis : x y z
#
# Youngs Moduli (GPa) = 41.55146 67.12668 30.28941
#
# Poissons Ratio (x) = -0.40795 0.69111
# Poissons Ratio (y) = -0.25252 0.35606
# Poissons Ratio (z) = 0.94808 0.78910
#
# Static dielectric constant tensor:
#      x y z
#    x 4.151700 0.000000 0.000000 
#    y 0.000000 4.140960 0.000000 
#    z 0.000000 0.000000 4.924310 
# 
# 
# High freq. dielectric constant tensor:
#      x y z
#    x 1.947210 0.000000 0.000000 
#    y 0.000000 1.945920 0.000000 
#    z 0.000000 0.000000 1.999870 
# 
# From -- ./inp_files/12491.got.cif
#   From: 2010.03.12/outbox.cif.g09.slc.cpg/sg41_7_cif.got.tgz:12491.got - 2010.04.14 01:55:53.
