data_PCOD8185454
_publ_section_title
;
Structure prediction by ZEFSAII (Michael W. Deem and Ramdas Pophale) SiO2 
 PCOD8185454
Probable space group: A B A 2
;
_chemical_formula_sum "Si O2"
_cell_formula_units_Z 32
_cell_length_a 16.843262
_cell_length_b 12.493169
_cell_length_c 7.238220
_cell_angle_alpha 90.000000
_cell_angle_beta 90.000000
_cell_angle_gamma 90.000000
_cell_volume 1523.107645
_symmetry_space_group_name_H-M "A B A 2"
_symmetry_group_IT_number 41
_symmetry_cell_setting 'orthorhombic'
loop_
_space_group_symop_operation_xyz
x,y,z
-x,-y,z
1/2-x,y,1/2+z
1/2+x,-y,1/2+z
x,1/2+y,1/2+z
-x,1/2-y,1/2+z
1/2-x,1/2+y,z
1/2+x,1/2-y,z
loop_
_atom_site_type_symbol
_atom_site_label
_atom_site_fract_x
_atom_site_fract_y
_atom_site_fract_z
Si Si1 0.401077 0.339367 0.746220
Si Si2 0.835767 0.932404 0.674351
Si Si3 0.061511 0.182016 0.954555
Si Si4 0.160112 0.122301 0.271404
O O1 0.361261 0.454200 0.756282
O O2 0.431918 0.303277 0.539672
O O3 0.472791 0.342426 0.892834
O O4 0.336034 0.251060 0.810969
O O5 0.879288 0.835654 0.781527
O O6 0.861269 0.936054 0.460869
O O7 0.741790 0.918402 0.684656
O O8 0.090045 0.101675 0.120523
#
# Coordination Sequence:
#
# PCOD8185454 Si02
#       4
#     8   8   8   8
#     4  10  24  45  70  99 143 187 218 300 346 406
#     4  12  22  47  68 103 140 182 235 288 356 412
#     4  10  23  47  65 104 138 181 240 281 342 433
#     4  10  24  43  70 103 140 175 240 285 339 433
#
# _framework density 21.009678000000001
#
# number of rings (size 3 to 8) (size 9 to 14) (size 15 to 20)
#    1.500    0.000    2.500    2.250    0.000    4.000 
#   13.500    0.000    0.000    0.000    0.000    0.000 
#    0.000    0.000    0.000    0.000    0.000    0.000 
#
# Total GULP energy -198214.189425 kJ/mol
# GULP energy per Si atom -12388.386839 kJ/mol
# Density = 2.096186 g / cm^3
# Si number density = 21.009678 Si / 1000 Ang^3
#
#
#
# Elastic Constant Matrix: (Units=GPa)
#
#
# Indices 1 2 3 4 5 6 
#
# 1 119.2802 62.1989 45.4507 0.0000 0.0000 0.0000
# 2 62.1989 86.1179 28.3167 0.0000 0.0000 0.0000
# 3 45.4507 28.3167 107.6687 0.0000 0.0000 0.0000
# 4 0.0000 0.0000 0.0000 32.8374 0.0000 0.0000
# 5 0.0000 0.0000 0.0000 0.0000 46.1795 0.0000
# 6 0.0000 0.0000 0.0000 0.0000 0.0000 31.8884
#
#
#
# Elastic Compliance Matrix: (Units=1/GPa)
#
#
# Indices 1 2 3 4 5 6 
#
# 1 0.014705 -0.009392 -0.003738 0.000000 0.000000 0.000000
# 2 -0.009392 0.018710 -0.000956 0.000000 0.000000 0.000000
# 3 -0.003738 -0.000956 0.011117 0.000000 0.000000 0.000000
# 4 0.000000 0.000000 0.000000 0.030453 0.000000 0.000000
# 5 0.000000 0.000000 0.000000 0.000000 0.021655 0.000000
# 6 0.000000 0.000000 0.000000 0.000000 0.000000 0.031359
#
#
# Mechanical properties :
#
#
# Convention : Reuss Voigt Hill
#
# Bulk Modulus (GPa) = 61.12107 64.99994 63.06051
# Shear Modulus (GPa) = 30.93613 33.98776 32.46195
#
# Velocity S-wave (km/s) = 3.84144 4.02645 3.93503
# Velocity P-wave (km/s) = 6.98789 7.25408 7.12223
#
# Compressibility (1/GPa) = 0.01636097
#
# Stress axis : x y z
#
# Youngs Moduli (GPa) = 68.00310 53.44834 89.95317
#
# Poissons Ratio (x) = 0.50198 0.33620
# Poissons Ratio (y) = 0.63868 0.08599
# Poissons Ratio (z) = 0.25416 0.05109
#
# Static dielectric constant tensor:
#      x y z
#    x 3.644840 0.000000 0.000000 
#    y 0.000000 3.573410 0.000000 
#    z 0.000000 0.000000 3.918750 
# 
# 
# High freq. dielectric constant tensor:
#      x y z
#    x 1.817720 0.000000 0.000000 
#    y 0.000000 1.796680 0.000000 
#    z 0.000000 0.000000 1.835400 
# 
# From -- ./inp_files/869.got.cif
#   From: 2010.03.12/outbox.cif.g09.slc.cpg/sg41_1_cif.got.tgz:869.got - 2010.04.14 01:55:53.
