data_PCOD8185738
_publ_section_title
;
Structure prediction by ZEFSAII (Michael W. Deem and Ramdas Pophale) SiO2 
 PCOD8185738
Probable space group: A B A 2
;
_chemical_formula_sum "Si O2"
_cell_formula_units_Z 28
_cell_length_a 6.808241
_cell_length_b 16.688731
_cell_length_c 9.736053
_cell_angle_alpha 90.000000
_cell_angle_beta 90.000000
_cell_angle_gamma 90.000000
_cell_volume 1106.219130
_symmetry_space_group_name_H-M "A B A 2"
_symmetry_group_IT_number 41
_symmetry_cell_setting 'orthorhombic'
loop_
_space_group_symop_operation_xyz
x,y,z
-x,-y,z
1/2-x,y,1/2+z
1/2+x,-y,1/2+z
x,1/2+y,1/2+z
-x,1/2-y,1/2+z
1/2-x,1/2+y,z
1/2+x,1/2-y,z
loop_
_atom_site_type_symbol
_atom_site_label
_atom_site_fract_x
_atom_site_fract_y
_atom_site_fract_z
Si Si1 0.621357 0.865208 0.252340
Si Si2 0.500000 0.000000 0.459859
Si Si3 0.444184 0.812608 0.761611
Si Si4 0.807711 0.615956 0.041159
O O1 0.586279 0.927684 0.372075
O O2 0.525775 0.780342 0.300480
O O3 0.519855 0.896311 0.111857
O O4 0.852001 0.855797 0.226255
O O5 0.320411 0.965882 0.551723
O O6 0.309087 0.815668 0.625665
O O7 0.334198 0.859428 0.883586
#
# Coordination Sequence:
#
# PCOD8185738 Si02
#       4
#     8   4   8   8
#     4  12  29  50  83 121 166 218 276 344 410 506
#     4  12  30  52  76 124 170 212 270 348 430 476
#     4  12  29  52  87 117 168 222 287 329 425 507
#     4  12  29  54  82 124 162 221 273 352 414 499
#
# _framework density 25.311440999999999
#
# number of rings (size 3 to 8) (size 9 to 14) (size 15 to 20)
#    0.000    0.000    5.714    0.000   16.000    1.143 
#    0.000    0.000    0.000    0.000    0.000    0.000 
#    0.000    0.000    0.000    0.000    0.000    0.000 
#
# Total GULP energy -173689.782640 kJ/mol
# GULP energy per Si atom -12406.413046 kJ/mol
# Density = 2.525383 g / cm^3
# Si number density = 25.311441 Si / 1000 Ang^3
#
#
#
# Elastic Constant Matrix: (Units=GPa)
#
#
# Indices 1 2 3 4 5 6 
#
# 1 183.0413 53.9199 64.9658 0.0000 0.0000 0.0000
# 2 53.9199 132.7001 34.6414 0.0000 0.0000 0.0000
# 3 64.9658 34.6414 106.0437 0.0000 0.0000 0.0000
# 4 0.0000 0.0000 0.0000 30.7359 0.0000 0.0000
# 5 0.0000 0.0000 0.0000 0.0000 55.5458 0.0000
# 6 0.0000 0.0000 0.0000 0.0000 0.0000 54.8567
#
#
#
# Elastic Compliance Matrix: (Units=1/GPa)
#
#
# Indices 1 2 3 4 5 6 
#
# 1 0.007439 -0.002004 -0.003903 0.000000 0.000000 0.000000
# 2 -0.002004 0.008778 -0.001640 0.000000 0.000000 0.000000
# 3 -0.003903 -0.001640 0.012357 0.000000 0.000000 0.000000
# 4 0.000000 0.000000 0.000000 0.032535 0.000000 0.000000
# 5 0.000000 0.000000 0.000000 0.000000 0.018003 0.000000
# 6 0.000000 0.000000 0.000000 0.000000 0.000000 0.018229
#
#
# Mechanical properties :
#
#
# Convention : Reuss Voigt Hill
#
# Bulk Modulus (GPa) = 74.17988 80.98215 77.58102
# Shear Modulus (GPa) = 42.76163 46.11157 44.43660
#
# Velocity S-wave (km/s) = 4.11471 4.27285 4.19453
# Velocity P-wave (km/s) = 7.20729 7.51044 7.36042
#
# Compressibility (1/GPa) = 0.01348074
#
# Stress axis : x y z
#
# Youngs Moduli (GPa) = 134.43334 113.91993 80.92809
#
# Poissons Ratio (x) = 0.22827 0.31583
# Poissons Ratio (y) = 0.26937 0.13272
# Poissons Ratio (z) = 0.52464 0.18683
#
# Static dielectric constant tensor:
#      x y z
#    x 4.966520 0.000000 0.000000 
#    y 0.000000 4.659140 0.000000 
#    z 0.000000 0.000000 4.283470 
# 
# 
# High freq. dielectric constant tensor:
#      x y z
#    x 2.039760 0.000000 0.000000 
#    y 0.000000 2.011170 0.000000 
#    z 0.000000 0.000000 1.998750 
# 
# From -- ./inp_files/1601.got.cif
#   From: 2010.03.12/outbox.cif.g09.slc.cpg/sg41_1_cif.got.tgz:1601.got - 2010.04.14 01:55:53.
