data_PCOD8185322
_publ_section_title
;
Structure prediction by ZEFSAII (Michael W. Deem and Ramdas Pophale) SiO2 
 PCOD8185322
Probable space group: A B A 2
;
_chemical_formula_sum "Si O2"
_cell_formula_units_Z 48
_cell_length_a 12.777980
_cell_length_b 19.472029
_cell_length_c 8.724609
_cell_angle_alpha 90.000000
_cell_angle_beta 90.000000
_cell_angle_gamma 90.000000
_cell_volume 2170.797859
_symmetry_space_group_name_H-M "A B A 2"
_symmetry_group_IT_number 41
_symmetry_cell_setting 'orthorhombic'
loop_
_space_group_symop_operation_xyz
x,y,z
-x,-y,z
1/2-x,y,1/2+z
1/2+x,-y,1/2+z
x,1/2+y,1/2+z
-x,1/2-y,1/2+z
1/2-x,1/2+y,z
1/2+x,1/2-y,z
loop_
_atom_site_type_symbol
_atom_site_label
_atom_site_fract_x
_atom_site_fract_y
_atom_site_fract_z
Si Si1 0.234865 0.687726 0.260030
Si Si2 0.153694 0.497707 0.568688
Si Si3 0.395324 0.238063 0.526900
Si Si4 0.337057 0.052410 0.893107
Si Si5 0.533807 0.863608 0.101908
Si Si6 0.492415 0.395206 0.938722
O O1 0.334984 0.724543 0.185954
O O2 0.187677 0.738024 0.388482
O O3 0.267947 0.615846 0.333639
O O4 0.145244 0.673026 0.134282
O O5 0.273682 0.508668 0.520153
O O6 0.137123 0.502855 0.750962
O O7 0.115395 0.422680 0.512553
O O8 0.087348 0.556151 0.485316
O O9 0.451416 0.310933 0.530288
O O10 0.484580 0.180708 0.501329
O O11 0.444317 0.078034 0.973733
O O12 0.484033 0.896066 0.254621
#
# Coordination Sequence:
#
# PCOD8185322 Si02
#       6
#     8   8   8   8   8   8
#     4  11  20  38  62 101 129 176 233 271 342 403
#     4  11  21  39  70  88 133 168 243 283 331 422
#     4  11  23  39  68 100 138 179 227 285 337 422
#     4  12  19  41  69  99 125 192 225 277 353 405
#     4  11  23  40  70  99 140 180 235 278 353 417
#     4  10  22  41  61  99 124 178 227 295 332 394
#
# _framework density 22.111685000000001
#
# number of rings (size 3 to 8) (size 9 to 14) (size 15 to 20)
#    0.000    1.000    8.333    0.000    4.667    0.000 
#    0.000   10.000    0.000    0.000    0.000    0.000 
#    0.000    0.000    0.000    0.000    0.000    0.000 
#
# Total GULP energy -297655.956961 kJ/mol
# GULP energy per Si atom -12402.331540 kJ/mol
# Density = 2.206136 g / cm^3
# Si number density = 22.111685 Si / 1000 Ang^3
#
#
#
# Elastic Constant Matrix: (Units=GPa)
#
#
# Indices 1 2 3 4 5 6 
#
# 1 78.2821 45.3622 54.5170 0.0000 0.0000 0.0000
# 2 45.3622 64.5076 64.1908 0.0000 0.0000 0.0000
# 3 54.5170 64.1908 159.8573 0.0000 0.0000 0.0000
# 4 0.0000 0.0000 0.0000 30.0235 0.0000 0.0000
# 5 0.0000 0.0000 0.0000 0.0000 29.3372 0.0000
# 6 0.0000 0.0000 0.0000 0.0000 0.0000 46.8492
#
#
#
# Elastic Compliance Matrix: (Units=1/GPa)
#
#
# Indices 1 2 3 4 5 6 
#
# 1 0.021994 -0.013328 -0.002149 0.000000 0.000000 0.000000
# 2 -0.013328 0.033895 -0.009065 0.000000 0.000000 0.000000
# 3 -0.002149 -0.009065 0.010629 0.000000 0.000000 0.000000
# 4 0.000000 0.000000 0.000000 0.033307 0.000000 0.000000
# 5 0.000000 0.000000 0.000000 0.000000 0.034086 0.000000
# 6 0.000000 0.000000 0.000000 0.000000 0.000000 0.021345
#
#
# Mechanical properties :
#
#
# Convention : Reuss Voigt Hill
#
# Bulk Modulus (GPa) = 57.36112 70.08744 63.72428
# Shear Modulus (GPa) = 23.79229 30.48044 27.13637
#
# Velocity S-wave (km/s) = 3.28381 3.71681 3.50700
# Velocity P-wave (km/s) = 6.35419 7.08417 6.72908
#
# Compressibility (1/GPa) = 0.01743341
#
# Stress axis : x y z
#
# Youngs Moduli (GPa) = 45.46690 29.50272 94.08583
#
# Poissons Ratio (x) = 0.39321 0.20218
# Poissons Ratio (y) = 0.60598 0.85292
# Poissons Ratio (z) = 0.09770 0.26745
#
# Static dielectric constant tensor:
#      x y z
#    x 4.017190 0.000000 0.000000 
#    y 0.000000 3.778000 0.000000 
#    z 0.000000 0.000000 4.201540 
# 
# 
# High freq. dielectric constant tensor:
#      x y z
#    x 1.859370 0.000000 0.000000 
#    y 0.000000 1.838880 0.000000 
#    z 0.000000 0.000000 1.885830 
# 
# From -- ./inp_files/2517.got.cif
#   From: 2010.03.12/outbox.cif.g09.slc.cpg/sg41_2_cif.got.tgz:2517.got - 2010.04.14 01:55:53.
