data_PCOD8185714
_publ_section_title
;
Structure prediction by ZEFSAII (Michael W. Deem and Ramdas Pophale) SiO2 
 PCOD8185714
Probable space group: A B A 2
;
_chemical_formula_sum "Si O2"
_cell_formula_units_Z 56
_cell_length_a 14.134461
_cell_length_b 10.532839
_cell_length_c 15.511696
_cell_angle_alpha 90.000000
_cell_angle_beta 90.000000
_cell_angle_gamma 90.000000
_cell_volume 2309.319286
_symmetry_space_group_name_H-M "A B A 2"
_symmetry_group_IT_number 41
_symmetry_cell_setting 'orthorhombic'
loop_
_space_group_symop_operation_xyz
x,y,z
-x,-y,z
1/2-x,y,1/2+z
1/2+x,-y,1/2+z
x,1/2+y,1/2+z
-x,1/2-y,1/2+z
1/2-x,1/2+y,z
1/2+x,1/2-y,z
loop_
_atom_site_type_symbol
_atom_site_label
_atom_site_fract_x
_atom_site_fract_y
_atom_site_fract_z
Si Si1 0.245156 0.192356 0.700650
Si Si2 0.298527 0.535444 0.053078
Si Si3 0.845955 0.559170 0.927374
Si Si4 0.924928 0.167107 0.150594
Si Si5 0.500000 0.000000 0.799854
Si Si6 0.000000 0.500000 0.356007
Si Si7 0.548599 0.808230 0.483496
Si Si8 0.802216 0.056671 0.791238
O O1 0.288956 0.164529 0.607517
O O2 0.132495 0.214757 0.688792
O O3 0.300530 0.316417 0.733624
O O4 0.258845 0.062216 0.754605
O O5 0.344401 0.425174 0.110953
O O6 0.370704 0.581379 0.979764
O O7 0.193867 0.505453 0.014583
O O8 0.910140 0.472213 0.863391
O O9 0.749904 0.601420 0.878958
O O10 0.912922 0.674652 0.952834
O O11 0.999065 0.204276 0.076513
O O12 0.981105 0.115902 0.234238
O O13 0.018016 0.369432 0.410840
O O14 0.907297 0.501094 0.296913
#
# Coordination Sequence:
#
# PCOD8185714 Si02
#       8
#     8   8   8   8   4   4   8   8
#     4  12  27  49  77 112 156 212 268 324 402 483
#     4  12  24  49  76 110 154 209 258 325 404 484
#     4  12  28  47  76 120 153 204 266 337 401 479
#     4  12  24  50  80 110 156 217 270 325 407 498
#     4  12  25  48  75 114 154 202 264 334 411 464
#     4  12  25  46  77 114 158 208 264 338 399 478
#     4  12  25  47  78 111 155 209 268 320 408 488
#     4  12  27  51  78 115 159 207 268 334 403 478
#
# _framework density 24.249569000000001
#
# number of rings (size 3 to 8) (size 9 to 14) (size 15 to 20)
#    0.000    0.000    7.143    1.714    2.000    3.429 
#    0.000    0.000    0.000    0.000    0.000    0.000 
#    0.000    0.000    0.000    0.000    0.000    0.000 
#
# Total GULP energy -346957.232856 kJ/mol
# GULP energy per Si atom -12391.329745 kJ/mol
# Density = 2.419438 g / cm^3
# Si number density = 24.249569 Si / 1000 Ang^3
#
#
#
# Elastic Constant Matrix: (Units=GPa)
#
#
# Indices 1 2 3 4 5 6 
#
# 1 117.7103 27.9999 54.9625 0.0000 0.0000 0.0000
# 2 27.9999 111.8268 53.1927 0.0000 0.0000 0.0000
# 3 54.9625 53.1927 111.0548 0.0000 0.0000 0.0000
# 4 0.0000 0.0000 0.0000 30.8003 0.0000 0.0000
# 5 0.0000 0.0000 0.0000 0.0000 52.2066 0.0000
# 6 0.0000 0.0000 0.0000 0.0000 0.0000 46.5086
#
#
#
# Elastic Compliance Matrix: (Units=1/GPa)
#
#
# Indices 1 2 3 4 5 6 
#
# 1 0.011053 -0.000214 -0.005367 0.000000 0.000000 0.000000
# 2 -0.000214 0.011585 -0.005443 0.000000 0.000000 0.000000
# 3 -0.005367 -0.005443 0.014268 0.000000 0.000000 0.000000
# 4 0.000000 0.000000 0.000000 0.032467 0.000000 0.000000
# 5 0.000000 0.000000 0.000000 0.000000 0.019155 0.000000
# 6 0.000000 0.000000 0.000000 0.000000 0.000000 0.021501
#
#
# Mechanical properties :
#
#
# Convention : Reuss Voigt Hill
#
# Bulk Modulus (GPa) = 67.31108 68.10022 67.70565
# Shear Modulus (GPa) = 36.48821 39.53221 38.01021
#
# Velocity S-wave (km/s) = 3.88325 4.04198 3.96341
# Velocity P-wave (km/s) = 6.92272 7.06594 6.99470
#
# Compressibility (1/GPa) = 0.01485639
#
# Stress axis : x y z
#
# Youngs Moduli (GPa) = 90.47613 86.31783 70.08677
#
# Poissons Ratio (x) = 0.01850 0.37619
# Poissons Ratio (y) = 0.01939 0.38148
# Poissons Ratio (z) = 0.48563 0.46982
#
# Static dielectric constant tensor:
#      x y z
#    x 4.531100 0.000000 0.000000 
#    y 0.000000 4.165630 0.000000 
#    z 0.000000 0.000000 4.530950 
# 
# 
# High freq. dielectric constant tensor:
#      x y z
#    x 1.972180 0.000000 0.000000 
#    y 0.000000 1.946520 0.000000 
#    z 0.000000 0.000000 1.975440 
# 
# From -- ./inp_files/8422.got.cif
#   From: 2010.03.12/outbox.cif.g09.slc.cpg/sg41_5_cif.got.tgz:8422.got - 2010.04.14 01:55:53.
