data_PCOD8185478
_publ_section_title
;
Structure prediction by ZEFSAII (Michael W. Deem and Ramdas Pophale) SiO2 
 PCOD8185478
Probable space group: A B A 2
;
_chemical_formula_sum "Si O2"
_cell_formula_units_Z 64
_cell_length_a 11.608567
_cell_length_b 17.166340
_cell_length_c 14.642777
_cell_angle_alpha 90.000000
_cell_angle_beta 90.000000
_cell_angle_gamma 90.000000
_cell_volume 2917.962933
_symmetry_space_group_name_H-M "A B A 2"
_symmetry_group_IT_number 41
_symmetry_cell_setting 'orthorhombic'
loop_
_space_group_symop_operation_xyz
x,y,z
-x,-y,z
1/2-x,y,1/2+z
1/2+x,-y,1/2+z
x,1/2+y,1/2+z
-x,1/2-y,1/2+z
1/2-x,1/2+y,z
1/2+x,1/2-y,z
loop_
_atom_site_type_symbol
_atom_site_label
_atom_site_fract_x
_atom_site_fract_y
_atom_site_fract_z
Si Si1 0.707287 0.164545 0.412120
Si Si2 0.489982 0.914494 0.685442
Si Si3 0.482203 0.620843 0.986881
Si Si4 0.751122 0.072519 0.249651
Si Si5 0.830368 0.910054 0.817236
Si Si6 0.511897 0.591566 0.664581
Si Si7 0.393398 0.183207 0.836389
Si Si8 0.558467 0.196570 0.993884
O O1 0.616389 0.108055 0.462281
O O2 0.783757 0.114946 0.343090
O O3 0.630930 0.225679 0.352579
O O4 0.802609 0.194522 0.483957
O O5 0.544611 0.918913 0.584177
O O6 0.351981 0.903569 0.679528
O O7 0.554290 0.844468 0.739279
O O8 0.500000 0.000000 0.733260
O O9 0.405885 0.577999 0.909276
O O10 0.467629 0.712721 0.001671
O O11 0.633501 0.105967 0.211087
O O12 0.738625 0.982401 0.275877
O O13 0.734986 0.849266 0.848108
O O14 0.914098 0.880590 0.736126
O O15 0.500000 0.500000 0.637233
O O16 0.507961 0.648859 0.579078
O O17 0.487335 0.157057 0.911062
#
# Coordination Sequence:
#
# PCOD8185478 Si02
#       8
#     8   8   8   8   8   8   8   8
#     4  11  23  43  70  96 131 180 231 277 339 406
#     4  12  26  44  66 103 135 176 227 283 342 404
#     4  11  26  42  67 100 136 176 223 280 341 405
#     4  11  23  43  72  95 131 180 231 277 339 411
#     4  11  23  46  68  96 138 181 222 277 344 405
#     4  10  24  42  69 101 133 176 227 278 335 403
#     4  11  25  44  67  96 138 177 219 279 341 398
#     4  11  24  44  68 100 133 178 226 279 339 400
#
# _framework density 21.933109000000002
#
# number of rings (size 3 to 8) (size 9 to 14) (size 15 to 20)
#    0.000    1.000    5.000    0.750    3.500    3.500 
#    0.000    0.000    0.000    0.000    0.000    0.000 
#    0.000    0.000    0.000    0.000    0.000    0.000 
#
# Total GULP energy -396476.983580 kJ/mol
# GULP energy per Si atom -12389.905737 kJ/mol
# Density = 2.188319 g / cm^3
# Si number density = 21.933109 Si / 1000 Ang^3
#
#
#
# Elastic Constant Matrix: (Units=GPa)
#
#
# Indices 1 2 3 4 5 6 
#
# 1 118.7856 11.6275 22.3589 0.0000 0.0000 0.0000
# 2 11.6275 36.2788 20.6071 0.0000 0.0000 0.0000
# 3 22.3589 20.6071 110.5789 0.0000 0.0000 0.0000
# 4 0.0000 0.0000 0.0000 31.4939 0.0000 0.0000
# 5 0.0000 0.0000 0.0000 0.0000 26.9340 0.0000
# 6 0.0000 0.0000 0.0000 0.0000 0.0000 24.5100
#
#
#
# Elastic Compliance Matrix: (Units=1/GPa)
#
#
# Indices 1 2 3 4 5 6 
#
# 1 0.008885 -0.002044 -0.001416 0.000000 0.000000 0.000000
# 2 -0.002044 0.031298 -0.005419 0.000000 0.000000 0.000000
# 3 -0.001416 -0.005419 0.010339 0.000000 0.000000 0.000000
# 4 0.000000 0.000000 0.000000 0.031752 0.000000 0.000000
# 5 0.000000 0.000000 0.000000 0.000000 0.037128 0.000000
# 6 0.000000 0.000000 0.000000 0.000000 0.000000 0.040800
#
#
# Mechanical properties :
#
#
# Convention : Reuss Voigt Hill
#
# Bulk Modulus (GPa) = 30.52040 41.64781 36.08411
# Shear Modulus (GPa) = 26.47177 30.65756 28.56466
#
# Velocity S-wave (km/s) = 3.47786 3.74274 3.61273
# Velocity P-wave (km/s) = 5.48387 6.14062 5.82151
#
# Compressibility (1/GPa) = 0.03276497
#
# Stress axis : x y z
#
# Youngs Moduli (GPa) = 112.54869 31.95143 96.71655
#
# Poissons Ratio (x) = 0.06529 0.13692
# Poissons Ratio (y) = 0.23000 0.52413
# Poissons Ratio (z) = 0.15934 0.17315
#
# Static dielectric constant tensor:
#      x y z
#    x 4.172690 0.000000 0.000000 
#    y 0.000000 3.804840 0.000000 
#    z 0.000000 0.000000 4.023150 
# 
# 
# High freq. dielectric constant tensor:
#      x y z
#    x 1.880500 0.000000 0.000000 
#    y 0.000000 1.855690 0.000000 
#    z 0.000000 0.000000 1.856500 
# 
# From -- ./inp_files/8085.got.cif
#   From: 2010.03.12/outbox.cif.g09.slc.cpg/sg41_5_cif.got.tgz:8085.got - 2010.04.14 01:55:53.
