data_PCOD8185328
_publ_section_title
;
Structure prediction by ZEFSAII (Michael W. Deem and Ramdas Pophale) SiO2 
 PCOD8185328
Probable space group: A B A 2
;
_chemical_formula_sum "Si O2"
_cell_formula_units_Z 40
_cell_length_a 22.773707
_cell_length_b 4.848386
_cell_length_c 15.134372
_cell_angle_alpha 90.000000
_cell_angle_beta 90.000000
_cell_angle_gamma 90.000000
_cell_volume 1671.072614
_symmetry_space_group_name_H-M "A B A 2"
_symmetry_group_IT_number 41
_symmetry_cell_setting 'orthorhombic'
loop_
_space_group_symop_operation_xyz
x,y,z
-x,-y,z
1/2-x,y,1/2+z
1/2+x,-y,1/2+z
x,1/2+y,1/2+z
-x,1/2-y,1/2+z
1/2-x,1/2+y,z
1/2+x,1/2-y,z
loop_
_atom_site_type_symbol
_atom_site_label
_atom_site_fract_x
_atom_site_fract_y
_atom_site_fract_z
Si Si1 0.711867 0.761131 0.471950
Si Si2 0.000000 0.000000 0.822483
Si Si3 0.000000 0.500000 0.937807
Si Si4 0.211902 0.723298 0.265983
Si Si5 0.908932 0.300974 0.565107
Si Si6 0.090541 0.702457 0.183272
O O1 0.733498 0.457293 0.498031
O O2 0.696767 0.771054 0.369018
O O3 0.653994 0.854889 0.522366
O O4 0.970761 0.247746 0.881018
O O5 0.046497 0.172898 0.765079
O O6 0.048639 0.341992 0.994776
O O7 0.234538 0.422243 0.239362
O O8 0.153456 0.812160 0.214863
O O9 0.933288 0.590708 0.606071
O O10 0.902347 0.103842 0.648091
#
# Coordination Sequence:
#
# PCOD8185328 Si02
#       6
#     8   4   4   8   8   8
#     4  10  22  41  66  96 133 177 223 270 329 407
#     4  12  27  48  73  96 132 186 238 280 337 416
#     4  12  27  48  73  96 132 186 238 280 337 416
#     4  10  22  41  66  96 133 177 223 270 329 407
#     4  12  26  44  69 102 139 173 222 288 348 401
#     4  12  26  44  69 102 139 173 222 288 348 401
#
# _framework density 23.936724000000002
#
# number of rings (size 3 to 8) (size 9 to 14) (size 15 to 20)
#    0.000    0.800    0.000    6.600    0.000   11.200 
#    0.000    0.000    0.000    0.000    0.000    0.000 
#    0.000    0.000    0.000    0.000    0.000    0.000 
#
# Total GULP energy -248007.721351 kJ/mol
# GULP energy per Si atom -12400.386068 kJ/mol
# Density = 2.388224 g / cm^3
# Si number density = 23.936724 Si / 1000 Ang^3
#
#
#
# Elastic Constant Matrix: (Units=GPa)
#
#
# Indices 1 2 3 4 5 6 
#
# 1 84.9000 10.8954 47.1181 0.0000 0.0000 0.0000
# 2 10.8954 120.7784 40.1846 0.0000 0.0000 0.0000
# 3 47.1181 40.1846 87.6863 0.0000 0.0000 0.0000
# 4 0.0000 0.0000 0.0000 59.0423 0.0000 0.0000
# 5 0.0000 0.0000 0.0000 0.0000 -237.9504 0.0000
# 6 0.0000 0.0000 0.0000 0.0000 0.0000 -30.1922
#
#
#
# Elastic Compliance Matrix: (Units=1/GPa)
#
#
# Indices 1 2 3 4 5 6 
#
# 1 0.017105 0.001788 -0.010010 0.000000 0.000000 0.000000
# 2 0.001788 0.009956 -0.005523 0.000000 0.000000 0.000000
# 3 -0.010010 -0.005523 0.019315 0.000000 0.000000 0.000000
# 4 0.000000 0.000000 0.000000 0.016937 0.000000 0.000000
# 5 0.000000 0.000000 0.000000 0.000000 -0.004203 0.000000
# 6 0.000000 0.000000 0.000000 0.000000 0.000000 -0.033121
#
#
# Mechanical properties :
#
#
# Convention : Reuss Voigt Hill
#
# Bulk Modulus (GPa) = 52.95690 54.41787 53.68739
# Shear Modulus (GPa) = 83.64688 -28.80896 27.41896
#
# Velocity S-wave (km/s) = 5.91784 -3.47298 3.38816
# Velocity P-wave (km/s) = 8.29857 2.58868 6.14685
#
# Compressibility (1/GPa) = 0.01888328
#
# Stress axis : x y z
#
# Youngs Moduli (GPa) = 58.46316 100.44197 51.77450
#
# Poissons Ratio (x) = -0.17955 0.51829
# Poissons Ratio (y) = -0.10451 0.28596
# Poissons Ratio (z) = 0.58524 0.55476
#
# Static dielectric constant tensor:
#      x y z
#    x 4.085770 0.000000 0.000000 
#    y 0.000000 4.648950 0.000000 
#    z 0.000000 0.000000 4.513790 
# 
# 
# High freq. dielectric constant tensor:
#      x y z
#    x 1.938450 0.000000 0.000000 
#    y 0.000000 1.968720 0.000000 
#    z 0.000000 0.000000 1.961250 
# 
# From -- ./inp_files/9091.got.cif
#   From: 2010.03.12/outbox.cif.g09.slc.cpg/sg41_5_cif.got.tgz:9091.got - 2010.04.14 01:55:53.
