data_PCOD8185583
_publ_section_title
;
Structure prediction by ZEFSAII (Michael W. Deem and Ramdas Pophale) SiO2 
 PCOD8185583
Probable space group: A B A 2
;
_chemical_formula_sum "Si O2"
_cell_formula_units_Z 40
_cell_length_a 18.060039
_cell_length_b 11.157583
_cell_length_c 8.450503
_cell_angle_alpha 90.000000
_cell_angle_beta 90.000000
_cell_angle_gamma 90.000000
_cell_volume 1702.830304
_symmetry_space_group_name_H-M "A B A 2"
_symmetry_group_IT_number 41
_symmetry_cell_setting 'orthorhombic'
loop_
_space_group_symop_operation_xyz
x,y,z
-x,-y,z
1/2-x,y,1/2+z
1/2+x,-y,1/2+z
x,1/2+y,1/2+z
-x,1/2-y,1/2+z
1/2-x,1/2+y,z
1/2+x,1/2-y,z
loop_
_atom_site_type_symbol
_atom_site_label
_atom_site_fract_x
_atom_site_fract_y
_atom_site_fract_z
Si Si1 0.583733 0.201826 0.358900
Si Si2 0.968526 0.372742 0.126152
Si Si3 0.416351 0.962495 0.639542
Si Si4 0.343365 0.227032 0.287911
Si Si5 0.189755 0.189716 0.144036
O O1 0.560793 0.313310 0.466901
O O2 0.532849 0.206473 0.203181
O O3 0.579605 0.077451 0.454964
O O4 0.664703 0.220007 0.283787
O O5 0.903312 0.378861 0.258302
O O6 0.000000 0.500000 0.077619
O O7 0.383289 0.850586 0.736840
O O8 0.500000 0.000000 0.693384
O O9 0.356245 0.066940 0.661643
O O10 0.277045 0.182199 0.174561
O O11 0.321319 0.241878 0.469242
#
# Coordination Sequence:
#
# PCOD8185583 Si02
#       5
#     8   8   8   8   8
#     4  11  24  42  68 101 134 176 232 280 336 418
#     4  11  23  41  66  97 133 175 222 277 337 400
#     4  11  25  47  73 104 141 182 230 289 350 414
#     4  11  25  45  71 105 140 183 238 284 348 426
#     4  12  26  47  70  99 144 184 227 294 350 408
#
# _framework density 23.490302
#
# number of rings (size 3 to 8) (size 9 to 14) (size 15 to 20)
#    0.000    0.800    0.000    9.000    0.000   10.400 
#    0.000    3.000    0.000    0.000    0.000    0.000 
#    0.000    0.000    0.000    0.000    0.000    0.000 
#
# Total GULP energy -247876.738701 kJ/mol
# GULP energy per Si atom -12393.836935 kJ/mol
# Density = 2.343684 g / cm^3
# Si number density = 23.490302 Si / 1000 Ang^3
#
#
#
# Elastic Constant Matrix: (Units=GPa)
#
#
# Indices 1 2 3 4 5 6 
#
# 1 111.9800 73.9279 8.4493 0.0000 0.0000 0.0000
# 2 73.9279 104.5512 36.2927 0.0000 0.0000 0.0000
# 3 8.4493 36.2927 107.2616 0.0000 0.0000 0.0000
# 4 0.0000 0.0000 0.0000 52.1305 0.0000 0.0000
# 5 0.0000 0.0000 0.0000 0.0000 49.9724 0.0000
# 6 0.0000 0.0000 0.0000 0.0000 0.0000 41.4411
#
#
#
# Elastic Compliance Matrix: (Units=1/GPa)
#
#
# Indices 1 2 3 4 5 6 
#
# 1 0.017675 -0.013614 0.003214 0.000000 0.000000 0.000000
# 2 -0.013614 0.021323 -0.006142 0.000000 0.000000 0.000000
# 3 0.003214 -0.006142 0.011148 0.000000 0.000000 0.000000
# 4 0.000000 0.000000 0.000000 0.019183 0.000000 0.000000
# 5 0.000000 0.000000 0.000000 0.000000 0.020011 0.000000
# 6 0.000000 0.000000 0.000000 0.000000 0.000000 0.024131
#
#
# Mechanical properties :
#
#
# Convention : Reuss Voigt Hill
#
# Bulk Modulus (GPa) = 58.60937 62.34809 60.47873
# Shear Modulus (GPa) = 32.84216 42.38365 37.61291
#
# Velocity S-wave (km/s) = 3.74320 4.25232 4.00585
# Velocity P-wave (km/s) = 6.60959 7.12105 6.87008
#
# Compressibility (1/GPa) = 0.01706212
#
# Stress axis : x y z
#
# Youngs Moduli (GPa) = 56.57578 46.89706 89.70079
#
# Poissons Ratio (x) = 0.63845 -0.28830
# Poissons Ratio (y) = 0.77022 0.55099
# Poissons Ratio (z) = -0.18184 0.28806
#
# Static dielectric constant tensor:
#      x y z
#    x 4.200610 0.000000 0.000000 
#    y 0.000000 4.046630 0.000000 
#    z 0.000000 0.000000 4.344470 
# 
# 
# High freq. dielectric constant tensor:
#      x y z
#    x 1.944640 0.000000 0.000000 
#    y 0.000000 1.920560 0.000000 
#    z 0.000000 0.000000 1.947420 
# 
# From -- ./inp_files/2909.got.cif
#   From: 2010.03.12/outbox.cif.g09.slc.cpg/sg41_2_cif.got.tgz:2909.got - 2010.04.14 01:55:53.
