data_PCOD8185155
_publ_section_title
;
Structure prediction by ZEFSAII (Michael W. Deem and Ramdas Pophale) SiO2 
 PCOD8185155
Probable space group: A B A 2
;
_chemical_formula_sum "Si O2"
_cell_formula_units_Z 20
_cell_length_a 7.813265
_cell_length_b 9.018526
_cell_length_c 11.676379
_cell_angle_alpha 90.000000
_cell_angle_beta 90.000000
_cell_angle_gamma 90.000000
_cell_volume 822.765929
_symmetry_space_group_name_H-M "A B A 2"
_symmetry_group_IT_number 41
_symmetry_cell_setting 'orthorhombic'
loop_
_space_group_symop_operation_xyz
x,y,z
-x,-y,z
1/2-x,y,1/2+z
1/2+x,-y,1/2+z
x,1/2+y,1/2+z
-x,1/2-y,1/2+z
1/2-x,1/2+y,z
1/2+x,1/2-y,z
loop_
_atom_site_type_symbol
_atom_site_label
_atom_site_fract_x
_atom_site_fract_y
_atom_site_fract_z
Si Si1 0.231443 0.039565 0.585470
Si Si2 0.000000 0.500000 0.880075
Si Si3 0.544498 0.198546 0.674106
O O1 0.402428 0.141008 0.584007
O O2 0.078826 0.126827 0.654351
O O3 0.273913 0.885042 0.648496
O O4 0.170997 0.007218 0.456451
O O5 0.006214 0.650035 0.802959
#
# Coordination Sequence:
#
# PCOD8185155 Si02
#       3
#     8   4   8
#     4  10  21  40  62  89 126 159 205 255 302 370
#     4  10  22  42  66  90 128 166 198 264 320 350
#     4  10  24  40  61  97 122 160 216 250 304 381
#
# _framework density 24.308250999999998
#
# number of rings (size 3 to 8) (size 9 to 14) (size 15 to 20)
#    0.000    2.400    0.000    2.400    0.000   12.800 
#    0.000   24.000    0.000    0.000    0.000    0.000 
#    0.000    0.000    0.000    0.000    0.000    0.000 
#
# Total GULP energy -123935.208106 kJ/mol
# GULP energy per Si atom -12393.520811 kJ/mol
# Density = 2.425292 g / cm^3
# Si number density = 24.308251 Si / 1000 Ang^3
#
#
#
# Elastic Constant Matrix: (Units=GPa)
#
#
# Indices 1 2 3 4 5 6 
#
# 1 79.0780 -21.0013 34.9414 0.0000 0.0000 0.0000
# 2 -21.0013 81.4717 31.7088 0.0000 0.0000 0.0000
# 3 34.9414 31.7088 150.8999 0.0000 0.0000 0.0000
# 4 0.0000 0.0000 0.0000 22.4699 0.0000 0.0000
# 5 0.0000 0.0000 0.0000 0.0000 60.0303 0.0000
# 6 0.0000 0.0000 0.0000 0.0000 0.0000 42.2180
#
#
#
# Elastic Compliance Matrix: (Units=1/GPa)
#
#
# Indices 1 2 3 4 5 6 
#
# 1 0.016598 0.006289 -0.005165 0.000000 0.000000 0.000000
# 2 0.006289 0.015750 -0.004766 0.000000 0.000000 0.000000
# 3 -0.005165 -0.004766 0.008824 0.000000 0.000000 0.000000
# 4 0.000000 0.000000 0.000000 0.044504 0.000000 0.000000
# 5 0.000000 0.000000 0.000000 0.000000 0.016658 0.000000
# 6 0.000000 0.000000 0.000000 0.000000 0.000000 0.023687
#
#
# Mechanical properties :
#
#
# Convention : Reuss Voigt Hill
#
# Bulk Modulus (GPa) = 29.50845 44.74972 37.12908
# Shear Modulus (GPa) = 34.57791 42.66368 38.62079
#
# Velocity S-wave (km/s) = 3.77566 4.19395 3.99029
# Velocity P-wave (km/s) = 5.58329 6.47314 6.04461
#
# Compressibility (1/GPa) = 0.03388860
#
# Stress axis : x y z
#
# Youngs Moduli (GPa) = 60.24834 63.49169 113.32389
#
# Poissons Ratio (x) = -0.39928 0.58529
# Poissons Ratio (y) = -0.37888 0.54007
# Poissons Ratio (z) = 0.31117 0.30259
#
# Static dielectric constant tensor:
#      x y z
#    x 4.909330 0.000000 0.000000 
#    y 0.000000 4.648540 0.000000 
#    z 0.000000 0.000000 3.937310 
# 
# 
# High freq. dielectric constant tensor:
#      x y z
#    x 1.992340 0.000000 0.000000 
#    y 0.000000 1.974530 0.000000 
#    z 0.000000 0.000000 1.926620 
# 
# From -- ./inp_files/1541.got.cif
#   From: 2010.03.12/outbox.cif.g09.slc.cpg/sg41_1_cif.got.tgz:1541.got - 2010.04.14 01:55:53.
