data_PCOD8185663
_publ_section_title
;
Structure prediction by ZEFSAII (Michael W. Deem and Ramdas Pophale) SiO2 
 PCOD8185663
Probable space group: A B A 2
;
_chemical_formula_sum "Si O2"
_cell_formula_units_Z 56
_cell_length_a 14.007828
_cell_length_b 11.999608
_cell_length_c 13.634822
_cell_angle_alpha 90.000000
_cell_angle_beta 90.000000
_cell_angle_gamma 90.000000
_cell_volume 2291.856027
_symmetry_space_group_name_H-M "A B A 2"
_symmetry_group_IT_number 41
_symmetry_cell_setting 'orthorhombic'
loop_
_space_group_symop_operation_xyz
x,y,z
-x,-y,z
1/2-x,y,1/2+z
1/2+x,-y,1/2+z
x,1/2+y,1/2+z
-x,1/2-y,1/2+z
1/2-x,1/2+y,z
1/2+x,1/2-y,z
loop_
_atom_site_type_symbol
_atom_site_label
_atom_site_fract_x
_atom_site_fract_y
_atom_site_fract_z
Si Si1 0.337676 0.596777 0.674780
Si Si2 0.779257 0.097069 0.799954
Si Si3 0.853245 0.104128 0.017503
Si Si4 0.483543 0.767569 0.982551
Si Si5 0.806085 0.234233 0.618420
Si Si6 0.000000 0.000000 0.554652
Si Si7 0.000000 0.000000 0.148020
Si Si8 0.926248 0.695500 0.774667
O O1 0.288842 0.529174 0.762463
O O2 0.251748 0.649537 0.611942
O O3 0.403968 0.506830 0.619394
O O4 0.402807 0.701373 0.704865
O O5 0.831006 0.086233 0.904145
O O6 0.829275 0.191966 0.730015
O O7 0.667908 0.128011 0.808998
O O8 0.924507 0.208179 0.026058
O O9 0.756446 0.131515 0.075227
O O10 0.906964 0.002172 0.074781
O O11 0.469461 0.740801 0.868489
O O12 0.397110 0.737583 0.054151
O O13 0.498592 0.898442 0.981391
O O14 0.002094 0.889404 0.217625
#
# Coordination Sequence:
#
# PCOD8185663 Si02
#       8
#     8   8   8   8   8   4   4   8
#     4  11  25  47  74 106 149 200 254 312 390 463
#     4  11  25  49  75 109 159 199 255 324 396 461
#     4  12  27  47  79 114 147 207 267 317 389 473
#     4  12  26  47  77 114 152 201 259 318 393 476
#     4  11  24  52  74 110 155 199 258 323 389 471
#     4  12  23  45  74 106 148 200 249 317 396 454
#     4  12  25  49  76 110 156 198 263 327 390 468
#     4  11  26  49  72 116 151 201 256 320 394 472
#
# _framework density 24.434343999999999
#
# number of rings (size 3 to 8) (size 9 to 14) (size 15 to 20)
#    0.000    0.571    7.143    0.429    6.000    1.143 
#   10.286    0.000    0.000    0.000    0.000    0.000 
#    0.000    0.000    0.000    0.000    0.000    0.000 
#
# Total GULP energy -347083.586047 kJ/mol
# GULP energy per Si atom -12395.842359 kJ/mol
# Density = 2.437873 g / cm^3
# Si number density = 24.434344 Si / 1000 Ang^3
#
#
#
# Elastic Constant Matrix: (Units=GPa)
#
#
# Indices 1 2 3 4 5 6 
#
# 1 71.8982 20.9769 30.6158 0.0000 0.0000 0.0000
# 2 20.9769 68.9382 -1.7035 0.0000 0.0000 0.0000
# 3 30.6158 -1.7035 130.3596 0.0000 0.0000 0.0000
# 4 0.0000 0.0000 0.0000 38.1528 0.0000 0.0000
# 5 0.0000 0.0000 0.0000 0.0000 38.5175 0.0000
# 6 0.0000 0.0000 0.0000 0.0000 0.0000 43.9594
#
#
#
# Elastic Compliance Matrix: (Units=1/GPa)
#
#
# Indices 1 2 3 4 5 6 
#
# 1 0.017219 -0.005341 -0.004114 0.000000 0.000000 0.000000
# 2 -0.005341 0.016167 0.001466 0.000000 0.000000 0.000000
# 3 -0.004114 0.001466 0.008656 0.000000 0.000000 0.000000
# 4 0.000000 0.000000 0.000000 0.026210 0.000000 0.000000
# 5 0.000000 0.000000 0.000000 0.000000 0.025962 0.000000
# 6 0.000000 0.000000 0.000000 0.000000 0.000000 0.022748
#
#
# Mechanical properties :
#
#
# Convention : Reuss Voigt Hill
#
# Bulk Modulus (GPa) = 38.36716 41.21939 39.79327
# Shear Modulus (GPa) = 35.30349 38.87971 37.09160
#
# Velocity S-wave (km/s) = 3.80522 3.99330 3.90039
# Velocity P-wave (km/s) = 5.91967 6.17803 6.05023
#
# Compressibility (1/GPa) = 0.02606396
#
# Stress axis : x y z
#
# Youngs Moduli (GPa) = 58.07697 61.85376 115.52196
#
# Poissons Ratio (x) = 0.33036 0.47522
# Poissons Ratio (y) = 0.31019 -0.16931
# Poissons Ratio (z) = 0.23891 -0.09066
#
# Static dielectric constant tensor:
#      x y z
#    x 4.494190 0.000000 0.000000 
#    y 0.000000 4.408740 0.000000 
#    z 0.000000 0.000000 4.609070 
# 
# 
# High freq. dielectric constant tensor:
#      x y z
#    x 1.973360 0.000000 0.000000 
#    y 0.000000 1.977330 0.000000 
#    z 0.000000 0.000000 1.976520 
# 
# From -- ./inp_files/8425.got.cif
#   From: 2010.03.12/outbox.cif.g09.slc.cpg/sg41_5_cif.got.tgz:8425.got - 2010.04.14 01:55:53.
