data_PCOD8185723
_publ_section_title
;
Structure prediction by ZEFSAII (Michael W. Deem and Ramdas Pophale) SiO2 
 PCOD8185723
Probable space group: A B A 2
;
_chemical_formula_sum "Si O2"
_cell_formula_units_Z 64
_cell_length_a 29.331462
_cell_length_b 11.366086
_cell_length_c 8.472994
_cell_angle_alpha 90.000000
_cell_angle_beta 90.000000
_cell_angle_gamma 90.000000
_cell_volume 2824.759950
_symmetry_space_group_name_H-M "A B A 2"
_symmetry_group_IT_number 41
_symmetry_cell_setting 'orthorhombic'
loop_
_space_group_symop_operation_xyz
x,y,z
-x,-y,z
1/2-x,y,1/2+z
1/2+x,-y,1/2+z
x,1/2+y,1/2+z
-x,1/2-y,1/2+z
1/2-x,1/2+y,z
1/2+x,1/2-y,z
loop_
_atom_site_type_symbol
_atom_site_label
_atom_site_fract_x
_atom_site_fract_y
_atom_site_fract_z
Si Si1 0.877521 0.842085 0.317390
Si Si2 0.286961 0.259300 0.359274
Si Si3 0.910461 0.003789 0.752186
Si Si4 0.962533 0.699033 0.401270
Si Si5 0.055826 0.746357 0.246187
Si Si6 0.805629 0.194533 0.013260
Si Si7 0.163494 0.060391 0.009774
Si Si8 0.873402 0.102594 0.444073
O O1 0.928768 0.793830 0.321298
O O2 0.848043 0.754940 0.426803
O O3 0.858891 0.852411 0.139060
O O4 0.876734 0.972067 0.382352
O O5 0.236341 0.305930 0.392248
O O6 0.292867 0.237577 0.172669
O O7 0.294196 0.131176 0.435783
O O8 0.321811 0.352976 0.434320
O O9 0.952899 0.069906 0.832222
O O10 0.889522 0.095503 0.625576
O O11 0.928862 0.881745 0.681084
O O12 0.873002 0.970078 0.878553
O O13 0.957219 0.683743 0.589115
O O14 0.013637 0.739379 0.365198
O O15 0.096279 0.810120 0.338834
O O16 0.817791 0.063206 0.074456
#
# Coordination Sequence:
#
# PCOD8185723 Si02
#       8
#     8   8   8   8   8   8   8   8
#     4  12  25  49  73 104 143 192 234 298 356 426
#     4  12  27  47  73 107 142 188 236 294 357 427
#     4  12  25  47  74 102 142 187 241 292 359 427
#     4  12  26  47  74 103 147 185 243 296 363 427
#     4  12  27  48  69 109 142 189 240 301 357 434
#     4  12  28  48  71 108 145 182 245 293 354 430
#     4  12  26  46  77 102 142 191 235 292 364 420
#     4  12  25  48  76 101 149 188 237 298 361 421
#
# _framework density 22.656794000000001
#
# number of rings (size 3 to 8) (size 9 to 14) (size 15 to 20)
#    0.000    0.000    5.000    4.875    5.250    1.500 
#    2.250    0.000    0.000    0.000    0.000    0.000 
#    0.000    0.000    0.000    0.000    0.000    0.000 
#
# Total GULP energy -396972.321663 kJ/mol
# GULP energy per Si atom -12405.385052 kJ/mol
# Density = 2.260523 g / cm^3
# Si number density = 22.656794 Si / 1000 Ang^3
#
#
#
# Elastic Constant Matrix: (Units=GPa)
#
#
# Indices 1 2 3 4 5 6 
#
# 1 88.0283 18.7484 -5.4256 0.0000 0.0000 0.0000
# 2 18.7484 115.9259 5.6112 0.0000 0.0000 0.0000
# 3 -5.4256 5.6112 111.1846 0.0000 0.0000 0.0000
# 4 0.0000 0.0000 0.0000 37.7006 0.0000 0.0000
# 5 0.0000 0.0000 0.0000 0.0000 35.9238 0.0000
# 6 0.0000 0.0000 0.0000 0.0000 0.0000 31.0311
#
#
#
# Elastic Compliance Matrix: (Units=1/GPa)
#
#
# Indices 1 2 3 4 5 6 
#
# 1 0.011816 -0.001944 0.000675 0.000000 0.000000 0.000000
# 2 -0.001944 0.008967 -0.000547 0.000000 0.000000 0.000000
# 3 0.000675 -0.000547 0.009055 0.000000 0.000000 0.000000
# 4 0.000000 0.000000 0.000000 0.026525 0.000000 0.000000
# 5 0.000000 0.000000 0.000000 0.000000 0.027837 0.000000
# 6 0.000000 0.000000 0.000000 0.000000 0.000000 0.032226
#
#
# Mechanical properties :
#
#
# Convention : Reuss Voigt Hill
#
# Bulk Modulus (GPa) = 38.16127 39.22298 38.69212
# Shear Modulus (GPa) = 38.82238 40.67810 39.75024
#
# Velocity S-wave (km/s) = 4.14393 4.24182 4.19316
# Velocity P-wave (km/s) = 6.30682 6.42962 6.36852
#
# Compressibility (1/GPa) = 0.02620458
#
# Stress axis : x y z
#
# Youngs Moduli (GPa) = 84.63457 111.51982 110.44114
#
# Poissons Ratio (x) = 0.21674 -0.07451
# Poissons Ratio (y) = 0.16449 0.06045
# Poissons Ratio (z) = -0.05710 0.06104
#
# Static dielectric constant tensor:
#      x y z
#    x 4.046820 0.000000 0.000000 
#    y 0.000000 4.550870 0.000000 
#    z 0.000000 0.000000 4.335330 
# 
# 
# High freq. dielectric constant tensor:
#      x y z
#    x 1.893260 0.000000 0.000000 
#    y 0.000000 1.908650 0.000000 
#    z 0.000000 0.000000 1.908910 
# 
# From -- ./inp_files/3984.got.cif
#   From: 2010.03.12/outbox.cif.g09.slc.cpg/sg41_2_cif.got.tgz:3984.got - 2010.04.14 01:55:53.
