data_PCOD8185634
_publ_section_title
;
Structure prediction by ZEFSAII (Michael W. Deem and Ramdas Pophale) SiO2 
 PCOD8185634
Probable space group: A B A 2
;
_chemical_formula_sum "Si O2"
_cell_formula_units_Z 48
_cell_length_a 16.968743
_cell_length_b 8.939532
_cell_length_c 14.867081
_cell_angle_alpha 90.000000
_cell_angle_beta 90.000000
_cell_angle_gamma 90.000000
_cell_volume 2255.226484
_symmetry_space_group_name_H-M "A B A 2"
_symmetry_group_IT_number 41
_symmetry_cell_setting 'orthorhombic'
loop_
_space_group_symop_operation_xyz
x,y,z
-x,-y,z
1/2-x,y,1/2+z
1/2+x,-y,1/2+z
x,1/2+y,1/2+z
-x,1/2-y,1/2+z
1/2-x,1/2+y,z
1/2+x,1/2-y,z
loop_
_atom_site_type_symbol
_atom_site_label
_atom_site_fract_x
_atom_site_fract_y
_atom_site_fract_z
Si Si1 0.678434 0.805125 0.274020
Si Si2 0.931640 0.900774 0.443955
Si Si3 0.316782 0.031652 0.093671
Si Si4 0.337563 0.036002 0.774087
Si Si5 0.849513 0.322155 0.592859
Si Si6 0.546129 0.855554 0.421553
O O1 0.652551 0.903631 0.188409
O O2 0.762099 0.868920 0.308493
O O3 0.689012 0.631424 0.244944
O O4 0.614850 0.817544 0.352249
O O5 0.864386 0.880998 0.517318
O O6 0.898200 0.981830 0.355350
O O7 0.970624 0.748842 0.414859
O O8 0.000000 0.000000 0.488601
O O9 0.226610 0.074794 0.074964
O O10 0.328410 0.853275 0.089016
O O11 0.379026 0.125942 0.691778
O O12 0.917294 0.359866 0.521466
O O13 0.500000 0.000000 0.392259
#
# Coordination Sequence:
#
# PCOD8185634 Si02
#       6
#     8   8   8   8   8   8
#     4  11  24  45  67  99 124 174 216 266 315 382
#     4  12  25  46  62  96 133 172 204 269 323 383
#     4  11  24  43  71  92 132 167 221 262 320 376
#     4  11  24  43  71  92 132 167 221 262 320 376
#     4  11  24  45  67  99 124 174 216 266 315 382
#     4  12  29  42  66  96 135 168 218 260 331 383
#
# _framework density 21.283892999999999
#
# number of rings (size 3 to 8) (size 9 to 14) (size 15 to 20)
#    0.000    0.667    3.333    5.000    9.333    2.667 
#    0.000    0.000    0.000    0.000    0.000    0.000 
#    0.000    0.000    0.000    0.000    0.000    0.000 
#
# Total GULP energy -297535.561317 kJ/mol
# GULP energy per Si atom -12397.315055 kJ/mol
# Density = 2.123545 g / cm^3
# Si number density = 21.283893 Si / 1000 Ang^3
#
#
#
# Elastic Constant Matrix: (Units=GPa)
#
#
# Indices 1 2 3 4 5 6 
#
# 1 57.4451 18.5335 42.8852 0.0000 0.0000 0.0000
# 2 18.5335 126.5357 2.3543 0.0000 0.0000 0.0000
# 3 42.8852 2.3543 100.3384 0.0000 0.0000 0.0000
# 4 0.0000 0.0000 0.0000 30.0792 0.0000 0.0000
# 5 0.0000 0.0000 0.0000 0.0000 11.9612 0.0000
# 6 0.0000 0.0000 0.0000 0.0000 0.0000 36.6822
#
#
#
# Elastic Compliance Matrix: (Units=1/GPa)
#
#
# Indices 1 2 3 4 5 6 
#
# 1 0.027258 -0.003777 -0.011561 0.000000 0.000000 0.000000
# 2 -0.003777 0.008430 0.001417 0.000000 0.000000 0.000000
# 3 -0.011561 0.001417 0.014874 0.000000 0.000000 0.000000
# 4 0.000000 0.000000 0.000000 0.033246 0.000000 0.000000
# 5 0.000000 0.000000 0.000000 0.000000 0.083604 0.000000
# 6 0.000000 0.000000 0.000000 0.000000 0.000000 0.027261
#
#
# Mechanical properties :
#
#
# Convention : Reuss Voigt Hill
#
# Bulk Modulus (GPa) = 44.01843 45.76279 44.89061
# Shear Modulus (GPa) = 21.73072 30.44762 26.08917
#
# Velocity S-wave (km/s) = 3.19877 3.78636 3.50490
# Velocity P-wave (km/s) = 5.86253 6.37677 6.12505
#
# Compressibility (1/GPa) = 0.02271776
#
# Stress axis : x y z
#
# Youngs Moduli (GPa) = 36.68685 118.62671 67.22931
#
# Poissons Ratio (x) = 0.44809 0.77727
# Poissons Ratio (y) = 0.13858 -0.09524
# Poissons Ratio (z) = 0.42415 -0.16805
#
# Static dielectric constant tensor:
#      x y z
#    x 3.744580 0.000000 0.000000 
#    y 0.000000 3.898330 0.000000 
#    z 0.000000 0.000000 3.923150 
# 
# 
# High freq. dielectric constant tensor:
#      x y z
#    x 1.835140 0.000000 0.000000 
#    y 0.000000 1.854350 0.000000 
#    z 0.000000 0.000000 1.839310 
# 
# From -- ./inp_files/8706.got.cif
#   From: 2010.03.12/outbox.cif.g09.slc.cpg/sg41_5_cif.got.tgz:8706.got - 2010.04.14 01:55:53.
