data_PCOD8185294
_publ_section_title
;
Structure prediction by ZEFSAII (Michael W. Deem and Ramdas Pophale) SiO2 
 PCOD8185294
Probable space group: A B A 2
;
_chemical_formula_sum "Si O2"
_cell_formula_units_Z 48
_cell_length_a 10.227682
_cell_length_b 11.426134
_cell_length_c 18.325352
_cell_angle_alpha 90.000000
_cell_angle_beta 90.000000
_cell_angle_gamma 90.000000
_cell_volume 2141.553138
_symmetry_space_group_name_H-M "A B A 2"
_symmetry_group_IT_number 41
_symmetry_cell_setting 'orthorhombic'
loop_
_space_group_symop_operation_xyz
x,y,z
-x,-y,z
1/2-x,y,1/2+z
1/2+x,-y,1/2+z
x,1/2+y,1/2+z
-x,1/2-y,1/2+z
1/2-x,1/2+y,z
1/2+x,1/2-y,z
loop_
_atom_site_type_symbol
_atom_site_label
_atom_site_fract_x
_atom_site_fract_y
_atom_site_fract_z
Si Si1 0.500000 0.000000 0.889801
Si Si2 0.658622 0.185958 0.976424
Si Si3 0.751798 0.855967 0.854057
Si Si4 0.840208 0.692332 0.228854
Si Si5 0.198494 0.937931 0.098465
Si Si6 0.923258 0.838698 0.106146
Si Si7 0.500000 0.500000 0.813846
O O1 0.552013 0.111243 0.933334
O O2 0.374999 0.057055 0.846895
O O3 0.744412 0.273202 0.925747
O O4 0.749581 0.094589 0.018645
O O5 0.579803 0.252373 0.038364
O O6 0.748407 0.767194 0.785176
O O7 0.884931 0.933962 0.858816
O O8 0.754272 0.629164 0.167714
O O9 0.936064 0.776910 0.184486
O O10 0.929981 0.597619 0.266689
O O11 0.047559 0.915468 0.095304
O O12 0.208222 0.079081 0.107348
#
# Coordination Sequence:
#
# PCOD8185294 Si02
#       7
#     4   8   8   8   8   8   4
#     4  12  26  43  70  99 136 182 228 284 342 405
#     4  11  24  42  66  96 134 176 226 277 337 405
#     4  12  26  46  70 102 138 180 230 284 342 406
#     4  11  24  42  66  96 134 176 226 277 337 405
#     4  10  22  41  64  94 130 174 220 275 338 401
#     4  10  22  39  64  94 130 171 220 276 336 402
#     4  12  26  43  70  99 136 182 228 284 342 405
#
# _framework density 22.413640999999998
#
# number of rings (size 3 to 8) (size 9 to 14) (size 15 to 20)
#    0.000    1.000    0.000    6.000    0.000   10.667 
#    0.000    0.000    0.000    0.000    0.000    0.000 
#    0.000    0.000    0.000    0.000    0.000    0.000 
#
# Total GULP energy -297315.091999 kJ/mol
# GULP energy per Si atom -12388.128833 kJ/mol
# Density = 2.236263 g / cm^3
# Si number density = 22.413641 Si / 1000 Ang^3
#
#
#
# Elastic Constant Matrix: (Units=GPa)
#
#
# Indices 1 2 3 4 5 6 
#
# 1 91.0889 35.6122 22.7252 0.0000 0.0000 0.0000
# 2 35.6122 113.0127 32.3786 0.0000 0.0000 0.0000
# 3 22.7252 32.3786 98.7369 0.0000 0.0000 0.0000
# 4 0.0000 0.0000 0.0000 16.7466 0.0000 0.0000
# 5 0.0000 0.0000 0.0000 0.0000 6.6518 0.0000
# 6 0.0000 0.0000 0.0000 0.0000 0.0000 48.8594
#
#
#
# Elastic Compliance Matrix: (Units=1/GPa)
#
#
# Indices 1 2 3 4 5 6 
#
# 1 0.012802 -0.003521 -0.001792 0.000000 0.000000 0.000000
# 2 -0.003521 0.010734 -0.002710 0.000000 0.000000 0.000000
# 3 -0.001792 -0.002710 0.011429 0.000000 0.000000 0.000000
# 4 0.000000 0.000000 0.000000 0.059714 0.000000 0.000000
# 5 0.000000 0.000000 0.000000 0.000000 0.150335 0.000000
# 6 0.000000 0.000000 0.000000 0.000000 0.000000 0.020467
#
#
# Mechanical properties :
#
#
# Convention : Reuss Voigt Hill
#
# Bulk Modulus (GPa) = 52.85311 53.80784 53.33047
# Shear Modulus (GPa) = 17.37125 28.59305 22.98215
#
# Velocity S-wave (km/s) = 2.78696 3.57557 3.20561
# Velocity P-wave (km/s) = 5.82994 6.41133 6.12753
#
# Compressibility (1/GPa) = 0.01892036
#
# Stress axis : x y z
#
# Youngs Moduli (GPa) = 78.11411 93.15891 87.49694
#
# Poissons Ratio (x) = 0.32798 0.15679
# Poissons Ratio (y) = 0.27501 0.23710
# Poissons Ratio (z) = 0.13997 0.25244
#
# Static dielectric constant tensor:
#      x y z
#    x 4.073020 0.000000 0.000000 
#    y 0.000000 4.656660 0.000000 
#    z 0.000000 0.000000 4.143560 
# 
# 
# High freq. dielectric constant tensor:
#      x y z
#    x 1.879760 0.000000 0.000000 
#    y 0.000000 1.914530 0.000000 
#    z 0.000000 0.000000 1.883540 
# 
# From -- ./inp_files/10007.got.cif
#   From: 2010.03.12/outbox.cif.g09.slc.cpg/sg41_6_cif.got.tgz:10007.got - 2010.04.14 01:55:53.
