data_PCOD8185087
_publ_section_title
;
Structure prediction by ZEFSAII (Michael W. Deem and Ramdas Pophale) SiO2 
 PCOD8185087
Probable space group: A B A 2
;
_chemical_formula_sum "Si O2"
_cell_formula_units_Z 56
_cell_length_a 12.056153
_cell_length_b 22.760379
_cell_length_c 9.015473
_cell_angle_alpha 90.000000
_cell_angle_beta 90.000000
_cell_angle_gamma 90.000000
_cell_volume 2473.869336
_symmetry_space_group_name_H-M "A B A 2"
_symmetry_group_IT_number 41
_symmetry_cell_setting 'orthorhombic'
loop_
_space_group_symop_operation_xyz
x,y,z
-x,-y,z
1/2-x,y,1/2+z
1/2+x,-y,1/2+z
x,1/2+y,1/2+z
-x,1/2-y,1/2+z
1/2-x,1/2+y,z
1/2+x,1/2-y,z
loop_
_atom_site_type_symbol
_atom_site_label
_atom_site_fract_x
_atom_site_fract_y
_atom_site_fract_z
Si Si1 0.099369 0.065672 0.376230
Si Si2 0.415641 0.159109 0.336094
Si Si3 0.000000 0.500000 0.622580
Si Si4 0.145863 0.277448 0.993197
Si Si5 0.000000 0.000000 0.629848
Si Si6 0.156286 0.796518 0.831412
Si Si7 0.658781 0.473436 0.877735
Si Si8 0.096713 0.183521 0.499204
O O1 0.207754 0.023066 0.374527
O O2 0.141506 0.132217 0.389751
O O3 0.024551 0.055646 0.230057
O O4 0.021740 0.055263 0.521581
O O5 0.361876 0.209517 0.437907
O O6 0.550435 0.161411 0.346464
O O7 0.381984 0.094213 0.388093
O O8 0.374199 0.170221 0.169271
O O9 0.109349 0.491778 0.520098
O O10 0.174885 0.273845 0.166156
O O11 0.227873 0.320752 0.897417
O O12 0.032805 0.311478 0.969281
O O13 0.890605 0.006420 0.732684
O O14 0.153074 0.742850 0.948889
#
# Coordination Sequence:
#
# PCOD8185087 Si02
#       8
#     8   8   4   8   4   8   8   8
#     4  11  22  42  67  91 123 165 207 266 318 376
#     4  10  21  38  64  90 122 164 212 256 301 376
#     4  10  26  38  60 102 120 152 222 260 320 380
#     4  10  21  37  58  91 129 165 200 252 311 368
#     4  10  22  42  64  86 128 152 206 272 312 372
#     4  10  21  37  58  91 129 165 200 252 311 368
#     4  11  22  42  67  91 123 165 207 266 318 376
#     4  10  21  38  64  90 122 164 212 256 301 376
#
# _framework density 22.636604999999999
#
# number of rings (size 3 to 8) (size 9 to 14) (size 15 to 20)
#    0.000    1.714    1.429    2.571    2.000    1.143 
#    0.000    8.571    0.000    0.000    0.000    0.000 
#    0.000    0.000    0.000    0.000    0.000    0.000 
#
# Total GULP energy -346972.753040 kJ/mol
# GULP energy per Si atom -12391.884037 kJ/mol
# Density = 2.258508 g / cm^3
# Si number density = 22.636605 Si / 1000 Ang^3
#
#
#
# Elastic Constant Matrix: (Units=GPa)
#
#
# Indices 1 2 3 4 5 6 
#
# 1 97.7505 12.6395 39.7036 0.0000 0.0000 0.0000
# 2 12.6395 42.8272 17.2575 0.0000 0.0000 0.0000
# 3 39.7036 17.2575 130.9057 0.0000 0.0000 0.0000
# 4 0.0000 0.0000 0.0000 24.9149 0.0000 0.0000
# 5 0.0000 0.0000 0.0000 0.0000 35.1040 0.0000
# 6 0.0000 0.0000 0.0000 0.0000 0.0000 24.7449
#
#
#
# Elastic Compliance Matrix: (Units=1/GPa)
#
#
# Indices 1 2 3 4 5 6 
#
# 1 0.011855 -0.002165 -0.003310 0.000000 0.000000 0.000000
# 2 -0.002165 0.025055 -0.002646 0.000000 0.000000 0.000000
# 3 -0.003310 -0.002646 0.008992 0.000000 0.000000 0.000000
# 4 0.000000 0.000000 0.000000 0.040137 0.000000 0.000000
# 5 0.000000 0.000000 0.000000 0.000000 0.028487 0.000000
# 6 0.000000 0.000000 0.000000 0.000000 0.000000 0.040412
#
#
# Mechanical properties :
#
#
# Convention : Reuss Voigt Hill
#
# Bulk Modulus (GPa) = 33.71689 45.63163 39.67426
# Shear Modulus (GPa) = 27.61423 30.41160 29.01291
#
# Velocity S-wave (km/s) = 3.49649 3.66931 3.58394
# Velocity P-wave (km/s) = 5.58818 6.17689 5.88989
#
# Compressibility (1/GPa) = 0.02965873
#
# Stress axis : x y z
#
# Youngs Moduli (GPa) = 84.35615 39.91232 111.21090
#
# Poissons Ratio (x) = 0.08640 0.36812
# Poissons Ratio (y) = 0.18261 0.29432
# Poissons Ratio (z) = 0.27923 0.10563
#
# Static dielectric constant tensor:
#      x y z
#    x 4.506520 0.000000 0.000000 
#    y 0.000000 3.754090 0.000000 
#    z 0.000000 0.000000 4.264020 
# 
# 
# High freq. dielectric constant tensor:
#      x y z
#    x 1.909300 0.000000 0.000000 
#    y 0.000000 1.853670 0.000000 
#    z 0.000000 0.000000 1.907130 
# 
# From -- ./inp_files/2713.got.cif
#   From: 2010.03.12/outbox.cif.g09.slc.cpg/sg41_2_cif.got.tgz:2713.got - 2010.04.14 01:55:53.
