data_PCOD8185350
_publ_section_title
;
Structure prediction by ZEFSAII (Michael W. Deem and Ramdas Pophale) SiO2 
 PCOD8185350
Probable space group: A B A 2
;
_chemical_formula_sum "Si O2"
_cell_formula_units_Z 48
_cell_length_a 10.093255
_cell_length_b 19.898767
_cell_length_c 10.037274
_cell_angle_alpha 90.000000
_cell_angle_beta 90.000000
_cell_angle_gamma 90.000000
_cell_volume 2015.919529
_symmetry_space_group_name_H-M "A B A 2"
_symmetry_group_IT_number 41
_symmetry_cell_setting 'orthorhombic'
loop_
_space_group_symop_operation_xyz
x,y,z
-x,-y,z
1/2-x,y,1/2+z
1/2+x,-y,1/2+z
x,1/2+y,1/2+z
-x,1/2-y,1/2+z
1/2-x,1/2+y,z
1/2+x,1/2-y,z
loop_
_atom_site_type_symbol
_atom_site_label
_atom_site_fract_x
_atom_site_fract_y
_atom_site_fract_z
Si Si1 0.500000 0.500000 0.320820
Si Si2 0.537628 0.746111 0.595101
Si Si3 0.000000 0.000000 0.858948
Si Si4 0.129524 0.129142 0.221669
Si Si5 0.726191 0.315236 0.491314
Si Si6 0.247758 0.945158 0.467954
Si Si7 0.635580 0.113574 0.229789
O O1 0.447403 0.558963 0.224736
O O2 0.388106 0.477197 0.421769
O O3 0.522218 0.811680 0.690187
O O4 0.402431 0.728797 0.523603
O O5 0.649425 0.763395 0.482790
O O6 0.586939 0.686129 0.688777
O O7 0.868102 0.000244 0.952957
O O8 0.991840 0.065469 0.761721
O O9 0.242937 0.129916 0.107315
O O10 0.205633 0.143097 0.358523
O O11 0.279378 0.882589 0.367120
O O12 0.231624 0.919664 0.618311
#
# Coordination Sequence:
#
# PCOD8185350 Si02
#       7
#     4   8   4   8   8   8   8
#     4  12  25  45  74 100 153 199 258 318 387 463
#     4  10  25  41  79 103 159 190 260 310 401 464
#     4   8  23  39  66 100 149 193 262 312 383 473
#     4  10  27  44  77 111 156 200 262 320 397 464
#     4  10  25  44  74 113 150 201 253 321 390 478
#     4  10  24  41  72  99 146 198 253 314 387 460
#     4  10  22  42  71 103 148 192 254 316 384 462
#
# _framework density 23.810473999999999
#
# number of rings (size 3 to 8) (size 9 to 14) (size 15 to 20)
#    2.000    0.000    0.000    1.500    9.333    2.000 
#    0.000    3.333    0.000    1.000    0.000    0.000 
#    0.000    0.000    0.000    0.000    0.000    0.000 
#
# Total GULP energy -297325.505866 kJ/mol
# GULP energy per Si atom -12388.562744 kJ/mol
# Density = 2.375628 g / cm^3
# Si number density = 23.810474 Si / 1000 Ang^3
#
#
#
# Elastic Constant Matrix: (Units=GPa)
#
#
# Indices 1 2 3 4 5 6 
#
# 1 126.6244 28.1678 33.2828 0.0000 0.0000 0.0000
# 2 28.1678 118.9515 28.1037 0.0000 0.0000 0.0000
# 3 33.2828 28.1037 125.5953 0.0000 0.0000 0.0000
# 4 0.0000 0.0000 0.0000 15.4830 0.0000 0.0000
# 5 0.0000 0.0000 0.0000 0.0000 10.7079 0.0000
# 6 0.0000 0.0000 0.0000 0.0000 0.0000 47.3774
#
#
#
# Elastic Compliance Matrix: (Units=1/GPa)
#
#
# Indices 1 2 3 4 5 6 
#
# 1 0.008772 -0.001613 -0.001964 0.000000 0.000000 0.000000
# 2 -0.001613 0.009173 -0.001625 0.000000 0.000000 0.000000
# 3 -0.001964 -0.001625 0.008846 0.000000 0.000000 0.000000
# 4 0.000000 0.000000 0.000000 0.064587 0.000000 0.000000
# 5 0.000000 0.000000 0.000000 0.000000 0.093389 0.000000
# 6 0.000000 0.000000 0.000000 0.000000 0.000000 0.021107
#
#
# Mechanical properties :
#
#
# Convention : Reuss Voigt Hill
#
# Bulk Modulus (GPa) = 61.02338 61.14222 61.08280
# Shear Modulus (GPa) = 22.54888 33.48813 28.01851
#
# Velocity S-wave (km/s) = 3.08070 3.75433 3.43407
# Velocity P-wave (km/s) = 6.19183 6.67291 6.43687
#
# Compressibility (1/GPa) = 0.01638716
#
# Stress axis : x y z
#
# Youngs Moduli (GPa) = 113.99374 109.01847 113.04455
#
# Poissons Ratio (x) = 0.17589 0.22198
# Poissons Ratio (y) = 0.18391 0.18370
# Poissons Ratio (z) = 0.22385 0.17715
#
# Static dielectric constant tensor:
#      x y z
#    x 4.278430 0.000000 0.000000 
#    y 0.000000 4.108270 0.000000 
#    z 0.000000 0.000000 4.117990 
# 
# 
# High freq. dielectric constant tensor:
#      x y z
#    x 1.943020 0.000000 0.000000 
#    y 0.000000 1.933770 0.000000 
#    z 0.000000 0.000000 1.941450 
# 
# From -- ./inp_files/5016.got.cif
#   From: 2010.03.12/outbox.cif.g09.slc.cpg/sg41_3_cif.got.tgz:5016.got - 2010.04.14 01:55:53.
