data_PCOD8185038
_publ_section_title
;
Structure prediction by ZEFSAII (Michael W. Deem and Ramdas Pophale) SiO2 
 PCOD8185038
Probable space group: A B A 2
;
_chemical_formula_sum "Si O2"
_cell_formula_units_Z 64
_cell_length_a 12.440676
_cell_length_b 17.659185
_cell_length_c 13.935157
_cell_angle_alpha 90.000000
_cell_angle_beta 90.000000
_cell_angle_gamma 90.000000
_cell_volume 3061.445285
_symmetry_space_group_name_H-M "A B A 2"
_symmetry_group_IT_number 41
_symmetry_cell_setting 'orthorhombic'
loop_
_space_group_symop_operation_xyz
x,y,z
-x,-y,z
1/2-x,y,1/2+z
1/2+x,-y,1/2+z
x,1/2+y,1/2+z
-x,1/2-y,1/2+z
1/2-x,1/2+y,z
1/2+x,1/2-y,z
loop_
_atom_site_type_symbol
_atom_site_label
_atom_site_fract_x
_atom_site_fract_y
_atom_site_fract_z
Si Si1 0.772426 0.500190 0.793470
Si Si2 0.279556 0.871343 0.033304
Si Si3 0.874766 0.343135 0.839202
Si Si4 0.614530 0.500628 0.621275
Si Si5 0.249220 0.749276 0.192791
Si Si6 0.219974 0.127532 0.533459
Si Si7 0.871499 0.500190 0.477129
Si Si8 0.375039 0.342815 0.338893
O O1 0.847205 0.426668 0.800440
O O2 0.715275 0.499995 0.691478
O O3 0.677300 0.500337 0.870800
O O4 0.847151 0.573803 0.799793
O O5 0.283515 0.816884 0.124132
O O6 0.379252 0.927540 0.050870
O O7 0.169989 0.922207 0.028290
O O8 0.304777 0.826636 0.934942
O O9 0.845955 0.279036 0.760828
O O10 0.999882 0.335853 0.861953
O O11 0.805063 0.326919 0.935635
O O12 0.500000 0.500000 0.675454
O O13 0.621225 0.429890 0.549009
O O14 0.214559 0.680720 0.125619
O O15 0.152883 0.778430 0.260638
O O16 0.330281 0.077512 0.528176
O O17 0.000000 0.500000 0.475588
#
# Coordination Sequence:
#
# PCOD8185038 Si02
#       8
#     8   8   8   8   8   8   8   8
#     4  10  20  42  64  98 123 160 219 275 309 391
#     4  10  23  42  64  94 131 164 221 265 310 391
#     4  11  24  43  68  92 127 172 213 269 327 376
#     4  11  20  38  66  91 124 168 208 264 326 372
#     4  12  24  44  60  94 134 170 212 264 310 390
#     4  10  23  42  64  94 131 164 221 265 310 391
#     4   9  20  40  68  97 127 166 211 275 327 367
#     4  11  24  43  68  92 127 172 213 269 327 376
#
# _framework density 20.905159000000001
#
# number of rings (size 3 to 8) (size 9 to 14) (size 15 to 20)
#    0.000    1.500    2.500    3.000    0.000    3.000 
#    0.000    6.250    0.000    0.000    0.000    0.000 
#    0.000    0.000    0.000    0.000    0.000    0.000 
#
# Total GULP energy -396611.184966 kJ/mol
# GULP energy per Si atom -12394.099530 kJ/mol
# Density = 2.085758 g / cm^3
# Si number density = 20.905159 Si / 1000 Ang^3
#
#
#
# Elastic Constant Matrix: (Units=GPa)
#
#
# Indices 1 2 3 4 5 6 
#
# 1 135.8202 46.4790 33.9309 0.0000 0.0000 0.0000
# 2 46.4790 106.7938 52.4824 0.0000 0.0000 0.0000
# 3 33.9309 52.4824 120.4730 0.0000 0.0000 0.0000
# 4 0.0000 0.0000 0.0000 41.0175 0.0000 0.0000
# 5 0.0000 0.0000 0.0000 0.0000 22.8667 0.0000
# 6 0.0000 0.0000 0.0000 0.0000 0.0000 15.7553
#
#
#
# Elastic Compliance Matrix: (Units=1/GPa)
#
#
# Indices 1 2 3 4 5 6 
#
# 1 0.008749 -0.003304 -0.001025 0.000000 0.000000 0.000000
# 2 -0.003304 0.013163 -0.004803 0.000000 0.000000 0.000000
# 3 -0.001025 -0.004803 0.010682 0.000000 0.000000 0.000000
# 4 0.000000 0.000000 0.000000 0.024380 0.000000 0.000000
# 5 0.000000 0.000000 0.000000 0.000000 0.043732 0.000000
# 6 0.000000 0.000000 0.000000 0.000000 0.000000 0.063471
#
#
# Mechanical properties :
#
#
# Convention : Reuss Voigt Hill
#
# Bulk Modulus (GPa) = 69.78997 69.87466 69.83231
# Shear Modulus (GPa) = 26.70691 31.27420 28.99056
#
# Velocity S-wave (km/s) = 3.57813 3.87202 3.72797
# Velocity P-wave (km/s) = 7.10825 7.31349 7.21160
#
# Compressibility (1/GPa) = 0.01432871
#
# Stress axis : x y z
#
# Youngs Moduli (GPa) = 114.29269 75.97314 93.61736
#
# Poissons Ratio (x) = 0.25104 0.09594
# Poissons Ratio (y) = 0.37766 0.44968
# Poissons Ratio (z) = 0.11712 0.36493
#
# Static dielectric constant tensor:
#      x y z
#    x 3.404370 0.000000 0.000000 
#    y 0.000000 4.041710 0.000000 
#    z 0.000000 0.000000 3.969790 
# 
# 
# High freq. dielectric constant tensor:
#      x y z
#    x 1.796000 0.000000 0.000000 
#    y 0.000000 1.823220 0.000000 
#    z 0.000000 0.000000 1.837850 
# 
# From -- ./inp_files/8116.got.cif
#   From: 2010.03.12/outbox.cif.g09.slc.cpg/sg41_5_cif.got.tgz:8116.got - 2010.04.14 01:55:53.
