data_PCOD8185172
_publ_section_title
;
Structure prediction by ZEFSAII (Michael W. Deem and Ramdas Pophale) SiO2 
 PCOD8185172
Probable space group: A B A 2
;
_chemical_formula_sum "Si O2"
_cell_formula_units_Z 44
_cell_length_a 9.474618
_cell_length_b 13.846868
_cell_length_c 15.808906
_cell_angle_alpha 90.000000
_cell_angle_beta 90.000000
_cell_angle_gamma 90.000000
_cell_volume 2074.030212
_symmetry_space_group_name_H-M "A B A 2"
_symmetry_group_IT_number 41
_symmetry_cell_setting 'orthorhombic'
loop_
_space_group_symop_operation_xyz
x,y,z
-x,-y,z
1/2-x,y,1/2+z
1/2+x,-y,1/2+z
x,1/2+y,1/2+z
-x,1/2-y,1/2+z
1/2-x,1/2+y,z
1/2+x,1/2-y,z
loop_
_atom_site_type_symbol
_atom_site_label
_atom_site_fract_x
_atom_site_fract_y
_atom_site_fract_z
Si Si1 0.500000 0.500000 0.721860
Si Si2 0.325395 0.308716 0.194957
Si Si3 0.897690 0.195418 0.423751
Si Si4 0.960329 0.677174 0.112230
Si Si5 0.715899 0.534132 0.314902
Si Si6 0.817418 0.313667 0.843024
O O1 0.461842 0.587891 0.658697
O O2 0.622128 0.530891 0.786041
O O3 0.207637 0.325119 0.123803
O O4 0.467652 0.272173 0.151281
O O5 0.366743 0.410559 0.238877
O O6 0.253395 0.236083 0.262201
O O7 0.978446 0.176967 0.511518
O O8 0.809071 0.098962 0.398614
O O9 0.786852 0.285333 0.421784
O O10 0.022811 0.223129 0.357333
O O11 0.661233 0.427820 0.332896
#
# Coordination Sequence:
#
# PCOD8185172 Si02
#       6
#     4   8   8   8   8   8
#     4  10  22  40  66  88 130 172 224 266 328 402
#     4  10  21  40  66  88 126 170 221 262 332 392
#     4  11  25  38  65  94 133 165 221 270 352 384
#     4  11  22  41  61  94 128 169 212 282 334 389
#     4  10  22  39  66  94 121 176 222 267 320 411
#     4  11  22  42  63  93 127 172 219 277 318 419
#
# _framework density 21.214735000000001
#
# number of rings (size 3 to 8) (size 9 to 14) (size 15 to 20)
#    0.000    1.455    1.818    3.818    7.636    0.000 
#    0.000    0.000    0.000    4.364    0.000    0.000 
#    0.000    0.000    0.000    0.000    0.000    0.000 
#
# Total GULP energy -272652.832876 kJ/mol
# GULP energy per Si atom -12393.310585 kJ/mol
# Density = 2.116645 g / cm^3
# Si number density = 21.214735 Si / 1000 Ang^3
#
#
#
# Elastic Constant Matrix: (Units=GPa)
#
#
# Indices 1 2 3 4 5 6 
#
# 1 93.3704 49.2765 35.7478 0.0000 0.0000 0.0000
# 2 49.2765 133.3306 34.5031 0.0000 0.0000 0.0000
# 3 35.7478 34.5031 97.2506 0.0000 0.0000 0.0000
# 4 0.0000 0.0000 0.0000 24.0059 0.0000 0.0000
# 5 0.0000 0.0000 0.0000 0.0000 36.0341 0.0000
# 6 0.0000 0.0000 0.0000 0.0000 0.0000 34.8205
#
#
#
# Elastic Compliance Matrix: (Units=1/GPa)
#
#
# Indices 1 2 3 4 5 6 
#
# 1 0.014457 -0.004369 -0.003764 0.000000 0.000000 0.000000
# 2 -0.004369 0.009579 -0.001792 0.000000 0.000000 0.000000
# 3 -0.003764 -0.001792 0.012302 0.000000 0.000000 0.000000
# 4 0.000000 0.000000 0.000000 0.041656 0.000000 0.000000
# 5 0.000000 0.000000 0.000000 0.000000 0.027752 0.000000
# 6 0.000000 0.000000 0.000000 0.000000 0.000000 0.028719
#
#
# Mechanical properties :
#
#
# Convention : Reuss Voigt Hill
#
# Bulk Modulus (GPa) = 60.65414 62.55627 61.60521
# Shear Modulus (GPa) = 31.28698 32.60038 31.94368
#
# Velocity S-wave (km/s) = 3.84445 3.92431 3.88458
# Velocity P-wave (km/s) = 6.95406 7.07706 7.01583
#
# Compressibility (1/GPa) = 0.01648692
#
# Stress axis : x y z
#
# Youngs Moduli (GPa) = 69.17136 104.39863 81.28593
#
# Poissons Ratio (x) = 0.45611 0.30597
# Poissons Ratio (y) = 0.30220 0.14570
# Poissons Ratio (z) = 0.26037 0.18713
#
# Static dielectric constant tensor:
#      x y z
#    x 3.883780 0.000000 0.000000 
#    y 0.000000 4.009440 0.000000 
#    z 0.000000 0.000000 3.716170 
# 
# 
# High freq. dielectric constant tensor:
#      x y z
#    x 1.841820 0.000000 0.000000 
#    y 0.000000 1.828150 0.000000 
#    z 0.000000 0.000000 1.817580 
# 
# From -- ./inp_files/7856.got.cif
#   From: 2010.03.12/outbox.cif.g09.slc.cpg/sg41_4_cif.got.tgz:7856.got - 2010.04.14 01:55:53.
