data_PCOD8185189
_publ_section_title
;
Structure prediction by ZEFSAII (Michael W. Deem and Ramdas Pophale) SiO2 
 PCOD8185189
Probable space group: A B A 2
;
_chemical_formula_sum "Si O2"
_cell_formula_units_Z 20
_cell_length_a 9.039170
_cell_length_b 7.828659
_cell_length_c 11.611371
_cell_angle_alpha 90.000000
_cell_angle_beta 90.000000
_cell_angle_gamma 90.000000
_cell_volume 821.673787
_symmetry_space_group_name_H-M "A B A 2"
_symmetry_group_IT_number 41
_symmetry_cell_setting 'orthorhombic'
loop_
_space_group_symop_operation_xyz
x,y,z
-x,-y,z
1/2-x,y,1/2+z
1/2+x,-y,1/2+z
x,1/2+y,1/2+z
-x,1/2-y,1/2+z
1/2-x,1/2+y,z
1/2+x,1/2-y,z
loop_
_atom_site_type_symbol
_atom_site_label
_atom_site_fract_x
_atom_site_fract_y
_atom_site_fract_z
Si Si1 0.698070 0.957376 0.384520
Si Si2 0.000000 0.000000 0.090282
Si Si3 0.042155 0.732723 0.796311
O O1 0.611246 0.777636 0.360423
O O2 0.871875 0.918957 0.367053
O O3 0.648436 0.019661 0.511837
O O4 0.644687 0.097726 0.291316
O O5 0.012340 0.170223 0.166859
#
# Coordination Sequence:
#
# PCOD8185189 Si02
#       3
#     8   4   8
#     4  10  24  41  65 102 131 171 227 270 326 410
#     4  10  22  42  66  92 134 180 210 276 340 374
#     4  10  21  41  64  94 132 168 220 270 324 397
#
# _framework density 24.340558000000001
#
# number of rings (size 3 to 8) (size 9 to 14) (size 15 to 20)
#    0.000    2.400    0.000    2.400    0.000   12.800 
#    0.000   24.000    0.000    0.000    0.000    0.000 
#    0.000    0.000    0.000    0.000    0.000    0.000 
#
# Total GULP energy -123942.654322 kJ/mol
# GULP energy per Si atom -12394.265432 kJ/mol
# Density = 2.428516 g / cm^3
# Si number density = 24.340558 Si / 1000 Ang^3
#
#
#
# Elastic Constant Matrix: (Units=GPa)
#
#
# Indices 1 2 3 4 5 6 
#
# 1 105.1019 5.8168 61.1446 0.0000 0.0000 0.0000
# 2 5.8168 102.6103 64.0753 0.0000 0.0000 0.0000
# 3 61.1446 64.0753 173.5760 0.0000 0.0000 0.0000
# 4 0.0000 0.0000 0.0000 54.7746 0.0000 0.0000
# 5 0.0000 0.0000 0.0000 0.0000 27.5140 0.0000
# 6 0.0000 0.0000 0.0000 0.0000 0.0000 35.7975
#
#
#
# Elastic Compliance Matrix: (Units=1/GPa)
#
#
# Indices 1 2 3 4 5 6 
#
# 1 0.012499 0.002652 -0.005382 0.000000 0.000000 0.000000
# 2 0.002652 0.013228 -0.005817 0.000000 0.000000 0.000000
# 3 -0.005382 -0.005817 0.009805 0.000000 0.000000 0.000000
# 4 0.000000 0.000000 0.000000 0.018257 0.000000 0.000000
# 5 0.000000 0.000000 0.000000 0.000000 0.036345 0.000000
# 6 0.000000 0.000000 0.000000 0.000000 0.000000 0.027935
#
#
# Mechanical properties :
#
#
# Convention : Reuss Voigt Hill
#
# Bulk Modulus (GPa) = 54.23844 71.48462 62.86153
# Shear Modulus (GPa) = 35.38374 40.30065 37.84220
#
# Velocity S-wave (km/s) = 3.81687 4.07344 3.94724
# Velocity P-wave (km/s) = 6.46190 7.18026 6.83053
#
# Compressibility (1/GPa) = 0.01843711
#
# Stress axis : x y z
#
# Youngs Moduli (GPa) = 80.00752 75.59761 101.99389
#
# Poissons Ratio (x) = -0.20050 0.54893
# Poissons Ratio (y) = -0.21220 0.59334
# Poissons Ratio (z) = 0.43060 0.43978
#
# Static dielectric constant tensor:
#      x y z
#    x 4.701070 0.000000 0.000000 
#    y 0.000000 4.697020 0.000000 
#    z 0.000000 0.000000 3.964220 
# 
# 
# High freq. dielectric constant tensor:
#      x y z
#    x 1.974220 0.000000 0.000000 
#    y 0.000000 1.991230 0.000000 
#    z 0.000000 0.000000 1.926890 
# 
# From -- ./inp_files/1818.got.cif
#   From: 2010.03.12/outbox.cif.g09.slc.cpg/sg41_1_cif.got.tgz:1818.got - 2010.04.14 01:55:53.
