data_PCOD8185706
_publ_section_title
;
Structure prediction by ZEFSAII (Michael W. Deem and Ramdas Pophale) SiO2 
 PCOD8185706
Probable space group: A B A 2
;
_chemical_formula_sum "Si O2"
_cell_formula_units_Z 28
_cell_length_a 4.710925
_cell_length_b 24.087297
_cell_length_c 8.635363
_cell_angle_alpha 90.000000
_cell_angle_beta 90.000000
_cell_angle_gamma 90.000000
_cell_volume 979.884428
_symmetry_space_group_name_H-M "A B A 2"
_symmetry_group_IT_number 41
_symmetry_cell_setting 'orthorhombic'
loop_
_space_group_symop_operation_xyz
x,y,z
-x,-y,z
1/2-x,y,1/2+z
1/2+x,-y,1/2+z
x,1/2+y,1/2+z
-x,1/2-y,1/2+z
1/2-x,1/2+y,z
1/2+x,1/2-y,z
loop_
_atom_site_type_symbol
_atom_site_label
_atom_site_fract_x
_atom_site_fract_y
_atom_site_fract_z
Si Si1 0.000000 0.500000 0.965540
Si Si2 0.443558 0.713119 0.574621
Si Si3 0.412491 0.433945 0.762253
Si Si4 0.382425 0.139852 0.796693
O O1 0.730262 0.512560 0.850579
O O2 0.010619 0.552100 0.085621
O O3 0.768450 0.729824 0.608659
O O4 0.422490 0.695128 0.396599
O O5 0.324775 0.659261 0.658905
O O6 0.688048 0.411768 0.861214
O O7 0.184470 0.384020 0.746039
#
# Coordination Sequence:
#
# PCOD8185706 Si02
#       4
#     4   8   8   8
#     4  12  28  50  76 110 148 200 252 310 374 444
#     4  12  24  43  70 102 142 188 240 298 365 440
#     4  12  27  47  74 106 148 194 250 309 371 442
#     4  12  25  45  70 104 144 190 244 305 367 438
#
# _framework density 28.574798000000001
#
# number of rings (size 3 to 8) (size 9 to 14) (size 15 to 20)
#    0.000    0.000    0.000   10.286    0.000    8.000 
#    0.000    0.000    0.000    0.000    0.000    0.000 
#    0.000    0.000    0.000    0.000    0.000    0.000 
#
# Total GULP energy -173515.278701 kJ/mol
# GULP energy per Si atom -12393.948479 kJ/mol
# Density = 2.850976 g / cm^3
# Si number density = 28.574798 Si / 1000 Ang^3
#
#
#
# Elastic Constant Matrix: (Units=GPa)
#
#
# Indices 1 2 3 4 5 6 
#
# 1 116.1661 -18.3897 20.9774 0.0000 0.0000 0.0000
# 2 -18.3897 84.3676 1.3257 0.0000 0.0000 0.0000
# 3 20.9774 1.3257 110.8833 0.0000 0.0000 0.0000
# 4 0.0000 0.0000 0.0000 0.6629 0.0000 0.0000
# 5 0.0000 0.0000 0.0000 0.0000 31.7975 0.0000
# 6 0.0000 0.0000 0.0000 0.0000 0.0000 55.8563
#
#
#
# Elastic Compliance Matrix: (Units=1/GPa)
#
#
# Indices 1 2 3 4 5 6 
#
# 1 0.009253 0.002045 -0.001775 0.000000 0.000000 0.000000
# 2 0.002045 0.012307 -0.000534 0.000000 0.000000 0.000000
# 3 -0.001775 -0.000534 0.009361 0.000000 0.000000 0.000000
# 4 0.000000 0.000000 0.000000 1.508422 0.000000 0.000000
# 5 0.000000 0.000000 0.000000 0.000000 0.031449 0.000000
# 6 0.000000 0.000000 0.000000 0.000000 0.000000 0.017903
#
#
# Mechanical properties :
#
#
# Convention : Reuss Voigt Hill
#
# Bulk Modulus (GPa) = 32.90357 35.47154 34.18755
# Shear Modulus (GPa) = 3.12626 38.16359 20.64493
#
# Velocity S-wave (km/s) = 1.04711 3.65851 2.69083
# Velocity P-wave (km/s) = 3.60580 5.50334 4.65234
#
# Compressibility (1/GPa) = 0.03039184
#
# Stress axis : x y z
#
# Youngs Moduli (GPa) = 108.07825 81.25482 106.83011
#
# Poissons Ratio (x) = -0.16614 0.18961
# Poissons Ratio (y) = -0.22099 0.05704
# Poissons Ratio (z) = 0.19183 0.04339
#
# Static dielectric constant tensor:
#      x y z
#    x 5.190940 0.000000 0.000000 
#    y 0.000000 5.197970 0.000000 
#    z 0.000000 0.000000 4.916650 
# 
# 
# High freq. dielectric constant tensor:
#      x y z
#    x 2.180740 0.000000 0.000000 
#    y 0.000000 2.202360 0.000000 
#    z 0.000000 0.000000 2.139960 
# 
# From -- ./inp_files/1484.got.cif
#   From: 2010.03.12/outbox.cif.g09.slc.cpg/sg41_1_cif.got.tgz:1484.got - 2010.04.14 01:55:53.
