data_PCOD8185030
_publ_section_title
;
Structure prediction by ZEFSAII (Michael W. Deem and Ramdas Pophale) SiO2 
 PCOD8185030
Probable space group: A B A 2
;
_chemical_formula_sum "Si O2"
_cell_formula_units_Z 60
_cell_length_a 16.449074
_cell_length_b 12.850537
_cell_length_c 13.437668
_cell_angle_alpha 90.000000
_cell_angle_beta 90.000000
_cell_angle_gamma 90.000000
_cell_volume 2840.446657
_symmetry_space_group_name_H-M "A B A 2"
_symmetry_group_IT_number 41
_symmetry_cell_setting 'orthorhombic'
loop_
_space_group_symop_operation_xyz
x,y,z
-x,-y,z
1/2-x,y,1/2+z
1/2+x,-y,1/2+z
x,1/2+y,1/2+z
-x,1/2-y,1/2+z
1/2-x,1/2+y,z
1/2+x,1/2-y,z
loop_
_atom_site_type_symbol
_atom_site_label
_atom_site_fract_x
_atom_site_fract_y
_atom_site_fract_z
Si Si1 0.450385 0.398799 0.963130
Si Si2 0.226444 0.909557 0.879805
Si Si3 0.823363 0.236077 0.717270
Si Si4 0.166391 0.930234 0.560932
Si Si5 0.776828 0.969724 0.201481
Si Si6 0.503653 0.300636 0.772547
Si Si7 0.500000 0.500000 0.647356
Si Si8 0.559812 0.093110 0.688746
O O1 0.500000 0.500000 0.934605
O O2 0.354617 0.418239 0.945633
O O3 0.489740 0.311427 0.891499
O O4 0.464637 0.369315 0.077754
O O5 0.224502 0.803191 0.815357
O O6 0.227159 0.005992 0.802609
O O7 0.308652 0.913887 0.945915
O O8 0.799244 0.170443 0.619948
O O9 0.810201 0.355540 0.701844
O O10 0.918090 0.219526 0.723575
O O11 0.071048 0.956576 0.574638
O O12 0.217394 0.026213 0.606569
O O13 0.849099 0.052504 0.192376
O O14 0.535495 0.406992 0.718370
O O15 0.558118 0.197638 0.756026
O O16 0.500000 0.000000 0.725483
#
# Coordination Sequence:
#
# PCOD8185030 Si02
#       8
#     8   8   8   8   8   8   4   8
#     4  10  21  42  68  93 126 175 223 261 325 414
#     4  10  22  42  61  92 128 169 213 267 336 394
#     4   9  21  40  64  90 131 167 212 270 324 401
#     4  10  22  43  64  90 127 170 223 269 331 395
#     4  11  22  41  64  96 129 168 220 277 325 392
#     4  10  20  41  67  94 130 173 217 269 330 396
#     4  10  22  42  66  94 130 172 224 282 326 398
#     4  11  22  41  66  97 131 169 219 277 334 397
#
# _framework density 21.123439000000001
#
# number of rings (size 3 to 8) (size 9 to 14) (size 15 to 20)
#    0.000    1.867    3.333    0.800    0.000    3.200 
#   10.800    0.000    0.000    0.000    0.000    0.000 
#    0.000    0.000    0.000    0.000    0.000    0.000 
#
# Total GULP energy -371847.144691 kJ/mol
# GULP energy per Si atom -12394.904823 kJ/mol
# Density = 2.107536 g / cm^3
# Si number density = 21.123439 Si / 1000 Ang^3
#
#
#
# Elastic Constant Matrix: (Units=GPa)
#
#
# Indices 1 2 3 4 5 6 
#
# 1 72.0027 19.3844 34.8444 0.0000 0.0000 0.0000
# 2 19.3844 118.3907 43.6763 0.0000 0.0000 0.0000
# 3 34.8444 43.6763 74.9596 0.0000 0.0000 0.0000
# 4 0.0000 0.0000 0.0000 16.7639 0.0000 0.0000
# 5 0.0000 0.0000 0.0000 0.0000 35.9318 0.0000
# 6 0.0000 0.0000 0.0000 0.0000 0.0000 49.3395
#
#
#
# Elastic Compliance Matrix: (Units=1/GPa)
#
#
# Indices 1 2 3 4 5 6 
#
# 1 0.017922 0.000177 -0.008434 0.000000 0.000000 0.000000
# 2 0.000177 0.010761 -0.006352 0.000000 0.000000 0.000000
# 3 -0.008434 -0.006352 0.020962 0.000000 0.000000 0.000000
# 4 0.000000 0.000000 0.000000 0.059652 0.000000 0.000000
# 5 0.000000 0.000000 0.000000 0.000000 0.027830 0.000000
# 6 0.000000 0.000000 0.000000 0.000000 0.000000 0.020268
#
#
# Mechanical properties :
#
#
# Convention : Reuss Voigt Hill
#
# Bulk Modulus (GPa) = 48.95555 51.24035 50.09795
# Shear Modulus (GPa) = 25.84994 31.57024 28.71009
#
# Velocity S-wave (km/s) = 3.50202 3.87015 3.69068
# Velocity P-wave (km/s) = 6.29114 6.65439 6.47531
#
# Compressibility (1/GPa) = 0.02042669
#
# Stress axis : x y z
#
# Youngs Moduli (GPa) = 55.79652 92.92690 47.70443
#
# Poissons Ratio (x) = -0.01645 0.40235
# Poissons Ratio (y) = -0.00988 0.30304
# Poissons Ratio (z) = 0.47060 0.59031
#
# Static dielectric constant tensor:
#      x y z
#    x 3.767430 0.000000 0.000000 
#    y 0.000000 4.302530 0.000000 
#    z 0.000000 0.000000 3.781690 
# 
# 
# High freq. dielectric constant tensor:
#      x y z
#    x 1.831100 0.000000 0.000000 
#    y 0.000000 1.817940 0.000000 
#    z 0.000000 0.000000 1.822740 
# 
# From -- ./inp_files/8789.got.cif
#   From: 2010.03.12/outbox.cif.g09.slc.cpg/sg41_5_cif.got.tgz:8789.got - 2010.04.14 01:55:53.
