data_PCOD8185400
_publ_section_title
;
Structure prediction by ZEFSAII (Michael W. Deem and Ramdas Pophale) SiO2 
 PCOD8185400
Probable space group: A B A 2
;
_chemical_formula_sum "Si O2"
_cell_formula_units_Z 56
_cell_length_a 15.017215
_cell_length_b 8.635186
_cell_length_c 19.313699
_cell_angle_alpha 90.000000
_cell_angle_beta 90.000000
_cell_angle_gamma 90.000000
_cell_volume 2504.531821
_symmetry_space_group_name_H-M "A B A 2"
_symmetry_group_IT_number 41
_symmetry_cell_setting 'orthorhombic'
loop_
_space_group_symop_operation_xyz
x,y,z
-x,-y,z
1/2-x,y,1/2+z
1/2+x,-y,1/2+z
x,1/2+y,1/2+z
-x,1/2-y,1/2+z
1/2-x,1/2+y,z
1/2+x,1/2-y,z
loop_
_atom_site_type_symbol
_atom_site_label
_atom_site_fract_x
_atom_site_fract_y
_atom_site_fract_z
Si Si1 0.369019 0.770394 0.476510
Si Si2 0.746086 0.990507 0.211975
Si Si3 0.028982 0.674415 0.381261
Si Si4 0.158010 0.757302 0.625793
Si Si5 0.308005 0.618231 0.977241
Si Si6 0.967565 0.673544 0.612692
Si Si7 0.872962 0.227492 0.254230
O O1 0.447016 0.747134 0.420685
O O2 0.293862 0.647298 0.453579
O O3 0.410932 0.744786 0.552393
O O4 0.323186 0.936924 0.479282
O O5 0.817460 0.870502 0.182671
O O6 0.666860 0.901133 0.251609
O O7 0.705292 0.082770 0.146317
O O8 0.793492 0.103604 0.268464
O O9 0.118535 0.689878 0.426308
O O10 0.048979 0.770793 0.311130
O O11 0.000000 0.500000 0.363835
O O12 0.186962 0.703221 0.550510
O O13 0.052103 0.781506 0.627755
O O14 0.907877 0.668056 0.680501
O O15 0.000000 0.500000 0.589750
#
# Coordination Sequence:
#
# PCOD8185400 Si02
#       7
#     8   8   8   8   8   8   8
#     4  11  22  44  70  95 128 171 221 269 329 388
#     4  10  23  40  63  99 128 168 224 268 331 394
#     4  10  24  44  64  94 130 174 219 263 330 396
#     4  11  20  39  67  98 129 169 214 276 330 388
#     4  11  21  40  69  92 128 169 212 272 328 386
#     4  12  21  39  68  97 133 172 216 278 330 380
#     4  11  24  42  65  95 132 175 217 274 329 392
#
# _framework density 22.359469000000001
#
# number of rings (size 3 to 8) (size 9 to 14) (size 15 to 20)
#    0.000    1.143    4.286    3.000    2.000    2.286 
#    2.571    2.143    0.000    0.000    0.000    0.000 
#    0.000    0.000    0.000    0.000    0.000    0.000 
#
# Total GULP energy -347217.626428 kJ/mol
# GULP energy per Si atom -12400.629515 kJ/mol
# Density = 2.230858 g / cm^3
# Si number density = 22.359469 Si / 1000 Ang^3
#
#
#
# Elastic Constant Matrix: (Units=GPa)
#
#
# Indices 1 2 3 4 5 6 
#
# 1 161.8534 40.6299 46.5165 0.0000 0.0000 0.0000
# 2 40.6299 63.2326 27.7632 0.0000 0.0000 0.0000
# 3 46.5165 27.7632 94.3361 0.0000 0.0000 0.0000
# 4 0.0000 0.0000 0.0000 22.3601 0.0000 0.0000
# 5 0.0000 0.0000 0.0000 0.0000 40.7417 0.0000
# 6 0.0000 0.0000 0.0000 0.0000 0.0000 30.5735
#
#
#
# Elastic Compliance Matrix: (Units=1/GPa)
#
#
# Indices 1 2 3 4 5 6 
#
# 1 0.007953 -0.003891 -0.002776 0.000000 0.000000 0.000000
# 2 -0.003891 0.020065 -0.003986 0.000000 0.000000 0.000000
# 3 -0.002776 -0.003986 0.013143 0.000000 0.000000 0.000000
# 4 0.000000 0.000000 0.000000 0.044723 0.000000 0.000000
# 5 0.000000 0.000000 0.000000 0.000000 0.024545 0.000000
# 6 0.000000 0.000000 0.000000 0.000000 0.000000 0.032708
#
#
# Mechanical properties :
#
#
# Convention : Reuss Voigt Hill
#
# Bulk Modulus (GPa) = 50.37089 61.02682 55.69886
# Shear Modulus (GPa) = 29.22906 32.36923 30.79914
#
# Velocity S-wave (km/s) = 3.61949 3.80896 3.71543
# Velocity P-wave (km/s) = 6.32806 6.83352 6.58564
#
# Compressibility (1/GPa) = 0.01985274
#
# Stress axis : x y z
#
# Youngs Moduli (GPa) = 125.73548 49.83736 76.08796
#
# Poissons Ratio (x) = 0.19393 0.21126
# Poissons Ratio (y) = 0.48927 0.30332
# Poissons Ratio (z) = 0.34910 0.19868
#
# Static dielectric constant tensor:
#      x y z
#    x 4.680140 0.000000 0.000000 
#    y 0.000000 3.907400 0.000000 
#    z 0.000000 0.000000 3.861180 
# 
# 
# High freq. dielectric constant tensor:
#      x y z
#    x 1.903580 0.000000 0.000000 
#    y 0.000000 1.863080 0.000000 
#    z 0.000000 0.000000 1.865510 
# 
# From -- ./inp_files/11549.got.cif
#   From: 2010.03.12/outbox.cif.g09.slc.cpg/sg41_6_cif.got.tgz:11549.got - 2010.04.14 01:55:53.
