data_PCOD8185441
_publ_section_title
;
Structure prediction by ZEFSAII (Michael W. Deem and Ramdas Pophale) SiO2 
 PCOD8185441
Probable space group: A B A 2
;
_chemical_formula_sum "Si O2"
_cell_formula_units_Z 40
_cell_length_a 4.844213
_cell_length_b 17.580542
_cell_length_c 16.804914
_cell_angle_alpha 90.000000
_cell_angle_beta 90.000000
_cell_angle_gamma 90.000000
_cell_volume 1431.171849
_symmetry_space_group_name_H-M "A B A 2"
_symmetry_group_IT_number 41
_symmetry_cell_setting 'orthorhombic'
loop_
_space_group_symop_operation_xyz
x,y,z
-x,-y,z
1/2-x,y,1/2+z
1/2+x,-y,1/2+z
x,1/2+y,1/2+z
-x,1/2-y,1/2+z
1/2-x,1/2+y,z
1/2+x,1/2-y,z
loop_
_atom_site_type_symbol
_atom_site_label
_atom_site_fract_x
_atom_site_fract_y
_atom_site_fract_z
Si Si1 0.000000 0.500000 0.070791
Si Si2 0.769416 0.698872 0.563696
Si Si3 0.064659 0.082266 0.322250
Si Si4 0.279708 0.299521 0.745174
Si Si5 0.000000 0.500000 0.674531
Si Si6 0.385892 0.583619 0.965926
O O1 0.744349 0.534907 0.121114
O O2 0.883382 0.426235 0.023423
O O3 0.958240 0.773880 0.546296
O O4 0.792493 0.672438 0.655879
O O5 0.870937 0.632883 0.504377
O O6 0.798154 0.136802 0.311209
O O7 0.290197 0.119873 0.380923
O O8 0.000000 0.000000 0.363729
O O9 0.156268 0.062943 0.230847
O O10 0.098686 0.222263 0.759085
O O11 0.500000 0.500000 0.949977
#
# Coordination Sequence:
#
# PCOD8185441 Si02
#       6
#     4   8   8   8   4   8
#     4  12  23  44  69 104 138 184 240 294 353 412
#     4  10  25  46  70 102 140 188 245 295 351 427
#     4  10  25  46  66 109 145 187 233 295 359 434
#     4  10  23  44  69 100 137 186 242 292 346 421
#     4  10  25  42  71  98 138 188 236 294 351 414
#     4  12  27  45  73 110 152 190 237 302 366 437
#
# _framework density 27.949124000000001
#
# number of rings (size 3 to 8) (size 9 to 14) (size 15 to 20)
#    0.600    0.800    2.000    1.200    4.200    8.000 
#    0.000    0.000    0.000    0.000    0.000    0.000 
#    0.000    0.000    0.000    0.000    0.000    0.000 
#
# Total GULP energy -247796.592006 kJ/mol
# GULP energy per Si atom -12389.829600 kJ/mol
# Density = 2.788551 g / cm^3
# Si number density = 27.949124 Si / 1000 Ang^3
#
#
#
# Elastic Constant Matrix: (Units=GPa)
#
#
# Indices 1 2 3 4 5 6 
#
# 1 91.7939 -29.0278 21.3255 0.0000 0.0000 0.0000
# 2 -29.0278 61.2839 -3.9084 0.0000 0.0000 0.0000
# 3 21.3255 -3.9084 109.5878 0.0000 0.0000 0.0000
# 4 0.0000 0.0000 0.0000 0.3691 0.0000 0.0000
# 5 0.0000 0.0000 0.0000 0.0000 14.0050 0.0000
# 6 0.0000 0.0000 0.0000 0.0000 0.0000 23.7510
#
#
#
# Elastic Compliance Matrix: (Units=1/GPa)
#
#
# Indices 1 2 3 4 5 6 
#
# 1 0.013409 0.006199 -0.002388 0.000000 0.000000 0.000000
# 2 0.006199 0.019221 -0.000521 0.000000 0.000000 0.000000
# 3 -0.002388 -0.000521 0.009571 0.000000 0.000000 0.000000
# 4 0.000000 0.000000 0.000000 2.709162 0.000000 0.000000
# 5 0.000000 0.000000 0.000000 0.000000 0.071403 0.000000
# 6 0.000000 0.000000 0.000000 0.000000 0.000000 0.042104
#
#
# Mechanical properties :
#
#
# Convention : Reuss Voigt Hill
#
# Bulk Modulus (GPa) = 20.49983 26.60491 23.55237
# Shear Modulus (GPa) = 1.73940 25.91012 13.82476
#
# Velocity S-wave (km/s) = 0.78974 3.04805 2.22646
# Velocity P-wave (km/s) = 2.86046 4.68264 3.88004
#
# Compressibility (1/GPa) = 0.04878088
#
# Stress axis : x y z
#
# Youngs Moduli (GPa) = 74.57597 52.02765 104.47917
#
# Poissons Ratio (x) = -0.32252 0.24953
# Poissons Ratio (y) = -0.46230 0.05442
# Poissons Ratio (z) = 0.17811 0.02710
#
# Static dielectric constant tensor:
#      x y z
#    x 5.002420 0.000000 0.000000 
#    y 0.000000 4.754450 0.000000 
#    z 0.000000 0.000000 5.064520 
# 
# 
# High freq. dielectric constant tensor:
#      x y z
#    x 2.123890 0.000000 0.000000 
#    y 0.000000 2.122270 0.000000 
#    z 0.000000 0.000000 2.128530 
# 
# From -- ./inp_files/9373.got.cif
#   From: 2010.03.12/outbox.cif.g09.slc.cpg/sg41_5_cif.got.tgz:9373.got - 2010.04.14 01:55:53.
