data_PCOD8185970
_publ_section_title
;
Structure prediction by ZEFSAII (Michael W. Deem and Ramdas Pophale) SiO2 
 PCOD8185970
Probable space group: F M M 2
;
_chemical_formula_sum "Si O2"
_cell_formula_units_Z 96
_cell_length_a 9.161241
_cell_length_b 23.782401
_cell_length_c 25.130465
_cell_angle_alpha 90.000000
_cell_angle_beta 90.000000
_cell_angle_gamma 90.000000
_cell_volume 5475.332910
_symmetry_space_group_name_H-M "F M M 2"
_symmetry_group_IT_number 42
_symmetry_cell_setting 'orthorhombic'
loop_
_space_group_symop_operation_xyz
x,y,z
-x,-y,z
-x,y,z
x,-y,z
x,1/2+y,1/2+z
-x,1/2-y,1/2+z
-x,1/2+y,1/2+z
x,1/2-y,1/2+z
1/2+x,y,1/2+z
1/2-x,-y,1/2+z
1/2-x,y,1/2+z
1/2+x,-y,1/2+z
1/2+x,1/2+y,z
1/2-x,1/2-y,z
1/2-x,1/2+y,z
1/2+x,1/2-y,z
loop_
_atom_site_type_symbol
_atom_site_label
_atom_site_fract_x
_atom_site_fract_y
_atom_site_fract_z
Si Si1 0.172708 0.500000 0.763620
Si Si2 0.330435 0.308182 0.324066
Si Si3 0.829922 0.806354 0.516652
Si Si4 0.172993 0.381608 0.921576
Si Si5 0.325484 0.000000 0.883549
Si Si6 0.830264 0.381647 0.720504
Si Si7 0.171596 0.807493 0.638413
O O1 0.237143 0.500000 0.823410
O O2 0.223931 0.554945 0.731496
O O3 0.000000 0.500000 0.769466
O O4 0.500000 0.295257 0.331492
O O5 0.250000 0.250000 0.316347
O O6 0.266562 0.341007 0.375174
O O7 0.300108 0.345768 0.272826
O O8 0.750000 0.750000 0.498085
O O9 0.777864 0.857583 0.478950
O O10 0.791568 0.821880 0.577227
O O11 0.000000 0.794646 0.509301
O O12 0.234901 0.444760 0.914132
O O13 0.000000 0.383972 0.916334
O O14 0.500000 0.000000 0.882636
O O15 0.733415 0.358893 0.672266
O O16 0.000000 0.379613 0.704233
O O17 0.250000 0.750000 0.656187
O O18 0.000000 0.800237 0.648347
#
# Coordination Sequence:
#
# PCOD8185970 Si02
#       7
#     8  16  16  16   8  16  16
#     4   9  16  30  50  73  99 131 169 204 239 290
#     4  10  19  29  45  71  99 123 152 196 246 293
#     4   9  18  32  50  73  99 128 162 199 242 292
#     4   9  16  28  47  72  98 123 157 200 243 284
#     4   9  14  26  49  73  97 127 161 200 241 284
#     4  10  19  32  51  74  99 128 166 207 246 291
#     4  10  20  34  51  72 100 133 168 205 247 296
#
# _framework density 17.533182
#
# number of rings (size 3 to 8) (size 9 to 14) (size 15 to 20)
#    0.000    2.500    1.667    1.500    0.000    2.667 
#    0.000    1.250    0.000    2.000    0.000    2.333 
#    0.000    0.000    0.000    0.000    0.000    0.000 
#
# Total GULP energy -297589.291420 kJ/mol
# GULP energy per Si atom -12399.553809 kJ/mol
# Density = 1.749328 g / cm^3
# Si number density = 17.533182 Si / 1000 Ang^3
#
#
#
# Elastic Constant Matrix: (Units=GPa)
#
#
# Indices 1 2 3 4 5 6 
#
# 1 37.2945 46.0410 37.7776 0.0000 0.0000 0.0000
# 2 46.0410 170.5363 76.4245 0.0000 0.0000 0.0000
# 3 37.7776 76.4245 106.3859 0.0000 0.0000 0.0000
# 4 0.0000 0.0000 0.0000 25.5311 0.0000 0.0000
# 5 0.0000 0.0000 0.0000 0.0000 17.0898 0.0000
# 6 0.0000 0.0000 0.0000 0.0000 0.0000 20.2810
#
#
#
# Elastic Compliance Matrix: (Units=1/GPa)
#
#
# Indices 1 2 3 4 5 6 
#
# 1 0.048101 -0.007863 -0.011432 0.000000 0.000000 0.000000
# 2 -0.007863 0.009933 -0.004344 0.000000 0.000000 0.000000
# 3 -0.011432 -0.004344 0.016580 0.000000 0.000000 0.000000
# 4 0.000000 0.000000 0.000000 0.039168 0.000000 0.000000
# 5 0.000000 0.000000 0.000000 0.000000 0.058515 0.000000
# 6 0.000000 0.000000 0.000000 0.000000 0.000000 0.049307
#
#
# Mechanical properties :
#
#
# Convention : Reuss Voigt Hill
#
# Bulk Modulus (GPa) = 36.58137 70.52255 53.55196
# Shear Modulus (GPa) = 17.98611 22.84529 20.41570
#
# Velocity S-wave (km/s) = 3.20634 3.61359 3.41604
# Velocity P-wave (km/s) = 5.88361 7.59739 6.79475
#
# Compressibility (1/GPa) = 0.02733632
#
# Stress axis : x y z
#
# Youngs Moduli (GPa) = 20.78972 100.67214 60.31516
#
# Poissons Ratio (x) = 0.79158 0.68952
# Poissons Ratio (y) = 0.16347 0.26199
# Poissons Ratio (z) = 0.23767 0.43728
#
# Static dielectric constant tensor:
#      x y z
#    x 2.919930 0.000000 0.000000 
#    y 0.000000 3.548070 0.000000 
#    z 0.000000 0.000000 3.358480 
# 
# 
# High freq. dielectric constant tensor:
#      x y z
#    x 1.640140 0.000000 0.000000 
#    y 0.000000 1.682690 0.000000 
#    z 0.000000 0.000000 1.681470 
# 
# From -- ./inp_files/28065.got.cif
#   From: 2010.03.12/outbox.cif.g09.slc.cpg/sg42_15_cif.got.tgz:28065.got - 2010.04.14 02:04:31.
