data_PCOD8185656
_publ_section_title
;
Structure prediction by ZEFSAII (Michael W. Deem and Ramdas Pophale) SiO2 
 PCOD8185656
Probable space group: A B A 2
;
_chemical_formula_sum "Si O2"
_cell_formula_units_Z 44
_cell_length_a 16.511178
_cell_length_b 13.242072
_cell_length_c 8.614807
_cell_angle_alpha 90.000000
_cell_angle_beta 90.000000
_cell_angle_gamma 90.000000
_cell_volume 1883.560423
_symmetry_space_group_name_H-M "A B A 2"
_symmetry_group_IT_number 41
_symmetry_cell_setting 'orthorhombic'
loop_
_space_group_symop_operation_xyz
x,y,z
-x,-y,z
1/2-x,y,1/2+z
1/2+x,-y,1/2+z
x,1/2+y,1/2+z
-x,1/2-y,1/2+z
1/2-x,1/2+y,z
1/2+x,1/2-y,z
loop_
_atom_site_type_symbol
_atom_site_label
_atom_site_fract_x
_atom_site_fract_y
_atom_site_fract_z
Si Si1 0.914238 0.332449 0.890850
Si Si2 0.500000 0.000000 0.361257
Si Si3 0.167814 0.804602 0.481831
Si Si4 0.513054 0.310671 0.068295
Si Si5 0.633523 0.989877 0.121009
Si Si6 0.743044 0.809640 0.228391
O O1 0.982005 0.333720 0.752845
O O2 0.824590 0.327827 0.824396
O O3 0.921798 0.433419 0.993341
O O4 0.928389 0.238068 0.009870
O O5 0.468791 0.089188 0.471142
O O6 0.424730 0.964832 0.254697
O O7 0.077205 0.776134 0.527874
O O8 0.233200 0.731889 0.561787
O O9 0.185919 0.778229 0.302616
O O10 0.181442 0.920479 0.532785
O O11 0.697062 0.915258 0.204188
#
# Coordination Sequence:
#
# PCOD8185656 Si02
#       6
#     8   4   8   8   8   8
#     4  11  25  48  74 107 149 199 254 318 381 468
#     4  12  24  46  72 108 150 200 256 322 378 468
#     4  11  25  44  73 103 151 197 251 322 382 461
#     4  11  25  47  74 108 148 199 262 312 388 460
#     4  12  25  46  75 107 156 199 255 317 400 461
#     4  11  24  47  68 111 147 196 253 313 387 466
#
# _framework density 23.360016000000002
#
# number of rings (size 3 to 8) (size 9 to 14) (size 15 to 20)
#    0.000    0.727    3.636    4.364    2.545    2.182 
#    6.545    0.000    0.000    0.000    0.000    0.000 
#    0.000    0.000    0.000    0.000    0.000    0.000 
#
# Total GULP energy -272760.263642 kJ/mol
# GULP energy per Si atom -12398.193802 kJ/mol
# Density = 2.330685 g / cm^3
# Si number density = 23.360016 Si / 1000 Ang^3
#
#
#
# Elastic Constant Matrix: (Units=GPa)
#
#
# Indices 1 2 3 4 5 6 
#
# 1 69.1119 40.9521 42.2938 0.0000 0.0000 0.0000
# 2 40.9521 127.6547 45.7036 0.0000 0.0000 0.0000
# 3 42.2938 45.7036 128.7139 0.0000 0.0000 0.0000
# 4 0.0000 0.0000 0.0000 52.3973 0.0000 0.0000
# 5 0.0000 0.0000 0.0000 0.0000 36.8999 0.0000
# 6 0.0000 0.0000 0.0000 0.0000 0.0000 40.9424
#
#
#
# Elastic Compliance Matrix: (Units=1/GPa)
#
#
# Indices 1 2 3 4 5 6 
#
# 1 0.020334 -0.004733 -0.005001 0.000000 0.000000 0.000000
# 2 -0.004733 0.010076 -0.002023 0.000000 0.000000 0.000000
# 3 -0.005001 -0.002023 0.010131 0.000000 0.000000 0.000000
# 4 0.000000 0.000000 0.000000 0.019085 0.000000 0.000000
# 5 0.000000 0.000000 0.000000 0.000000 0.027100 0.000000
# 6 0.000000 0.000000 0.000000 0.000000 0.000000 0.024425
#
#
# Mechanical properties :
#
#
# Convention : Reuss Voigt Hill
#
# Bulk Modulus (GPa) = 58.72710 64.81994 61.77352
# Shear Modulus (GPa) = 35.62785 39.14999 37.38892
#
# Velocity S-wave (km/s) = 3.90957 4.09827 4.00503
# Velocity P-wave (km/s) = 6.75087 7.08540 6.92016
#
# Compressibility (1/GPa) = 0.01702791
#
# Stress axis : x y z
#
# Youngs Moduli (GPa) = 49.17840 99.24486 98.71034
#
# Poissons Ratio (x) = 0.46970 0.49365
# Poissons Ratio (y) = 0.23275 0.19966
# Poissons Ratio (z) = 0.24594 0.20074
#
# Static dielectric constant tensor:
#      x y z
#    x 4.036490 0.000000 0.000000 
#    y 0.000000 3.983460 0.000000 
#    z 0.000000 0.000000 4.588400 
# 
# 
# High freq. dielectric constant tensor:
#      x y z
#    x 1.921850 0.000000 0.000000 
#    y 0.000000 1.914570 0.000000 
#    z 0.000000 0.000000 1.944560 
# 
# From -- ./inp_files/3001.got.cif
#   From: 2010.03.12/outbox.cif.g09.slc.cpg/sg41_2_cif.got.tgz:3001.got - 2010.04.14 01:55:53.
