data_PCOD8185685
_publ_section_title
;
Structure prediction by ZEFSAII (Michael W. Deem and Ramdas Pophale) SiO2 
 PCOD8185685
Probable space group: A B A 2
;
_chemical_formula_sum "Si O2"
_cell_formula_units_Z 56
_cell_length_a 9.021978
_cell_length_b 20.151473
_cell_length_c 13.461615
_cell_angle_alpha 90.000000
_cell_angle_beta 90.000000
_cell_angle_gamma 90.000000
_cell_volume 2447.404343
_symmetry_space_group_name_H-M "A B A 2"
_symmetry_group_IT_number 41
_symmetry_cell_setting 'orthorhombic'
loop_
_space_group_symop_operation_xyz
x,y,z
-x,-y,z
1/2-x,y,1/2+z
1/2+x,-y,1/2+z
x,1/2+y,1/2+z
-x,1/2-y,1/2+z
1/2-x,1/2+y,z
1/2+x,1/2-y,z
loop_
_atom_site_type_symbol
_atom_site_label
_atom_site_fract_x
_atom_site_fract_y
_atom_site_fract_z
Si Si1 0.458980 0.190848 0.554940
Si Si2 0.821125 0.689783 0.314064
Si Si3 0.750891 0.572966 0.462136
Si Si4 0.000000 0.000000 0.368893
Si Si5 0.000000 0.500000 0.572527
Si Si6 0.212260 0.818697 0.591009
Si Si7 0.125951 0.096062 0.222482
Si Si8 0.154627 0.676668 0.349224
O O1 0.633317 0.193668 0.530424
O O2 0.409746 0.266630 0.558804
O O3 0.430733 0.160244 0.663547
O O4 0.373604 0.153530 0.464010
O O5 0.774324 0.624016 0.372321
O O6 0.750938 0.679761 0.205996
O O7 0.759166 0.758927 0.356405
O O8 0.997949 0.696649 0.301556
O O9 0.650761 0.510003 0.431428
O O10 0.912479 0.551408 0.502973
O O11 0.659836 0.609427 0.551060
O O12 0.015115 0.068336 0.306529
O O13 0.872913 0.463038 0.639623
O O14 0.277017 0.117625 0.279898
#
# Coordination Sequence:
#
# PCOD8185685 Si02
#       8
#     8   8   8   4   4   8   8   8
#     4  12  23  46  71 109 144 186 228 308 371 429
#     4  12  26  45  73 113 146 188 237 313 364 448
#     4  12  27  49  72 104 145 194 252 297 359 438
#     4  11  30  46  73 102 148 209 240 298 349 450
#     4  11  26  52  75  94 154 207 238 298 357 434
#     4  12  25  44  73 105 147 180 236 301 372 426
#     4  11  26  47  74 104 147 193 242 289 370 432
#     4  12  25  44  76 112 146 184 240 301 382 430
#
# _framework density 22.881385000000002
#
# number of rings (size 3 to 8) (size 9 to 14) (size 15 to 20)
#    0.000    0.286    5.714    1.714    8.000    2.286 
#    0.000    0.714    0.000    0.000    0.000    0.000 
#    0.000    0.000    0.000    0.000    0.000    0.000 
#
# Total GULP energy -346986.438239 kJ/mol
# GULP energy per Si atom -12392.372794 kJ/mol
# Density = 2.282931 g / cm^3
# Si number density = 22.881385 Si / 1000 Ang^3
#
#
#
# Elastic Constant Matrix: (Units=GPa)
#
#
# Indices 1 2 3 4 5 6 
#
# 1 118.4489 47.7595 45.5312 0.0000 0.0000 0.0000
# 2 47.7595 108.7457 42.7522 0.0000 0.0000 0.0000
# 3 45.5312 42.7522 118.9974 0.0000 0.0000 0.0000
# 4 0.0000 0.0000 0.0000 43.6101 0.0000 0.0000
# 5 0.0000 0.0000 0.0000 0.0000 34.3395 0.0000
# 6 0.0000 0.0000 0.0000 0.0000 0.0000 43.9468
#
#
#
# Elastic Compliance Matrix: (Units=1/GPa)
#
#
# Indices 1 2 3 4 5 6 
#
# 1 0.011054 -0.003717 -0.002894 0.000000 0.000000 0.000000
# 2 -0.003717 0.011958 -0.002874 0.000000 0.000000 0.000000
# 3 -0.002894 -0.002874 0.010543 0.000000 0.000000 0.000000
# 4 0.000000 0.000000 0.000000 0.022930 0.000000 0.000000
# 5 0.000000 0.000000 0.000000 0.000000 0.029121 0.000000
# 6 0.000000 0.000000 0.000000 0.000000 0.000000 0.022755
#
#
# Mechanical properties :
#
#
# Convention : Reuss Voigt Hill
#
# Bulk Modulus (GPa) = 68.56215 68.69753 68.62984
# Shear Modulus (GPa) = 37.82360 38.38924 38.10642
#
# Velocity S-wave (km/s) = 4.07016 4.10048 4.08535
# Velocity P-wave (km/s) = 7.21924 7.24618 7.23272
#
# Compressibility (1/GPa) = 0.01458531
#
# Stress axis : x y z
#
# Youngs Moduli (GPa) = 90.46868 83.62592 94.84599
#
# Poissons Ratio (x) = 0.31082 0.27449
# Poissons Ratio (y) = 0.33625 0.27259
# Poissons Ratio (z) = 0.26182 0.24034
#
# Static dielectric constant tensor:
#      x y z
#    x 3.954250 0.000000 0.000000 
#    y 0.000000 4.083100 0.000000 
#    z 0.000000 0.000000 4.460770 
# 
# 
# High freq. dielectric constant tensor:
#      x y z
#    x 1.886500 0.000000 0.000000 
#    y 0.000000 1.901940 0.000000 
#    z 0.000000 0.000000 1.925160 
# 
# From -- ./inp_files/7497.got.cif
#   From: 2010.03.12/outbox.cif.g09.slc.cpg/sg41_4_cif.got.tgz:7497.got - 2010.04.14 01:55:53.
