data_PCOD8185222
_publ_section_title
;
Structure prediction by ZEFSAII (Michael W. Deem and Ramdas Pophale) SiO2 
 PCOD8185222
Probable space group: A B A 2
;
_chemical_formula_sum "Si O2"
_cell_formula_units_Z 60
_cell_length_a 12.907830
_cell_length_b 18.849174
_cell_length_c 10.976550
_cell_angle_alpha 90.000000
_cell_angle_beta 90.000000
_cell_angle_gamma 90.000000
_cell_volume 2670.615840
_symmetry_space_group_name_H-M "A B A 2"
_symmetry_group_IT_number 41
_symmetry_cell_setting 'orthorhombic'
loop_
_space_group_symop_operation_xyz
x,y,z
-x,-y,z
1/2-x,y,1/2+z
1/2+x,-y,1/2+z
x,1/2+y,1/2+z
-x,1/2-y,1/2+z
1/2-x,1/2+y,z
1/2+x,1/2-y,z
loop_
_atom_site_type_symbol
_atom_site_label
_atom_site_fract_x
_atom_site_fract_y
_atom_site_fract_z
Si Si1 0.658458 0.413713 0.399670
Si Si2 0.011705 0.797144 0.067264
Si Si3 0.550697 0.146992 0.317038
Si Si4 0.779028 0.052725 0.891820
Si Si5 0.383909 0.162770 0.129504
Si Si6 0.167687 0.906663 0.152088
Si Si7 0.000000 0.500000 0.751500
Si Si8 0.174569 0.216020 0.233756
O O1 0.751961 0.469640 0.376208
O O2 0.648721 0.403033 0.544611
O O3 0.552127 0.442338 0.341162
O O4 0.683567 0.335708 0.349527
O O5 0.034821 0.713751 0.061411
O O6 0.111696 0.832465 0.130058
O O7 0.908680 0.816781 0.141010
O O8 0.991942 0.819536 0.930587
O O9 0.602762 0.072824 0.359309
O O10 0.454330 0.127206 0.232992
O O11 0.637952 0.203757 0.267614
O O12 0.718149 0.096683 0.786737
O O13 0.757112 0.077220 0.033629
O O14 0.287468 0.211323 0.172681
O O15 0.082561 0.968466 0.157706
#
# Coordination Sequence:
#
# PCOD8185222 Si02
#       8
#     8   8   8   8   8   8   4   8
#     4  11  24  43  65  99 136 182 231 283 350 419
#     4  10  21  42  70  97 135 176 227 282 353 418
#     4  10  23  45  67 103 135 181 231 287 351 421
#     4  10  24  42  66  95 137 179 231 278 352 421
#     4  11  25  41  68 103 136 178 231 295 344 412
#     4  10  21  42  66  96 129 179 228 282 343 420
#     4  10  22  42  64  94 132 188 224 278 346 416
#     4  11  23  43  69  97 135 174 230 290 351 405
#
# _framework density 22.466728
#
# number of rings (size 3 to 8) (size 9 to 14) (size 15 to 20)
#    0.000    1.600    2.667    0.800    5.600    2.133 
#    2.400    2.667    0.000    0.000    0.000    0.000 
#    0.000    0.000    0.000    0.000    0.000    0.000 
#
# Total GULP energy -371656.395867 kJ/mol
# GULP energy per Si atom -12388.546529 kJ/mol
# Density = 2.241559 g / cm^3
# Si number density = 22.466728 Si / 1000 Ang^3
#
#
#
# Elastic Constant Matrix: (Units=GPa)
#
#
# Indices 1 2 3 4 5 6 
#
# 1 85.6288 28.8077 52.1080 0.0000 0.0000 0.0000
# 2 28.8077 70.7157 35.6127 0.0000 0.0000 0.0000
# 3 52.1080 35.6127 149.6862 0.0000 0.0000 0.0000
# 4 0.0000 0.0000 0.0000 22.4568 0.0000 0.0000
# 5 0.0000 0.0000 0.0000 0.0000 38.1797 0.0000
# 6 0.0000 0.0000 0.0000 0.0000 0.0000 39.5141
#
#
#
# Elastic Compliance Matrix: (Units=1/GPa)
#
#
# Indices 1 2 3 4 5 6 
#
# 1 0.015832 -0.004174 -0.004518 0.000000 0.000000 0.000000
# 2 -0.004174 0.017167 -0.002631 0.000000 0.000000 0.000000
# 3 -0.004518 -0.002631 0.008880 0.000000 0.000000 0.000000
# 4 0.000000 0.000000 0.000000 0.044530 0.000000 0.000000
# 5 0.000000 0.000000 0.000000 0.000000 0.026192 0.000000
# 6 0.000000 0.000000 0.000000 0.000000 0.000000 0.025307
#
#
# Mechanical properties :
#
#
# Convention : Reuss Voigt Hill
#
# Bulk Modulus (GPa) = 51.99910 59.89862 55.94886
# Shear Modulus (GPa) = 29.94637 32.66361 31.30499
#
# Velocity S-wave (km/s) = 3.65488 3.81710 3.73687
# Velocity P-wave (km/s) = 6.40360 6.79308 6.60121
#
# Compressibility (1/GPa) = 0.01923110
#
# Stress axis : x y z
#
# Youngs Moduli (GPa) = 63.16257 58.25253 112.61877
#
# Poissons Ratio (x) = 0.24316 0.50885
# Poissons Ratio (y) = 0.26365 0.29631
# Poissons Ratio (z) = 0.28539 0.15327
#
# Static dielectric constant tensor:
#      x y z
#    x 3.994480 0.000000 0.000000 
#    y 0.000000 3.855720 0.000000 
#    z 0.000000 0.000000 4.190750 
# 
# 
# High freq. dielectric constant tensor:
#      x y z
#    x 1.875910 0.000000 0.000000 
#    y 0.000000 1.877730 0.000000 
#    z 0.000000 0.000000 1.895380 
# 
# From -- ./inp_files/5126.got.cif
#   From: 2010.03.12/outbox.cif.g09.slc.cpg/sg41_3_cif.got.tgz:5126.got - 2010.04.14 01:55:53.
