data_PCOD8185846
_publ_section_title
;
Structure prediction by ZEFSAII (Michael W. Deem and Ramdas Pophale) SiO2 
 PCOD8185846
Probable space group: F M M 2
;
_chemical_formula_sum "Si O2"
_cell_formula_units_Z 128
_cell_length_a 24.157383
_cell_length_b 16.623579
_cell_length_c 16.838703
_cell_angle_alpha 90.000000
_cell_angle_beta 90.000000
_cell_angle_gamma 90.000000
_cell_volume 6762.122802
_symmetry_space_group_name_H-M "F M M 2"
_symmetry_group_IT_number 42
_symmetry_cell_setting 'orthorhombic'
loop_
_space_group_symop_operation_xyz
x,y,z
-x,-y,z
-x,y,z
x,-y,z
x,1/2+y,1/2+z
-x,1/2-y,1/2+z
-x,1/2+y,1/2+z
x,1/2-y,1/2+z
1/2+x,y,1/2+z
1/2-x,-y,1/2+z
1/2-x,y,1/2+z
1/2+x,-y,1/2+z
1/2+x,1/2+y,z
1/2-x,1/2-y,z
1/2-x,1/2+y,z
1/2+x,1/2-y,z
loop_
_atom_site_type_symbol
_atom_site_label
_atom_site_fract_x
_atom_site_fract_y
_atom_site_fract_z
Si Si1 0.260677 0.657973 0.727420
Si Si2 0.352493 0.801942 0.121107
Si Si3 0.561610 0.144251 0.232633
Si Si4 0.347164 0.409282 0.848241
Si Si5 0.886746 0.285152 0.469114
Si Si6 0.561293 0.912422 0.577560
Si Si7 0.439487 0.694806 0.327971
Si Si8 0.140118 0.362453 0.709967
O O1 0.250000 0.750000 0.754473
O O2 0.294254 0.654168 0.642810
O O3 0.295447 0.613026 0.794186
O O4 0.203376 0.607511 0.719825
O O5 0.405769 0.856129 0.147313
O O6 0.354756 0.728632 0.181955
O O7 0.352848 0.772027 0.030173
O O8 0.500000 0.106752 0.220438
O O9 0.595873 0.093939 0.297949
O O10 0.555028 0.234131 0.264621
O O11 0.340267 0.500000 0.881283
O O12 0.346690 0.345053 0.920505
O O13 0.929978 0.341072 0.515555
O O14 0.920719 0.225776 0.413533
O O15 0.500000 0.899391 0.614704
O O16 0.607170 0.914641 0.646060
O O17 0.564397 0.000000 0.534922
O O18 0.500000 0.653504 0.337294
O O19 0.393575 0.633025 0.293419
#
# Coordination Sequence:
#
# PCOD8185846 Si02
#       8
#    16  16  16  16  16  16  16  16
#     4   9  17  34  52  70  94 127 174 214 244 283
#     4   8  16  28  46  69  94 123 159 201 239 282
#     4   8  15  28  45  65  93 130 167 197 229 281
#     4  10  20  32  48  73 104 135 165 202 254 313
#     4  10  18  30  47  71 103 130 151 187 249 306
#     4  10  20  32  46  67  96 127 156 188 233 292
#     4   9  16  27  45  70  96 120 151 194 242 289
#     4   9  17  31  49  67  88 120 164 205 239 274
#
# _framework density 18.928967
#
# number of rings (size 3 to 8) (size 9 to 14) (size 15 to 20)
#    0.000    2.875    0.000    3.375    0.000    4.750 
#    0.000    9.375    0.000    0.000    0.000    3.500 
#    0.000    0.000    0.000    0.000    0.000    0.000 
#
# Total GULP energy -396453.099518 kJ/mol
# GULP energy per Si atom -12389.159360 kJ/mol
# Density = 1.888588 g / cm^3
# Si number density = 18.928967 Si / 1000 Ang^3
#
#
#
# Elastic Constant Matrix: (Units=GPa)
#
#
# Indices 1 2 3 4 5 6 
#
# 1 163.4673 20.4845 64.6420 0.0000 0.0000 0.0000
# 2 20.4845 24.0427 26.9578 0.0000 0.0000 0.0000
# 3 64.6420 26.9578 115.8967 0.0000 0.0000 0.0000
# 4 0.0000 0.0000 0.0000 9.6333 0.0000 0.0000
# 5 0.0000 0.0000 0.0000 0.0000 18.7910 0.0000
# 6 0.0000 0.0000 0.0000 0.0000 0.0000 7.3227
#
#
#
# Elastic Compliance Matrix: (Units=1/GPa)
#
#
# Indices 1 2 3 4 5 6 
#
# 1 0.007953 -0.002438 -0.003869 0.000000 0.000000 0.000000
# 2 -0.002438 0.057015 -0.011902 0.000000 0.000000 0.000000
# 3 -0.003869 -0.011902 0.013554 0.000000 0.000000 0.000000
# 4 0.000000 0.000000 0.000000 0.103806 0.000000 0.000000
# 5 0.000000 0.000000 0.000000 0.000000 0.053217 0.000000
# 6 0.000000 0.000000 0.000000 0.000000 0.000000 0.136561
#
#
# Mechanical properties :
#
#
# Convention : Reuss Voigt Hill
#
# Bulk Modulus (GPa) = 23.75023 58.61947 41.18485
# Shear Modulus (GPa) = 11.83267 19.90425 15.86846
#
# Velocity S-wave (km/s) = 2.50293 3.24624 2.89851
# Velocity P-wave (km/s) = 4.57462 6.71462 5.74514
#
# Compressibility (1/GPa) = 0.04210485
#
# Stress axis : x y z
#
# Youngs Moduli (GPa) = 125.74249 17.53932 73.77638
#
# Poissons Ratio (x) = 0.04276 0.28541
# Poissons Ratio (y) = 0.30658 0.87807
# Poissons Ratio (z) = 0.48644 0.20875
#
# Static dielectric constant tensor:
#      x y z
#    x 3.996720 0.000000 0.000000 
#    y 0.000000 3.068830 0.000000 
#    z 0.000000 0.000000 3.273060 
# 
# 
# High freq. dielectric constant tensor:
#      x y z
#    x 1.748470 0.000000 0.000000 
#    y 0.000000 1.690280 0.000000 
#    z 0.000000 0.000000 1.711000 
# 
# From -- ./inp_files/22329.got.cif
#   From: 2010.03.12/outbox.cif.g09.slc.cpg/sg42_12_cif.got.tgz:22329.got - 2010.04.14 02:04:31.
