data_PCOD8185803
_publ_section_title
;
Structure prediction by ZEFSAII (Michael W. Deem and Ramdas Pophale) SiO2 
 PCOD8185803
Probable space group: F M M 2
;
_chemical_formula_sum "Si O2"
_cell_formula_units_Z 128
_cell_length_a 23.796853
_cell_length_b 17.955592
_cell_length_c 16.010350
_cell_angle_alpha 90.000000
_cell_angle_beta 90.000000
_cell_angle_gamma 90.000000
_cell_volume 6841.007750
_symmetry_space_group_name_H-M "F M M 2"
_symmetry_group_IT_number 42
_symmetry_cell_setting 'orthorhombic'
loop_
_space_group_symop_operation_xyz
x,y,z
-x,-y,z
-x,y,z
x,-y,z
x,1/2+y,1/2+z
-x,1/2-y,1/2+z
-x,1/2+y,1/2+z
x,1/2-y,1/2+z
1/2+x,y,1/2+z
1/2-x,-y,1/2+z
1/2-x,y,1/2+z
1/2+x,-y,1/2+z
1/2+x,1/2+y,z
1/2-x,1/2-y,z
1/2-x,1/2+y,z
1/2+x,1/2-y,z
loop_
_atom_site_type_symbol
_atom_site_label
_atom_site_fract_x
_atom_site_fract_y
_atom_site_fract_z
Si Si1 0.935914 0.809201 0.757800
Si Si2 0.937999 0.717267 0.927303
Si Si3 0.847140 0.414165 0.617887
Si Si4 0.269632 0.824756 0.732905
Si Si5 0.437112 0.704534 0.106345
Si Si6 0.663710 0.585481 0.786873
Si Si7 0.205744 0.860681 0.956415
Si Si8 0.818077 0.804770 0.410670
O O1 0.932178 0.773210 0.849580
O O2 0.914266 0.755718 0.682572
O O3 0.895403 0.880196 0.757606
O O4 0.000000 0.834851 0.739550
O O5 0.882549 0.664060 0.919087
O O6 0.000000 0.677173 0.921504
O O7 0.933480 0.756695 0.016510
O O8 0.858459 0.500000 0.638687
O O9 0.818358 0.373854 0.694901
O O10 0.905632 0.373766 0.600321
O O11 0.805926 0.404634 0.540346
O O12 0.250000 0.750000 0.682095
O O13 0.215744 0.876433 0.741258
O O14 0.297906 0.790932 0.816401
O O15 0.500000 0.682644 0.129376
O O16 0.661944 0.500000 0.760637
O O17 0.673224 0.593854 0.885503
O O18 0.184385 0.775149 0.957505
O O19 0.273904 0.863281 0.949318
#
# Coordination Sequence:
#
# PCOD8185803 Si02
#       8
#    16  16  16  16  16  16  16  16
#     4  10  20  35  55  82 112 144 190 234 270 330
#     4  10  18  32  54  81 109 135 180 232 274 322
#     4  12  24  35  52  84 117 141 180 229 286 341
#     4  11  21  36  56  76 106 145 187 233 273 329
#     4  10  21  36  56  79 110 151 189 227 274 330
#     4  11  20  35  55  78 112 147 182 225 287 345
#     4  10  20  33  53  79 111 146 181 225 278 344
#     4  10  17  35  55  80 101 144 192 226 274 322
#
# _framework density 18.710692999999999
#
# number of rings (size 3 to 8) (size 9 to 14) (size 15 to 20)
#    0.000    1.500    5.000    2.250    1.750    1.500 
#    0.000    0.000    0.000    3.750    0.000    3.500 
#    0.000   23.000    0.000    0.000    0.000    0.000 
#
# Total GULP energy -396545.862744 kJ/mol
# GULP energy per Si atom -12392.058211 kJ/mol
# Density = 1.866811 g / cm^3
# Si number density = 18.710693 Si / 1000 Ang^3
#
#
#
# Elastic Constant Matrix: (Units=GPa)
#
#
# Indices 1 2 3 4 5 6 
#
# 1 147.8257 41.4609 18.4435 0.0000 0.0000 0.0000
# 2 41.4609 88.4334 28.7901 0.0000 0.0000 0.0000
# 3 18.4435 28.7901 75.8222 0.0000 0.0000 0.0000
# 4 0.0000 0.0000 0.0000 13.2268 0.0000 0.0000
# 5 0.0000 0.0000 0.0000 0.0000 15.7807 0.0000
# 6 0.0000 0.0000 0.0000 0.0000 0.0000 20.5279
#
#
#
# Elastic Compliance Matrix: (Units=1/GPa)
#
#
# Indices 1 2 3 4 5 6 
#
# 1 0.007811 -0.003473 -0.000581 0.000000 0.000000 0.000000
# 2 -0.003473 0.014447 -0.004641 0.000000 0.000000 0.000000
# 3 -0.000581 -0.004641 0.015092 0.000000 0.000000 0.000000
# 4 0.000000 0.000000 0.000000 0.075604 0.000000 0.000000
# 5 0.000000 0.000000 0.000000 0.000000 0.063368 0.000000
# 6 0.000000 0.000000 0.000000 0.000000 0.000000 0.048714
#
#
# Mechanical properties :
#
#
# Convention : Reuss Voigt Hill
#
# Bulk Modulus (GPa) = 50.09934 54.38558 52.24246
# Shear Modulus (GPa) = 20.07378 24.79955 22.43666
#
# Velocity S-wave (km/s) = 3.27899 3.64458 3.46661
# Velocity P-wave (km/s) = 6.41636 6.84400 6.63363
#
# Compressibility (1/GPa) = 0.01996034
#
# Stress axis : x y z
#
# Youngs Moduli (GPa) = 128.01924 69.21828 66.25882
#
# Poissons Ratio (x) = 0.24039 0.03852
# Poissons Ratio (y) = 0.44461 0.30750
# Poissons Ratio (z) = 0.07443 0.32123
#
# Static dielectric constant tensor:
#      x y z
#    x 4.148650 0.000000 0.000000 
#    y 0.000000 3.052340 0.000000 
#    z 0.000000 0.000000 3.490990 
# 
# 
# High freq. dielectric constant tensor:
#      x y z
#    x 1.750050 0.000000 0.000000 
#    y 0.000000 1.677890 0.000000 
#    z 0.000000 0.000000 1.728860 
# 
# From -- ./inp_files/22338.got.cif
#   From: 2010.03.12/outbox.cif.g09.slc.cpg/sg42_12_cif.got.tgz:22338.got - 2010.04.14 02:04:31.
