data_PCOD8185729
_publ_section_title
;
Structure prediction by ZEFSAII (Michael W. Deem and Ramdas Pophale) SiO2 
 PCOD8185729
Probable space group: A B A 2
;
_chemical_formula_sum "Si O2"
_cell_formula_units_Z 52
_cell_length_a 8.643881
_cell_length_b 17.218519
_cell_length_c 15.030880
_cell_angle_alpha 90.000000
_cell_angle_beta 90.000000
_cell_angle_gamma 90.000000
_cell_volume 2237.118458
_symmetry_space_group_name_H-M "A B A 2"
_symmetry_group_IT_number 41
_symmetry_cell_setting 'orthorhombic'
loop_
_space_group_symop_operation_xyz
x,y,z
-x,-y,z
1/2-x,y,1/2+z
1/2+x,-y,1/2+z
x,1/2+y,1/2+z
-x,1/2-y,1/2+z
1/2-x,1/2+y,z
1/2+x,1/2-y,z
loop_
_atom_site_type_symbol
_atom_site_label
_atom_site_fract_x
_atom_site_fract_y
_atom_site_fract_z
Si Si1 0.346091 0.592721 0.072340
Si Si2 0.350659 0.789523 0.258705
Si Si3 0.032449 0.670066 0.080450
Si Si4 0.554769 0.678663 0.956157
Si Si5 0.000000 0.500000 0.867836
Si Si6 0.796952 0.557858 0.010427
Si Si7 0.007472 0.359074 0.739787
O O1 0.487030 0.605608 0.141494
O O2 0.209177 0.650150 0.100807
O O3 0.410944 0.621103 0.976663
O O4 0.299754 0.501527 0.072560
O O5 0.452512 0.809732 0.172864
O O6 0.429552 0.818892 0.349861
O O7 0.364237 0.696996 0.263799
O O8 0.175329 0.818055 0.246722
O O9 0.959938 0.588167 0.048854
O O10 0.025766 0.738695 0.005985
O O11 0.708792 0.638333 0.993484
O O12 0.840988 0.508161 0.923433
O O13 0.984523 0.424357 0.810812
#
# Coordination Sequence:
#
# PCOD8185729 Si02
#       7
#     8   8   8   8   4   8   8
#     4  12  27  46  77 112 157 204 252 322 393 462
#     4  12  28  48  78 116 153 206 267 318 390 469
#     4  12  26  50  76 111 158 201 260 322 384 466
#     4  12  27  47  78 110 153 205 261 320 383 470
#     4  12  26  52  78 112 156 202 262 326 394 460
#     4  12  26  51  76 114 153 205 258 321 391 464
#     4  12  28  49  78 113 158 205 257 328 392 464
#
# _framework density 23.244188000000001
#
# number of rings (size 3 to 8) (size 9 to 14) (size 15 to 20)
#    0.000    0.000    4.615    4.154    6.462    1.231 
#    0.000    1.538    0.000    0.000    0.000    0.000 
#    0.000    0.000    0.000    0.000    0.000    0.000 
#
# Total GULP energy -322267.317454 kJ/mol
# GULP energy per Si atom -12394.896825 kJ/mol
# Density = 2.319128 g / cm^3
# Si number density = 23.244188 Si / 1000 Ang^3
#
#
#
# Elastic Constant Matrix: (Units=GPa)
#
#
# Indices 1 2 3 4 5 6 
#
# 1 121.7781 71.4704 77.0751 0.0000 0.0000 0.0000
# 2 71.4704 147.0697 60.9649 0.0000 0.0000 0.0000
# 3 77.0751 60.9649 126.5554 0.0000 0.0000 0.0000
# 4 0.0000 0.0000 0.0000 42.2076 0.0000 0.0000
# 5 0.0000 0.0000 0.0000 0.0000 33.3130 0.0000
# 6 0.0000 0.0000 0.0000 0.0000 0.0000 39.1205
#
#
#
# Elastic Compliance Matrix: (Units=1/GPa)
#
#
# Indices 1 2 3 4 5 6 
#
# 1 0.015428 -0.004501 -0.007227 0.000000 0.000000 0.000000
# 2 -0.004501 0.009809 -0.001984 0.000000 0.000000 0.000000
# 3 -0.007227 -0.001984 0.013259 0.000000 0.000000 0.000000
# 4 0.000000 0.000000 0.000000 0.023692 0.000000 0.000000
# 5 0.000000 0.000000 0.000000 0.000000 0.030018 0.000000
# 6 0.000000 0.000000 0.000000 0.000000 0.000000 0.025562
#
#
# Mechanical properties :
#
#
# Convention : Reuss Voigt Hill
#
# Bulk Modulus (GPa) = 90.32869 90.49156 90.41012
# Shear Modulus (GPa) = 33.58296 35.32109 34.45203
#
# Velocity S-wave (km/s) = 3.80516 3.90239 3.85408
# Velocity P-wave (km/s) = 7.63222 7.70196 7.66717
#
# Compressibility (1/GPa) = 0.01107068
#
# Stress axis : x y z
#
# Youngs Moduli (GPa) = 64.81795 101.94287 75.41962
#
# Poissons Ratio (x) = 0.45888 0.54510
# Poissons Ratio (y) = 0.29177 0.14963
# Poissons Ratio (z) = 0.46847 0.20226
#
# Static dielectric constant tensor:
#      x y z
#    x 4.362720 0.000000 0.000000 
#    y 0.000000 4.453030 0.000000 
#    z 0.000000 0.000000 4.404080 
# 
# 
# High freq. dielectric constant tensor:
#      x y z
#    x 1.930760 0.000000 0.000000 
#    y 0.000000 1.937000 0.000000 
#    z 0.000000 0.000000 1.921880 
# 
# From -- ./inp_files/7425.got.cif
#   From: 2010.03.12/outbox.cif.g09.slc.cpg/sg41_4_cif.got.tgz:7425.got - 2010.04.14 01:55:53.
