data_PCOD8185292
_publ_section_title
;
Structure prediction by ZEFSAII (Michael W. Deem and Ramdas Pophale) SiO2 
 PCOD8185292
Probable space group: A B A 2
;
_chemical_formula_sum "Si O2"
_cell_formula_units_Z 32
_cell_length_a 20.871066
_cell_length_b 4.948096
_cell_length_c 12.003788
_cell_angle_alpha 90.000000
_cell_angle_beta 90.000000
_cell_angle_gamma 90.000000
_cell_volume 1239.655653
_symmetry_space_group_name_H-M "A B A 2"
_symmetry_group_IT_number 41
_symmetry_cell_setting 'orthorhombic'
loop_
_space_group_symop_operation_xyz
x,y,z
-x,-y,z
1/2-x,y,1/2+z
1/2+x,-y,1/2+z
x,1/2+y,1/2+z
-x,1/2-y,1/2+z
1/2-x,1/2+y,z
1/2+x,1/2-y,z
loop_
_atom_site_type_symbol
_atom_site_label
_atom_site_fract_x
_atom_site_fract_y
_atom_site_fract_z
Si Si1 0.500000 0.500000 0.102530
Si Si2 0.500000 0.000000 0.250571
Si Si3 0.603299 0.500000 0.926551
Si Si4 0.292892 0.800385 0.050026
Si Si5 0.292892 0.199614 0.803075
O O1 0.476608 0.750000 0.176551
O O2 0.558872 0.607556 0.027079
O O3 0.441128 0.107556 0.326022
O O4 0.647046 0.745351 0.882895
O O5 0.647046 0.254649 0.970206
O O6 0.231734 0.604311 0.026275
O O7 0.315237 0.750000 0.176551
O O8 0.231734 0.395688 0.826826
#
# Coordination Sequence:
#
# PCOD8185292 Si02
#       5
#     4   4   8   8   8
#     4  11  28  47  66  96 130 171 226 281 324 378
#     4  11  28  47  66  96 130 171 226 281 324 378
#     4  11  24  44  72  94 130 179 220 266 332 393
#     4  10  22  39  64 100 135 168 211 265 324 392
#     4  10  22  39  64 100 135 168 211 265 324 392
#
# _framework density 25.813618999999999
#
# number of rings (size 3 to 8) (size 9 to 14) (size 15 to 20)
#    0.000    1.500    0.000    3.000    0.000   18.000 
#    0.000    0.000    0.000    0.000    0.000    0.000 
#    0.000    0.000    0.000    0.000    0.000    0.000 
#
# Total GULP energy -198481.823246 kJ/mol
# GULP energy per Si atom -12405.113953 kJ/mol
# Density = 2.575487 g / cm^3
# Si number density = 25.813619 Si / 1000 Ang^3
#
#
#
# Elastic Constant Matrix: (Units=GPa)
#
#
# Indices 1 2 3 4 5 6 
#
# 1 148.4148 35.4081 88.9933 0.0000 0.0000 0.0000
# 2 35.4081 120.7284 40.1392 0.0000 0.0000 0.0000
# 3 88.9933 40.1392 148.9260 0.0000 0.0000 0.0000
# 4 0.0000 0.0000 0.0000 46.2843 0.0000 0.0000
# 5 0.0000 0.0000 0.0000 0.0000 -4.4543 0.0000
# 6 0.0000 0.0000 0.0000 0.0000 0.0000 24.1514
#
#
#
# Elastic Compliance Matrix: (Units=1/GPa)
#
#
# Indices 1 2 3 4 5 6 
#
# 1 0.010633 -0.001105 -0.006056 0.000000 0.000000 0.000000
# 2 -0.001105 0.009213 -0.001823 0.000000 0.000000 0.000000
# 3 -0.006056 -0.001823 0.010825 0.000000 0.000000 0.000000
# 4 0.000000 0.000000 0.000000 0.021606 0.000000 0.000000
# 5 0.000000 0.000000 0.000000 0.000000 -0.224503 0.000000
# 6 0.000000 0.000000 0.000000 0.000000 0.000000 0.041405
#
#
# Mechanical properties :
#
#
# Convention : Reuss Voigt Hill
#
# Bulk Modulus (GPa) = 78.72037 83.01674 80.86856
# Shear Modulus (GPa) = -46.03272 30.09819 -7.96727
#
# Velocity S-wave (km/s) = -4.22746 3.41835 -1.75874
# Velocity P-wave (km/s) = 2.59486 6.91448 5.22223
#
# Compressibility (1/GPa) = 0.01270319
#
# Stress axis : x y z
#
# Youngs Moduli (GPa) = 94.04826 108.53998 92.37940
#
# Poissons Ratio (x) = 0.11994 0.55945
# Poissons Ratio (y) = 0.10392 0.16840
# Poissons Ratio (z) = 0.56956 0.19785
#
# Static dielectric constant tensor:
#      x y z
#    x 4.553010 0.000000 0.000000 
#    y 0.000000 4.217440 0.000000 
#    z 0.000000 0.000000 5.472230 
# 
# 
# High freq. dielectric constant tensor:
#      x y z
#    x 2.029330 0.000000 0.000000 
#    y 0.000000 2.012260 0.000000 
#    z 0.000000 0.000000 2.079070 
# 
# From -- ./inp_files/399.got.cif
#   From: 2010.03.12/outbox.cif.g09.slc.cpg/sg41_1_cif.got.tgz:399.got - 2010.04.14 01:55:53.
