data_PCOD8185408
_publ_section_title
;
Structure prediction by ZEFSAII (Michael W. Deem and Ramdas Pophale) SiO2 
 PCOD8185408
Probable space group: A B A 2
;
_chemical_formula_sum "Si O2"
_cell_formula_units_Z 56
_cell_length_a 15.158862
_cell_length_b 8.414386
_cell_length_c 19.451053
_cell_angle_alpha 90.000000
_cell_angle_beta 90.000000
_cell_angle_gamma 90.000000
_cell_volume 2481.030753
_symmetry_space_group_name_H-M "A B A 2"
_symmetry_group_IT_number 41
_symmetry_cell_setting 'orthorhombic'
loop_
_space_group_symop_operation_xyz
x,y,z
-x,-y,z
1/2-x,y,1/2+z
1/2+x,-y,1/2+z
x,1/2+y,1/2+z
-x,1/2-y,1/2+z
1/2-x,1/2+y,z
1/2+x,1/2-y,z
loop_
_atom_site_type_symbol
_atom_site_label
_atom_site_fract_x
_atom_site_fract_y
_atom_site_fract_z
Si Si1 0.757459 0.455728 0.010760
Si Si2 0.680478 0.294777 0.815580
Si Si3 0.268315 0.968280 0.721892
Si Si4 0.501879 0.309174 0.345226
Si Si5 0.330283 0.298649 0.920161
Si Si6 0.169797 0.792466 0.600524
Si Si7 0.940804 0.853266 0.195425
O O1 0.703026 0.381795 0.074577
O O2 0.825514 0.593393 0.034383
O O3 0.693549 0.524877 0.949290
O O4 0.822021 0.320502 0.983504
O O5 0.668664 0.155173 0.760415
O O6 0.693288 0.461491 0.774427
O O7 0.590629 0.281101 0.860115
O O8 0.765388 0.259170 0.860856
O O9 0.230172 0.879270 0.656753
O O10 0.335573 0.109307 0.702803
O O11 0.500000 0.500000 0.360003
O O12 0.570533 0.214369 0.392435
O O13 0.524581 0.276856 0.265257
O O14 0.069595 0.772233 0.631821
O O15 0.000000 0.000000 0.170896
#
# Coordination Sequence:
#
# PCOD8185408 Si02
#       7
#     8   8   8   8   8   8   8
#     4  10  23  40  68  85 123 183 229 256 315 379
#     4  12  22  38  70 101 128 169 208 268 344 396
#     4  12  20  38  71  96 127 166 209 264 337 398
#     4  11  21  39  65  98 136 165 208 271 342 396
#     4  11  22  42  64  92 129 174 221 269 315 393
#     4  11  21  42  66  92 122 175 224 264 314 393
#     4  11  21  37  65  96 133 163 200 268 339 388
#
# _framework density 22.571263999999999
#
# number of rings (size 3 to 8) (size 9 to 14) (size 15 to 20)
#    0.000    0.857    7.143    1.714    0.000    0.000 
#    0.000   10.714    3.143    0.000    0.000    0.000 
#    0.000    0.000    0.000    0.000    0.000    0.000 
#
# Total GULP energy -346974.645052 kJ/mol
# GULP energy per Si atom -12391.951609 kJ/mol
# Density = 2.251989 g / cm^3
# Si number density = 22.571264 Si / 1000 Ang^3
#
#
#
# Elastic Constant Matrix: (Units=GPa)
#
#
# Indices 1 2 3 4 5 6 
#
# 1 99.9607 12.6151 15.2027 0.0000 0.0000 0.0000
# 2 12.6151 76.3742 12.8359 0.0000 0.0000 0.0000
# 3 15.2027 12.8359 62.9724 0.0000 0.0000 0.0000
# 4 0.0000 0.0000 0.0000 43.6166 0.0000 0.0000
# 5 0.0000 0.0000 0.0000 0.0000 32.7439 0.0000
# 6 0.0000 0.0000 0.0000 0.0000 0.0000 27.1370
#
#
#
# Elastic Compliance Matrix: (Units=1/GPa)
#
#
# Indices 1 2 3 4 5 6 
#
# 1 0.010519 -0.001357 -0.002263 0.000000 0.000000 0.000000
# 2 -0.001357 0.013733 -0.002472 0.000000 0.000000 0.000000
# 3 -0.002263 -0.002472 0.016930 0.000000 0.000000 0.000000
# 4 0.000000 0.000000 0.000000 0.022927 0.000000 0.000000
# 5 0.000000 0.000000 0.000000 0.000000 0.030540 0.000000
# 6 0.000000 0.000000 0.000000 0.000000 0.000000 0.036850
#
#
# Mechanical properties :
#
#
# Convention : Reuss Voigt Hill
#
# Bulk Modulus (GPa) = 34.48396 35.62385 35.05391
# Shear Modulus (GPa) = 32.60527 33.94307 33.27417
#
# Velocity S-wave (km/s) = 3.80484 3.88212 3.84367
# Velocity P-wave (km/s) = 5.88332 5.99262 5.93822
#
# Compressibility (1/GPa) = 0.02899899
#
# Stress axis : x y z
#
# Youngs Moduli (GPa) = 95.06274 72.81736 59.06647
#
# Poissons Ratio (x) = 0.09883 0.13366
# Poissons Ratio (y) = 0.12902 0.14599
# Poissons Ratio (z) = 0.21512 0.17997
#
# Static dielectric constant tensor:
#      x y z
#    x 3.908340 0.000000 0.000000 
#    y 0.000000 4.264690 0.000000 
#    z 0.000000 0.000000 4.274040 
# 
# 
# High freq. dielectric constant tensor:
#      x y z
#    x 1.860380 0.000000 0.000000 
#    y 0.000000 1.897040 0.000000 
#    z 0.000000 0.000000 1.897890 
# 
# From -- ./inp_files/11542.got.cif
#   From: 2010.03.12/outbox.cif.g09.slc.cpg/sg41_6_cif.got.tgz:11542.got - 2010.04.14 01:55:53.
