data_PCOD8185822
_publ_section_title
;
Structure prediction by ZEFSAII (Michael W. Deem and Ramdas Pophale) SiO2 
 PCOD8185822
Probable space group: F M M 2
;
_chemical_formula_sum "Si O2"
_cell_formula_units_Z 96
_cell_length_a 25.216671
_cell_length_b 8.717056
_cell_length_c 25.307926
_cell_angle_alpha 90.000000
_cell_angle_beta 90.000000
_cell_angle_gamma 90.000000
_cell_volume 5563.065126
_symmetry_space_group_name_H-M "F M M 2"
_symmetry_group_IT_number 42
_symmetry_cell_setting 'orthorhombic'
loop_
_space_group_symop_operation_xyz
x,y,z
-x,-y,z
-x,y,z
x,-y,z
x,1/2+y,1/2+z
-x,1/2-y,1/2+z
-x,1/2+y,1/2+z
x,1/2-y,1/2+z
1/2+x,y,1/2+z
1/2-x,-y,1/2+z
1/2-x,y,1/2+z
1/2+x,-y,1/2+z
1/2+x,1/2+y,z
1/2-x,1/2-y,z
1/2-x,1/2+y,z
1/2+x,1/2-y,z
loop_
_atom_site_type_symbol
_atom_site_label
_atom_site_fract_x
_atom_site_fract_y
_atom_site_fract_z
Si Si1 0.692035 0.318155 0.546570
Si Si2 0.000000 0.826048 0.741655
Si Si3 0.191334 0.182441 0.940039
Si Si4 0.615511 0.675655 0.753305
Si Si5 0.607409 0.320798 0.631362
Si Si6 0.692349 0.180117 0.833881
Si Si7 0.000000 0.323681 0.632377
O O1 0.696225 0.500000 0.540974
O O2 0.750000 0.250000 0.556181
O O3 0.664746 0.249095 0.493323
O O4 0.656568 0.265292 0.595964
O O5 0.054545 0.804308 0.774659
O O6 0.000000 0.703841 0.694976
O O7 0.000000 0.000000 0.717308
O O8 0.250000 0.250000 0.938795
O O9 0.164780 0.243864 0.885902
O O10 0.190935 0.000000 0.941162
O O11 0.634388 0.500000 0.760593
O O12 0.618262 0.726103 0.692002
O O13 0.653988 0.787544 0.784834
O O14 0.599539 0.500000 0.626588
O O15 0.553648 0.247226 0.608163
O O16 0.750000 0.250000 0.821798
O O17 0.698654 0.000000 0.842583
O O18 0.000000 0.500000 0.618457
#
# Coordination Sequence:
#
# PCOD8185822 Si02
#       7
#    16   8  16  16  16  16   8
#     4  10  19  32  50  73  99 129 161 197 239 286
#     4   8  16  32  52  69  94 129 162 194 236 288
#     4  10  18  31  50  70  93 124 161 201 238 282
#     4   9  17  32  51  73  98 128 162 196 237 286
#     4   9  19  34  51  70  99 134 163 193 239 291
#     4  11  21  33  49  71  98 129 162 200 241 285
#     4  10  18  28  48  73  96 123 164 208 238 272
#
# _framework density 17.256672999999999
#
# number of rings (size 3 to 8) (size 9 to 14) (size 15 to 20)
#    0.000    2.333    0.000    7.250    0.000    4.667 
#    0.000    1.667    0.000    1.000    0.000    4.667 
#    0.000    0.000    0.000    0.000    0.000    0.000 
#
# Total GULP energy -297462.641457 kJ/mol
# GULP energy per Si atom -12394.276727 kJ/mol
# Density = 1.721740 g / cm^3
# Si number density = 17.256673 Si / 1000 Ang^3
#
#
#
# Elastic Constant Matrix: (Units=GPa)
#
#
# Indices 1 2 3 4 5 6 
#
# 1 101.5770 42.7295 60.8620 0.0000 0.0000 -0.0001
# 2 42.7295 96.9761 44.0127 0.0000 0.0000 -0.0002
# 3 60.8620 44.0127 99.2753 0.0000 0.0000 0.0000
# 4 0.0000 0.0000 0.0000 24.2413 0.0000 0.0000
# 5 0.0000 0.0000 0.0000 0.0000 2.6946 0.0000
# 6 -0.0001 -0.0002 0.0000 0.0000 0.0000 22.9867
#
#
#
# Elastic Compliance Matrix: (Units=1/GPa)
#
#
# Indices 1 2 3 4 5 6 
#
# 1 0.016376 -0.003329 -0.008564 0.000000 0.000000 0.000000
# 2 -0.003329 0.013586 -0.003982 0.000000 0.000000 0.000000
# 3 -0.008564 -0.003982 0.017089 0.000000 0.000000 0.000000
# 4 0.000000 0.000000 0.000000 0.041252 0.000000 0.000000
# 5 0.000000 0.000000 0.000000 0.000000 0.371116 0.000000
# 6 0.000000 0.000000 0.000000 0.000000 0.000000 0.043503
#
#
# Mechanical properties :
#
#
# Convention : Reuss Voigt Hill
#
# Bulk Modulus (GPa) = 65.35656 65.89301 65.62478
# Shear Modulus (GPa) = 9.26314 19.99945 14.63130
#
# Velocity S-wave (km/s) = 2.31938 3.40801 2.91497
# Velocity P-wave (km/s) = 6.71775 7.33165 7.03140
#
# Compressibility (1/GPa) = 0.01530068
#
# Stress axis : x y z
#
# Youngs Moduli (GPa) = 61.06359 73.60502 58.51820
#
# Poissons Ratio (x) = 0.24503 0.50114
# Poissons Ratio (y) = 0.20328 0.23304
# Poissons Ratio (z) = 0.52294 0.29312
#
# Static dielectric constant tensor:
#      x y z
#    x 3.251380 0.000000 0.000000 
#    y 0.000000 3.187130 0.000000 
#    z 0.000000 0.000000 3.629610 
# 
# 
# High freq. dielectric constant tensor:
#      x y z
#    x 1.648870 0.000000 0.000000 
#    y 0.000000 1.674140 0.000000 
#    z 0.000000 0.000000 1.651450 
# 
# From -- ./inp_files/33184.got.cif
#   From: 2010.03.12/outbox.cif.g09.slc.cpg/sg42_17_cif.got.tgz:33184.got - 2010.04.14 02:04:31.
