data_PCOD8185613
_publ_section_title
;
Structure prediction by ZEFSAII (Michael W. Deem and Ramdas Pophale) SiO2 
 PCOD8185613
Probable space group: A B A 2
;
_chemical_formula_sum "Si O2"
_cell_formula_units_Z 48
_cell_length_a 11.164506
_cell_length_b 14.537455
_cell_length_c 13.357365
_cell_angle_alpha 90.000000
_cell_angle_beta 90.000000
_cell_angle_gamma 90.000000
_cell_volume 2167.947138
_symmetry_space_group_name_H-M "A B A 2"
_symmetry_group_IT_number 41
_symmetry_cell_setting 'orthorhombic'
loop_
_space_group_symop_operation_xyz
x,y,z
-x,-y,z
1/2-x,y,1/2+z
1/2+x,-y,1/2+z
x,1/2+y,1/2+z
-x,1/2-y,1/2+z
1/2-x,1/2+y,z
1/2+x,1/2-y,z
loop_
_atom_site_type_symbol
_atom_site_label
_atom_site_fract_x
_atom_site_fract_y
_atom_site_fract_z
Si Si1 0.500000 0.500000 0.529891
Si Si2 0.434251 0.175758 0.144254
Si Si3 0.587342 0.831885 0.611012
Si Si4 0.232466 0.241118 0.465272
Si Si5 0.750901 0.543954 0.423382
Si Si6 0.249230 0.610565 0.784454
Si Si7 0.000000 0.000000 0.020661
O O1 0.497874 0.587832 0.599615
O O2 0.625289 0.508417 0.470059
O O3 0.533259 0.249776 0.176733
O O4 0.378080 0.149484 0.251406
O O5 0.356444 0.227953 0.058816
O O6 0.638465 0.789150 0.507363
O O7 0.682001 0.884354 0.679066
O O8 0.487144 0.907173 0.584461
O O9 0.236945 0.346098 0.424495
O O10 0.196129 0.174335 0.373339
O O11 0.748007 0.497993 0.312653
O O12 0.871333 0.494218 0.464961
#
# Coordination Sequence:
#
# PCOD8185613 Si02
#       7
#     4   8   8   8   8   8   4
#     4  12  24  46  76 102 144 194 246 298 368 436
#     4  11  24  44  72 103 144 191 245 302 368 436
#     4  11  24  44  72 103 144 191 245 302 368 436
#     4  11  23  47  70 100 142 199 243 293 369 443
#     4  12  25  44  77 103 146 194 241 304 364 431
#     4  11  26  43  67 113 144 177 252 311 357 434
#     4  12  24  46  76 102 144 194 246 298 368 436
#
# _framework density 22.140761000000001
#
# number of rings (size 3 to 8) (size 9 to 14) (size 15 to 20)
#    0.000    0.667    6.667    1.000    0.000    8.000 
#    0.000    0.000    0.000    0.000    0.000    0.000 
#    0.000    0.000    0.000    0.000    0.000    0.000 
#
# Total GULP energy -297314.312774 kJ/mol
# GULP energy per Si atom -12388.096366 kJ/mol
# Density = 2.209037 g / cm^3
# Si number density = 22.140761 Si / 1000 Ang^3
#
#
#
# Elastic Constant Matrix: (Units=GPa)
#
#
# Indices 1 2 3 4 5 6 
#
# 1 98.7953 29.8853 11.3422 0.0000 0.0000 0.0000
# 2 29.8853 185.8957 47.8169 0.0000 0.0000 0.0000
# 3 11.3422 47.8169 86.1789 0.0000 0.0000 0.0000
# 4 0.0000 0.0000 0.0000 38.2421 0.0000 0.0000
# 5 0.0000 0.0000 0.0000 0.0000 20.3572 0.0000
# 6 0.0000 0.0000 0.0000 0.0000 0.0000 37.1355
#
#
#
# Elastic Compliance Matrix: (Units=1/GPa)
#
#
# Indices 1 2 3 4 5 6 
#
# 1 0.010660 -0.001578 -0.000527 0.000000 0.000000 0.000000
# 2 -0.001578 0.006509 -0.003404 0.000000 0.000000 0.000000
# 3 -0.000527 -0.003404 0.013562 0.000000 0.000000 0.000000
# 4 0.000000 0.000000 0.000000 0.026149 0.000000 0.000000
# 5 0.000000 0.000000 0.000000 0.000000 0.049123 0.000000
# 6 0.000000 0.000000 0.000000 0.000000 0.000000 0.026928
#
#
# Mechanical properties :
#
#
# Convention : Reuss Voigt Hill
#
# Bulk Modulus (GPa) = 50.73056 60.99541 55.86298
# Shear Modulus (GPa) = 33.21836 37.93533 35.57685
#
# Velocity S-wave (km/s) = 3.87761 4.14378 4.01290
# Velocity P-wave (km/s) = 6.55822 7.10656 6.83789
#
# Compressibility (1/GPa) = 0.01971199
#
# Stress axis : x y z
#
# Youngs Moduli (GPa) = 93.81002 153.64404 73.73713
#
# Poissons Ratio (x) = 0.24246 0.03889
# Poissons Ratio (y) = 0.14804 0.25097
# Poissons Ratio (z) = 0.04947 0.52295
#
# Static dielectric constant tensor:
#      x y z
#    x 4.144030 0.000000 0.000000 
#    y 0.000000 4.259770 0.000000 
#    z 0.000000 0.000000 3.730420 
# 
# 
# High freq. dielectric constant tensor:
#      x y z
#    x 1.873610 0.000000 0.000000 
#    y 0.000000 1.895310 0.000000 
#    z 0.000000 0.000000 1.853410 
# 
# From -- ./inp_files/5013.got.cif
#   From: 2010.03.12/outbox.cif.g09.slc.cpg/sg41_3_cif.got.tgz:5013.got - 2010.04.14 01:55:53.
