data_PCOD8185554
_publ_section_title
;
Structure prediction by ZEFSAII (Michael W. Deem and Ramdas Pophale) SiO2 
 PCOD8185554
Probable space group: A B A 2
;
_chemical_formula_sum "Si O2"
_cell_formula_units_Z 48
_cell_length_a 17.795619
_cell_length_b 9.364122
_cell_length_c 13.156376
_cell_angle_alpha 90.000000
_cell_angle_beta 90.000000
_cell_angle_gamma 90.000000
_cell_volume 2192.383067
_symmetry_space_group_name_H-M "A B A 2"
_symmetry_group_IT_number 41
_symmetry_cell_setting 'orthorhombic'
loop_
_space_group_symop_operation_xyz
x,y,z
-x,-y,z
1/2-x,y,1/2+z
1/2+x,-y,1/2+z
x,1/2+y,1/2+z
-x,1/2-y,1/2+z
1/2-x,1/2+y,z
1/2+x,1/2-y,z
loop_
_atom_site_type_symbol
_atom_site_label
_atom_site_fract_x
_atom_site_fract_y
_atom_site_fract_z
Si Si1 0.944693 0.123186 0.256600
Si Si2 0.175982 0.834104 0.762015
Si Si3 0.623855 0.559417 0.559457
Si Si4 0.526850 0.651821 0.867967
Si Si5 0.805406 0.985533 0.340959
Si Si6 0.469105 0.708365 0.565241
O O1 0.859578 0.070750 0.264189
O O2 0.966603 0.159308 0.141669
O O3 0.955098 0.263866 0.324694
O O4 0.000000 0.000000 0.298570
O O5 0.182451 0.867989 0.640105
O O6 0.087666 0.861247 0.778848
O O7 0.223189 0.947689 0.827155
O O8 0.198839 0.676875 0.800655
O O9 0.667595 0.512111 0.456919
O O10 0.555409 0.668046 0.538190
O O11 0.583804 0.418519 0.606589
O O12 0.500000 0.500000 0.907857
O O13 0.566141 0.736360 0.959829
#
# Coordination Sequence:
#
# PCOD8185554 Si02
#       6
#     8   8   8   8   8   8
#     4  12  22  44  72 102 137 187 246 301 353 430
#     4  12  28  46  71 107 147 191 243 300 371 440
#     4  11  23  46  73 104 143 189 239 298 371 433
#     4  12  24  42  72 110 140 183 251 301 359 431
#     4  12  28  47  72 102 150 193 237 303 369 437
#     4  11  22  40  76 107 138 187 240 307 362 428
#
# _framework density 21.893984
#
# number of rings (size 3 to 8) (size 9 to 14) (size 15 to 20)
#    0.000    0.333    6.667    1.500    4.667    2.667 
#    0.000    0.000    0.000    0.000    0.000    0.000 
#    0.000    0.000    0.000    0.000    0.000    0.000 
#
# Total GULP energy -297537.919780 kJ/mol
# GULP energy per Si atom -12397.413324 kJ/mol
# Density = 2.184415 g / cm^3
# Si number density = 21.893984 Si / 1000 Ang^3
#
#
#
# Elastic Constant Matrix: (Units=GPa)
#
#
# Indices 1 2 3 4 5 6 
#
# 1 57.2600 36.0735 16.8922 0.0000 0.0000 0.0000
# 2 36.0735 126.9340 51.8569 0.0000 0.0000 0.0000
# 3 16.8922 51.8569 134.0539 0.0000 0.0000 0.0000
# 4 0.0000 0.0000 0.0000 42.6021 0.0000 0.0000
# 5 0.0000 0.0000 0.0000 0.0000 30.1651 0.0000
# 6 0.0000 0.0000 0.0000 0.0000 0.0000 33.6802
#
#
#
# Elastic Compliance Matrix: (Units=1/GPa)
#
#
# Indices 1 2 3 4 5 6 
#
# 1 0.021291 -0.005885 -0.000407 0.000000 0.000000 0.000000
# 2 -0.005885 0.010983 -0.003507 0.000000 0.000000 0.000000
# 3 -0.000407 -0.003507 0.008868 0.000000 0.000000 0.000000
# 4 0.000000 0.000000 0.000000 0.023473 0.000000 0.000000
# 5 0.000000 0.000000 0.000000 0.000000 0.033151 0.000000
# 6 0.000000 0.000000 0.000000 0.000000 0.000000 0.029691
#
#
# Mechanical properties :
#
#
# Convention : Reuss Voigt Hill
#
# Bulk Modulus (GPa) = 46.41350 58.65480 52.53415
# Shear Modulus (GPa) = 32.41782 35.51783 33.96782
#
# Velocity S-wave (km/s) = 3.85213 4.03210 3.94314
# Velocity P-wave (km/s) = 6.40550 6.96604 6.69164
#
# Compressibility (1/GPa) = 0.02154546
#
# Stress axis : x y z
#
# Youngs Moduli (GPa) = 46.96714 91.04711 112.76977
#
# Poissons Ratio (x) = 0.53579 0.04584
# Poissons Ratio (y) = 0.27639 0.39551
# Poissons Ratio (z) = 0.01909 0.31932
#
# Static dielectric constant tensor:
#      x y z
#    x 3.739060 0.000000 0.000000 
#    y 0.000000 4.072250 0.000000 
#    z 0.000000 0.000000 3.962820 
# 
# 
# High freq. dielectric constant tensor:
#      x y z
#    x 1.838430 0.000000 0.000000 
#    y 0.000000 1.873870 0.000000 
#    z 0.000000 0.000000 1.869380 
# 
# From -- ./inp_files/8700.got.cif
#   From: 2010.03.12/outbox.cif.g09.slc.cpg/sg41_5_cif.got.tgz:8700.got - 2010.04.14 01:55:53.
