data_PCOD8185271
_publ_section_title
;
Structure prediction by ZEFSAII (Michael W. Deem and Ramdas Pophale) SiO2 
 PCOD8185271
Probable space group: A B A 2
;
_chemical_formula_sum "Si O2"
_cell_formula_units_Z 56
_cell_length_a 13.061123
_cell_length_b 22.544825
_cell_length_c 9.236973
_cell_angle_alpha 90.000000
_cell_angle_beta 90.000000
_cell_angle_gamma 90.000000
_cell_volume 2719.925834
_symmetry_space_group_name_H-M "A B A 2"
_symmetry_group_IT_number 41
_symmetry_cell_setting 'orthorhombic'
loop_
_space_group_symop_operation_xyz
x,y,z
-x,-y,z
1/2-x,y,1/2+z
1/2+x,-y,1/2+z
x,1/2+y,1/2+z
-x,1/2-y,1/2+z
1/2-x,1/2+y,z
1/2+x,1/2-y,z
loop_
_atom_site_type_symbol
_atom_site_label
_atom_site_fract_x
_atom_site_fract_y
_atom_site_fract_z
Si Si1 0.000000 0.000000 0.130540
Si Si2 0.000000 0.500000 0.128237
Si Si3 0.011817 0.812475 0.052923
Si Si4 0.848323 0.906032 0.721156
Si Si5 0.488182 0.312475 0.705855
Si Si6 0.348322 0.593967 0.037619
Si Si7 0.649831 0.097830 0.043791
Si Si8 0.350170 0.402170 0.214988
O O1 0.067936 0.955598 0.227372
O O2 0.925036 0.961647 0.030327
O O3 0.074962 0.538354 0.228451
O O4 0.067938 0.455599 0.031406
O O5 0.908422 0.848052 0.092804
O O6 0.999997 0.750000 0.129390
O O7 0.107669 0.846138 0.124521
O O8 0.027950 0.807259 0.879390
O O9 0.908423 0.848051 0.665973
O O10 0.750001 0.921355 0.629387
O O11 0.805246 0.893672 0.879388
O O12 0.392330 0.346139 0.634260
O O13 0.750001 0.075182 0.129389
O O14 0.676653 0.117171 0.879389
#
# Coordination Sequence:
#
# PCOD8185271 Si02
#       8
#     4   4   8   8   8   8   8   8
#     4  10  22  38  60  86 118 154 196 242 288 344
#     4  10  22  38  60  86 118 154 196 242 288 344
#     4  10  22  41  62  86 117 154 195 243 293 346
#     4  10  22  38  59  86 117 152 191 236 289 345
#     4  10  22  41  62  86 117 154 195 243 293 346
#     4  10  22  38  59  86 117 152 191 236 289 345
#     4  11  23  39  60  88 119 155 197 242 293 350
#     4  11  23  39  60  88 119 155 197 242 293 350
#
# _framework density 20.588797
#
# number of rings (size 3 to 8) (size 9 to 14) (size 15 to 20)
#    0.000    1.714    0.000    3.429    0.000   13.714 
#    0.000    2.857    0.000    0.000    0.000    0.000 
#    0.000    0.000    0.000    0.000    0.000    0.000 
#
# Total GULP energy -347135.244299 kJ/mol
# GULP energy per Si atom -12397.687296 kJ/mol
# Density = 2.054194 g / cm^3
# Si number density = 20.588797 Si / 1000 Ang^3
#
#
#
# Elastic Constant Matrix: (Units=GPa)
#
#
# Indices 1 2 3 4 5 6 
#
# 1 132.1803 53.4222 59.4078 0.0000 0.0000 0.0000
# 2 53.4222 141.8173 46.3806 0.0000 0.0000 0.0000
# 3 59.4078 46.3806 130.5928 0.0000 0.0000 0.0000
# 4 0.0000 0.0000 0.0000 23.2185 0.0000 0.0000
# 5 0.0000 0.0000 0.0000 0.0000 28.9658 0.0000
# 6 0.0000 0.0000 0.0000 0.0000 0.0000 17.7418
#
#
#
# Elastic Compliance Matrix: (Units=1/GPa)
#
#
# Indices 1 2 3 4 5 6 
#
# 1 0.010328 -0.002663 -0.003753 0.000000 0.000000 0.000000
# 2 -0.002663 0.008665 -0.001866 0.000000 0.000000 0.000000
# 3 -0.003753 -0.001866 0.010027 0.000000 0.000000 0.000000
# 4 0.000000 0.000000 0.000000 0.043069 0.000000 0.000000
# 5 0.000000 0.000000 0.000000 0.000000 0.034523 0.000000
# 6 0.000000 0.000000 0.000000 0.000000 0.000000 0.056364
#
#
# Mechanical properties :
#
#
# Convention : Reuss Voigt Hill
#
# Bulk Modulus (GPa) = 80.27688 80.33460 80.30574
# Shear Modulus (GPa) = 27.21938 30.34389 28.78164
#
# Velocity S-wave (km/s) = 3.63994 3.84318 3.74294
# Velocity P-wave (km/s) = 7.53265 7.66790 7.60058
#
# Compressibility (1/GPa) = 0.01245689
#
# Stress axis : x y z
#
# Youngs Moduli (GPa) = 96.81984 115.40931 99.72988
#
# Poissons Ratio (x) = 0.30739 0.37424
# Poissons Ratio (y) = 0.25787 0.18607
# Poissons Ratio (z) = 0.36332 0.21532
#
# Static dielectric constant tensor:
#      x y z
#    x 3.784250 0.000000 0.000000 
#    y 0.000000 3.720740 0.000000 
#    z 0.000000 0.000000 3.631840 
# 
# 
# High freq. dielectric constant tensor:
#      x y z
#    x 1.807980 0.000000 0.000000 
#    y 0.000000 1.805440 0.000000 
#    z 0.000000 0.000000 1.808910 
# 
# From -- ./inp_files/2714.got.cif
#   From: 2010.03.12/outbox.cif.g09.slc.cpg/sg41_2_cif.got.tgz:2714.got - 2010.04.14 01:55:53.
