data_PCOD8185444
_publ_section_title
;
Structure prediction by ZEFSAII (Michael W. Deem and Ramdas Pophale) SiO2 
 PCOD8185444
Probable space group: A B A 2
;
_chemical_formula_sum "Si O2"
_cell_formula_units_Z 60
_cell_length_a 25.944657
_cell_length_b 8.396256
_cell_length_c 12.147418
_cell_angle_alpha 90.000000
_cell_angle_beta 90.000000
_cell_angle_gamma 90.000000
_cell_volume 2646.169024
_symmetry_space_group_name_H-M "A B A 2"
_symmetry_group_IT_number 41
_symmetry_cell_setting 'orthorhombic'
loop_
_space_group_symop_operation_xyz
x,y,z
-x,-y,z
1/2-x,y,1/2+z
1/2+x,-y,1/2+z
x,1/2+y,1/2+z
-x,1/2-y,1/2+z
1/2-x,1/2+y,z
1/2+x,1/2-y,z
loop_
_atom_site_type_symbol
_atom_site_label
_atom_site_fract_x
_atom_site_fract_y
_atom_site_fract_z
Si Si1 0.164918 0.994954 0.291460
Si Si2 0.852288 0.939198 0.918514
Si Si3 0.327785 0.815910 0.575818
Si Si4 0.000000 0.500000 0.943784
Si Si5 0.841064 0.643246 0.211651
Si Si6 0.216976 0.339102 0.992588
Si Si7 0.414160 0.077801 0.116847
Si Si8 0.069148 0.285292 0.818398
O O1 0.162595 0.178362 0.257030
O O2 0.188295 0.882241 0.195661
O O3 0.199799 0.969229 0.400667
O O4 0.106315 0.938200 0.308712
O O5 0.806720 0.830265 0.963247
O O6 0.904412 0.841417 0.899400
O O7 0.829369 0.019328 0.808830
O O8 0.866926 0.063268 0.014309
O O9 0.278099 0.808738 0.496427
O O10 0.358447 0.650106 0.581474
O O11 0.984329 0.651087 0.868520
O O12 0.951585 0.444920 0.015219
O O13 0.898844 0.596000 0.167112
O O14 0.800330 0.610966 0.114883
O O15 0.441804 0.197265 0.202751
#
# Coordination Sequence:
#
# PCOD8185444 Si02
#       8
#     8   8   8   4   8   8   8   8
#     4  10  23  47  72 100 143 191 228 292 352 415
#     4  10  23  45  68 102 143 184 232 286 343 421
#     4  11  25  45  70 100 146 190 236 285 351 417
#     4  12  24  46  80  98 136 182 234 306 362 416
#     4  11  24  44  74 102 144 188 230 290 350 413
#     4  11  25  45  67 103 144 188 243 276 337 424
#     4  10  25  47  69 105 140 180 237 295 355 431
#     4   9  23  48  69 102 138 171 236 288 354 430
#
# _framework density 22.674289000000002
#
# number of rings (size 3 to 8) (size 9 to 14) (size 15 to 20)
#    0.000    1.600    1.333    2.400    7.467    1.067 
#    9.600    0.000    0.000    0.000    0.000    0.000 
#    0.000    0.000    0.000    0.000    0.000    0.000 
#
# Total GULP energy -371906.521045 kJ/mol
# GULP energy per Si atom -12396.884035 kJ/mol
# Density = 2.262268 g / cm^3
# Si number density = 22.674289 Si / 1000 Ang^3
#
#
#
# Elastic Constant Matrix: (Units=GPa)
#
#
# Indices 1 2 3 4 5 6 
#
# 1 53.1803 22.7903 26.5462 0.0000 0.0000 0.0000
# 2 22.7903 93.5051 24.6011 0.0000 0.0000 0.0000
# 3 26.5462 24.6011 109.2970 0.0000 0.0000 0.0000
# 4 0.0000 0.0000 0.0000 36.5378 0.0000 0.0000
# 5 0.0000 0.0000 0.0000 0.0000 39.9596 0.0000
# 6 0.0000 0.0000 0.0000 0.0000 0.0000 14.1374
#
#
#
# Elastic Compliance Matrix: (Units=1/GPa)
#
#
# Indices 1 2 3 4 5 6 
#
# 1 0.022979 -0.004392 -0.004592 0.000000 0.000000 0.000000
# 2 -0.004392 0.012207 -0.001681 0.000000 0.000000 0.000000
# 3 -0.004592 -0.001681 0.010643 0.000000 0.000000 0.000000
# 4 0.000000 0.000000 0.000000 0.027369 0.000000 0.000000
# 5 0.000000 0.000000 0.000000 0.000000 0.025025 0.000000
# 6 0.000000 0.000000 0.000000 0.000000 0.000000 0.070734
#
#
# Mechanical properties :
#
#
# Convention : Reuss Voigt Hill
#
# Bulk Modulus (GPa) = 40.81993 44.87308 42.84650
# Shear Modulus (GPa) = 25.19461 30.26329 27.72895
#
# Velocity S-wave (km/s) = 3.33701 3.65731 3.50083
# Velocity P-wave (km/s) = 5.73492 6.13741 5.93958
#
# Compressibility (1/GPa) = 0.02449784
#
# Stress axis : x y z
#
# Youngs Moduli (GPa) = 43.51848 81.91741 93.95721
#
# Poissons Ratio (x) = 0.35982 0.43149
# Poissons Ratio (y) = 0.19115 0.15793
# Poissons Ratio (z) = 0.19986 0.13769
#
# Static dielectric constant tensor:
#      x y z
#    x 3.734500 0.000000 0.000000 
#    y 0.000000 4.251340 0.000000 
#    z 0.000000 0.000000 4.464260 
# 
# 
# High freq. dielectric constant tensor:
#      x y z
#    x 1.859900 0.000000 0.000000 
#    y 0.000000 1.905370 0.000000 
#    z 0.000000 0.000000 1.916810 
# 
# From -- ./inp_files/6582.got.cif
#   From: 2010.03.12/outbox.cif.g09.slc.cpg/sg41_4_cif.got.tgz:6582.got - 2010.04.14 01:55:53.
