data_PCOD8185021
_publ_section_title
;
Structure prediction by ZEFSAII (Michael W. Deem and Ramdas Pophale) SiO2 
 PCOD8185021
Probable space group: A B A 2
;
_chemical_formula_sum "Si O2"
_cell_formula_units_Z 40
_cell_length_a 16.420461
_cell_length_b 8.912862
_cell_length_c 14.268230
_cell_angle_alpha 90.000000
_cell_angle_beta 90.000000
_cell_angle_gamma 90.000000
_cell_volume 2088.202587
_symmetry_space_group_name_H-M "A B A 2"
_symmetry_group_IT_number 41
_symmetry_cell_setting 'orthorhombic'
loop_
_space_group_symop_operation_xyz
x,y,z
-x,-y,z
1/2-x,y,1/2+z
1/2+x,-y,1/2+z
x,1/2+y,1/2+z
-x,1/2-y,1/2+z
1/2-x,1/2+y,z
1/2+x,1/2-y,z
loop_
_atom_site_type_symbol
_atom_site_label
_atom_site_fract_x
_atom_site_fract_y
_atom_site_fract_z
Si Si1 0.138251 0.305632 0.744300
Si Si2 0.249262 0.561374 0.687448
Si Si3 0.985944 0.175139 0.089652
Si Si4 0.649332 0.194413 0.093665
Si Si5 0.454477 0.843273 0.927216
O O1 0.182500 0.467923 0.746543
O O2 0.203789 0.172785 0.758712
O O3 0.097187 0.281459 0.642121
O O4 0.067603 0.296259 0.821853
O O5 0.208250 0.661602 0.605382
O O6 0.314262 0.450522 0.642263
O O7 0.061574 0.262517 0.139648
O O8 0.000000 0.000000 0.097017
O O9 0.984332 0.225269 0.979449
O O10 0.631795 0.154968 0.984319
O O11 0.500000 0.000000 0.927160
#
# Coordination Sequence:
#
# PCOD8185021 Si02
#       5
#     8   8   8   8   8
#     4  11  21  39  62  87 120 157 200 247 299 361
#     4  10  21  38  61  85 121 159 194 246 309 354
#     4  10  20  41  60  86 119 159 201 246 296 349
#     4   9  21  38  60  87 117 163 193 247 302 353
#     4  10  22  37  60  90 116 157 205 246 295 353
#
# _framework density 19.155228000000001
#
# number of rings (size 3 to 8) (size 9 to 14) (size 15 to 20)
#    1.200    0.800    2.000    1.800    0.000    1.600 
#    3.600    0.000    0.000    0.000    0.000    0.000 
#    0.000    0.000    0.000    0.000    0.000    0.000 
#
# Total GULP energy -247774.825596 kJ/mol
# GULP energy per Si atom -12388.741280 kJ/mol
# Density = 1.911163 g / cm^3
# Si number density = 19.155228 Si / 1000 Ang^3
#
#
#
# Elastic Constant Matrix: (Units=GPa)
#
#
# Indices 1 2 3 4 5 6 
#
# 1 85.9614 53.0421 35.3185 0.0000 0.0000 0.0000
# 2 53.0421 108.9373 37.0685 0.0000 0.0000 0.0000
# 3 35.3185 37.0685 92.8361 0.0000 0.0000 0.0000
# 4 0.0000 0.0000 0.0000 14.5064 0.0000 0.0000
# 5 0.0000 0.0000 0.0000 0.0000 35.2195 0.0000
# 6 0.0000 0.0000 0.0000 0.0000 0.0000 45.2423
#
#
#
# Elastic Compliance Matrix: (Units=1/GPa)
#
#
# Indices 1 2 3 4 5 6 
#
# 1 0.017725 -0.007332 -0.003816 0.000000 0.000000 0.000000
# 2 -0.007332 0.013656 -0.002663 0.000000 0.000000 0.000000
# 3 -0.003816 -0.002663 0.013287 0.000000 0.000000 0.000000
# 4 0.000000 0.000000 0.000000 0.068935 0.000000 0.000000
# 5 0.000000 0.000000 0.000000 0.000000 0.028393 0.000000
# 6 0.000000 0.000000 0.000000 0.000000 0.000000 0.022103
#
#
# Mechanical properties :
#
#
# Convention : Reuss Voigt Hill
#
# Bulk Modulus (GPa) = 58.66597 59.84366 59.25481
# Shear Modulus (GPa) = 25.32888 29.81402 27.57145
#
# Velocity S-wave (km/s) = 3.64028 3.94946 3.79802
# Velocity P-wave (km/s) = 6.95428 7.21851 7.08762
#
# Compressibility (1/GPa) = 0.01704566
#
# Stress axis : x y z
#
# Youngs Moduli (GPa) = 56.41721 73.22880 75.26313
#
# Poissons Ratio (x) = 0.53692 0.28718
# Poissons Ratio (y) = 0.41365 0.20044
# Poissons Ratio (z) = 0.21527 0.19502
#
# Static dielectric constant tensor:
#      x y z
#    x 3.574940 0.000000 0.000000 
#    y 0.000000 3.599110 0.000000 
#    z 0.000000 0.000000 3.209850 
# 
# 
# High freq. dielectric constant tensor:
#      x y z
#    x 1.748820 0.000000 0.000000 
#    y 0.000000 1.758210 0.000000 
#    z 0.000000 0.000000 1.706780 
# 
# From -- ./inp_files/8643.got.cif
#   From: 2010.03.12/outbox.cif.g09.slc.cpg/sg41_5_cif.got.tgz:8643.got - 2010.04.14 01:55:53.
