data_PCOD8185343
_publ_section_title
;
Structure prediction by ZEFSAII (Michael W. Deem and Ramdas Pophale) SiO2 
 PCOD8185343
Probable space group: A B A 2
;
_chemical_formula_sum "Si O2"
_cell_formula_units_Z 52
_cell_length_a 8.936346
_cell_length_b 13.960498
_cell_length_c 19.079934
_cell_angle_alpha 90.000000
_cell_angle_beta 90.000000
_cell_angle_gamma 90.000000
_cell_volume 2380.333202
_symmetry_space_group_name_H-M "A B A 2"
_symmetry_group_IT_number 41
_symmetry_cell_setting 'orthorhombic'
loop_
_space_group_symop_operation_xyz
x,y,z
-x,-y,z
1/2-x,y,1/2+z
1/2+x,-y,1/2+z
x,1/2+y,1/2+z
-x,1/2-y,1/2+z
1/2-x,1/2+y,z
1/2+x,1/2-y,z
loop_
_atom_site_type_symbol
_atom_site_label
_atom_site_fract_x
_atom_site_fract_y
_atom_site_fract_z
Si Si1 0.878679 0.325584 0.302100
Si Si2 0.869245 0.753009 0.395304
Si Si3 0.622121 0.691028 0.489467
Si Si4 0.437027 0.785137 0.665905
Si Si5 0.277440 0.440546 0.611391
Si Si6 0.000000 0.000000 0.723159
Si Si7 0.781353 0.340706 0.594300
O O1 0.716891 0.321403 0.339841
O O2 0.894112 0.240209 0.245315
O O3 0.895083 0.430198 0.268286
O O4 0.010089 0.314293 0.358261
O O5 0.748050 0.681235 0.429311
O O6 0.956538 0.815475 0.454862
O O7 0.642576 0.605734 0.544258
O O8 0.648359 0.796664 0.523565
O O9 0.365667 0.883585 0.638443
O O10 0.383502 0.700505 0.612488
O O11 0.615195 0.800968 0.658678
O O12 0.394217 0.435524 0.674900
O O13 0.224178 0.545766 0.589459
#
# Coordination Sequence:
#
# PCOD8185343 Si02
#       7
#     8   8   8   8   8   4   8
#     4  11  22  43  68  90 137 174 227 263 333 395
#     4  10  23  43  66  90 127 194 210 265 319 407
#     4  10  22  42  66  94 132 171 232 260 340 391
#     4  11  22  40  68  97 132 172 217 280 344 394
#     4  11  24  38  69 103 134 168 220 290 347 394
#     4  12  24  40  66 106 128 168 224 286 340 392
#     4  11  22  40  67 100 134 169 215 293 338 398
#
# _framework density 21.845682
#
# number of rings (size 3 to 8) (size 9 to 14) (size 15 to 20)
#    0.000    1.231    1.538    6.000    2.154    0.000 
#    5.538    0.000    3.385    0.000    0.000    0.000 
#    0.000    0.000    0.000    0.000    0.000    0.000 
#
# Total GULP energy -322464.655690 kJ/mol
# GULP energy per Si atom -12402.486757 kJ/mol
# Density = 2.179596 g / cm^3
# Si number density = 21.845682 Si / 1000 Ang^3
#
#
#
# Elastic Constant Matrix: (Units=GPa)
#
#
# Indices 1 2 3 4 5 6 
#
# 1 99.6687 31.2599 33.4482 0.0000 0.0000 0.0000
# 2 31.2599 138.1263 46.8573 0.0000 0.0000 0.0000
# 3 33.4482 46.8573 112.5940 0.0000 0.0000 0.0000
# 4 0.0000 0.0000 0.0000 32.9242 0.0000 0.0000
# 5 0.0000 0.0000 0.0000 0.0000 43.7910 0.0000
# 6 0.0000 0.0000 0.0000 0.0000 0.0000 25.9106
#
#
#
# Elastic Compliance Matrix: (Units=1/GPa)
#
#
# Indices 1 2 3 4 5 6 
#
# 1 0.011468 -0.001676 -0.002709 0.000000 0.000000 0.000000
# 2 -0.001676 0.008675 -0.003112 0.000000 0.000000 0.000000
# 3 -0.002709 -0.003112 0.010981 0.000000 0.000000 0.000000
# 4 0.000000 0.000000 0.000000 0.030373 0.000000 0.000000
# 5 0.000000 0.000000 0.000000 0.000000 0.022836 0.000000
# 6 0.000000 0.000000 0.000000 0.000000 0.000000 0.038594
#
#
# Mechanical properties :
#
#
# Convention : Reuss Voigt Hill
#
# Bulk Modulus (GPa) = 61.99980 63.72443 62.86211
# Shear Modulus (GPa) = 34.89203 36.44673 35.66938
#
# Velocity S-wave (km/s) = 4.00084 4.08900 4.04516
# Velocity P-wave (km/s) = 7.05583 7.17822 7.11729
#
# Compressibility (1/GPa) = 0.01612908
#
# Stress axis : x y z
#
# Youngs Moduli (GPa) = 87.19762 115.27534 91.06267
#
# Poissons Ratio (x) = 0.19324 0.24671
# Poissons Ratio (y) = 0.14617 0.28340
# Poissons Ratio (z) = 0.23624 0.35876
#
# Static dielectric constant tensor:
#      x y z
#    x 4.187510 0.000000 0.000000 
#    y 0.000000 3.624450 0.000000 
#    z 0.000000 0.000000 4.150840 
# 
# 
# High freq. dielectric constant tensor:
#      x y z
#    x 1.879380 0.000000 0.000000 
#    y 0.000000 1.832870 0.000000 
#    z 0.000000 0.000000 1.866930 
# 
# From -- ./inp_files/11157.got.cif
#   From: 2010.03.12/outbox.cif.g09.slc.cpg/sg41_6_cif.got.tgz:11157.got - 2010.04.14 01:55:53.
