data_PCOD8185017
_publ_section_title
;
Structure prediction by ZEFSAII (Michael W. Deem and Ramdas Pophale) SiO2 
 PCOD8185017
Probable space group: A B A 2
;
_chemical_formula_sum "Si O2"
_cell_formula_units_Z 60
_cell_length_a 8.305362
_cell_length_b 19.815227
_cell_length_c 16.850286
_cell_angle_alpha 90.000000
_cell_angle_beta 90.000000
_cell_angle_gamma 90.000000
_cell_volume 2773.095940
_symmetry_space_group_name_H-M "A B A 2"
_symmetry_group_IT_number 41
_symmetry_cell_setting 'orthorhombic'
loop_
_space_group_symop_operation_xyz
x,y,z
-x,-y,z
1/2-x,y,1/2+z
1/2+x,-y,1/2+z
x,1/2+y,1/2+z
-x,1/2-y,1/2+z
1/2-x,1/2+y,z
1/2+x,1/2-y,z
loop_
_atom_site_type_symbol
_atom_site_label
_atom_site_fract_x
_atom_site_fract_y
_atom_site_fract_z
Si Si1 0.607263 0.084572 0.521490
Si Si2 0.338728 0.533702 0.530229
Si Si3 0.722853 0.325656 0.268401
Si Si4 0.994228 0.265823 0.361173
Si Si5 0.159628 0.037591 0.343404
Si Si6 0.262632 0.792466 0.974257
Si Si7 0.000000 0.000000 0.882463
Si Si8 0.811478 0.337574 0.586457
O O1 0.765990 0.133596 0.514640
O O2 0.517102 0.067171 0.438156
O O3 0.483661 0.124139 0.579257
O O4 0.682497 0.013192 0.552608
O O5 0.500000 0.500000 0.564442
O O6 0.352483 0.547032 0.437035
O O7 0.325129 0.607777 0.567079
O O8 0.616287 0.264766 0.299258
O O9 0.643812 0.395364 0.292402
O O10 0.726946 0.314249 0.174918
O O11 0.896370 0.322175 0.311890
O O12 0.080250 0.294176 0.439872
O O13 0.877918 0.208378 0.397965
O O14 0.337506 0.004286 0.327927
O O15 0.000000 0.000000 0.312273
O O16 0.293673 0.728818 0.031780
#
# Coordination Sequence:
#
# PCOD8185017 Si02
#       8
#     8   8   8   8   8   8   4   8
#     4  11  21  39  67  98 129 170 222 292 337 392
#     4  10  22  40  68  96 128 170 240 278 324 410
#     4  11  26  43  63  97 144 169 218 277 359 414
#     4  10  23  43  64  94 129 172 226 280 325 405
#     4  10  21  40  67  98 129 181 230 281 333 409
#     4  11  23  39  72  94 124 176 237 273 327 400
#     4  10  20  40  70  98 134 170 240 294 330 400
#     4  12  24  43  65  98 138 177 215 286 353 410
#
# _framework density 21.636467
#
# number of rings (size 3 to 8) (size 9 to 14) (size 15 to 20)
#    0.000    1.333    4.000    2.400    9.333    1.067 
#    1.200    0.000    0.000    0.000    0.000    0.000 
#    0.000    0.000    0.000    0.000    0.000    0.000 
#
# Total GULP energy -371689.377784 kJ/mol
# GULP energy per Si atom -12389.645926 kJ/mol
# Density = 2.158722 g / cm^3
# Si number density = 21.636467 Si / 1000 Ang^3
#
#
#
# Elastic Constant Matrix: (Units=GPa)
#
#
# Indices 1 2 3 4 5 6 
#
# 1 93.5144 9.7571 18.0992 0.0000 0.0000 0.0000
# 2 9.7571 96.2056 27.7540 0.0000 0.0000 0.0000
# 3 18.0992 27.7540 83.7580 0.0000 0.0000 0.0000
# 4 0.0000 0.0000 0.0000 25.4418 0.0000 0.0000
# 5 0.0000 0.0000 0.0000 0.0000 17.4613 0.0000
# 6 0.0000 0.0000 0.0000 0.0000 0.0000 35.0446
#
#
#
# Elastic Compliance Matrix: (Units=1/GPa)
#
#
# Indices 1 2 3 4 5 6 
#
# 1 0.011181 -0.000483 -0.002256 0.000000 0.000000 0.000000
# 2 -0.000483 0.011514 -0.003711 0.000000 0.000000 0.000000
# 3 -0.002256 -0.003711 0.013656 0.000000 0.000000 0.000000
# 4 0.000000 0.000000 0.000000 0.039305 0.000000 0.000000
# 5 0.000000 0.000000 0.000000 0.000000 0.057270 0.000000
# 6 0.000000 0.000000 0.000000 0.000000 0.000000 0.028535
#
#
# Mechanical properties :
#
#
# Convention : Reuss Voigt Hill
#
# Bulk Modulus (GPa) = 42.64212 42.74428 42.69320
# Shear Modulus (GPa) = 27.44574 30.11405 28.77989
#
# Velocity S-wave (km/s) = 3.56546 3.73476 3.65109
# Velocity P-wave (km/s) = 6.05815 6.19649 6.12771
#
# Compressibility (1/GPa) = 0.02345099
#
# Stress axis : x y z
#
# Youngs Moduli (GPa) = 89.44086 86.85123 73.22647
#
# Poissons Ratio (x) = 0.04196 0.16519
# Poissons Ratio (y) = 0.04321 0.27173
# Poissons Ratio (z) = 0.20177 0.32229
#
# Static dielectric constant tensor:
#      x y z
#    x 4.298950 0.000000 0.000000 
#    y 0.000000 3.955250 0.000000 
#    z 0.000000 0.000000 3.501180 
# 
# 
# High freq. dielectric constant tensor:
#      x y z
#    x 1.867040 0.000000 0.000000 
#    y 0.000000 1.855070 0.000000 
#    z 0.000000 0.000000 1.804930 
# 
# From -- ./inp_files/9774.got.cif
#   From: 2010.03.12/outbox.cif.g09.slc.cpg/sg41_5_cif.got.tgz:9774.got - 2010.04.14 01:55:53.
