data_PCOD8185250
_publ_section_title
;
Structure prediction by ZEFSAII (Michael W. Deem and Ramdas Pophale) SiO2 
 PCOD8185250
Probable space group: A B A 2
;
_chemical_formula_sum "Si O2"
_cell_formula_units_Z 60
_cell_length_a 23.005918
_cell_length_b 12.186198
_cell_length_c 9.345627
_cell_angle_alpha 90.000000
_cell_angle_beta 90.000000
_cell_angle_gamma 90.000000
_cell_volume 2620.090191
_symmetry_space_group_name_H-M "A B A 2"
_symmetry_group_IT_number 41
_symmetry_cell_setting 'orthorhombic'
loop_
_space_group_symop_operation_xyz
x,y,z
-x,-y,z
1/2-x,y,1/2+z
1/2+x,-y,1/2+z
x,1/2+y,1/2+z
-x,1/2-y,1/2+z
1/2-x,1/2+y,z
1/2+x,1/2-y,z
loop_
_atom_site_type_symbol
_atom_site_label
_atom_site_fract_x
_atom_site_fract_y
_atom_site_fract_z
Si Si1 0.479850 0.230235 0.924840
Si Si2 0.420095 0.756827 0.704851
Si Si3 0.366038 0.214200 0.742349
Si Si4 0.321754 0.898328 0.057612
Si Si5 0.258618 0.227449 0.940669
Si Si6 0.000000 0.000000 0.390767
Si Si7 0.686973 0.386334 0.703867
Si Si8 0.120896 0.473679 0.782485
O O1 0.540182 0.265066 0.847260
O O2 0.429014 0.235733 0.808039
O O3 0.486308 0.105975 0.986208
O O4 0.461562 0.291887 0.070359
O O5 0.380655 0.648968 0.681858
O O6 0.369526 0.852897 0.714247
O O7 0.360647 0.292906 0.604671
O O8 0.316956 0.250032 0.853615
O O9 0.356766 0.084048 0.702083
O O10 0.308613 0.980509 0.190237
O O11 0.264734 0.848439 0.982503
O O12 0.354601 0.975565 0.943684
O O13 0.211200 0.154355 0.855891
O O14 0.270372 0.162865 0.085439
O O15 0.948503 0.025519 0.281824
#
# Coordination Sequence:
#
# PCOD8185250 Si02
#       8
#     8   8   8   8   8   4   8   8
#     4  10  22  41  70  99 143 181 246 301 361 441
#     4  11  23  44  73 106 143 195 246 302 375 444
#     4  11  24  44  68 106 136 188 242 289 368 436
#     4  12  26  44  75 103 144 194 238 302 369 432
#     4  12  25  45  68 105 145 188 244 301 363 446
#     4   8  18  38  68  92 126 196 224 280 364 422
#     4  12  26  47  71 108 143 192 250 301 371 445
#     4  10  21  44  72  97 147 190 231 300 369 432
#
# _framework density 22.899974
#
# number of rings (size 3 to 8) (size 9 to 14) (size 15 to 20)
#    0.000    1.067    5.333    0.800    5.600    1.067 
#    2.400    0.000    8.800    0.000    0.000    0.000 
#    0.000    0.000    0.000    0.000    0.000    0.000 
#
# Total GULP energy -371718.186726 kJ/mol
# GULP energy per Si atom -12390.606224 kJ/mol
# Density = 2.284785 g / cm^3
# Si number density = 22.899974 Si / 1000 Ang^3
#
#
#
# Elastic Constant Matrix: (Units=GPa)
#
#
# Indices 1 2 3 4 5 6 
#
# 1 100.6165 41.3328 26.4858 0.0000 0.0000 0.0000
# 2 41.3328 131.5856 29.6882 0.0000 0.0000 0.0000
# 3 26.4858 29.6882 73.7362 0.0000 0.0000 0.0000
# 4 0.0000 0.0000 0.0000 35.5618 0.0000 0.0000
# 5 0.0000 0.0000 0.0000 0.0000 37.1528 0.0000
# 6 0.0000 0.0000 0.0000 0.0000 0.0000 31.7634
#
#
#
# Elastic Compliance Matrix: (Units=1/GPa)
#
#
# Indices 1 2 3 4 5 6 
#
# 1 0.012013 -0.003080 -0.003075 0.000000 0.000000 0.000000
# 2 -0.003080 0.009148 -0.002577 0.000000 0.000000 0.000000
# 3 -0.003075 -0.002577 0.015704 0.000000 0.000000 0.000000
# 4 0.000000 0.000000 0.000000 0.028120 0.000000 0.000000
# 5 0.000000 0.000000 0.000000 0.000000 0.026916 0.000000
# 6 0.000000 0.000000 0.000000 0.000000 0.000000 0.031483
#
#
# Mechanical properties :
#
#
# Convention : Reuss Voigt Hill
#
# Bulk Modulus (GPa) = 51.54179 55.66129 53.60154
# Shear Modulus (GPa) = 33.94063 34.79104 34.36583
#
# Velocity S-wave (km/s) = 3.85401 3.90200 3.87808
# Velocity P-wave (km/s) = 6.50852 6.68280 6.59623
#
# Compressibility (1/GPa) = 0.01940173
#
# Stress axis : x y z
#
# Youngs Moduli (GPa) = 83.24060 109.30794 63.67763
#
# Poissons Ratio (x) = 0.33664 0.19582
# Poissons Ratio (y) = 0.25636 0.16411
# Poissons Ratio (z) = 0.25598 0.28171
#
# Static dielectric constant tensor:
#      x y z
#    x 4.213060 0.000000 0.000000 
#    y 0.000000 4.416250 0.000000 
#    z 0.000000 0.000000 3.944900 
# 
# 
# High freq. dielectric constant tensor:
#      x y z
#    x 1.915130 0.000000 0.000000 
#    y 0.000000 1.905360 0.000000 
#    z 0.000000 0.000000 1.880360 
# 
# From -- ./inp_files/3822.got.cif
#   From: 2010.03.12/outbox.cif.g09.slc.cpg/sg41_2_cif.got.tgz:3822.got - 2010.04.14 01:55:53.
