data_PCOD8185246
_publ_section_title
;
Structure prediction by ZEFSAII (Michael W. Deem and Ramdas Pophale) SiO2 
 PCOD8185246
Probable space group: A B A 2
;
_chemical_formula_sum "Si O2"
_cell_formula_units_Z 60
_cell_length_a 11.993824
_cell_length_b 9.068982
_cell_length_c 23.835340
_cell_angle_alpha 90.000000
_cell_angle_beta 90.000000
_cell_angle_gamma 90.000000
_cell_volume 2592.612215
_symmetry_space_group_name_H-M "A B A 2"
_symmetry_group_IT_number 41
_symmetry_cell_setting 'orthorhombic'
loop_
_space_group_symop_operation_xyz
x,y,z
-x,-y,z
1/2-x,y,1/2+z
1/2+x,-y,1/2+z
x,1/2+y,1/2+z
-x,1/2-y,1/2+z
1/2-x,1/2+y,z
1/2+x,1/2-y,z
loop_
_atom_site_type_symbol
_atom_site_label
_atom_site_fract_x
_atom_site_fract_y
_atom_site_fract_z
Si Si1 0.267792 0.059616 0.944170
Si Si2 0.591991 0.888802 0.045148
Si Si3 0.663796 0.806438 0.265162
Si Si4 0.698233 0.684529 0.869612
Si Si5 0.275463 0.446860 0.191003
Si Si6 0.500000 0.000000 0.323884
Si Si7 0.561092 0.852529 0.510340
Si Si8 0.793556 0.299318 0.614657
O O1 0.336495 0.178588 0.907998
O O2 0.280865 0.911846 0.907901
O O3 0.323249 0.023866 0.004157
O O4 0.139621 0.115488 0.956165
O O5 0.537168 0.767078 0.003287
O O6 0.662678 0.820462 0.096925
O O7 0.500000 0.000000 0.070095
O O8 0.746203 0.745066 0.312975
O O9 0.643394 0.671460 0.221890
O O10 0.712456 0.954356 0.236949
O O11 0.545733 0.860434 0.288620
O O12 0.596175 0.572824 0.860672
O O13 0.338904 0.559672 0.149910
O O14 0.192626 0.347450 0.152555
O O15 0.632534 0.781352 0.560361
O O16 0.500000 0.000000 0.529720
#
# Coordination Sequence:
#
# PCOD8185246 Si02
#       8
#     8   8   8   8   8   4   8   8
#     4  11  25  40  68  97 138 178 223 275 338 399
#     4  11  23  40  63  96 136 175 224 271 328 400
#     4  11  23  47  68  99 134 173 224 293 338 402
#     4  12  24  45  69  99 135 176 226 285 338 403
#     4  10  21  44  70  91 140 172 220 289 341 392
#     4  12  26  44  74  94 134 176 226 284 350 396
#     4  11  23  41  64  98 139 179 225 274 330 401
#     4  10  22  42  63  98 133 177 220 280 331 401
#
# _framework density 23.142681
#
# number of rings (size 3 to 8) (size 9 to 14) (size 15 to 20)
#    0.000    1.067    2.667    3.200    2.800    5.333 
#   12.000    3.333    0.000    0.000    0.000    0.000 
#    0.000    0.000    0.000    0.000    0.000    0.000 
#
# Total GULP energy -371778.688952 kJ/mol
# GULP energy per Si atom -12392.622965 kJ/mol
# Density = 2.309001 g / cm^3
# Si number density = 23.142681 Si / 1000 Ang^3
#
#
#
# Elastic Constant Matrix: (Units=GPa)
#
#
# Indices 1 2 3 4 5 6 
#
# 1 69.1804 15.1885 20.3186 0.0000 0.0000 0.0000
# 2 15.1885 127.0769 38.8614 0.0000 0.0000 0.0000
# 3 20.3186 38.8614 107.9380 0.0000 0.0000 0.0000
# 4 0.0000 0.0000 0.0000 48.7325 0.0000 0.0000
# 5 0.0000 0.0000 0.0000 0.0000 12.7615 0.0000
# 6 0.0000 0.0000 0.0000 0.0000 0.0000 26.4282
#
#
#
# Elastic Compliance Matrix: (Units=1/GPa)
#
#
# Indices 1 2 3 4 5 6 
#
# 1 0.015430 -0.001074 -0.002518 0.000000 0.000000 0.000000
# 2 -0.001074 0.008918 -0.003008 0.000000 0.000000 0.000000
# 3 -0.002518 -0.003008 0.010822 0.000000 0.000000 0.000000
# 4 0.000000 0.000000 0.000000 0.020520 0.000000 0.000000
# 5 0.000000 0.000000 0.000000 0.000000 0.078361 0.000000
# 6 0.000000 0.000000 0.000000 0.000000 0.000000 0.037838
#
#
# Mechanical properties :
#
#
# Convention : Reuss Voigt Hill
#
# Bulk Modulus (GPa) = 45.51973 50.32582 47.92277
# Shear Modulus (GPa) = 25.98575 32.90622 29.44599
#
# Velocity S-wave (km/s) = 3.35453 3.77488 3.57090
# Velocity P-wave (km/s) = 5.89200 6.38692 6.14445
#
# Compressibility (1/GPa) = 0.02196849
#
# Stress axis : x y z
#
# Youngs Moduli (GPa) = 64.80743 112.13699 92.40696
#
# Poissons Ratio (x) = 0.12047 0.23267
# Poissons Ratio (y) = 0.06962 0.27800
# Poissons Ratio (z) = 0.16318 0.33736
#
# Static dielectric constant tensor:
#      x y z
#    x 3.955080 0.000000 0.000000 
#    y 0.000000 4.441700 0.000000 
#    z 0.000000 0.000000 4.236780 
# 
# 
# High freq. dielectric constant tensor:
#      x y z
#    x 1.879470 0.000000 0.000000 
#    y 0.000000 1.938720 0.000000 
#    z 0.000000 0.000000 1.924890 
# 
# From -- ./inp_files/12515.got.cif
#   From: 2010.03.12/outbox.cif.g09.slc.cpg/sg41_7_cif.got.tgz:12515.got - 2010.04.14 01:55:53.
