data_PCOD8185775
_publ_section_title
;
Structure prediction by ZEFSAII (Michael W. Deem and Ramdas Pophale) SiO2 
 PCOD8185775
Probable space group: F M M 2
;
_chemical_formula_sum "Si O2"
_cell_formula_units_Z 112
_cell_length_a 17.985546
_cell_length_b 16.905095
_cell_length_c 20.374715
_cell_angle_alpha 90.000000
_cell_angle_beta 90.000000
_cell_angle_gamma 90.000000
_cell_volume 6194.878383
_symmetry_space_group_name_H-M "F M M 2"
_symmetry_group_IT_number 42
_symmetry_cell_setting 'orthorhombic'
loop_
_space_group_symop_operation_xyz
x,y,z
-x,-y,z
-x,y,z
x,-y,z
x,1/2+y,1/2+z
-x,1/2-y,1/2+z
-x,1/2+y,1/2+z
x,1/2-y,1/2+z
1/2+x,y,1/2+z
1/2-x,-y,1/2+z
1/2-x,y,1/2+z
1/2+x,-y,1/2+z
1/2+x,1/2+y,z
1/2-x,1/2-y,z
1/2-x,1/2+y,z
1/2+x,1/2-y,z
loop_
_atom_site_type_symbol
_atom_site_label
_atom_site_fract_x
_atom_site_fract_y
_atom_site_fract_z
Si Si1 0.582186 0.184585 0.424330
Si Si2 0.735932 0.841523 0.729490
Si Si3 0.581786 0.591105 0.196656
Si Si4 0.612415 0.090274 0.549318
Si Si5 0.764692 0.658983 0.087848
Si Si6 0.185918 0.315574 0.957415
Si Si7 0.285570 0.908694 0.362674
O O1 0.500000 0.187080 0.392207
O O2 0.574319 0.146033 0.495967
O O3 0.611301 0.275058 0.430454
O O4 0.637894 0.135505 0.378862
O O5 0.750000 0.750000 0.746526
O O6 0.646401 0.853362 0.725520
O O7 0.776764 0.873235 0.662233
O O8 0.768682 0.895218 0.786619
O O9 0.500000 0.612044 0.226684
O O10 0.602624 0.500000 0.211681
O O11 0.574003 0.604612 0.118904
O O12 0.698533 0.112118 0.553067
O O13 0.603681 0.000000 0.526063
O O14 0.750000 0.750000 0.103451
O O15 0.829252 0.649940 0.031941
O O16 0.250000 0.250000 0.967322
O O17 0.215194 0.380085 0.905944
O O18 0.297819 0.000000 0.377370
#
# Coordination Sequence:
#
# PCOD8185775 Si02
#       7
#    16  16  16  16  16  16  16
#     4  11  21  33  54  80 110 141 172 220 279 330
#     4  10  20  33  53  76 107 147 184 219 263 327
#     4   9  18  32  51  78 112 141 172 222 277 323
#     4  10  17  27  47  81 113 137 166 210 273 332
#     4   9  15  30  53  75 103 140 179 220 260 312
#     4   9  17  34  55  75 103 137 179 222 259 318
#     4  11  22  37  55  77 106 143 184 228 272 321
#
# _framework density 18.079450999999999
#
# number of rings (size 3 to 8) (size 9 to 14) (size 15 to 20)
#    0.000    2.143    4.286    2.571    0.000    2.286 
#    0.000    2.857    0.000    2.143    0.000    0.000 
#    0.000    0.000    0.000    0.000    0.000    0.000 
#
# Total GULP energy -346924.775918 kJ/mol
# GULP energy per Si atom -12390.170569 kJ/mol
# Density = 1.803830 g / cm^3
# Si number density = 18.079451 Si / 1000 Ang^3
#
#
#
# Elastic Constant Matrix: (Units=GPa)
#
#
# Indices 1 2 3 4 5 6 
#
# 1 106.0806 50.7615 39.1268 0.0000 0.0000 0.0000
# 2 50.7615 57.3534 27.0829 0.0000 0.0000 0.0000
# 3 39.1268 27.0829 106.5830 0.0000 0.0000 0.0000
# 4 0.0000 0.0000 0.0000 18.2546 0.0000 0.0000
# 5 0.0000 0.0000 0.0000 0.0000 13.5585 0.0000
# 6 0.0000 0.0000 0.0000 0.0000 0.0000 17.4345
#
#
#
# Elastic Compliance Matrix: (Units=1/GPa)
#
#
# Indices 1 2 3 4 5 6 
#
# 1 0.017035 -0.013777 -0.002753 0.000000 0.000000 0.000000
# 2 -0.013777 0.030955 -0.002808 0.000000 0.000000 0.000000
# 3 -0.002753 -0.002808 0.011106 0.000000 0.000000 0.000000
# 4 0.000000 0.000000 0.000000 0.054781 0.000000 0.000000
# 5 0.000000 0.000000 0.000000 0.000000 0.073755 0.000000
# 6 0.000000 0.000000 0.000000 0.000000 0.000000 0.057357
#
#
# Mechanical properties :
#
#
# Convention : Reuss Voigt Hill
#
# Bulk Modulus (GPa) = 48.97006 55.99549 52.48278
# Shear Modulus (GPa) = 17.21338 20.05257 18.63297
#
# Velocity S-wave (km/s) = 3.08895 3.33398 3.21380
# Velocity P-wave (km/s) = 6.31403 6.77198 6.54701
#
# Compressibility (1/GPa) = 0.02042064
#
# Stress axis : x y z
#
# Youngs Moduli (GPa) = 58.70410 32.30468 90.03763
#
# Poissons Ratio (x) = 0.44506 0.24785
# Poissons Ratio (y) = 0.80876 0.25285
# Poissons Ratio (z) = 0.16159 0.09072
#
# Static dielectric constant tensor:
#      x y z
#    x 3.201670 0.000000 0.000000 
#    y 0.000000 3.537770 0.000000 
#    z 0.000000 0.000000 3.493450 
# 
# 
# High freq. dielectric constant tensor:
#      x y z
#    x 1.667230 0.000000 0.000000 
#    y 0.000000 1.685940 0.000000 
#    z 0.000000 0.000000 1.705380 
# 
# From -- ./inp_files/26055.got.cif
#   From: 2010.03.12/outbox.cif.g09.slc.cpg/sg42_14_cif.got.tgz:26055.got - 2010.04.14 02:04:31.
