data_PCOD8185193
_publ_section_title
;
Structure prediction by ZEFSAII (Michael W. Deem and Ramdas Pophale) SiO2 
 PCOD8185193
Probable space group: A B A 2
;
_chemical_formula_sum "Si O2"
_cell_formula_units_Z 52
_cell_length_a 8.607816
_cell_length_b 12.131342
_cell_length_c 24.347130
_cell_angle_alpha 90.000000
_cell_angle_beta 90.000000
_cell_angle_gamma 90.000000
_cell_volume 2542.433462
_symmetry_space_group_name_H-M "A B A 2"
_symmetry_group_IT_number 41
_symmetry_cell_setting 'orthorhombic'
loop_
_space_group_symop_operation_xyz
x,y,z
-x,-y,z
1/2-x,y,1/2+z
1/2+x,-y,1/2+z
x,1/2+y,1/2+z
-x,1/2-y,1/2+z
1/2-x,1/2+y,z
1/2+x,1/2-y,z
loop_
_atom_site_type_symbol
_atom_site_label
_atom_site_fract_x
_atom_site_fract_y
_atom_site_fract_z
Si Si1 0.981415 0.626396 0.604810
Si Si2 0.982182 0.127851 0.978420
Si Si3 0.311483 0.297803 0.418019
Si Si4 0.298991 0.163732 0.816826
Si Si5 0.793659 0.708256 0.165798
Si Si6 0.500000 0.000000 0.876790
Si Si7 0.466123 0.200548 0.244477
O O1 0.013973 0.655739 0.541786
O O2 0.797871 0.648505 0.616885
O O3 0.000000 0.500000 0.618596
O O4 0.106708 0.690690 0.641486
O O5 0.810034 0.164429 0.963314
O O6 0.104683 0.190213 0.940820
O O7 0.000000 0.000000 0.965584
O O8 0.231093 0.261597 0.360955
O O9 0.433103 0.398363 0.412004
O O10 0.134142 0.129885 0.788063
O O11 0.430428 0.207648 0.775436
O O12 0.358625 0.048640 0.841229
O O13 0.662617 0.739995 0.208553
O O14 0.918383 0.634980 0.201990
#
# Coordination Sequence:
#
# PCOD8185193 Si02
#       7
#     8   8   8   8   8   4   8
#     4  10  21  41  65  91 122 161 206 259 317 366
#     4  11  24  40  66  94 125 169 210 258 317 375
#     4  12  23  42  63  94 130 165 214 257 312 375
#     4  11  20  40  60  92 128 165 209 253 304 373
#     4   9  19  40  63  87 126 157 202 263 305 365
#     4  12  24  38  66  88 132 172 204 262 308 358
#     4   9  19  38  62  87 125 164 203 252 308 367
#
# _framework density 20.452843999999999
#
# number of rings (size 3 to 8) (size 9 to 14) (size 15 to 20)
#    0.000    1.538    3.077    1.846    0.000    0.000 
#   12.462    4.615    0.000    0.000    0.000    0.000 
#    0.000    0.000    0.000    0.000    0.000    0.000 
#
# Total GULP energy -322135.510942 kJ/mol
# GULP energy per Si atom -12389.827344 kJ/mol
# Density = 2.040629 g / cm^3
# Si number density = 20.452844 Si / 1000 Ang^3
#
#
#
# Elastic Constant Matrix: (Units=GPa)
#
#
# Indices 1 2 3 4 5 6 
#
# 1 145.1298 54.3996 59.0864 0.0000 0.0000 0.0000
# 2 54.3996 88.3711 54.9768 0.0000 0.0000 0.0000
# 3 59.0864 54.9768 93.8163 0.0000 0.0000 0.0000
# 4 0.0000 0.0000 0.0000 45.9181 0.0000 0.0000
# 5 0.0000 0.0000 0.0000 0.0000 32.4952 0.0000
# 6 0.0000 0.0000 0.0000 0.0000 0.0000 28.8132
#
#
#
# Elastic Compliance Matrix: (Units=1/GPa)
#
#
# Indices 1 2 3 4 5 6 
#
# 1 0.009906 -0.003488 -0.004195 0.000000 0.000000 0.000000
# 2 -0.003488 0.019036 -0.008959 0.000000 0.000000 0.000000
# 3 -0.004195 -0.008959 0.018551 0.000000 0.000000 0.000000
# 4 0.000000 0.000000 0.000000 0.021778 0.000000 0.000000
# 5 0.000000 0.000000 0.000000 0.000000 0.030774 0.000000
# 6 0.000000 0.000000 0.000000 0.000000 0.000000 0.034706
#
#
# Mechanical properties :
#
#
# Convention : Reuss Voigt Hill
#
# Bulk Modulus (GPa) = 70.37251 73.80476 72.08864
# Shear Modulus (GPa) = 28.94022 32.03557 30.48789
#
# Velocity S-wave (km/s) = 3.76569 3.96196 3.86507
# Velocity P-wave (km/s) = 7.30679 7.55600 7.43244
#
# Compressibility (1/GPa) = 0.01421009
#
# Stress axis : x y z
#
# Youngs Moduli (GPa) = 100.95301 52.53086 53.90656
#
# Poissons Ratio (x) = 0.18324 0.22611
# Poissons Ratio (y) = 0.35215 0.48292
# Poissons Ratio (z) = 0.42345 0.47060
#
# Static dielectric constant tensor:
#      x y z
#    x 4.508310 0.000000 0.000000 
#    y 0.000000 3.347510 0.000000 
#    z 0.000000 0.000000 4.096610 
# 
# 
# High freq. dielectric constant tensor:
#      x y z
#    x 1.827330 0.000000 0.000000 
#    y 0.000000 1.765470 0.000000 
#    z 0.000000 0.000000 1.814980 
# 
# From -- ./inp_files/12436.got.cif
#   From: 2010.03.12/outbox.cif.g09.slc.cpg/sg41_7_cif.got.tgz:12436.got - 2010.04.14 01:55:53.
