data_PCOD8185377
_publ_section_title
;
Structure prediction by ZEFSAII (Michael W. Deem and Ramdas Pophale) SiO2 
 PCOD8185377
Probable space group: A B A 2
;
_chemical_formula_sum "Si O2"
_cell_formula_units_Z 52
_cell_length_a 11.600294
_cell_length_b 21.373609
_cell_length_c 9.152768
_cell_angle_alpha 90.000000
_cell_angle_beta 90.000000
_cell_angle_gamma 90.000000
_cell_volume 2269.338655
_symmetry_space_group_name_H-M "A B A 2"
_symmetry_group_IT_number 41
_symmetry_cell_setting 'orthorhombic'
loop_
_space_group_symop_operation_xyz
x,y,z
-x,-y,z
1/2-x,y,1/2+z
1/2+x,-y,1/2+z
x,1/2+y,1/2+z
-x,1/2-y,1/2+z
1/2-x,1/2+y,z
1/2+x,1/2-y,z
loop_
_atom_site_type_symbol
_atom_site_label
_atom_site_fract_x
_atom_site_fract_y
_atom_site_fract_z
Si Si1 0.595767 0.124629 0.651940
Si Si2 0.899793 0.299114 0.532625
Si Si3 0.284079 0.653777 0.323479
Si Si4 0.000000 0.000000 0.060803
Si Si5 0.792660 0.984167 0.853861
Si Si6 0.522600 0.164734 0.960686
Si Si7 0.174023 0.433175 0.078836
O O1 0.518492 0.161392 0.533192
O O2 0.548037 0.053778 0.666152
O O3 0.588039 0.159535 0.805837
O O4 0.726639 0.119855 0.597371
O O5 0.831625 0.313764 0.383184
O O6 0.818738 0.316006 0.669726
O O7 0.934601 0.226939 0.540693
O O8 0.264758 0.579942 0.299877
O O9 0.385347 0.664875 0.441197
O O10 0.101764 0.029129 0.962671
O O11 0.840274 0.021674 0.715687
O O12 0.696945 0.026401 0.933638
O O13 0.555590 0.105166 0.060490
#
# Coordination Sequence:
#
# PCOD8185377 Si02
#       7
#     8   8   8   4   8   8   8
#     4  10  23  47  70 100 145 192 233 302 359 430
#     4  11  26  46  71 100 142 193 241 295 354 438
#     4  11  26  47  72 104 144 187 242 300 365 428
#     4  10  22  44  74 104 144 182 242 300 370 426
#     4  11  23  43  73 108 142 185 234 301 369 436
#     4  11  27  43  71 106 140 196 237 297 359 442
#     4  11  24  43  71 107 144 185 234 296 366 437
#
# _framework density 22.914166000000002
#
# number of rings (size 3 to 8) (size 9 to 14) (size 15 to 20)
#    0.000    1.231    3.077    0.923   10.769    4.308 
#    8.308    0.000    0.000    0.000    0.000    0.000 
#    0.000    0.000    0.000    0.000    0.000    0.000 
#
# Total GULP energy -322523.108683 kJ/mol
# GULP energy per Si atom -12404.734949 kJ/mol
# Density = 2.286201 g / cm^3
# Si number density = 22.914166 Si / 1000 Ang^3
#
#
#
# Elastic Constant Matrix: (Units=GPa)
#
#
# Indices 1 2 3 4 5 6 
#
# 1 63.6962 16.1094 11.2269 0.0000 0.0000 0.0000
# 2 16.1094 118.9855 33.6862 0.0000 0.0000 0.0000
# 3 11.2269 33.6862 72.0091 0.0000 0.0000 0.0000
# 4 0.0000 0.0000 0.0000 41.0441 0.0000 0.0000
# 5 0.0000 0.0000 0.0000 0.0000 33.0865 0.0000
# 6 0.0000 0.0000 0.0000 0.0000 0.0000 30.9197
#
#
#
# Elastic Compliance Matrix: (Units=1/GPa)
#
#
# Indices 1 2 3 4 5 6 
#
# 1 0.016446 -0.001730 -0.001755 0.000000 0.000000 0.000000
# 2 -0.001730 0.009869 -0.004347 0.000000 0.000000 0.000000
# 3 -0.001755 -0.004347 0.016194 0.000000 0.000000 0.000000
# 4 0.000000 0.000000 0.000000 0.024364 0.000000 0.000000
# 5 0.000000 0.000000 0.000000 0.000000 0.030224 0.000000
# 6 0.000000 0.000000 0.000000 0.000000 0.000000 0.032342
#
#
# Mechanical properties :
#
#
# Convention : Reuss Voigt Hill
#
# Bulk Modulus (GPa) = 37.24933 41.85954 39.55443
# Shear Modulus (GPa) = 32.45647 33.92126 33.18887
#
# Velocity S-wave (km/s) = 3.76764 3.85172 3.80991
# Velocity P-wave (km/s) = 5.93449 6.17160 6.05420
#
# Compressibility (1/GPa) = 0.02684612
#
# Stress axis : x y z
#
# Youngs Moduli (GPa) = 60.80380 101.32399 61.74977
#
# Poissons Ratio (x) = 0.17527 0.10837
# Poissons Ratio (y) = 0.10518 0.26844
# Poissons Ratio (z) = 0.10671 0.44048
#
# Static dielectric constant tensor:
#      x y z
#    x 4.288760 0.000000 0.000000 
#    y 0.000000 4.094240 0.000000 
#    z 0.000000 0.000000 4.036440 
# 
# 
# High freq. dielectric constant tensor:
#      x y z
#    x 1.908550 0.000000 0.000000 
#    y 0.000000 1.908700 0.000000 
#    z 0.000000 0.000000 1.899060 
# 
# From -- ./inp_files/2661.got.cif
#   From: 2010.03.12/outbox.cif.g09.slc.cpg/sg41_2_cif.got.tgz:2661.got - 2010.04.14 01:55:53.
