data_PCOD8185637
_publ_section_title
;
Structure prediction by ZEFSAII (Michael W. Deem and Ramdas Pophale) SiO2 
 PCOD8185637
Probable space group: A B A 2
;
_chemical_formula_sum "Si O2"
_cell_formula_units_Z 48
_cell_length_a 9.445484
_cell_length_b 16.089356
_cell_length_c 13.806186
_cell_angle_alpha 90.000000
_cell_angle_beta 90.000000
_cell_angle_gamma 90.000000
_cell_volume 2098.150312
_symmetry_space_group_name_H-M "A B A 2"
_symmetry_group_IT_number 41
_symmetry_cell_setting 'orthorhombic'
loop_
_space_group_symop_operation_xyz
x,y,z
-x,-y,z
1/2-x,y,1/2+z
1/2+x,-y,1/2+z
x,1/2+y,1/2+z
-x,1/2-y,1/2+z
1/2-x,1/2+y,z
1/2+x,1/2-y,z
loop_
_atom_site_type_symbol
_atom_site_label
_atom_site_fract_x
_atom_site_fract_y
_atom_site_fract_z
Si Si1 0.895108 0.075367 0.630890
Si Si2 0.155394 0.980707 0.255688
Si Si3 0.177236 0.852923 0.429006
Si Si4 0.923874 0.752723 0.470838
Si Si5 0.458490 0.232773 0.196061
Si Si6 0.691647 0.836268 0.798575
O O1 0.737547 0.053907 0.663850
O O2 0.887149 0.097311 0.518982
O O3 0.947198 0.150229 0.698926
O O4 0.000000 0.000000 0.647152
O O5 0.149187 0.911379 0.338516
O O6 0.228719 0.066900 0.288023
O O7 0.000000 0.000000 0.217956
O O8 0.345614 0.832575 0.435678
O O9 0.085853 0.765210 0.433014
O O10 0.905479 0.754331 0.585968
O O11 0.836043 0.824326 0.413403
O O12 0.319588 0.222208 0.262266
O O13 0.550808 0.309625 0.236727
#
# Coordination Sequence:
#
# PCOD8185637 Si02
#       6
#     8   8   8   8   8   8
#     4  11  24  47  69  98 140 182 235 293 355 418
#     4  12  26  45  69 103 141 187 230 295 354 420
#     4  11  25  45  71 101 140 181 238 291 354 421
#     4  11  24  44  70 100 137 184 234 291 349 417
#     4  11  25  44  71 103 136 189 238 295 351 428
#     4  12  25  43  72  99 141 183 241 291 359 419
#
# _framework density 22.877293999999999
#
# number of rings (size 3 to 8) (size 9 to 14) (size 15 to 20)
#    0.000    0.667    3.333    4.500    7.000    0.000 
#    0.000    0.833    0.000    0.000    0.000    0.000 
#    0.000    0.000    0.000    0.000    0.000    0.000 
#
# Total GULP energy -297431.040055 kJ/mol
# GULP energy per Si atom -12392.960002 kJ/mol
# Density = 2.282522 g / cm^3
# Si number density = 22.877294 Si / 1000 Ang^3
#
#
#
# Elastic Constant Matrix: (Units=GPa)
#
#
# Indices 1 2 3 4 5 6 
#
# 1 135.5996 36.1508 52.5971 0.0000 0.0000 0.0000
# 2 36.1508 80.9504 14.6903 0.0000 0.0000 0.0000
# 3 52.5971 14.6903 91.6500 0.0000 0.0000 0.0000
# 4 0.0000 0.0000 0.0000 24.2299 0.0000 0.0000
# 5 0.0000 0.0000 0.0000 0.0000 28.8656 0.0000
# 6 0.0000 0.0000 0.0000 0.0000 0.0000 44.5141
#
#
#
# Elastic Compliance Matrix: (Units=1/GPa)
#
#
# Indices 1 2 3 4 5 6 
#
# 1 0.010456 -0.003688 -0.005410 0.000000 0.000000 0.000000
# 2 -0.003688 0.014024 -0.000131 0.000000 0.000000 0.000000
# 3 -0.005410 -0.000131 0.014037 0.000000 0.000000 0.000000
# 4 0.000000 0.000000 0.000000 0.041271 0.000000 0.000000
# 5 0.000000 0.000000 0.000000 0.000000 0.034643 0.000000
# 6 0.000000 0.000000 0.000000 0.000000 0.000000 0.022465
#
#
# Mechanical properties :
#
#
# Convention : Reuss Voigt Hill
#
# Bulk Modulus (GPa) = 49.85269 57.23072 53.54170
# Shear Modulus (GPa) = 30.85655 33.17271 32.01463
#
# Velocity S-wave (km/s) = 3.67656 3.81205 3.74492
# Velocity P-wave (km/s) = 6.31360 6.66681 6.49261
#
# Compressibility (1/GPa) = 0.02005910
#
# Stress axis : x y z
#
# Youngs Moduli (GPa) = 95.63780 71.30629 71.24208
#
# Poissons Ratio (x) = 0.26296 0.38539
# Poissons Ratio (y) = 0.35269 0.00937
# Poissons Ratio (z) = 0.51736 0.00937
#
# Static dielectric constant tensor:
#      x y z
#    x 4.469080 0.000000 0.000000 
#    y 0.000000 4.242660 0.000000 
#    z 0.000000 0.000000 4.110360 
# 
# 
# High freq. dielectric constant tensor:
#      x y z
#    x 1.915420 0.000000 0.000000 
#    y 0.000000 1.898070 0.000000 
#    z 0.000000 0.000000 1.909950 
# 
# From -- ./inp_files/7327.got.cif
#   From: 2010.03.12/outbox.cif.g09.slc.cpg/sg41_4_cif.got.tgz:7327.got - 2010.04.14 01:55:53.
