data_PCOD8185206
_publ_section_title
;
Structure prediction by ZEFSAII (Michael W. Deem and Ramdas Pophale) SiO2 
 PCOD8185206
Probable space group: A B A 2
;
_chemical_formula_sum "Si O2"
_cell_formula_units_Z 64
_cell_length_a 8.525356
_cell_length_b 15.062891
_cell_length_c 21.756265
_cell_angle_alpha 90.000000
_cell_angle_beta 90.000000
_cell_angle_gamma 90.000000
_cell_volume 2793.863582
_symmetry_space_group_name_H-M "A B A 2"
_symmetry_group_IT_number 41
_symmetry_cell_setting 'orthorhombic'
loop_
_space_group_symop_operation_xyz
x,y,z
-x,-y,z
1/2-x,y,1/2+z
1/2+x,-y,1/2+z
x,1/2+y,1/2+z
-x,1/2-y,1/2+z
1/2-x,1/2+y,z
1/2+x,1/2-y,z
loop_
_atom_site_type_symbol
_atom_site_label
_atom_site_fract_x
_atom_site_fract_y
_atom_site_fract_z
Si Si1 0.189148 0.883606 0.752280
Si Si2 0.506484 0.723048 0.250768
Si Si3 0.332297 0.326516 0.065365
Si Si4 0.814406 0.673218 0.936202
Si Si5 0.647018 0.319351 0.123846
Si Si6 0.180504 0.490882 0.376115
Si Si7 0.816409 0.009373 0.141068
Si Si8 0.362937 0.673101 0.377173
O O1 0.021465 0.830766 0.752271
O O2 0.309660 0.800371 0.752837
O O3 0.205411 0.948785 0.809458
O O4 0.211499 0.948895 0.694980
O O5 0.439738 0.680744 0.188923
O O6 0.432516 0.673657 0.309196
O O7 0.520762 0.314917 0.067650
O O8 0.266470 0.261663 0.118700
O O9 0.293374 0.428093 0.081760
O O10 0.250411 0.297270 0.002423
O O11 0.756864 0.573547 0.925898
O O12 0.745960 0.740778 0.885499
O O13 0.002475 0.675247 0.929828
O O14 0.744874 0.411842 0.121611
O O15 0.260284 0.585545 0.383686
O O16 0.000000 0.500000 0.392860
O O17 0.000000 0.000000 0.160149
#
# Coordination Sequence:
#
# PCOD8185206 Si02
#       8
#     8   8   8   8   8   8   8   8
#     4  12  24  43  70 108 141 181 232 293 356 431
#     4  12  21  41  76  98 142 180 229 282 369 413
#     4  11  24  43  68 100 134 184 239 284 341 416
#     4  12  26  46  70 100 141 189 243 296 349 425
#     4  11  22  43  71  98 139 182 227 290 353 415
#     4  12  28  45  69 103 141 184 240 297 364 426
#     4  10  21  41  68 101 138 184 227 281 353 418
#     4  12  25  45  72 102 142 188 236 296 365 424
#
# _framework density 22.907346
#
# number of rings (size 3 to 8) (size 9 to 14) (size 15 to 20)
#    0.000    0.500    6.250    2.625    1.750    2.500 
#    2.250    1.875    0.000    0.000    0.000    0.000 
#    0.000    0.000    0.000    0.000    0.000    0.000 
#
# Total GULP energy -396828.554083 kJ/mol
# GULP energy per Si atom -12400.892315 kJ/mol
# Density = 2.285521 g / cm^3
# Si number density = 22.907346 Si / 1000 Ang^3
#
#
#
# Elastic Constant Matrix: (Units=GPa)
#
#
# Indices 1 2 3 4 5 6 
#
# 1 78.6817 29.1231 5.8507 0.0000 0.0000 0.0000
# 2 29.1231 104.9311 8.3824 0.0000 0.0000 0.0000
# 3 5.8507 8.3824 58.1059 0.0000 0.0000 0.0000
# 4 0.0000 0.0000 0.0000 114.0043 0.0000 0.0000
# 5 0.0000 0.0000 0.0000 0.0000 20.8190 0.0000
# 6 0.0000 0.0000 0.0000 0.0000 0.0000 37.2622
#
#
#
# Elastic Compliance Matrix: (Units=1/GPa)
#
#
# Indices 1 2 3 4 5 6 
#
# 1 0.014208 -0.003874 -0.000872 0.000000 0.000000 0.000000
# 2 -0.003874 0.010697 -0.001153 0.000000 0.000000 0.000000
# 3 -0.000872 -0.001153 0.017464 0.000000 0.000000 0.000000
# 4 0.000000 0.000000 0.000000 0.008772 0.000000 0.000000
# 5 0.000000 0.000000 0.000000 0.000000 0.048033 0.000000
# 6 0.000000 0.000000 0.000000 0.000000 0.000000 0.026837
#
#
# Mechanical properties :
#
#
# Convention : Reuss Voigt Hill
#
# Bulk Modulus (GPa) = 32.70953 36.49235 34.60094
# Shear Modulus (GPa) = 33.78399 47.64126 40.71262
#
# Velocity S-wave (km/s) = 3.84449 4.56536 4.22035
# Velocity P-wave (km/s) = 5.83240 6.61476 6.23586
#
# Compressibility (1/GPa) = 0.03057213
#
# Stress axis : x y z
#
# Youngs Moduli (GPa) = 70.38243 93.48134 57.26032
#
# Poissons Ratio (x) = 0.36212 0.04992
# Poissons Ratio (y) = 0.27264 0.06603
# Poissons Ratio (z) = 0.06136 0.10780
#
# Static dielectric constant tensor:
#      x y z
#    x 4.105810 0.000000 0.000000 
#    y 0.000000 4.231540 0.000000 
#    z 0.000000 0.000000 3.940970 
# 
# 
# High freq. dielectric constant tensor:
#      x y z
#    x 1.895790 0.000000 0.000000 
#    y 0.000000 1.920270 0.000000 
#    z 0.000000 0.000000 1.898880 
# 
# From -- ./inp_files/12031.got.cif
#   From: 2010.03.12/outbox.cif.g09.slc.cpg/sg41_7_cif.got.tgz:12031.got - 2010.04.14 01:55:53.
