data_PCOD8185347
_publ_section_title
;
Structure prediction by ZEFSAII (Michael W. Deem and Ramdas Pophale) SiO2 
 PCOD8185347
Probable space group: A B A 2
;
_chemical_formula_sum "Si O2"
_cell_formula_units_Z 48
_cell_length_a 14.294719
_cell_length_b 17.492891
_cell_length_c 8.753577
_cell_angle_alpha 90.000000
_cell_angle_beta 90.000000
_cell_angle_gamma 90.000000
_cell_volume 2188.884112
_symmetry_space_group_name_H-M "A B A 2"
_symmetry_group_IT_number 41
_symmetry_cell_setting 'orthorhombic'
loop_
_space_group_symop_operation_xyz
x,y,z
-x,-y,z
1/2-x,y,1/2+z
1/2+x,-y,1/2+z
x,1/2+y,1/2+z
-x,1/2-y,1/2+z
1/2-x,1/2+y,z
1/2+x,1/2-y,z
loop_
_atom_site_type_symbol
_atom_site_label
_atom_site_fract_x
_atom_site_fract_y
_atom_site_fract_z
Si Si1 0.533510 0.917630 0.991490
Si Si2 0.211539 0.583810 0.793799
Si Si3 0.779961 0.586859 0.235113
Si Si4 0.859447 0.837499 0.990355
Si Si5 0.146568 0.837408 0.442256
Si Si6 0.016769 0.915900 0.839767
O O1 0.638684 0.907308 0.933253
O O2 0.500000 0.000000 0.934987
O O3 0.463348 0.854907 0.918434
O O4 0.531929 0.910669 0.173905
O O5 0.237549 0.497380 0.751042
O O6 0.167662 0.623772 0.647716
O O7 0.303421 0.627728 0.847682
O O8 0.808317 0.601441 0.060162
O O9 0.702587 0.649303 0.285040
O O10 0.872644 0.599730 0.337236
O O11 0.968559 0.854486 0.952573
O O12 0.841507 0.747677 0.004345
O O13 0.000000 0.000000 0.908789
#
# Coordination Sequence:
#
# PCOD8185347 Si02
#       6
#     8   8   8   8   8   8
#     4  10  22  42  68  96 131 177 220 276 329 393
#     4  12  24  43  71  98 132 177 230 268 330 405
#     4  11  23  43  70  94 132 179 221 272 326 406
#     4  12  26  41  67 102 135 173 219 281 335 396
#     4  11  25  43  65 100 138 171 220 278 342 385
#     4  10  22  42  69  94 132 175 220 269 334 389
#
# _framework density 21.928982999999999
#
# number of rings (size 3 to 8) (size 9 to 14) (size 15 to 20)
#    0.000    1.000    3.333    3.000    2.333    6.000 
#    0.000    0.000    0.000    0.000    0.000    0.000 
#    0.000    0.000    0.000    0.000    0.000    0.000 
#
# Total GULP energy -297691.161054 kJ/mol
# GULP energy per Si atom -12403.798377 kJ/mol
# Density = 2.187907 g / cm^3
# Si number density = 21.928983 Si / 1000 Ang^3
#
#
#
# Elastic Constant Matrix: (Units=GPa)
#
#
# Indices 1 2 3 4 5 6 
#
# 1 78.3273 37.4507 6.5128 0.0000 0.0000 0.0000
# 2 37.4507 124.4648 26.0421 0.0000 0.0000 0.0000
# 3 6.5128 26.0421 40.1477 0.0000 0.0000 0.0000
# 4 0.0000 0.0000 0.0000 22.0589 0.0000 0.0000
# 5 0.0000 0.0000 0.0000 0.0000 40.6732 0.0000
# 6 0.0000 0.0000 0.0000 0.0000 0.0000 30.7786
#
#
#
# Elastic Compliance Matrix: (Units=1/GPa)
#
#
# Indices 1 2 3 4 5 6 
#
# 1 0.014924 -0.004609 0.000569 0.000000 0.000000 0.000000
# 2 -0.004609 0.010720 -0.006206 0.000000 0.000000 0.000000
# 3 0.000569 -0.006206 0.028841 0.000000 0.000000 0.000000
# 4 0.000000 0.000000 0.000000 0.045333 0.000000 0.000000
# 5 0.000000 0.000000 0.000000 0.000000 0.024586 0.000000
# 6 0.000000 0.000000 0.000000 0.000000 0.000000 0.032490
#
#
# Mechanical properties :
#
#
# Convention : Reuss Voigt Hill
#
# Bulk Modulus (GPa) = 29.41853 42.55012 35.98433
# Shear Modulus (GPa) = 26.49471 30.23110 28.36290
#
# Velocity S-wave (km/s) = 3.47970 3.71697 3.60029
# Velocity P-wave (km/s) = 5.43956 6.15360 5.80757
#
# Compressibility (1/GPa) = 0.03399218
#
# Stress axis : x y z
#
# Youngs Moduli (GPa) = 67.00816 93.28532 34.67272
#
# Poissons Ratio (x) = 0.43000 -0.01973
# Poissons Ratio (y) = 0.30887 0.21517
# Poissons Ratio (z) = -0.03813 0.57890
#
# Static dielectric constant tensor:
#      x y z
#    x 4.220060 0.000000 0.000000 
#    y 0.000000 3.832700 0.000000 
#    z 0.000000 0.000000 3.734090 
# 
# 
# High freq. dielectric constant tensor:
#      x y z
#    x 1.878810 0.000000 0.000000 
#    y 0.000000 1.854640 0.000000 
#    z 0.000000 0.000000 1.851710 
# 
# From -- ./inp_files/2509.got.cif
#   From: 2010.03.12/outbox.cif.g09.slc.cpg/sg41_2_cif.got.tgz:2509.got - 2010.04.14 01:55:53.
