data_PCOD8185549
_publ_section_title
;
Structure prediction by ZEFSAII (Michael W. Deem and Ramdas Pophale) SiO2 
 PCOD8185549
Probable space group: A B A 2
;
_chemical_formula_sum "Si O2"
_cell_formula_units_Z 60
_cell_length_a 10.530516
_cell_length_b 16.297488
_cell_length_c 15.579242
_cell_angle_alpha 90.000000
_cell_angle_beta 90.000000
_cell_angle_gamma 90.000000
_cell_volume 2673.724439
_symmetry_space_group_name_H-M "A B A 2"
_symmetry_group_IT_number 41
_symmetry_cell_setting 'orthorhombic'
loop_
_space_group_symop_operation_xyz
x,y,z
-x,-y,z
1/2-x,y,1/2+z
1/2+x,-y,1/2+z
x,1/2+y,1/2+z
-x,1/2-y,1/2+z
1/2-x,1/2+y,z
1/2+x,1/2-y,z
loop_
_atom_site_type_symbol
_atom_site_label
_atom_site_fract_x
_atom_site_fract_y
_atom_site_fract_z
Si Si1 0.927857 0.314701 0.689400
Si Si2 0.219334 0.916725 0.542295
Si Si3 0.500000 0.500000 0.466199
Si Si4 0.183336 0.311477 0.382803
Si Si5 0.785802 0.680463 0.706585
Si Si6 0.101630 0.558015 0.553037
Si Si7 0.048972 0.586243 0.363061
Si Si8 0.164996 0.123484 0.356700
O O1 0.829378 0.242612 0.698330
O O2 0.874621 0.361057 0.606692
O O3 0.919309 0.374163 0.771224
O O4 0.074687 0.285841 0.679956
O O5 0.278327 0.854074 0.472553
O O6 0.249122 0.891612 0.640302
O O7 0.271667 0.008826 0.531403
O O8 0.070108 0.930615 0.524117
O O9 0.396158 0.551085 0.412218
O O10 0.286773 0.338971 0.309404
O O11 0.172087 0.213799 0.401209
O O12 0.049048 0.340809 0.340957
O O13 0.038588 0.586374 0.465332
O O14 0.000000 0.500000 0.602715
O O15 0.190529 0.601996 0.329566
O O16 0.000000 0.500000 0.323846
#
# Coordination Sequence:
#
# PCOD8185549 Si02
#       8
#     8   8   4   8   8   8   8   8
#     4  11  26  44  72  99 144 183 242 292 357 419
#     4  12  25  45  71 101 144 184 236 294 354 424
#     4  12  26  44  66 110 140 184 236 300 352 430
#     4  11  25  45  74 100 145 184 242 286 364 419
#     4  11  27  46  69 106 139 189 233 300 350 428
#     4  11  21  44  67  96 130 181 237 275 353 418
#     4  11  22  46  69 103 136 190 233 291 351 430
#     4  11  27  42  74 102 142 187 242 290 362 423
#
# _framework density 22.440608000000001
#
# number of rings (size 3 to 8) (size 9 to 14) (size 15 to 20)
#    0.000    0.800    5.333    0.800   12.133    4.267 
#    1.200    0.000    0.000    0.000    0.000    0.000 
#    0.000    0.000    0.000    0.000    0.000    0.000 
#
# Total GULP energy -371736.652131 kJ/mol
# GULP energy per Si atom -12391.221738 kJ/mol
# Density = 2.238953 g / cm^3
# Si number density = 22.440608 Si / 1000 Ang^3
#
#
#
# Elastic Constant Matrix: (Units=GPa)
#
#
# Indices 1 2 3 4 5 6 
#
# 1 140.3310 48.6799 13.2332 0.0000 0.0000 0.0000
# 2 48.6799 76.0464 18.5620 0.0000 0.0000 0.0000
# 3 13.2332 18.5620 70.0342 0.0000 0.0000 0.0000
# 4 0.0000 0.0000 0.0000 19.0280 0.0000 0.0000
# 5 0.0000 0.0000 0.0000 0.0000 19.6856 0.0000
# 6 0.0000 0.0000 0.0000 0.0000 0.0000 37.1070
#
#
#
# Elastic Compliance Matrix: (Units=1/GPa)
#
#
# Indices 1 2 3 4 5 6 
#
# 1 0.009162 -0.005819 -0.000189 0.000000 0.000000 0.000000
# 2 -0.005819 0.017755 -0.003606 0.000000 0.000000 0.000000
# 3 -0.000189 -0.003606 0.015270 0.000000 0.000000 0.000000
# 4 0.000000 0.000000 0.000000 0.052554 0.000000 0.000000
# 5 0.000000 0.000000 0.000000 0.000000 0.050799 0.000000
# 6 0.000000 0.000000 0.000000 0.000000 0.000000 0.026949
#
#
# Mechanical properties :
#
#
# Convention : Reuss Voigt Hill
#
# Bulk Modulus (GPa) = 43.55569 49.70685 46.63127
# Shear Modulus (GPa) = 25.07885 28.89323 26.98604
#
# Velocity S-wave (km/s) = 3.34663 3.59213 3.47155
# Velocity P-wave (km/s) = 5.86385 6.27718 6.07403
#
# Compressibility (1/GPa) = 0.02295911
#
# Stress axis : x y z
#
# Youngs Moduli (GPa) = 109.14153 56.32187 65.48673
#
# Poissons Ratio (x) = 0.32774 0.01238
# Poissons Ratio (y) = 0.63510 0.23617
# Poissons Ratio (z) = 0.02063 0.20311
#
# Static dielectric constant tensor:
#      x y z
#    x 4.228990 0.000000 0.000000 
#    y 0.000000 4.275090 0.000000 
#    z 0.000000 0.000000 4.612570 
# 
# 
# High freq. dielectric constant tensor:
#      x y z
#    x 1.901680 0.000000 0.000000 
#    y 0.000000 1.879060 0.000000 
#    z 0.000000 0.000000 1.875000 
# 
# From -- ./inp_files/8059.got.cif
#   From: 2010.03.12/outbox.cif.g09.slc.cpg/sg41_5_cif.got.tgz:8059.got - 2010.04.14 01:55:53.
