data_PCOD8185062
_publ_section_title
;
Structure prediction by ZEFSAII (Michael W. Deem and Ramdas Pophale) SiO2 
 PCOD8185062
Probable space group: A B A 2
;
_chemical_formula_sum "Si O2"
_cell_formula_units_Z 48
_cell_length_a 23.247790
_cell_length_b 10.510192
_cell_length_c 8.968423
_cell_angle_alpha 90.000000
_cell_angle_beta 90.000000
_cell_angle_gamma 90.000000
_cell_volume 2191.333144
_symmetry_space_group_name_H-M "A B A 2"
_symmetry_group_IT_number 41
_symmetry_cell_setting 'orthorhombic'
loop_
_space_group_symop_operation_xyz
x,y,z
-x,-y,z
1/2-x,y,1/2+z
1/2+x,-y,1/2+z
x,1/2+y,1/2+z
-x,1/2-y,1/2+z
1/2-x,1/2+y,z
1/2+x,1/2-y,z
loop_
_atom_site_type_symbol
_atom_site_label
_atom_site_fract_x
_atom_site_fract_y
_atom_site_fract_z
Si Si1 0.392975 0.451201 0.930470
Si Si2 0.700443 0.180725 0.241144
Si Si3 0.362032 0.058546 0.739289
Si Si4 0.458672 0.226481 0.783393
Si Si5 0.570209 0.268829 0.937996
Si Si6 0.692642 0.640634 0.419474
O O1 0.336229 0.421984 0.833846
O O2 0.437948 0.338836 0.895284
O O3 0.424761 0.583071 0.893117
O O4 0.372647 0.461685 0.102452
O O5 0.664991 0.305853 0.191488
O O6 0.758749 0.216665 0.327508
O O7 0.716205 0.115836 0.084768
O O8 0.422962 0.096480 0.816903
O O9 0.316840 0.999561 0.853188
O O10 0.525296 0.203814 0.823617
O O11 0.450374 0.257603 0.607682
O O12 0.631892 0.209581 0.906673
#
# Coordination Sequence:
#
# PCOD8185062 Si02
#       6
#     8   8   8   8   8   8
#     4  10  20  47  70  95 137 180 224 278 341 392
#     4  11  25  46  66 101 138 175 235 278 335 406
#     4  10  24  45  69 100 135 179 224 281 337 404
#     4  10  23  45  69 102 138 176 227 280 337 411
#     4  11  24  44  70 103 137 177 230 277 341 405
#     4  12  25  45  69  99 135 182 224 282 340 400
#
# _framework density 21.904474
#
# number of rings (size 3 to 8) (size 9 to 14) (size 15 to 20)
#    0.000    1.333    5.000    1.500    4.667    3.333 
#    6.000    0.000    0.000    0.000    0.000    0.000 
#    0.000    0.000    0.000    0.000    0.000    0.000 
#
# Total GULP energy -297461.613453 kJ/mol
# GULP energy per Si atom -12394.233894 kJ/mol
# Density = 2.185462 g / cm^3
# Si number density = 21.904474 Si / 1000 Ang^3
#
#
#
# Elastic Constant Matrix: (Units=GPa)
#
#
# Indices 1 2 3 4 5 6 
#
# 1 142.0538 13.4525 71.2196 0.0000 0.0000 0.0000
# 2 13.4525 73.5216 54.4936 0.0000 0.0000 0.0000
# 3 71.2196 54.4936 138.8020 0.0000 0.0000 0.0000
# 4 0.0000 0.0000 0.0000 36.1417 0.0000 0.0000
# 5 0.0000 0.0000 0.0000 0.0000 44.7356 0.0000
# 6 0.0000 0.0000 0.0000 0.0000 0.0000 33.7482
#
#
#
# Elastic Compliance Matrix: (Units=1/GPa)
#
#
# Indices 1 2 3 4 5 6 
#
# 1 0.009855 0.002743 -0.006133 0.000000 0.000000 0.000000
# 2 0.002743 0.019947 -0.009239 0.000000 0.000000 0.000000
# 3 -0.006133 -0.009239 0.013979 0.000000 0.000000 0.000000
# 4 0.000000 0.000000 0.000000 0.027669 0.000000 0.000000
# 5 0.000000 0.000000 0.000000 0.000000 0.022354 0.000000
# 6 0.000000 0.000000 0.000000 0.000000 0.000000 0.029631
#
#
# Mechanical properties :
#
#
# Convention : Reuss Voigt Hill
#
# Bulk Modulus (GPa) = 53.98885 70.30098 62.14492
# Shear Modulus (GPa) = 32.28583 37.27254 34.77919
#
# Velocity S-wave (km/s) = 3.84335 4.12951 3.98900
# Velocity P-wave (km/s) = 6.66304 7.40953 7.04618
#
# Compressibility (1/GPa) = 0.01852234
#
# Stress axis : x y z
#
# Youngs Moduli (GPa) = 101.47291 50.13246 71.53779
#
# Poissons Ratio (x) = -0.13750 0.43877
# Poissons Ratio (y) = -0.27832 0.66091
# Poissons Ratio (z) = 0.62237 0.46315
#
# Static dielectric constant tensor:
#      x y z
#    x 4.216360 0.000000 0.000000 
#    y 0.000000 3.872750 0.000000 
#    z 0.000000 0.000000 4.027550 
# 
# 
# High freq. dielectric constant tensor:
#      x y z
#    x 1.879780 0.000000 0.000000 
#    y 0.000000 1.846740 0.000000 
#    z 0.000000 0.000000 1.862070 
# 
# From -- ./inp_files/3605.got.cif
#   From: 2010.03.12/outbox.cif.g09.slc.cpg/sg41_2_cif.got.tgz:3605.got - 2010.04.14 01:55:53.
