data_PCOD8185461
_publ_section_title
;
Structure prediction by ZEFSAII (Michael W. Deem and Ramdas Pophale) SiO2 
 PCOD8185461
Probable space group: A B A 2
;
_chemical_formula_sum "Si O2"
_cell_formula_units_Z 56
_cell_length_a 8.810255
_cell_length_b 11.908828
_cell_length_c 23.284188
_cell_angle_alpha 90.000000
_cell_angle_beta 90.000000
_cell_angle_gamma 90.000000
_cell_volume 2442.972614
_symmetry_space_group_name_H-M "A B A 2"
_symmetry_group_IT_number 41
_symmetry_cell_setting 'orthorhombic'
loop_
_space_group_symop_operation_xyz
x,y,z
-x,-y,z
1/2-x,y,1/2+z
1/2+x,-y,1/2+z
x,1/2+y,1/2+z
-x,1/2-y,1/2+z
1/2-x,1/2+y,z
1/2+x,1/2-y,z
loop_
_atom_site_type_symbol
_atom_site_label
_atom_site_fract_x
_atom_site_fract_y
_atom_site_fract_z
Si Si1 0.034563 0.293956 0.867380
Si Si2 0.777125 0.916703 0.177885
Si Si3 0.838406 0.549247 0.788400
Si Si4 0.219755 0.596916 0.378865
Si Si5 0.653351 0.052727 0.969354
Si Si6 0.248158 0.393527 0.590658
Si Si7 0.514146 0.761875 0.148502
O O1 0.129667 0.321862 0.807404
O O2 0.060173 0.162219 0.878667
O O3 0.111341 0.359375 0.920238
O O4 0.856066 0.315789 0.864215
O O5 0.624316 0.842307 0.186814
O O6 0.919227 0.830491 0.185671
O O7 0.794163 0.020812 0.222842
O O8 0.779067 0.980814 0.116574
O O9 0.709834 0.495429 0.828683
O O10 0.000000 0.500000 0.808339
O O11 0.242312 0.543519 0.441340
O O12 0.500000 0.000000 0.995488
O O13 0.746941 0.104053 0.021961
O O14 0.113087 0.307799 0.603507
O O15 0.404326 0.344999 0.615081
#
# Coordination Sequence:
#
# PCOD8185461 Si02
#       7
#     8   8   8   8   8   8   8
#     4   9  19  36  57  81 109 145 186 231 285 346
#     4  11  22  40  60  85 121 156 197 249 297 353
#     4   9  19  36  57  80 111 149 186 231 290 344
#     4   9  19  36  57  81 109 145 186 231 285 346
#     4   9  19  36  57  80 111 149 186 231 290 344
#     4  11  22  40  60  85 121 156 197 249 297 353
#     4  10  24  38  58  90 116 158 206 238 298 362
#
# _framework density 22.922893999999999
#
# number of rings (size 3 to 8) (size 9 to 14) (size 15 to 20)
#    0.000    2.286    0.000    4.286    0.000    9.143 
#    0.000    5.714    0.000    0.000    0.000    0.000 
#    0.000    0.000    0.000    0.000    0.000    0.000 
#
# Total GULP energy -346950.592243 kJ/mol
# GULP energy per Si atom -12391.092580 kJ/mol
# Density = 2.287072 g / cm^3
# Si number density = 22.922894 Si / 1000 Ang^3
#
#
#
# Elastic Constant Matrix: (Units=GPa)
#
#
# Indices 1 2 3 4 5 6 
#
# 1 69.9863 10.6434 14.2191 0.0000 0.0000 0.0000
# 2 10.6434 43.9739 2.3974 0.0000 0.0000 0.0000
# 3 14.2191 2.3974 96.4462 0.0000 0.0000 0.0000
# 4 0.0000 0.0000 0.0000 24.9313 0.0000 0.0000
# 5 0.0000 0.0000 0.0000 0.0000 17.7458 0.0000
# 6 0.0000 0.0000 0.0000 0.0000 0.0000 43.0670
#
#
#
# Elastic Compliance Matrix: (Units=1/GPa)
#
#
# Indices 1 2 3 4 5 6 
#
# 1 0.015272 -0.003579 -0.002163 0.000000 0.000000 0.000000
# 2 -0.003579 0.023610 -0.000059 0.000000 0.000000 0.000000
# 3 -0.002163 -0.000059 0.010689 0.000000 0.000000 0.000000
# 4 0.000000 0.000000 0.000000 0.040110 0.000000 0.000000
# 5 0.000000 0.000000 0.000000 0.000000 0.056351 0.000000
# 6 0.000000 0.000000 0.000000 0.000000 0.000000 0.023220
#
#
# Mechanical properties :
#
#
# Convention : Reuss Voigt Hill
#
# Bulk Modulus (GPa) = 26.33649 29.43623 27.88636
# Shear Modulus (GPa) = 25.83846 29.35858 27.59852
#
# Velocity S-wave (km/s) = 3.36101 3.58264 3.47359
# Velocity P-wave (km/s) = 5.15519 5.47568 5.31785
#
# Compressibility (1/GPa) = 0.03797013
#
# Stress axis : x y z
#
# Youngs Moduli (GPa) = 65.47880 42.35464 93.55601
#
# Poissons Ratio (x) = 0.15157 0.20233
# Poissons Ratio (y) = 0.23432 0.00555
# Poissons Ratio (z) = 0.14161 0.00251
#
# Static dielectric constant tensor:
#      x y z
#    x 4.124820 0.000000 0.000000 
#    y 0.000000 4.185820 0.000000 
#    z 0.000000 0.000000 3.778620 
# 
# 
# High freq. dielectric constant tensor:
#      x y z
#    x 1.899950 0.000000 0.000000 
#    y 0.000000 1.906570 0.000000 
#    z 0.000000 0.000000 1.885410 
# 
# From -- ./inp_files/11204.got.cif
#   From: 2010.03.12/outbox.cif.g09.slc.cpg/sg41_6_cif.got.tgz:11204.got - 2010.04.14 01:55:53.
