data_PCOD8185161
_publ_section_title
;
Structure prediction by ZEFSAII (Michael W. Deem and Ramdas Pophale) SiO2 
 PCOD8185161
Probable space group: A B A 2
;
_chemical_formula_sum "Si O2"
_cell_formula_units_Z 40
_cell_length_a 8.208165
_cell_length_b 16.698353
_cell_length_c 14.817616
_cell_angle_alpha 90.000000
_cell_angle_beta 90.000000
_cell_angle_gamma 90.000000
_cell_volume 2030.944481
_symmetry_space_group_name_H-M "A B A 2"
_symmetry_group_IT_number 41
_symmetry_cell_setting 'orthorhombic'
loop_
_space_group_symop_operation_xyz
x,y,z
-x,-y,z
1/2-x,y,1/2+z
1/2+x,-y,1/2+z
x,1/2+y,1/2+z
-x,1/2-y,1/2+z
1/2-x,1/2+y,z
1/2+x,1/2-y,z
loop_
_atom_site_type_symbol
_atom_site_label
_atom_site_fract_x
_atom_site_fract_y
_atom_site_fract_z
Si Si1 0.918438 0.583567 0.177730
Si Si2 0.103577 0.748672 0.452786
Si Si3 0.315197 0.481984 0.029886
Si Si4 0.844337 0.849635 0.547318
Si Si5 0.353676 0.360989 0.872568
O O1 0.774263 0.574291 0.103779
O O2 0.841557 0.617649 0.268146
O O3 0.000000 0.500000 0.202123
O O4 0.062501 0.643259 0.142973
O O5 0.193413 0.713397 0.543911
O O6 0.229142 0.788642 0.384924
O O7 0.974336 0.816713 0.475854
O O8 0.030781 0.671639 0.401335
O O9 0.500000 0.500000 0.062497
O O10 0.212731 0.562687 0.016358
O O11 0.312944 0.437695 0.933898
#
# Coordination Sequence:
#
# PCOD8185161 Si02
#       5
#     8   8   8   8   8
#     4  10  23  40  62  95 120 164 218 257 301 371
#     4  10  22  39  64  93 122 169 202 254 326 362
#     4  11  21  42  65  88 126 169 211 256 305 369
#     4  10  21  40  64  89 125 162 208 255 311 368
#     4  11  22  42  63  91 129 167 209 257 314 371
#
# _framework density 19.695271000000002
#
# number of rings (size 3 to 8) (size 9 to 14) (size 15 to 20)
#    0.000    1.600    4.000    0.600    0.000    1.600 
#    3.600    2.000    0.000    0.000    0.000    0.000 
#    0.000    0.000    0.000    0.000    0.000    0.000 
#
# Total GULP energy -247898.384870 kJ/mol
# GULP energy per Si atom -12394.919243 kJ/mol
# Density = 1.965044 g / cm^3
# Si number density = 19.695271 Si / 1000 Ang^3
#
#
#
# Elastic Constant Matrix: (Units=GPa)
#
#
# Indices 1 2 3 4 5 6 
#
# 1 105.1509 51.6145 50.9952 0.0000 0.0000 0.0000
# 2 51.6145 97.9895 60.8545 0.0000 0.0000 0.0000
# 3 50.9952 60.8545 131.2381 0.0000 0.0000 0.0000
# 4 0.0000 0.0000 0.0000 28.0602 0.0000 0.0000
# 5 0.0000 0.0000 0.0000 0.0000 20.4883 0.0000
# 6 0.0000 0.0000 0.0000 0.0000 0.0000 34.9711
#
#
#
# Elastic Compliance Matrix: (Units=1/GPa)
#
#
# Indices 1 2 3 4 5 6 
#
# 1 0.013491 -0.005408 -0.002735 0.000000 0.000000 0.000000
# 2 -0.005408 0.016500 -0.005550 0.000000 0.000000 0.000000
# 3 -0.002735 -0.005550 0.011256 0.000000 0.000000 0.000000
# 4 0.000000 0.000000 0.000000 0.035638 0.000000 0.000000
# 5 0.000000 0.000000 0.000000 0.000000 0.048808 0.000000
# 6 0.000000 0.000000 0.000000 0.000000 0.000000 0.028595
#
#
# Mechanical properties :
#
#
# Convention : Reuss Voigt Hill
#
# Bulk Modulus (GPa) = 72.13722 73.47855 72.80788
# Shear Modulus (GPa) = 26.83946 28.09821 27.46883
#
# Velocity S-wave (km/s) = 3.69553 3.78120 3.73861
# Velocity P-wave (km/s) = 7.41050 7.51345 7.46215
#
# Compressibility (1/GPa) = 0.01386247
#
# Stress axis : x y z
#
# Youngs Moduli (GPa) = 74.12453 60.60518 88.84399
#
# Poissons Ratio (x) = 0.32774 0.24295
# Poissons Ratio (y) = 0.40085 0.49306
# Poissons Ratio (z) = 0.20270 0.33634
#
# Static dielectric constant tensor:
#      x y z
#    x 4.020220 0.000000 0.000000 
#    y 0.000000 3.776890 0.000000 
#    z 0.000000 0.000000 3.266850 
# 
# 
# High freq. dielectric constant tensor:
#      x y z
#    x 1.784370 0.000000 0.000000 
#    y 0.000000 1.782810 0.000000 
#    z 0.000000 0.000000 1.733560 
# 
# From -- ./inp_files/4360.got.cif
#   From: 2010.03.12/outbox.cif.g09.slc.cpg/sg41_3_cif.got.tgz:4360.got - 2010.04.14 01:55:53.
