data_PCOD8185789
_publ_section_title
;
Structure prediction by ZEFSAII (Michael W. Deem and Ramdas Pophale) SiO2 
 PCOD8185789
Probable space group: F M M 2
;
_chemical_formula_sum "Si O2"
_cell_formula_units_Z 80
_cell_length_a 7.746794
_cell_length_b 18.218263
_cell_length_c 29.214926
_cell_angle_alpha 90.000000
_cell_angle_beta 90.000000
_cell_angle_gamma 90.000000
_cell_volume 4123.193964
_symmetry_space_group_name_H-M "F M M 2"
_symmetry_group_IT_number 42
_symmetry_cell_setting 'orthorhombic'
loop_
_space_group_symop_operation_xyz
x,y,z
-x,-y,z
-x,y,z
x,-y,z
x,1/2+y,1/2+z
-x,1/2-y,1/2+z
-x,1/2+y,1/2+z
x,1/2-y,1/2+z
1/2+x,y,1/2+z
1/2-x,-y,1/2+z
1/2-x,y,1/2+z
1/2+x,-y,1/2+z
1/2+x,1/2+y,z
1/2-x,1/2-y,z
1/2-x,1/2+y,z
1/2+x,1/2-y,z
loop_
_atom_site_type_symbol
_atom_site_label
_atom_site_fract_x
_atom_site_fract_y
_atom_site_fract_z
Si Si1 0.698565 0.834454 0.660850
Si Si2 0.304002 0.335039 0.355491
Si Si3 0.808554 0.415672 0.073881
Si Si4 0.500000 0.912491 0.408401
Si Si5 0.000000 0.087186 0.012008
Si Si6 0.201186 0.333845 0.257999
O O1 0.500000 0.844837 0.648827
O O2 0.750000 0.750000 0.660906
O O3 0.807568 0.874645 0.622156
O O4 0.739584 0.871739 0.710430
O O5 0.500000 0.344601 0.373624
O O6 0.250000 0.250000 0.356943
O O7 0.296009 0.365030 0.303110
O O8 0.174679 0.382526 0.385864
O O9 0.763229 0.500000 0.083709
O O10 0.670321 0.382687 0.038029
O O11 0.000000 0.406856 0.052498
O O12 0.500000 0.883132 0.460419
O O13 0.500000 0.000000 0.404800
O O14 0.000000 0.000000 0.010658
O O15 0.250000 0.250000 0.252089
O O16 0.000000 0.344712 0.266113
#
# Coordination Sequence:
#
# PCOD8185789 Si02
#       6
#    16  16  16   8   8  16
#     4  11  20  32  53  83 120 151 192 236 285 338
#     4  11  20  38  65  90 122 161 205 247 300 361
#     4  10  20  37  60  83 110 149 195 237 284 347
#     4  11  24  42  64  93 123 155 201 258 309 357
#     4   9  20  40  62  81 110 151 195 238 290 353
#     4  10  17  30  52  84 115 154 197 235 278 349
#
# _framework density 19.402434
#
# number of rings (size 3 to 8) (size 9 to 14) (size 15 to 20)
#    0.000    1.600    3.000    6.000    0.000    1.200 
#    0.000    4.000    0.000    2.400    0.000    0.000 
#    0.000    0.000    0.000    0.000    0.000    0.000 
#
# Total GULP energy -247936.951203 kJ/mol
# GULP energy per Si atom -12396.847560 kJ/mol
# Density = 1.935827 g / cm^3
# Si number density = 19.402434 Si / 1000 Ang^3
#
#
#
# Elastic Constant Matrix: (Units=GPa)
#
#
# Indices 1 2 3 4 5 6 
#
# 1 161.0001 28.7309 56.5982 0.0000 0.0000 0.0000
# 2 28.7309 45.1331 39.2222 0.0000 0.0000 0.0000
# 3 56.5982 39.2222 162.6755 0.0000 0.0000 0.0000
# 4 0.0000 0.0000 0.0000 30.5585 0.0000 0.0000
# 5 0.0000 0.0000 0.0000 0.0000 39.1276 0.0000
# 6 0.0000 0.0000 0.0000 0.0000 0.0000 24.9989
#
#
#
# Elastic Compliance Matrix: (Units=1/GPa)
#
#
# Indices 1 2 3 4 5 6 
#
# 1 0.007411 -0.003134 -0.001823 0.000000 0.000000 0.000000
# 2 -0.003134 0.029355 -0.005987 0.000000 0.000000 0.000000
# 3 -0.001823 -0.005987 0.008225 0.000000 0.000000 0.000000
# 4 0.000000 0.000000 0.000000 0.032724 0.000000 0.000000
# 5 0.000000 0.000000 0.000000 0.000000 0.025557 0.000000
# 6 0.000000 0.000000 0.000000 0.000000 0.000000 0.040002
#
#
# Mechanical properties :
#
#
# Convention : Reuss Voigt Hill
#
# Bulk Modulus (GPa) = 43.28429 68.65682 55.97055
# Shear Modulus (GPa) = 28.92458 35.22082 32.07270
#
# Velocity S-wave (km/s) = 3.86524 4.26523 4.07015
# Velocity P-wave (km/s) = 6.50209 7.72779 7.14129
#
# Compressibility (1/GPa) = 0.02310307
#
# Stress axis : x y z
#
# Youngs Moduli (GPa) = 134.93031 34.06600 121.57958
#
# Poissons Ratio (x) = 0.10675 0.22164
# Poissons Ratio (y) = 0.42282 0.72795
# Poissons Ratio (z) = 0.24598 0.20397
#
# Static dielectric constant tensor:
#      x y z
#    x 3.726540 0.000000 0.000000 
#    y 0.000000 3.115600 0.000000 
#    z 0.000000 0.000000 3.940950 
# 
# 
# High freq. dielectric constant tensor:
#      x y z
#    x 1.777230 0.000000 0.000000 
#    y 0.000000 1.706500 0.000000 
#    z 0.000000 0.000000 1.761920 
# 
# From -- ./inp_files/31400.got.cif
#   From: 2010.03.12/outbox.cif.g09.slc.cpg/sg42_16_cif.got.tgz:31400.got - 2010.04.14 02:04:31.
