data_PCOD8185491
_publ_section_title
;
Structure prediction by ZEFSAII (Michael W. Deem and Ramdas Pophale) SiO2 
 PCOD8185491
Probable space group: A B A 2
;
_chemical_formula_sum "Si O2"
_cell_formula_units_Z 64
_cell_length_a 11.698562
_cell_length_b 14.742609
_cell_length_c 17.354242
_cell_angle_alpha 90.000000
_cell_angle_beta 90.000000
_cell_angle_gamma 90.000000
_cell_volume 2993.039703
_symmetry_space_group_name_H-M "A B A 2"
_symmetry_group_IT_number 41
_symmetry_cell_setting 'orthorhombic'
loop_
_space_group_symop_operation_xyz
x,y,z
-x,-y,z
1/2-x,y,1/2+z
1/2+x,-y,1/2+z
x,1/2+y,1/2+z
-x,1/2-y,1/2+z
1/2-x,1/2+y,z
1/2+x,1/2-y,z
loop_
_atom_site_type_symbol
_atom_site_label
_atom_site_fract_x
_atom_site_fract_y
_atom_site_fract_z
Si Si1 0.501222 0.899585 0.668610
Si Si2 0.942433 0.088392 0.617658
Si Si3 0.833113 0.316127 0.098904
Si Si4 0.309859 0.703930 0.252571
Si Si5 0.101292 0.895705 0.788957
Si Si6 0.302339 0.371114 0.069184
Si Si7 0.843569 0.435600 0.525707
Si Si8 0.145189 0.584466 0.351160
O O1 0.564661 0.833663 0.728574
O O2 0.368904 0.872024 0.652712
O O3 0.561191 0.898575 0.584100
O O4 0.500000 0.000000 0.705015
O O5 0.901292 0.064089 0.703130
O O6 0.833608 0.120372 0.570786
O O7 0.034235 0.169539 0.618765
O O8 0.000000 0.000000 0.579518
O O9 0.765953 0.288514 0.176198
O O10 0.825383 0.231193 0.038438
O O11 0.779630 0.406085 0.060448
O O12 0.326984 0.802313 0.292142
O O13 0.251943 0.636669 0.313754
O O14 0.972076 0.877753 0.816153
O O15 0.160038 0.975731 0.838858
O O16 0.349928 0.454556 0.018562
O O17 0.860041 0.393822 0.441788
#
# Coordination Sequence:
#
# PCOD8185491 Si02
#       8
#     8   8   8   8   8   8   8   8
#     4   9  22  38  66  96 129 164 212 274 326 375
#     4  12  20  40  66 101 125 160 217 278 328 375
#     4  11  22  38  69  98 128 159 217 273 327 376
#     4  11  22  41  65 100 128 164 215 277 328 380
#     4  11  23  37  69  93 126 170 217 268 322 394
#     4  11  23  38  68  94 130 165 215 272 323 381
#     4  10  24  44  61  95 131 173 212 263 323 390
#     4  11  25  43  64  93 135 176 219 260 324 405
#
# _framework density 21.382943000000001
#
# number of rings (size 3 to 8) (size 9 to 14) (size 15 to 20)
#    0.000    1.250    5.000    0.750   10.500    1.000 
#    0.000    0.000    2.750    0.000    0.000    0.000 
#    0.000    0.000    0.000    0.000    0.000    0.000 
#
# Total GULP energy -396617.650117 kJ/mol
# GULP energy per Si atom -12394.301566 kJ/mol
# Density = 2.133427 g / cm^3
# Si number density = 21.382943 Si / 1000 Ang^3
#
#
#
# Elastic Constant Matrix: (Units=GPa)
#
#
# Indices 1 2 3 4 5 6 
#
# 1 98.1082 39.6622 2.7923 0.0000 0.0000 0.0000
# 2 39.6622 129.7496 21.2442 0.0000 0.0000 0.0000
# 3 2.7923 21.2442 64.0148 0.0000 0.0000 0.0000
# 4 0.0000 0.0000 0.0000 17.2672 0.0000 0.0000
# 5 0.0000 0.0000 0.0000 0.0000 13.0652 0.0000
# 6 0.0000 0.0000 0.0000 0.0000 0.0000 41.9756
#
#
#
# Elastic Compliance Matrix: (Units=1/GPa)
#
#
# Indices 1 2 3 4 5 6 
#
# 1 0.011661 -0.003681 0.000713 0.000000 0.000000 0.000000
# 2 -0.003681 0.009312 -0.002930 0.000000 0.000000 0.000000
# 3 0.000713 -0.002930 0.016563 0.000000 0.000000 0.000000
# 4 0.000000 0.000000 0.000000 0.057913 0.000000 0.000000
# 5 0.000000 0.000000 0.000000 0.000000 0.076539 0.000000
# 6 0.000000 0.000000 0.000000 0.000000 0.000000 0.023823
#
#
# Mechanical properties :
#
#
# Convention : Reuss Voigt Hill
#
# Bulk Modulus (GPa) = 38.85085 46.58557 42.71821
# Shear Modulus (GPa) = 23.12807 29.67317 26.40062
#
# Velocity S-wave (km/s) = 3.29236 3.72923 3.51758
# Velocity P-wave (km/s) = 5.71501 6.35425 6.04309
#
# Compressibility (1/GPa) = 0.02573947
#
# Stress axis : x y z
#
# Youngs Moduli (GPa) = 85.75782 107.38668 60.37712
#
# Poissons Ratio (x) = 0.39532 -0.04305
# Poissons Ratio (y) = 0.31569 0.17689
# Poissons Ratio (z) = -0.06115 0.31462
#
# Static dielectric constant tensor:
#      x y z
#    x 4.013940 0.000000 0.000000 
#    y 0.000000 4.121540 0.000000 
#    z 0.000000 0.000000 3.355070 
# 
# 
# High freq. dielectric constant tensor:
#      x y z
#    x 1.849210 0.000000 0.000000 
#    y 0.000000 1.857220 0.000000 
#    z 0.000000 0.000000 1.782560 
# 
# From -- ./inp_files/10125.got.cif
#   From: 2010.03.12/outbox.cif.g09.slc.cpg/sg41_6_cif.got.tgz:10125.got - 2010.04.14 01:55:53.
