data_PCOD8185820
_publ_section_title
;
Structure prediction by ZEFSAII (Michael W. Deem and Ramdas Pophale) SiO2 
 PCOD8185820
Probable space group: F M M 2
;
_chemical_formula_sum "Si O2"
_cell_formula_units_Z 80
_cell_length_a 25.763949
_cell_length_b 9.137579
_cell_length_c 19.071818
_cell_angle_alpha 90.000000
_cell_angle_beta 90.000000
_cell_angle_gamma 90.000000
_cell_volume 4489.889670
_symmetry_space_group_name_H-M "F M M 2"
_symmetry_group_IT_number 42
_symmetry_cell_setting 'orthorhombic'
loop_
_space_group_symop_operation_xyz
x,y,z
-x,-y,z
-x,y,z
x,-y,z
x,1/2+y,1/2+z
-x,1/2-y,1/2+z
-x,1/2+y,1/2+z
x,1/2-y,1/2+z
1/2+x,y,1/2+z
1/2-x,-y,1/2+z
1/2-x,y,1/2+z
1/2+x,-y,1/2+z
1/2+x,1/2+y,z
1/2-x,1/2-y,z
1/2-x,1/2+y,z
1/2+x,1/2-y,z
loop_
_atom_site_type_symbol
_atom_site_label
_atom_site_fract_x
_atom_site_fract_y
_atom_site_fract_z
Si Si1 0.000000 0.327564 0.217260
Si Si2 0.101962 0.669944 0.710002
Si Si3 0.198371 0.171177 0.119285
Si Si4 0.801947 0.328919 0.458153
Si Si5 0.887400 0.664880 0.874347
Si Si6 0.500000 0.334033 0.358806
O O1 0.948171 0.259199 0.182949
O O2 0.000000 0.500000 0.206001
O O3 0.000000 0.287582 0.298978
O O4 0.091723 0.500000 0.694788
O O5 0.150692 0.728499 0.665703
O O6 0.113254 0.698331 0.791671
O O7 0.250000 0.250000 0.146748
O O8 0.207089 0.000000 0.129346
O O9 0.187148 0.212466 0.038697
O O10 0.794030 0.500000 0.447294
O O11 0.750000 0.250000 0.430778
O O12 0.850968 0.278730 0.413168
O O13 0.867790 0.500000 0.889233
O O14 0.946845 0.684762 0.903230
O O15 0.500000 0.500000 0.325378
#
# Coordination Sequence:
#
# PCOD8185820 Si02
#       6
#     8  16  16  16  16   8
#     4  10  18  28  47  76 103 127 159 199 241 282
#     4   9  18  34  53  72  98 131 163 196 240 291
#     4   9  19  35  53  71  94 128 165 200 242 289
#     4  10  20  34  51  71  97 129 163 200 243 289
#     4   9  17  31  52  75  98 127 161 196 237 288
#     4   8  16  32  51  70  97 133 163 191 239 292
#
# _framework density 17.817810999999999
#
# number of rings (size 3 to 8) (size 9 to 14) (size 15 to 20)
#    0.000    2.800    0.000    2.700    0.000    5.600 
#    0.000    3.000    0.000    3.600    0.000    0.000 
#    0.000    0.000    0.000    0.000    0.000    0.000 
#
# Total GULP energy -247951.442373 kJ/mol
# GULP energy per Si atom -12397.572119 kJ/mol
# Density = 1.777726 g / cm^3
# Si number density = 17.817811 Si / 1000 Ang^3
#
#
#
# Elastic Constant Matrix: (Units=GPa)
#
#
# Indices 1 2 3 4 5 6 
#
# 1 180.4789 70.8500 59.4203 0.0000 0.0000 0.0000
# 2 70.8500 80.4330 31.8410 0.0000 0.0000 0.0000
# 3 59.4203 31.8410 45.9923 0.0000 0.0000 0.0000
# 4 0.0000 0.0000 0.0000 19.6264 0.0000 0.0000
# 5 0.0000 0.0000 0.0000 0.0000 5.5798 0.0000
# 6 0.0000 0.0000 0.0000 0.0000 0.0000 36.6100
#
#
#
# Elastic Compliance Matrix: (Units=1/GPa)
#
#
# Indices 1 2 3 4 5 6 
#
# 1 0.011288 -0.005744 -0.010607 0.000000 0.000000 0.000000
# 2 -0.005744 0.020050 -0.006459 0.000000 0.000000 0.000000
# 3 -0.010607 -0.006459 0.039918 0.000000 0.000000 0.000000
# 4 0.000000 0.000000 0.000000 0.050952 0.000000 0.000000
# 5 0.000000 0.000000 0.000000 0.000000 0.179217 0.000000
# 6 0.000000 0.000000 0.000000 0.000000 0.000000 0.027315
#
#
# Mechanical properties :
#
#
# Convention : Reuss Voigt Hill
#
# Bulk Modulus (GPa) = 39.00896 70.12519 54.56707
# Shear Modulus (GPa) = 13.05808 22.01611 17.53709
#
# Velocity S-wave (km/s) = 2.71009 3.51896 3.14067
# Velocity P-wave (km/s) = 5.63325 7.48017 6.62142
#
# Compressibility (1/GPa) = 0.02563514
#
# Stress axis : x y z
#
# Youngs Moduli (GPa) = 88.59014 49.87655 25.05121
#
# Poissons Ratio (x) = 0.28650 0.26571
# Poissons Ratio (y) = 0.50887 0.16181
# Poissons Ratio (z) = 0.93966 0.32217
#
# Static dielectric constant tensor:
#      x y z
#    x 3.619640 0.000000 0.000000 
#    y 0.000000 3.188380 0.000000 
#    z 0.000000 0.000000 3.023160 
# 
# 
# High freq. dielectric constant tensor:
#      x y z
#    x 1.707670 0.000000 0.000000 
#    y 0.000000 1.686210 0.000000 
#    z 0.000000 0.000000 1.652270 
# 
# From -- ./inp_files/18220.got.cif
#   From: 2010.03.12/outbox.cif.g09.slc.cpg/sg42_10_cif.got.tgz:18220.got - 2010.04.14 02:04:31.
