data_PCOD8185577
_publ_section_title
;
Structure prediction by ZEFSAII (Michael W. Deem and Ramdas Pophale) SiO2 
 PCOD8185577
Probable space group: A B A 2
;
_chemical_formula_sum "Si O2"
_cell_formula_units_Z 64
_cell_length_a 30.071096
_cell_length_b 9.681888
_cell_length_c 10.603581
_cell_angle_alpha 90.000000
_cell_angle_beta 90.000000
_cell_angle_gamma 90.000000
_cell_volume 3087.179415
_symmetry_space_group_name_H-M "A B A 2"
_symmetry_group_IT_number 41
_symmetry_cell_setting 'orthorhombic'
loop_
_space_group_symop_operation_xyz
x,y,z
-x,-y,z
1/2-x,y,1/2+z
1/2+x,-y,1/2+z
x,1/2+y,1/2+z
-x,1/2-y,1/2+z
1/2-x,1/2+y,z
1/2+x,1/2-y,z
loop_
_atom_site_type_symbol
_atom_site_label
_atom_site_fract_x
_atom_site_fract_y
_atom_site_fract_z
Si Si1 0.669215 0.674120 0.670660
Si Si2 0.302984 0.444891 0.415584
Si Si3 0.120902 0.860491 0.224311
Si Si4 0.116513 0.104530 0.047929
Si Si5 0.745527 0.797176 0.823271
Si Si6 0.515034 0.846934 0.503968
Si Si7 0.479780 0.350518 0.277475
Si Si8 0.661385 0.904445 0.288229
O O1 0.674585 0.576592 0.549612
O O2 0.633158 0.794835 0.658753
O O3 0.715985 0.740568 0.708970
O O4 0.649309 0.565065 0.771200
O O5 0.340529 0.426977 0.309422
O O6 0.263382 0.333052 0.402141
O O7 0.283292 0.599619 0.410361
O O8 0.073175 0.864598 0.291555
O O9 0.133499 0.699947 0.197994
O O10 0.118106 0.945787 0.093827
O O11 0.067799 0.152215 0.012666
O O12 0.149891 0.132363 0.932714
O O13 0.786298 0.882674 0.763602
O O14 0.501016 0.748375 0.387596
O O15 0.493414 0.796401 0.636979
O O16 0.500000 0.000000 0.468470
O O17 0.500000 0.500000 0.300175
#
# Coordination Sequence:
#
# PCOD8185577 Si02
#       8
#     8   8   8   8   8   8   8   8
#     4  12  25  42  68  96 132 179 227 281 333 402
#     4  11  24  41  66  94 135 175 226 282 331 396
#     4  11  22  47  68  94 140 177 214 287 340 395
#     4  12  23  47  70  93 143 175 218 285 340 399
#     4  11  23  40  61  96 129 175 226 271 333 389
#     4  11  24  45  73 105 139 180 224 281 347 418
#     4  11  23  46  72 104 137 178 228 277 349 416
#     4  11  26  42  64 101 131 177 226 276 335 400
#
# _framework density 20.730898
#
# number of rings (size 3 to 8) (size 9 to 14) (size 15 to 20)
#    0.000    0.750    8.750    0.000    1.750    4.500 
#    4.500    0.000    0.000    0.000    0.000    0.000 
#    0.000    0.000    0.000    0.000    0.000    0.000 
#
# Total GULP energy -396785.458550 kJ/mol
# GULP energy per Si atom -12399.545580 kJ/mol
# Density = 2.068371 g / cm^3
# Si number density = 20.730898 Si / 1000 Ang^3
#
#
#
# Elastic Constant Matrix: (Units=GPa)
#
#
# Indices 1 2 3 4 5 6 
#
# 1 107.9444 37.6422 18.0096 0.0000 0.0000 0.0000
# 2 37.6422 118.5728 48.0723 0.0000 0.0000 0.0000
# 3 18.0096 48.0723 81.0151 0.0000 0.0000 0.0000
# 4 0.0000 0.0000 0.0000 31.2698 0.0000 0.0000
# 5 0.0000 0.0000 0.0000 0.0000 -94.9472 0.0000
# 6 0.0000 0.0000 0.0000 0.0000 0.0000 26.8633
#
#
#
# Elastic Compliance Matrix: (Units=1/GPa)
#
#
# Indices 1 2 3 4 5 6 
#
# 1 0.010431 -0.003122 -0.000466 0.000000 0.000000 0.000000
# 2 -0.003122 0.012040 -0.006450 0.000000 0.000000 0.000000
# 3 -0.000466 -0.006450 0.016274 0.000000 0.000000 0.000000
# 4 0.000000 0.000000 0.000000 0.031980 0.000000 0.000000
# 5 0.000000 0.000000 0.000000 0.000000 -0.010532 0.000000
# 6 0.000000 0.000000 0.000000 0.000000 0.000000 0.037226
#
#
# Mechanical properties :
#
#
# Convention : Reuss Voigt Hill
#
# Bulk Modulus (GPa) = 53.56785 57.22008 55.39396
# Shear Modulus (GPa) = 40.41471 6.22440 23.31956
#
# Velocity S-wave (km/s) = 4.42009 1.73465 3.35755
# Velocity P-wave (km/s) = 7.20731 5.62790 6.46601
#
# Compressibility (1/GPa) = 0.01866791
#
# Stress axis : x y z
#
# Youngs Moduli (GPa) = 95.87168 83.05727 61.44676
#
# Poissons Ratio (x) = 0.25934 0.02863
# Poissons Ratio (y) = 0.29935 0.39633
# Poissons Ratio (z) = 0.04467 0.53572
#
# Static dielectric constant tensor:
#      x y z
#    x 4.022970 0.000000 0.000000 
#    y 0.000000 4.067930 0.000000 
#    z 0.000000 0.000000 3.628510 
# 
# 
# High freq. dielectric constant tensor:
#      x y z
#    x 1.815110 0.000000 0.000000 
#    y 0.000000 1.824140 0.000000 
#    z 0.000000 0.000000 1.796270 
# 
# From -- ./inp_files/6656.got.cif
#   From: 2010.03.12/outbox.cif.g09.slc.cpg/sg41_4_cif.got.tgz:6656.got - 2010.04.14 01:55:53.
