data_PCOD8185938
_publ_section_title
;
Structure prediction by ZEFSAII (Michael W. Deem and Ramdas Pophale) SiO2 
 PCOD8185938
Probable space group: F M M 2
;
_chemical_formula_sum "Si O2"
_cell_formula_units_Z 128
_cell_length_a 17.998501
_cell_length_b 21.920865
_cell_length_c 18.413702
_cell_angle_alpha 90.000000
_cell_angle_beta 90.000000
_cell_angle_gamma 90.000000
_cell_volume 7264.991900
_symmetry_space_group_name_H-M "F M M 2"
_symmetry_group_IT_number 42
_symmetry_cell_setting 'orthorhombic'
loop_
_space_group_symop_operation_xyz
x,y,z
-x,-y,z
-x,y,z
x,-y,z
x,1/2+y,1/2+z
-x,1/2-y,1/2+z
-x,1/2+y,1/2+z
x,1/2-y,1/2+z
1/2+x,y,1/2+z
1/2-x,-y,1/2+z
1/2-x,y,1/2+z
1/2+x,-y,1/2+z
1/2+x,1/2+y,z
1/2-x,1/2-y,z
1/2-x,1/2+y,z
1/2+x,1/2-y,z
loop_
_atom_site_type_symbol
_atom_site_label
_atom_site_fract_x
_atom_site_fract_y
_atom_site_fract_z
Si Si1 0.688811 0.429769 0.502740
Si Si2 0.917275 0.070997 0.371838
Si Si3 0.196861 0.119379 0.257337
Si Si4 0.331432 0.220867 0.648385
Si Si5 0.306959 0.304919 0.842866
Si Si6 0.586316 0.819818 0.220162
Si Si7 0.294158 0.186125 0.499476
Si Si8 0.674264 0.432612 0.671292
O O1 0.716939 0.500000 0.485664
O O2 0.623139 0.410613 0.447201
O O3 0.749394 0.376972 0.495461
O O4 0.661776 0.427077 0.585311
O O5 0.869099 0.086587 0.300384
O O6 0.000000 0.101832 0.368849
O O7 0.929046 0.000000 0.370867
O O8 0.158651 0.175459 0.215651
O O9 0.260104 0.136813 0.315867
O O10 0.240057 0.079842 0.195667
O O11 0.250000 0.250000 0.654352
O O12 0.391336 0.275369 0.653648
O O13 0.344796 0.185722 0.571907
O O14 0.250000 0.250000 0.839939
O O15 0.377311 0.291579 0.792536
O O16 0.339631 0.313691 0.924115
O O17 0.500000 0.822428 0.231185
O O18 0.616348 0.887409 0.208213
O O19 0.250000 0.250000 0.504155
O O20 0.652810 0.500000 0.697717
#
# Coordination Sequence:
#
# PCOD8185938 Si02
#       8
#    16  16  16  16  16  16  16  16
#     4  10  19  34  54  81 109 140 183 228 273 329
#     4  10  22  36  50  77 119 155 180 220 281 340
#     4  11  17  32  57  79 110 136 187 230 268 320
#     4  11  18  35  56  79 108 137 176 226 279 323
#     4  10  18  34  55  78 105 137 177 226 270 322
#     4  11  22  36  53  78 111 146 179 224 280 330
#     4  10  19  32  56  79 105 139 179 223 275 318
#     4  10  20  34  56  81 105 143 189 230 270 323
#
# _framework density 17.618739000000001
#
# number of rings (size 3 to 8) (size 9 to 14) (size 15 to 20)
#    0.000    1.625    6.250    1.125    0.000    1.250 
#    0.000    1.875    0.000    0.000    0.000    0.000 
#    0.000    1.000    0.000    0.000    0.000    0.000 
#
# Total GULP energy -396447.624670 kJ/mol
# GULP energy per Si atom -12388.988271 kJ/mol
# Density = 1.757864 g / cm^3
# Si number density = 17.618739 Si / 1000 Ang^3
#
#
#
# Elastic Constant Matrix: (Units=GPa)
#
#
# Indices 1 2 3 4 5 6 
#
# 1 103.3589 38.0384 47.5867 0.0000 0.0000 0.0000
# 2 38.0384 83.8650 32.5696 0.0000 0.0000 0.0000
# 3 47.5867 32.5696 125.7139 0.0000 0.0000 0.0000
# 4 0.0000 0.0000 0.0000 17.7964 0.0000 0.0000
# 5 0.0000 0.0000 0.0000 0.0000 4.5739 0.0000
# 6 0.0000 0.0000 0.0000 0.0000 0.0000 17.9977
#
#
#
# Elastic Compliance Matrix: (Units=1/GPa)
#
#
# Indices 1 2 3 4 5 6 
#
# 1 0.013058 -0.004451 -0.003790 0.000000 0.000000 0.000000
# 2 -0.004451 0.014775 -0.002143 0.000000 0.000000 0.000000
# 3 -0.003790 -0.002143 0.009944 0.000000 0.000000 0.000000
# 4 0.000000 0.000000 0.000000 0.056191 0.000000 0.000000
# 5 0.000000 0.000000 0.000000 0.000000 0.218634 0.000000
# 6 0.000000 0.000000 0.000000 0.000000 0.000000 0.055563
#
#
# Mechanical properties :
#
#
# Convention : Reuss Voigt Hill
#
# Bulk Modulus (GPa) = 58.78935 61.03636 59.91286
# Shear Modulus (GPa) = 12.67100 21.05646 16.86373
#
# Velocity S-wave (km/s) = 2.68466 3.46080 3.09714
# Velocity P-wave (km/s) = 6.56123 7.11952 6.84607
#
# Compressibility (1/GPa) = 0.01700988
#
# Stress axis : x y z
#
# Youngs Moduli (GPa) = 76.58242 67.68208 100.56005
#
# Poissons Ratio (x) = 0.30124 0.38109
# Poissons Ratio (y) = 0.34086 0.21551
# Poissons Ratio (z) = 0.29022 0.14505
#
# Static dielectric constant tensor:
#      x y z
#    x 3.039150 0.000000 0.000000 
#    y 0.000000 3.151460 0.000000 
#    z 0.000000 0.000000 3.900230 
# 
# 
# High freq. dielectric constant tensor:
#      x y z
#    x 1.630800 0.000000 0.000000 
#    y 0.000000 1.688150 0.000000 
#    z 0.000000 0.000000 1.700020 
# 
# From -- ./inp_files/21224.got.cif
#   From: 2010.03.12/outbox.cif.g09.slc.cpg/sg42_11_cif.got.tgz:21224.got - 2010.04.14 02:04:31.
