data_PCOD8185946
_publ_section_title
;
Structure prediction by ZEFSAII (Michael W. Deem and Ramdas Pophale) SiO2 
 PCOD8185946
Probable space group: F M M 2
;
_chemical_formula_sum "Si O2"
_cell_formula_units_Z 96
_cell_length_a 25.309667
_cell_length_b 8.561331
_cell_length_c 23.699002
_cell_angle_alpha 90.000000
_cell_angle_beta 90.000000
_cell_angle_gamma 90.000000
_cell_volume 5135.204898
_symmetry_space_group_name_H-M "F M M 2"
_symmetry_group_IT_number 42
_symmetry_cell_setting 'orthorhombic'
loop_
_space_group_symop_operation_xyz
x,y,z
-x,-y,z
-x,y,z
x,-y,z
x,1/2+y,1/2+z
-x,1/2-y,1/2+z
-x,1/2+y,1/2+z
x,1/2-y,1/2+z
1/2+x,y,1/2+z
1/2-x,-y,1/2+z
1/2-x,y,1/2+z
1/2+x,-y,1/2+z
1/2+x,1/2+y,z
1/2-x,1/2-y,z
1/2-x,1/2+y,z
1/2+x,1/2-y,z
loop_
_atom_site_type_symbol
_atom_site_label
_atom_site_fract_x
_atom_site_fract_y
_atom_site_fract_z
Si Si1 0.559243 0.184902 0.475520
Si Si2 0.692498 0.315461 0.665183
Si Si3 0.000000 0.184663 0.789119
Si Si4 0.400527 0.685040 0.095359
Si Si5 0.101402 0.685447 0.356428
Si Si6 0.000000 0.685622 0.160657
Si Si7 0.307181 0.183925 0.784826
O O1 0.500000 0.257054 0.474715
O O2 0.590142 0.241267 0.531165
O O3 0.592074 0.238996 0.420893
O O4 0.553685 0.000000 0.475394
O O5 0.694781 0.500000 0.667704
O O6 0.750000 0.250000 0.650763
O O7 0.653603 0.261277 0.615968
O O8 0.672033 0.253979 0.725652
O O9 0.052154 0.248559 0.819927
O O10 0.000000 0.241853 0.725114
O O11 0.000000 0.000000 0.794050
O O12 0.396596 0.500000 0.100086
O O13 0.448338 0.744258 0.132945
O O14 0.108280 0.500000 0.350877
O O15 0.153914 0.769605 0.335080
O O16 0.000000 0.500000 0.155064
O O17 0.250000 0.250000 0.800411
O O18 0.303319 0.000000 0.778226
#
# Coordination Sequence:
#
# PCOD8185946 Si02
#       7
#    16  16   8  16  16   8  16
#     4   9  17  33  58  84 111 151 196 234 281 335
#     4  11  22  39  61  86 114 148 190 235 290 349
#     4   9  18  30  51  79 109 141 180 225 274 332
#     4  11  21  36  57  83 115 152 194 240 286 339
#     4  10  18  34  59  84 111 148 192 234 278 336
#     4  11  21  32  49  81 117 151 188 235 290 344
#     4  11  22  38  59  85 115 149 188 232 287 342
#
# _framework density 18.694483999999999
#
# number of rings (size 3 to 8) (size 9 to 14) (size 15 to 20)
#    0.000    1.667    1.667    5.750    0.000    1.333 
#    0.000    3.750    0.000    0.000    0.000    0.000 
#    0.000    0.000    0.000    0.000    0.000    0.000 
#
# Total GULP energy -297664.300191 kJ/mol
# GULP energy per Si atom -12402.679175 kJ/mol
# Density = 1.865193 g / cm^3
# Si number density = 18.694484 Si / 1000 Ang^3
#
#
#
# Elastic Constant Matrix: (Units=GPa)
#
#
# Indices 1 2 3 4 5 6 
#
# 1 129.6911 44.4377 91.8027 0.0000 0.0000 0.0000
# 2 44.4377 103.7521 48.8185 0.0000 -0.0001 -0.0001
# 3 91.8027 48.8185 171.1594 0.0000 0.0000 0.0000
# 4 0.0000 0.0000 0.0000 21.2126 0.0000 0.0000
# 5 0.0000 -0.0001 0.0000 0.0000 1.9035 0.0000
# 6 0.0000 -0.0001 0.0000 0.0000 0.0000 29.7621
#
#
#
# Elastic Compliance Matrix: (Units=1/GPa)
#
#
# Indices 1 2 3 4 5 6 
#
# 1 0.013031 -0.002648 -0.006234 0.000000 0.000000 0.000000
# 2 -0.002648 0.011670 -0.001908 0.000000 0.000000 0.000000
# 3 -0.006234 -0.001908 0.009730 0.000000 0.000000 0.000000
# 4 0.000000 0.000000 0.000000 0.047142 0.000000 0.000000
# 5 0.000000 0.000000 0.000000 0.000000 0.525343 -0.000001
# 6 0.000000 0.000000 0.000000 0.000000 -0.000001 0.033600
#
#
# Mechanical properties :
#
#
# Convention : Reuss Voigt Hill
#
# Bulk Modulus (GPa) = 77.81432 86.08003 81.94717
# Shear Modulus (GPa) = 7.50322 25.21189 16.35756
#
# Velocity S-wave (km/s) = 2.00557 3.67635 2.96124
# Velocity P-wave (km/s) = 6.86132 8.01039 7.45802
#
# Compressibility (1/GPa) = 0.01285111
#
# Stress axis : x y z
#
# Youngs Moduli (GPa) = 76.74286 85.68647 102.77088
#
# Poissons Ratio (x) = 0.22689 0.64065
# Poissons Ratio (y) = 0.20321 0.19613
# Poissons Ratio (z) = 0.47840 0.16353
#
# Static dielectric constant tensor:
#      x y z
#    x 3.610290 0.000000 0.000000 
#    y 0.000000 3.276510 0.000000 
#    z 0.000000 0.000000 3.688810 
# 
# 
# High freq. dielectric constant tensor:
#      x y z
#    x 1.730170 0.000000 0.000000 
#    y 0.000000 1.713520 0.000000 
#    z 0.000000 0.000000 1.730470 
# 
# From -- ./inp_files/28096.got.cif
#   From: 2010.03.12/outbox.cif.g09.slc.cpg/sg42_15_cif.got.tgz:28096.got - 2010.04.14 02:04:31.
