data_PCOD8185838
_publ_section_title
;
Structure prediction by ZEFSAII (Michael W. Deem and Ramdas Pophale) SiO2 
 PCOD8185838
Probable space group: F M M 2
;
_chemical_formula_sum "Si O2"
_cell_formula_units_Z 128
_cell_length_a 17.911393
_cell_length_b 23.405105
_cell_length_c 18.733784
_cell_angle_alpha 90.000000
_cell_angle_beta 90.000000
_cell_angle_gamma 90.000000
_cell_volume 7853.540095
_symmetry_space_group_name_H-M "F M M 2"
_symmetry_group_IT_number 42
_symmetry_cell_setting 'orthorhombic'
loop_
_space_group_symop_operation_xyz
x,y,z
-x,-y,z
-x,y,z
x,-y,z
x,1/2+y,1/2+z
-x,1/2-y,1/2+z
-x,1/2+y,1/2+z
x,1/2-y,1/2+z
1/2+x,y,1/2+z
1/2-x,-y,1/2+z
1/2-x,y,1/2+z
1/2+x,-y,1/2+z
1/2+x,1/2+y,z
1/2-x,1/2-y,z
1/2-x,1/2+y,z
1/2+x,1/2-y,z
loop_
_atom_site_type_symbol
_atom_site_label
_atom_site_fract_x
_atom_site_fract_y
_atom_site_fract_z
Si Si1 0.828808 0.836997 0.072220
Si Si2 0.085474 0.737965 0.994359
Si Si3 0.414397 0.762845 0.337249
Si Si4 0.586272 0.566040 0.690706
Si Si5 0.587211 0.934142 0.494587
Si Si6 0.655349 0.159645 0.097874
Si Si7 0.088562 0.390882 0.342539
Si Si8 0.665365 0.761968 0.700421
O O1 0.739415 0.840995 0.068110
O O2 0.848264 0.818969 0.153452
O O3 0.858335 0.787405 0.020045
O O4 0.866686 0.896893 0.051853
O O5 0.098061 0.728707 0.910294
O O6 0.000000 0.757047 0.009554
O O7 0.103418 0.677212 0.030923
O O8 0.500000 0.768944 0.316653
O O9 0.380136 0.826465 0.343719
O O10 0.376717 0.727453 0.274115
O O11 0.500000 0.585010 0.685790
O O12 0.596668 0.500000 0.673472
O O13 0.633294 0.598649 0.630132
O O14 0.617703 0.578455 0.770475
O O15 0.500000 0.917819 0.500821
O O16 0.617299 0.922514 0.414170
O O17 0.600985 0.000000 0.513775
O O18 0.636467 0.206498 0.158259
O O19 0.000000 0.393257 0.344070
O O20 0.750000 0.750000 0.719642
#
# Coordination Sequence:
#
# PCOD8185838 Si02
#       8
#    16  16  16  16  16  16  16  16
#     4  10  20  33  47  70  99 128 163 194 235 284
#     4  10  19  32  50  71  97 126 159 198 239 284
#     4  10  18  29  49  73  94 123 157 189 237 289
#     4  10  19  31  50  73  96 127 162 195 238 285
#     4  10  19  32  51  73  97 127 161 197 239 284
#     4  10  20  33  47  69  99 129 161 196 234 283
#     4   9  16  29  47  73 100 120 152 196 238 287
#     4   9  19  32  46  67  97 127 157 191 232 284
#
# _framework density 16.298383000000001
#
# number of rings (size 3 to 8) (size 9 to 14) (size 15 to 20)
#    0.000    2.250    2.500    2.250    0.000    5.500 
#    0.000    0.000    0.000    0.000    0.000    0.875 
#    0.000    3.000    0.000    0.000    0.000    0.000 
#
# Total GULP energy -396714.626696 kJ/mol
# GULP energy per Si atom -12397.332084 kJ/mol
# Density = 1.626129 g / cm^3
# Si number density = 16.298383 Si / 1000 Ang^3
#
#
#
# Elastic Constant Matrix: (Units=GPa)
#
#
# Indices 1 2 3 4 5 6 
#
# 1 66.7592 34.4328 61.1500 0.0000 0.0000 0.0000
# 2 34.4328 82.1123 56.0929 0.0000 0.0000 0.0000
# 3 61.1500 56.0929 113.8813 0.0000 0.0000 0.0000
# 4 0.0000 0.0000 0.0000 27.0780 0.0000 0.0000
# 5 0.0000 0.0000 0.0000 0.0000 20.2151 0.0000
# 6 0.0000 0.0000 0.0000 0.0000 0.0000 20.0575
#
#
#
# Elastic Compliance Matrix: (Units=1/GPa)
#
#
# Indices 1 2 3 4 5 6 
#
# 1 0.029777 -0.002357 -0.014828 0.000000 0.000000 0.000000
# 2 -0.002357 0.018541 -0.007867 0.000000 0.000000 0.000000
# 3 -0.014828 -0.007867 0.020618 0.000000 0.000000 0.000000
# 4 0.000000 0.000000 0.000000 0.036930 0.000000 0.000000
# 5 0.000000 0.000000 0.000000 0.000000 0.049468 0.000000
# 6 0.000000 0.000000 0.000000 0.000000 0.000000 0.049857
#
#
# Mechanical properties :
#
#
# Convention : Reuss Voigt Hill
#
# Bulk Modulus (GPa) = 53.10120 62.90047 58.00084
# Shear Modulus (GPa) = 19.11513 20.87526 19.99519
#
# Velocity S-wave (km/s) = 3.42837 3.58273 3.50640
# Velocity P-wave (km/s) = 6.95147 7.46937 7.21507
#
# Compressibility (1/GPa) = 0.01883196
#
# Stress axis : x y z
#
# Youngs Moduli (GPa) = 33.58253 53.93506 48.50122
#
# Poissons Ratio (x) = 0.12714 0.71919
# Poissons Ratio (y) = 0.07916 0.38154
# Poissons Ratio (z) = 0.49797 0.42429
#
# Static dielectric constant tensor:
#      x y z
#    x 2.941870 0.000000 0.000000 
#    y 0.000000 2.943100 0.000000 
#    z 0.000000 0.000000 3.159220 
# 
# 
# High freq. dielectric constant tensor:
#      x y z
#    x 1.608800 0.000000 0.000000 
#    y 0.000000 1.605810 0.000000 
#    z 0.000000 0.000000 1.629230 
# 
# From -- ./inp_files/21245.got.cif
#   From: 2010.03.12/outbox.cif.g09.slc.cpg/sg42_11_cif.got.tgz:21245.got - 2010.04.14 02:04:31.
