data_PCOD8185338
_publ_section_title
;
Structure prediction by ZEFSAII (Michael W. Deem and Ramdas Pophale) SiO2 
 PCOD8185338
Probable space group: A B A 2
;
_chemical_formula_sum "Si O2"
_cell_formula_units_Z 52
_cell_length_a 10.794257
_cell_length_b 23.838001
_cell_length_c 9.423605
_cell_angle_alpha 90.000000
_cell_angle_beta 90.000000
_cell_angle_gamma 90.000000
_cell_volume 2424.820871
_symmetry_space_group_name_H-M "A B A 2"
_symmetry_group_IT_number 41
_symmetry_cell_setting 'orthorhombic'
loop_
_space_group_symop_operation_xyz
x,y,z
-x,-y,z
1/2-x,y,1/2+z
1/2+x,-y,1/2+z
x,1/2+y,1/2+z
-x,1/2-y,1/2+z
1/2-x,1/2+y,z
1/2+x,1/2-y,z
loop_
_atom_site_type_symbol
_atom_site_label
_atom_site_fract_x
_atom_site_fract_y
_atom_site_fract_z
Si Si1 0.352785 0.664563 0.267180
Si Si2 0.000000 0.000000 0.276369
Si Si3 0.924162 0.878737 0.764540
Si Si4 0.282220 0.852249 0.579619
Si Si5 0.972771 0.910603 0.065617
Si Si6 0.139111 0.795376 0.812159
Si Si7 0.029359 0.401946 0.975488
O O1 0.214520 0.642308 0.279559
O O2 0.402825 0.646299 0.112462
O O3 0.362494 0.730748 0.274713
O O4 0.439220 0.638582 0.388209
O O5 0.080136 0.038187 0.164568
O O6 0.933405 0.042742 0.384735
O O7 0.010304 0.823543 0.765126
O O8 0.954460 0.914558 0.622408
O O9 0.951707 0.919967 0.898330
O O10 0.379957 0.903213 0.598107
O O11 0.253749 0.824954 0.731194
O O12 0.341349 0.804302 0.479441
O O13 0.158470 0.873512 0.506728
#
# Coordination Sequence:
#
# PCOD8185338 Si02
#       7
#     8   4   8   8   8   8   8
#     4  11  23  38  63  94 137 166 207 258 313 380
#     4  10  22  46  68  88 124 166 210 268 332 362
#     4  10  23  39  61  98 131 166 209 267 306 391
#     4  10  22  42  64  92 130 166 210 260 308 388
#     4  10  23  43  64  94 126 165 217 267 316 376
#     4  10  23  35  64  93 131 175 207 245 320 377
#     4  10  23  43  64  94 126 165 217 267 316 376
#
# _framework density 21.444882
#
# number of rings (size 3 to 8) (size 9 to 14) (size 15 to 20)
#    0.000    1.846    0.000    2.769    8.615    3.077 
#   11.077    0.000    0.000    0.000    0.000    0.000 
#    0.000    0.000    0.000    0.000    0.000    0.000 
#
# Total GULP energy -322185.882559 kJ/mol
# GULP energy per Si atom -12391.764714 kJ/mol
# Density = 2.139607 g / cm^3
# Si number density = 21.444882 Si / 1000 Ang^3
#
#
#
# Elastic Constant Matrix: (Units=GPa)
#
#
# Indices 1 2 3 4 5 6 
#
# 1 116.7822 20.6970 23.9544 0.0000 0.0000 0.0000
# 2 20.6970 101.1827 46.3463 0.0000 0.0000 0.0000
# 3 23.9544 46.3463 134.3282 0.0000 0.0000 0.0000
# 4 0.0000 0.0000 0.0000 22.7818 0.0000 0.0000
# 5 0.0000 0.0000 0.0000 0.0000 36.9648 0.0000
# 6 0.0000 0.0000 0.0000 0.0000 0.0000 10.5813
#
#
#
# Elastic Compliance Matrix: (Units=1/GPa)
#
#
# Indices 1 2 3 4 5 6 
#
# 1 0.009034 -0.001318 -0.001156 0.000000 0.000000 0.000000
# 2 -0.001318 0.011931 -0.003881 0.000000 0.000000 0.000000
# 3 -0.001156 -0.003881 0.008990 0.000000 0.000000 0.000000
# 4 0.000000 0.000000 0.000000 0.043895 0.000000 0.000000
# 5 0.000000 0.000000 0.000000 0.000000 0.027053 0.000000
# 6 0.000000 0.000000 0.000000 0.000000 0.000000 0.094507
#
#
# Mechanical properties :
#
#
# Convention : Reuss Voigt Hill
#
# Bulk Modulus (GPa) = 57.99548 59.36540 58.68044
# Shear Modulus (GPa) = 23.37902 31.48525 27.43214
#
# Velocity S-wave (km/s) = 3.30539 3.83586 3.58046
# Velocity P-wave (km/s) = 6.45524 6.88195 6.67201
#
# Compressibility (1/GPa) = 0.01724272
#
# Stress axis : x y z
#
# Youngs Moduli (GPa) = 110.69619 83.81841 111.23797
#
# Poissons Ratio (x) = 0.11050 0.12860
# Poissons Ratio (y) = 0.14593 0.43174
# Poissons Ratio (z) = 0.12798 0.32532
#
# Static dielectric constant tensor:
#      x y z
#    x 3.883170 0.000000 0.000000 
#    y 0.000000 3.767250 0.000000 
#    z 0.000000 0.000000 4.381100 
# 
# 
# High freq. dielectric constant tensor:
#      x y z
#    x 1.837520 0.000000 0.000000 
#    y 0.000000 1.818310 0.000000 
#    z 0.000000 0.000000 1.869490 
# 
# From -- ./inp_files/2146.got.cif
#   From: 2010.03.12/outbox.cif.g09.slc.cpg/sg41_2_cif.got.tgz:2146.got - 2010.04.14 01:55:53.
